MODEL 1
REMARK VINA RESULT:    -4.936      0.000      0.000
REMARK INTER + INTRA:          -5.879
REMARK INTER:                  -5.946
REMARK INTRA:                   0.067
REMARK UNBOUND:                 0.067
REMARK SMILES O=c1c(O)c(-c2ccc(O)c(O)c2)oc2cc(O)cc(O)c12
REMARK SMILES IDX 5 1 3 2 2 3 1 4 22 5 20 6 19 7 17 8 16 9 15 10 14 11 6 12
REMARK SMILES IDX 7 13 8 14 9 15 13 16 11 17 10 18 12 20 4 22 21 24 18 26
REMARK H PARENT 10 19 12 21 4 23 21 25 18 27
REMARK Flexibility Score: inf
ROOT
ATOM      1  C   UNL     1       9.685  -1.012  16.834  1.00  0.00     0.180 A 
ATOM      2  C   UNL     1      11.023  -0.817  17.214  1.00  0.00     0.208 A 
ATOM      3  C   UNL     1      11.339   0.241  18.081  1.00  0.00     0.238 A 
ATOM      4  O   UNL     1      12.548   0.454  18.357  1.00  0.00    -0.285 OA
ATOM      5  C   UNL     1      10.306   1.059  18.601  1.00  0.00     0.111 A 
ATOM      6  C   UNL     1      10.504   2.132  19.521  1.00  0.00     0.134 A 
ATOM      7  C   UNL     1       9.420   2.940  19.885  1.00  0.00     0.093 A 
ATOM      8  C   UNL     1       8.135   2.677  19.414  1.00  0.00     0.123 A 
ATOM      9  C   UNL     1       7.919   1.596  18.556  1.00  0.00     0.094 A 
ATOM     10  C   UNL     1       8.987   0.795  18.145  1.00  0.00     0.146 A 
ATOM     11  O   UNL     1       8.741  -0.209  17.312  1.00  0.00    -0.452 OA
ENDROOT
BRANCH   1  12
ATOM     12  C   UNL     1       9.276  -2.096  15.913  1.00  0.00     0.025 A 
ATOM     13  C   UNL     1       8.222  -2.968  16.231  1.00  0.00     0.016 A 
ATOM     14  C   UNL     1       7.871  -3.998  15.357  1.00  0.00     0.051 A 
ATOM     15  C   UNL     1       8.569  -4.189  14.160  1.00  0.00     0.157 A 
ATOM     16  C   UNL     1       9.994  -2.300  14.724  1.00  0.00     0.062 A 
ATOM     17  C   UNL     1       9.649  -3.331  13.841  1.00  0.00     0.158 A 
BRANCH  15  18
ATOM     18  O   UNL     1       8.165  -5.236  13.328  1.00  0.00    -0.504 OA
ATOM     19  H   UNL     1       7.832  -5.109  12.383  1.00  0.00     0.293 HD
ENDBRANCH  15  18
BRANCH  17  20
ATOM     20  O   UNL     1      10.398  -3.465  12.670  1.00  0.00    -0.504 OA
ATOM     21  H   UNL     1      10.744  -4.346  12.319  1.00  0.00     0.293 HD
ENDBRANCH  17  20
ENDBRANCH   1  12
BRANCH   2  22
ATOM     22  O   UNL     1      12.019  -1.682  16.751  1.00  0.00    -0.502 OA
ATOM     23  H   UNL     1      13.004  -1.454  16.800  1.00  0.00     0.293 HD
ENDBRANCH   2  22
BRANCH   6  24
ATOM     24  O   UNL     1      11.731   2.430  20.125  1.00  0.00    -0.507 OA
ATOM     25  H   UNL     1      12.181   3.332  20.102  1.00  0.00     0.293 HD
ENDBRANCH   6  24
BRANCH   8  26
ATOM     26  O   UNL     1       7.076   3.491  19.810  1.00  0.00    -0.508 OA
ATOM     27  H   UNL     1       6.200   3.507  19.302  1.00  0.00     0.293 HD
ENDBRANCH   8  26
TORSDOF 6
ENDMDL
MODEL 2
REMARK VINA RESULT:    -4.709      1.571      3.392
REMARK INTER + INTRA:          -5.605
REMARK INTER:                  -5.409
REMARK INTRA:                  -0.196
REMARK UNBOUND:                 0.067
REMARK SMILES O=c1c(O)c(-c2ccc(O)c(O)c2)oc2cc(O)cc(O)c12
REMARK SMILES IDX 5 1 3 2 2 3 1 4 22 5 20 6 19 7 17 8 16 9 15 10 14 11 6 12
REMARK SMILES IDX 7 13 8 14 9 15 13 16 11 17 10 18 12 20 4 22 21 24 18 26
REMARK H PARENT 10 19 12 21 4 23 21 25 18 27
REMARK Flexibility Score: inf
ROOT
ATOM      1  C   UNL     1      10.185  -1.428  16.939  1.00  0.00     0.180 A 
ATOM      2  C   UNL     1       9.531  -0.262  17.371  1.00  0.00     0.208 A 
ATOM      3  C   UNL     1      10.169   0.573  18.303  1.00  0.00     0.238 A 
ATOM      4  O   UNL     1       9.546   1.575  18.740  1.00  0.00    -0.285 OA
ATOM      5  C   UNL     1      11.476   0.261  18.750  1.00  0.00     0.111 A 
ATOM      6  C   UNL     1      12.237   1.058  19.658  1.00  0.00     0.134 A 
ATOM      7  C   UNL     1      13.478   0.595  20.112  1.00  0.00     0.093 A 
ATOM      8  C   UNL     1      14.016  -0.602  19.643  1.00  0.00     0.123 A 
ATOM      9  C   UNL     1      13.306  -1.363  18.712  1.00  0.00     0.094 A 
ATOM     10  C   UNL     1      12.048  -0.947  18.270  1.00  0.00     0.146 A 
ATOM     11  O   UNL     1      11.398  -1.712  17.400  1.00  0.00    -0.452 OA
ENDROOT
BRANCH   1  12
ATOM     12  C   UNL     1       9.572  -2.364  15.971  1.00  0.00     0.025 A 
ATOM     13  C   UNL     1       8.417  -3.095  16.290  1.00  0.00     0.016 A 
ATOM     14  C   UNL     1       7.870  -3.989  15.369  1.00  0.00     0.051 A 
ATOM     15  C   UNL     1       8.469  -4.183  14.119  1.00  0.00     0.157 A 
ATOM     16  C   UNL     1      10.188  -2.573  14.727  1.00  0.00     0.062 A 
ATOM     17  C   UNL     1       9.648  -3.468  13.795  1.00  0.00     0.158 A 
BRANCH  15  18
ATOM     18  O   UNL     1       7.871  -5.089  13.241  1.00  0.00    -0.504 OA
ATOM     19  H   UNL     1       6.912  -5.395  13.312  1.00  0.00     0.293 HD
ENDBRANCH  15  18
BRANCH  17  20
ATOM     20  O   UNL     1      10.306  -3.615  12.573  1.00  0.00    -0.504 OA
ATOM     21  H   UNL     1      10.193  -4.411  11.962  1.00  0.00     0.293 HD
ENDBRANCH  17  20
ENDBRANCH   1  12
BRANCH   2  22
ATOM     22  O   UNL     1       8.273   0.069  16.860  1.00  0.00    -0.502 OA
ATOM     23  H   UNL     1       7.605   0.628  17.377  1.00  0.00     0.293 HD
ENDBRANCH   2  22
BRANCH   6  24
ATOM     24  O   UNL     1      11.835   2.315  20.123  1.00  0.00    -0.507 OA
ATOM     25  H   UNL     1      10.877   2.600  20.262  1.00  0.00     0.293 HD
ENDBRANCH   6  24
BRANCH   8  26
ATOM     26  O   UNL     1      15.261  -1.024  20.102  1.00  0.00    -0.508 OA
ATOM     27  H   UNL     1      15.350  -1.691  20.859  1.00  0.00     0.293 HD
ENDBRANCH   8  26
TORSDOF 6
ENDMDL
MODEL 3
REMARK VINA RESULT:    -4.455      2.940      5.342
REMARK INTER + INTRA:          -5.300
REMARK INTER:                  -5.552
REMARK INTRA:                   0.252
REMARK UNBOUND:                 0.067
REMARK SMILES O=c1c(O)c(-c2ccc(O)c(O)c2)oc2cc(O)cc(O)c12
REMARK SMILES IDX 5 1 3 2 2 3 1 4 22 5 20 6 19 7 17 8 16 9 15 10 14 11 6 12
REMARK SMILES IDX 7 13 8 14 9 15 13 16 11 17 10 18 12 20 4 22 21 24 18 26
REMARK H PARENT 10 19 12 21 4 23 21 25 18 27
REMARK Flexibility Score: inf
ROOT
ATOM      1  C   UNL     1      10.817  -0.478  19.044  1.00  0.00     0.180 A 
ATOM      2  C   UNL     1       9.922  -1.293  18.331  1.00  0.00     0.208 A 
ATOM      3  C   UNL     1       8.618  -0.831  18.094  1.00  0.00     0.238 A 
ATOM      4  O   UNL     1       7.801  -1.597  17.520  1.00  0.00    -0.285 OA
ATOM      5  C   UNL     1       8.240   0.464  18.524  1.00  0.00     0.111 A 
ATOM      6  C   UNL     1       6.959   1.054  18.301  1.00  0.00     0.134 A 
ATOM      7  C   UNL     1       6.664   2.301  18.866  1.00  0.00     0.093 A 
ATOM      8  C   UNL     1       7.621   3.008  19.591  1.00  0.00     0.123 A 
ATOM      9  C   UNL     1       8.895   2.466  19.771  1.00  0.00     0.094 A 
ATOM     10  C   UNL     1       9.207   1.207  19.252  1.00  0.00     0.146 A 
ATOM     11  O   UNL     1      10.424   0.719  19.464  1.00  0.00    -0.452 OA
ENDROOT
BRANCH   1  12
ATOM     12  C   UNL     1      12.202  -0.902  19.344  1.00  0.00     0.025 A 
ATOM     13  C   UNL     1      13.269   0.011  19.321  1.00  0.00     0.016 A 
ATOM     14  C   UNL     1      14.570  -0.418  19.585  1.00  0.00     0.051 A 
ATOM     15  C   UNL     1      14.838  -1.763  19.862  1.00  0.00     0.157 A 
ATOM     16  C   UNL     1      12.470  -2.256  19.600  1.00  0.00     0.062 A 
ATOM     17  C   UNL     1      13.773  -2.696  19.865  1.00  0.00     0.158 A 
BRANCH  15  18
ATOM     18  O   UNL     1      16.161  -2.126  20.121  1.00  0.00    -0.504 OA
ATOM     19  H   UNL     1      16.526  -2.309  21.045  1.00  0.00     0.293 HD
ENDBRANCH  15  18
BRANCH  17  20
ATOM     20  O   UNL     1      13.963  -4.055  20.125  1.00  0.00    -0.504 OA
ATOM     21  H   UNL     1      14.806  -4.441  20.524  1.00  0.00     0.293 HD
ENDBRANCH  17  20
ENDBRANCH   1  12
BRANCH   2  22
ATOM     22  O   UNL     1      10.337  -2.537  17.846  1.00  0.00    -0.502 OA
ATOM     23  H   UNL     1       9.705  -3.322  17.749  1.00  0.00     0.293 HD
ENDBRANCH   2  22
BRANCH   6  24
ATOM     24  O   UNL     1       5.957   0.475  17.515  1.00  0.00    -0.507 OA
ATOM     25  H   UNL     1       5.019   0.276  17.829  1.00  0.00     0.293 HD
ENDBRANCH   6  24
BRANCH   8  26
ATOM     26  O   UNL     1       7.299   4.254  20.125  1.00  0.00    -0.508 OA
ATOM     27  H   UNL     1       6.372   4.651  20.024  1.00  0.00     0.293 HD
ENDBRANCH   8  26
TORSDOF 6
ENDMDL
MODEL 4
REMARK VINA RESULT:    -4.376      3.521      6.287
REMARK INTER + INTRA:          -5.204
REMARK INTER:                  -5.612
REMARK INTRA:                   0.408
REMARK UNBOUND:                 0.067
REMARK SMILES O=c1c(O)c(-c2ccc(O)c(O)c2)oc2cc(O)cc(O)c12
REMARK SMILES IDX 5 1 3 2 2 3 1 4 22 5 20 6 19 7 17 8 16 9 15 10 14 11 6 12
REMARK SMILES IDX 7 13 8 14 9 15 13 16 11 17 10 18 12 20 4 22 21 24 18 26
REMARK H PARENT 10 19 12 21 4 23 21 25 18 27
REMARK Flexibility Score: inf
ROOT
ATOM      1  C   UNL     1      10.899  -1.544  18.981  1.00  0.00     0.180 A 
ATOM      2  C   UNL     1      10.261  -0.495  18.299  1.00  0.00     0.208 A 
ATOM      3  C   UNL     1       8.879  -0.574  18.065  1.00  0.00     0.238 A 
ATOM      4  O   UNL     1       8.329   0.334  17.389  1.00  0.00    -0.285 OA
ATOM      5  C   UNL     1       8.141  -1.674  18.564  1.00  0.00     0.111 A 
ATOM      6  C   UNL     1       6.729  -1.837  18.426  1.00  0.00     0.134 A 
ATOM      7  C   UNL     1       6.123  -3.019  18.868  1.00  0.00     0.093 A 
ATOM      8  C   UNL     1       6.863  -4.016  19.500  1.00  0.00     0.123 A 
ATOM      9  C   UNL     1       8.236  -3.844  19.691  1.00  0.00     0.094 A 
ATOM     10  C   UNL     1       8.876  -2.693  19.226  1.00  0.00     0.146 A 
ATOM     11  O   UNL     1      10.186  -2.580  19.410  1.00  0.00    -0.452 OA
ENDROOT
BRANCH   1  12
ATOM     12  C   UNL     1      12.354  -1.540  19.253  1.00  0.00     0.025 A 
ATOM     13  C   UNL     1      13.115  -0.365  19.145  1.00  0.00     0.016 A 
ATOM     14  C   UNL     1      14.490  -0.391  19.384  1.00  0.00     0.051 A 
ATOM     15  C   UNL     1      15.135  -1.586  19.717  1.00  0.00     0.157 A 
ATOM     16  C   UNL     1      13.002  -2.745  19.565  1.00  0.00     0.062 A 
ATOM     17  C   UNL     1      14.381  -2.781  19.805  1.00  0.00     0.158 A 
BRANCH  15  18
ATOM     18  O   UNL     1      16.512  -1.543  19.947  1.00  0.00    -0.504 OA
ATOM     19  H   UNL     1      17.014  -0.711  20.217  1.00  0.00     0.293 HD
ENDBRANCH  15  18
BRANCH  17  20
ATOM     20  O   UNL     1      14.956  -4.013  20.125  1.00  0.00    -0.504 OA
ATOM     21  H   UNL     1      15.950  -4.184  20.143  1.00  0.00     0.293 HD
ENDBRANCH  17  20
ENDBRANCH   1  12
BRANCH   2  22
ATOM     22  O   UNL     1      10.993   0.620  17.881  1.00  0.00    -0.502 OA
ATOM     23  H   UNL     1      11.995   0.591  17.737  1.00  0.00     0.293 HD
ENDBRANCH   2  22
BRANCH   6  24
ATOM     24  O   UNL     1       5.878  -0.865  17.889  1.00  0.00    -0.507 OA
ATOM     25  H   UNL     1       4.950  -0.661  18.226  1.00  0.00     0.293 HD
ENDBRANCH   6  24
BRANCH   8  26
ATOM     26  O   UNL     1       6.225  -5.172  19.944  1.00  0.00    -0.508 OA
ATOM     27  H   UNL     1       5.819  -5.836  19.295  1.00  0.00     0.293 HD
ENDBRANCH   8  26
TORSDOF 6
ENDMDL
MODEL 5
REMARK VINA RESULT:    -3.711      3.319      6.595
REMARK INTER + INTRA:          -4.403
REMARK INTER:                  -4.483
REMARK INTRA:                   0.080
REMARK UNBOUND:                 0.067
REMARK SMILES O=c1c(O)c(-c2ccc(O)c(O)c2)oc2cc(O)cc(O)c12
REMARK SMILES IDX 5 1 3 2 2 3 1 4 22 5 20 6 19 7 17 8 16 9 15 10 14 11 6 12
REMARK SMILES IDX 7 13 8 14 9 15 13 16 11 17 10 18 12 20 4 22 21 24 18 26
REMARK H PARENT 10 19 12 21 4 23 21 25 18 27
REMARK Flexibility Score: inf
ROOT
ATOM      1  C   UNL     1       9.473   0.342  19.211  1.00  0.00     0.180 A 
ATOM      2  C   UNL     1       9.014  -0.974  19.039  1.00  0.00     0.208 A 
ATOM      3  C   UNL     1       9.950  -2.018  18.955  1.00  0.00     0.238 A 
ATOM      4  O   UNL     1       9.534  -3.183  18.727  1.00  0.00    -0.285 OA
ATOM      5  C   UNL     1      11.331  -1.739  19.100  1.00  0.00     0.111 A 
ATOM      6  C   UNL     1      12.365  -2.723  19.077  1.00  0.00     0.134 A 
ATOM      7  C   UNL     1      13.705  -2.319  19.124  1.00  0.00     0.093 A 
ATOM      8  C   UNL     1      14.048  -0.975  19.257  1.00  0.00     0.123 A 
ATOM      9  C   UNL     1      13.044  -0.008  19.336  1.00  0.00     0.094 A 
ATOM     10  C   UNL     1      11.699  -0.376  19.253  1.00  0.00     0.146 A 
ATOM     11  O   UNL     1      10.777   0.577  19.311  1.00  0.00    -0.452 OA
ENDROOT
BRANCH   1  12
ATOM     12  C   UNL     1       8.549   1.496  19.293  1.00  0.00     0.025 A 
ATOM     13  C   UNL     1       7.385   1.446  20.076  1.00  0.00     0.016 A 
ATOM     14  C   UNL     1       6.517   2.538  20.119  1.00  0.00     0.051 A 
ATOM     15  C   UNL     1       6.782   3.692  19.374  1.00  0.00     0.157 A 
ATOM     16  C   UNL     1       8.807   2.643  18.527  1.00  0.00     0.062 A 
ATOM     17  C   UNL     1       7.942   3.744  18.563  1.00  0.00     0.158 A 
BRANCH  15  18
ATOM     18  O   UNL     1       5.876   4.752  19.464  1.00  0.00    -0.504 OA
ATOM     19  H   UNL     1       5.080   4.867  18.855  1.00  0.00     0.293 HD
ENDBRANCH  15  18
BRANCH  17  20
ATOM     20  O   UNL     1       8.269   4.857  17.787  1.00  0.00    -0.504 OA
ATOM     21  H   UNL     1       7.627   5.607  17.575  1.00  0.00     0.293 HD
ENDBRANCH  17  20
ENDBRANCH   1  12
BRANCH   2  22
ATOM     22  O   UNL     1       7.643  -1.238  18.975  1.00  0.00    -0.502 OA
ATOM     23  H   UNL     1       7.002  -0.662  18.443  1.00  0.00     0.293 HD
ENDBRANCH   2  22
BRANCH   6  24
ATOM     24  O   UNL     1      12.133  -4.102  19.036  1.00  0.00    -0.507 OA
ATOM     25  H   UNL     1      11.225  -4.533  18.963  1.00  0.00     0.293 HD
ENDBRANCH   6  24
BRANCH   8  26
ATOM     26  O   UNL     1      15.391  -0.610  19.319  1.00  0.00    -0.508 OA
ATOM     27  H   UNL     1      16.126  -1.302  19.396  1.00  0.00     0.293 HD
ENDBRANCH   8  26
TORSDOF 6
ENDMDL
MODEL 6
REMARK VINA RESULT:    -3.364     10.739     13.721
REMARK INTER + INTRA:          -3.986
REMARK INTER:                  -3.723
REMARK INTRA:                  -0.263
REMARK UNBOUND:                 0.067
REMARK SMILES O=c1c(O)c(-c2ccc(O)c(O)c2)oc2cc(O)cc(O)c12
REMARK SMILES IDX 5 1 3 2 2 3 1 4 22 5 20 6 19 7 17 8 16 9 15 10 14 11 6 12
REMARK SMILES IDX 7 13 8 14 9 15 13 16 11 17 10 18 12 20 4 22 21 24 18 26
REMARK H PARENT 10 19 12 21 4 23 21 25 18 27
REMARK Flexibility Score: inf
ROOT
ATOM      1  C   UNL     1      19.763  -6.195  18.457  1.00  0.00     0.180 A 
ATOM      2  C   UNL     1      18.736  -6.737  19.248  1.00  0.00     0.208 A 
ATOM      3  C   UNL     1      18.460  -8.111  19.161  1.00  0.00     0.238 A 
ATOM      4  O   UNL     1      17.491  -8.574  19.816  1.00  0.00    -0.285 OA
ATOM      5  C   UNL     1      19.251  -8.936  18.325  1.00  0.00     0.111 A 
ATOM      6  C   UNL     1      19.091 -10.349  18.191  1.00  0.00     0.134 A 
ATOM      7  C   UNL     1      19.862 -11.047  17.254  1.00  0.00     0.093 A 
ATOM      8  C   UNL     1      20.831 -10.397  16.491  1.00  0.00     0.123 A 
ATOM      9  C   UNL     1      21.035  -9.025  16.652  1.00  0.00     0.094 A 
ATOM     10  C   UNL     1      20.254  -8.295  17.552  1.00  0.00     0.146 A 
ATOM     11  O   UNL     1      20.467  -6.988  17.658  1.00  0.00    -0.452 OA
ENDROOT
BRANCH   1  12
ATOM     12  C   UNL     1      20.102  -4.755  18.484  1.00  0.00     0.025 A 
ATOM     13  C   UNL     1      21.224  -4.280  19.183  1.00  0.00     0.016 A 
ATOM     14  C   UNL     1      21.510  -2.914  19.213  1.00  0.00     0.051 A 
ATOM     15  C   UNL     1      20.679  -1.995  18.563  1.00  0.00     0.157 A 
ATOM     16  C   UNL     1      19.254  -3.833  17.850  1.00  0.00     0.062 A 
ATOM     17  C   UNL     1      19.533  -2.461  17.875  1.00  0.00     0.158 A 
BRANCH  15  18
ATOM     18  O   UNL     1      21.023  -0.643  18.628  1.00  0.00    -0.504 OA
ATOM     19  H   UNL     1      20.425   0.074  19.009  1.00  0.00     0.293 HD
ENDBRANCH  15  18
BRANCH  17  20
ATOM     20  O   UNL     1      18.653  -1.604  17.211  1.00  0.00    -0.504 OA
ATOM     21  H   UNL     1      18.574  -1.543  16.206  1.00  0.00     0.293 HD
ENDBRANCH  17  20
ENDBRANCH   1  12
BRANCH   2  22
ATOM     22  O   UNL     1      18.017  -5.919  20.125  1.00  0.00    -0.502 OA
ATOM     23  H   UNL     1      18.146  -5.951  21.129  1.00  0.00     0.293 HD
ENDBRANCH   2  22
BRANCH   6  24
ATOM     24  O   UNL     1      18.215 -11.115  18.968  1.00  0.00    -0.507 OA
ATOM     25  H   UNL     1      17.573 -11.804  18.605  1.00  0.00     0.293 HD
ENDBRANCH   6  24
BRANCH   8  26
ATOM     26  O   UNL     1      21.593 -11.125  15.580  1.00  0.00    -0.508 OA
ATOM     27  H   UNL     1      22.379 -11.690  15.877  1.00  0.00     0.293 HD
ENDBRANCH   8  26
TORSDOF 6
ENDMDL
MODEL 7
REMARK VINA RESULT:    -3.227      2.261      3.916
REMARK INTER + INTRA:          -3.820
REMARK INTER:                  -3.674
REMARK INTRA:                  -0.146
REMARK UNBOUND:                 0.067
REMARK SMILES O=c1c(O)c(-c2ccc(O)c(O)c2)oc2cc(O)cc(O)c12
REMARK SMILES IDX 5 1 3 2 2 3 1 4 22 5 20 6 19 7 17 8 16 9 15 10 14 11 6 12
REMARK SMILES IDX 7 13 8 14 9 15 13 16 11 17 10 18 12 20 4 22 21 24 18 26
REMARK H PARENT 10 19 12 21 4 23 21 25 18 27
REMARK Flexibility Score: inf
ROOT
ATOM      1  C   UNL     1       9.642  -2.076  15.345  1.00  0.00     0.180 A 
ATOM      2  C   UNL     1       8.461  -2.579  15.916  1.00  0.00     0.208 A 
ATOM      3  C   UNL     1       8.195  -2.323  17.271  1.00  0.00     0.238 A 
ATOM      4  O   UNL     1       7.174  -2.839  17.793  1.00  0.00    -0.285 OA
ATOM      5  C   UNL     1       9.086  -1.520  18.024  1.00  0.00     0.111 A 
ATOM      6  C   UNL     1       8.896  -1.158  19.392  1.00  0.00     0.134 A 
ATOM      7  C   UNL     1       9.897  -0.448  20.066  1.00  0.00     0.093 A 
ATOM      8  C   UNL     1      11.052  -0.030  19.406  1.00  0.00     0.123 A 
ATOM      9  C   UNL     1      11.224  -0.331  18.053  1.00  0.00     0.094 A 
ATOM     10  C   UNL     1      10.261  -1.071  17.365  1.00  0.00     0.146 A 
ATOM     11  O   UNL     1      10.475  -1.353  16.085  1.00  0.00    -0.452 OA
ENDROOT
BRANCH   1  12
ATOM     12  C   UNL     1       9.997  -2.316  13.929  1.00  0.00     0.025 A 
ATOM     13  C   UNL     1      10.183  -3.615  13.430  1.00  0.00     0.016 A 
ATOM     14  C   UNL     1      10.541  -3.815  12.096  1.00  0.00     0.051 A 
ATOM     15  C   UNL     1      10.736  -2.728  11.238  1.00  0.00     0.157 A 
ATOM     16  C   UNL     1      10.214  -1.222  13.076  1.00  0.00     0.062 A 
ATOM     17  C   UNL     1      10.574  -1.412  11.736  1.00  0.00     0.158 A 
BRANCH  15  18
ATOM     18  O   UNL     1      11.090  -2.995   9.914  1.00  0.00    -0.504 OA
ATOM     19  H   UNL     1      11.210  -2.285   9.207  1.00  0.00     0.293 HD
ENDBRANCH  15  18
BRANCH  17  20
ATOM     20  O   UNL     1      10.759  -0.278  10.943  1.00  0.00    -0.504 OA
ATOM     21  H   UNL     1      10.814   0.662  11.305  1.00  0.00     0.293 HD
ENDBRANCH  17  20
ENDBRANCH   1  12
BRANCH   2  22
ATOM     22  O   UNL     1       7.556  -3.304  15.136  1.00  0.00    -0.502 OA
ATOM     23  H   UNL     1       7.776  -3.622  14.200  1.00  0.00     0.293 HD
ENDBRANCH   2  22
BRANCH   6  24
ATOM     24  O   UNL     1       7.739  -1.446  20.125  1.00  0.00    -0.507 OA
ATOM     25  H   UNL     1       6.811  -1.509  19.737  1.00  0.00     0.293 HD
ENDBRANCH   6  24
BRANCH   8  26
ATOM     26  O   UNL     1      12.020   0.690  20.102  1.00  0.00    -0.508 OA
ATOM     27  H   UNL     1      12.934   0.871  19.705  1.00  0.00     0.293 HD
ENDBRANCH   8  26
TORSDOF 6
ENDMDL
MODEL 8
REMARK VINA RESULT:    -2.857      3.082      5.685
REMARK INTER + INTRA:          -3.375
REMARK INTER:                  -3.754
REMARK INTRA:                   0.379
REMARK UNBOUND:                 0.067
REMARK SMILES O=c1c(O)c(-c2ccc(O)c(O)c2)oc2cc(O)cc(O)c12
REMARK SMILES IDX 5 1 3 2 2 3 1 4 22 5 20 6 19 7 17 8 16 9 15 10 14 11 6 12
REMARK SMILES IDX 7 13 8 14 9 15 13 16 11 17 10 18 12 20 4 22 21 24 18 26
REMARK H PARENT 10 19 12 21 4 23 21 25 18 27
REMARK Flexibility Score: inf
ROOT
ATOM      1  C   UNL     1      11.622  -0.763  19.063  1.00  0.00     0.180 A 
ATOM      2  C   UNL     1      11.443   0.630  19.042  1.00  0.00     0.208 A 
ATOM      3  C   UNL     1      10.163   1.151  18.791  1.00  0.00     0.238 A 
ATOM      4  O   UNL     1      10.027   2.398  18.701  1.00  0.00    -0.285 OA
ATOM      5  C   UNL     1       9.067   0.272  18.618  1.00  0.00     0.111 A 
ATOM      6  C   UNL     1       7.718   0.687  18.402  1.00  0.00     0.134 A 
ATOM      7  C   UNL     1       6.733  -0.272  18.138  1.00  0.00     0.093 A 
ATOM      8  C   UNL     1       7.032  -1.633  18.145  1.00  0.00     0.123 A 
ATOM      9  C   UNL     1       8.337  -2.055  18.409  1.00  0.00     0.094 A 
ATOM     10  C   UNL     1       9.349  -1.120  18.638  1.00  0.00     0.146 A 
ATOM     11  O   UNL     1      10.581  -1.563  18.865  1.00  0.00    -0.452 OA
ENDROOT
BRANCH   1  12
ATOM     12  C   UNL     1      12.942  -1.385  19.306  1.00  0.00     0.025 A 
ATOM     13  C   UNL     1      13.055  -2.660  19.883  1.00  0.00     0.016 A 
ATOM     14  C   UNL     1      14.313  -3.216  20.125  1.00  0.00     0.051 A 
ATOM     15  C   UNL     1      15.479  -2.510  19.812  1.00  0.00     0.157 A 
ATOM     16  C   UNL     1      14.110  -0.665  19.012  1.00  0.00     0.062 A 
ATOM     17  C   UNL     1      15.377  -1.214  19.252  1.00  0.00     0.158 A 
BRANCH  15  18
ATOM     18  O   UNL     1      16.705  -3.124  20.075  1.00  0.00    -0.504 OA
ATOM     19  H   UNL     1      17.131  -3.815  19.476  1.00  0.00     0.293 HD
ENDBRANCH  15  18
BRANCH  17  20
ATOM     20  O   UNL     1      16.494  -0.445  18.921  1.00  0.00    -0.504 OA
ATOM     21  H   UNL     1      16.801   0.360  19.446  1.00  0.00     0.293 HD
ENDBRANCH  17  20
ENDBRANCH   1  12
BRANCH   2  22
ATOM     22  O   UNL     1      12.523   1.482  19.292  1.00  0.00    -0.502 OA
ATOM     23  H   UNL     1      13.015   1.969  18.553  1.00  0.00     0.293 HD
ENDBRANCH   2  22
BRANCH   6  24
ATOM     24  O   UNL     1       7.289   2.017  18.462  1.00  0.00    -0.507 OA
ATOM     25  H   UNL     1       7.128   2.534  19.312  1.00  0.00     0.293 HD
ENDBRANCH   6  24
BRANCH   8  26
ATOM     26  O   UNL     1       6.024  -2.562  17.896  1.00  0.00    -0.508 OA
ATOM     27  H   UNL     1       5.418  -2.898  18.634  1.00  0.00     0.293 HD
ENDBRANCH   8  26
TORSDOF 6
ENDMDL
MODEL 9
REMARK VINA RESULT:    -2.146     10.384     12.064
REMARK INTER + INTRA:          -2.518
REMARK INTER:                  -2.199
REMARK INTRA:                  -0.319
REMARK UNBOUND:                 0.067
REMARK SMILES O=c1c(O)c(-c2ccc(O)c(O)c2)oc2cc(O)cc(O)c12
REMARK SMILES IDX 5 1 3 2 2 3 1 4 22 5 20 6 19 7 17 8 16 9 15 10 14 11 6 12
REMARK SMILES IDX 7 13 8 14 9 15 13 16 11 17 10 18 12 20 4 22 21 24 18 26
REMARK H PARENT 10 19 12 21 4 23 21 25 18 27
REMARK Flexibility Score: inf
ROOT
ATOM      1  C   UNL     1      19.876  -5.690  19.240  1.00  0.00     0.180 A 
ATOM      2  C   UNL     1      18.571  -5.307  19.589  1.00  0.00     0.208 A 
ATOM      3  C   UNL     1      18.277  -3.942  19.740  1.00  0.00     0.238 A 
ATOM      4  O   UNL     1      17.125  -3.612  20.125  1.00  0.00    -0.285 OA
ATOM      5  C   UNL     1      19.278  -2.974  19.487  1.00  0.00     0.111 A 
ATOM      6  C   UNL     1      19.082  -1.562  19.566  1.00  0.00     0.134 A 
ATOM      7  C   UNL     1      20.174  -0.701  19.398  1.00  0.00     0.093 A 
ATOM      8  C   UNL     1      21.440  -1.196  19.091  1.00  0.00     0.123 A 
ATOM      9  C   UNL     1      21.633  -2.572  18.957  1.00  0.00     0.094 A 
ATOM     10  C   UNL     1      20.572  -3.458  19.157  1.00  0.00     0.146 A 
ATOM     11  O   UNL     1      20.804  -4.760  19.041  1.00  0.00    -0.452 OA
ENDROOT
BRANCH   1  12
ATOM     12  C   UNL     1      20.265  -7.108  19.076  1.00  0.00     0.025 A 
ATOM     13  C   UNL     1      20.867  -7.828  20.121  1.00  0.00     0.016 A 
ATOM     14  C   UNL     1      21.246  -9.158  19.934  1.00  0.00     0.051 A 
ATOM     15  C   UNL     1      21.049  -9.792  18.703  1.00  0.00     0.157 A 
ATOM     16  C   UNL     1      20.087  -7.734  17.833  1.00  0.00     0.062 A 
ATOM     17  C   UNL     1      20.465  -9.068  17.635  1.00  0.00     0.158 A 
BRANCH  15  18
ATOM     18  O   UNL     1      21.447 -11.125  18.583  1.00  0.00    -0.504 OA
ATOM     19  H   UNL     1      20.883 -11.911  18.871  1.00  0.00     0.293 HD
ENDBRANCH  15  18
BRANCH  17  20
ATOM     20  O   UNL     1      20.244  -9.630  16.376  1.00  0.00    -0.504 OA
ATOM     21  H   UNL     1      19.974  -9.100  15.561  1.00  0.00     0.293 HD
ENDBRANCH  17  20
ENDBRANCH   1  12
BRANCH   2  22
ATOM     22  O   UNL     1      17.576  -6.274  19.759  1.00  0.00    -0.502 OA
ATOM     23  H   UNL     1      17.450  -7.045  19.114  1.00  0.00     0.293 HD
ENDBRANCH   2  22
BRANCH   6  24
ATOM     24  O   UNL     1      17.840  -0.954  19.779  1.00  0.00    -0.507 OA
ATOM     25  H   UNL     1      16.964  -1.282  19.401  1.00  0.00     0.293 HD
ENDBRANCH   6  24
BRANCH   8  26
ATOM     26  O   UNL     1      22.501  -0.310  18.913  1.00  0.00    -0.508 OA
ATOM     27  H   UNL     1      23.440  -0.538  19.218  1.00  0.00     0.293 HD
ENDBRANCH   8  26
TORSDOF 6
ENDMDL
