MODEL 1
REMARK VINA RESULT:    -3.626      0.000      0.000
REMARK INTER + INTRA:          -6.283
REMARK INTER:                  -5.534
REMARK INTRA:                  -0.749
REMARK UNBOUND:                -0.749
REMARK SMILES O=C([O-])CCCCCCCCC(=O)[O-]
REMARK SMILES IDX 7 1 6 2 5 3 4 4 2 5 1 6 3 7 8 8 9 9 10 10 11 11 12 12 13 13
REMARK SMILES IDX 14 14
REMARK H PARENT
REMARK Flexibility Score: inf
ROOT
ATOM      1  C   UNL     1      17.488  14.812  15.452  1.00  0.00     0.000 C 
ENDROOT
BRANCH   1   2
ATOM      2  C   UNL     1      18.992  14.617  15.699  1.00  0.00     0.000 C 
BRANCH   2   3
ATOM      3  C   UNL     1      19.296  13.371  16.549  1.00  0.00     0.006 C 
BRANCH   3   4
ATOM      4  C   UNL     1      20.211  13.691  17.739  1.00  0.00     0.053 C 
BRANCH   4   5
ATOM      5  C   UNL     1      20.852  12.455  18.292  1.00  0.00     0.041 C 
ATOM      6  O   UNL     1      21.860  12.545  19.042  1.00  0.00    -0.550 OA
ATOM      7  O   UNL     1      20.357  11.203  17.950  1.00  0.00    -0.550 OA
ENDBRANCH   4   5
ENDBRANCH   3   4
ENDBRANCH   2   3
ENDBRANCH   1   2
BRANCH   1   8
ATOM      8  C   UNL     1      16.871  15.878  16.370  1.00  0.00     0.000 C 
BRANCH   8   9
ATOM      9  C   UNL     1      17.765  17.122  16.445  1.00  0.00     0.000 C 
BRANCH   9  10
ATOM     10  C   UNL     1      17.747  17.729  17.852  1.00  0.00     0.006 C 
BRANCH  10  11
ATOM     11  C   UNL     1      18.638  16.929  18.807  1.00  0.00     0.053 C 
BRANCH  11  12
ATOM     12  C   UNL     1      17.879  16.552  20.040  1.00  0.00     0.041 C 
ATOM     13  O   UNL     1      18.183  15.511  20.679  1.00  0.00    -0.550 OA
ATOM     14  O   UNL     1      16.802  17.325  20.457  1.00  0.00    -0.550 OA
ENDBRANCH  11  12
ENDBRANCH  10  11
ENDBRANCH   9  10
ENDBRANCH   8   9
ENDBRANCH   1   8
TORSDOF 9
ENDMDL
MODEL 2
REMARK VINA RESULT:    -3.546      0.969      4.419
REMARK INTER + INTRA:          -6.160
REMARK INTER:                  -5.253
REMARK INTRA:                  -0.907
REMARK UNBOUND:                -0.749
REMARK SMILES O=C([O-])CCCCCCCCC(=O)[O-]
REMARK SMILES IDX 7 1 6 2 5 3 4 4 2 5 1 6 3 7 8 8 9 9 10 10 11 11 12 12 13 13
REMARK SMILES IDX 14 14
REMARK H PARENT
REMARK Flexibility Score: inf
ROOT
ATOM      1  C   UNL     1      16.982  15.712  16.382  1.00  0.00     0.000 C 
ENDROOT
BRANCH   1   2
ATOM      2  C   UNL     1      17.840  16.986  16.447  1.00  0.00     0.000 C 
BRANCH   2   3
ATOM      3  C   UNL     1      18.186  17.393  17.889  1.00  0.00     0.006 C 
BRANCH   3   4
ATOM      4  C   UNL     1      17.557  16.450  18.924  1.00  0.00     0.053 C 
BRANCH   4   5
ATOM      5  C   UNL     1      18.598  15.787  19.775  1.00  0.00     0.041 C 
ATOM      6  O   UNL     1      18.336  15.469  20.964  1.00  0.00    -0.550 OA
ATOM      7  O   UNL     1      19.867  15.553  19.263  1.00  0.00    -0.550 OA
ENDBRANCH   4   5
ENDBRANCH   3   4
ENDBRANCH   2   3
ENDBRANCH   1   2
BRANCH   1   8
ATOM      8  C   UNL     1      17.734  14.524  15.764  1.00  0.00     0.000 C 
BRANCH   8   9
ATOM      9  C   UNL     1      19.161  14.923  15.368  1.00  0.00     0.000 C 
BRANCH   9  10
ATOM     10  C   UNL     1      20.194  14.003  16.029  1.00  0.00     0.006 C 
BRANCH  10  11
ATOM     11  C   UNL     1      19.507  12.904  16.847  1.00  0.00     0.053 C 
BRANCH  11  12
ATOM     12  C   UNL     1      20.496  12.217  17.735  1.00  0.00     0.041 C 
ATOM     13  O   UNL     1      20.306  11.025  18.092  1.00  0.00    -0.550 OA
ATOM     14  O   UNL     1      21.603  12.910  18.209  1.00  0.00    -0.550 OA
ENDBRANCH  11  12
ENDBRANCH  10  11
ENDBRANCH   9  10
ENDBRANCH   8   9
ENDBRANCH   1   8
TORSDOF 9
ENDMDL
MODEL 3
REMARK VINA RESULT:    -3.544      2.316      4.198
REMARK INTER + INTRA:          -6.157
REMARK INTER:                  -5.377
REMARK INTRA:                  -0.780
REMARK UNBOUND:                -0.749
REMARK SMILES O=C([O-])CCCCCCCCC(=O)[O-]
REMARK SMILES IDX 7 1 6 2 5 3 4 4 2 5 1 6 3 7 8 8 9 9 10 10 11 11 12 12 13 13
REMARK SMILES IDX 14 14
REMARK H PARENT
REMARK Flexibility Score: inf
ROOT
ATOM      1  C   UNL     1      19.289  13.013  16.445  1.00  0.00     0.000 C 
ENDROOT
BRANCH   1   2
ATOM      2  C   UNL     1      19.048  14.441  15.930  1.00  0.00     0.000 C 
BRANCH   2   3
ATOM      3  C   UNL     1      17.580  14.693  15.545  1.00  0.00     0.006 C 
BRANCH   3   4
ATOM      4  C   UNL     1      16.943  15.805  16.389  1.00  0.00     0.053 C 
BRANCH   4   5
ATOM      5  C   UNL     1      17.577  17.136  16.121  1.00  0.00     0.041 C 
ATOM      6  O   UNL     1      17.782  17.942  17.066  1.00  0.00    -0.550 OA
ATOM      7  O   UNL     1      17.910  17.498  14.822  1.00  0.00    -0.550 OA
ENDBRANCH   4   5
ENDBRANCH   3   4
ENDBRANCH   2   3
ENDBRANCH   1   2
BRANCH   1   8
ATOM      8  C   UNL     1      20.196  12.977  17.684  1.00  0.00     0.000 C 
BRANCH   8   9
ATOM      9  C   UNL     1      20.510  14.395  18.176  1.00  0.00     0.000 C 
BRANCH   9  10
ATOM     10  C   UNL     1      19.958  14.623  19.588  1.00  0.00     0.006 C 
BRANCH  10  11
ATOM     11  C   UNL     1      18.827  15.657  19.576  1.00  0.00     0.053 C 
BRANCH  11  12
ATOM     12  C   UNL     1      18.419  16.002  20.973  1.00  0.00     0.041 C 
ATOM     13  O   UNL     1      17.417  16.736  21.178  1.00  0.00    -0.550 OA
ATOM     14  O   UNL     1      19.176  15.555  22.050  1.00  0.00    -0.550 OA
ENDBRANCH  11  12
ENDBRANCH  10  11
ENDBRANCH   9  10
ENDBRANCH   8   9
ENDBRANCH   1   8
TORSDOF 9
ENDMDL
MODEL 4
REMARK VINA RESULT:    -3.539      2.412      4.603
REMARK INTER + INTRA:          -6.150
REMARK INTER:                  -5.351
REMARK INTRA:                  -0.800
REMARK UNBOUND:                -0.749
REMARK SMILES O=C([O-])CCCCCCCCC(=O)[O-]
REMARK SMILES IDX 7 1 6 2 5 3 4 4 2 5 1 6 3 7 8 8 9 9 10 10 11 11 12 12 13 13
REMARK SMILES IDX 14 14
REMARK H PARENT
REMARK Flexibility Score: inf
ROOT
ATOM      1  C   UNL     1      20.936  12.598  18.381  1.00  0.00     0.000 C 
ENDROOT
BRANCH   1   2
ATOM      2  C   UNL     1      21.015  14.100  18.700  1.00  0.00     0.000 C 
BRANCH   2   3
ATOM      3  C   UNL     1      19.980  14.538  19.750  1.00  0.00     0.006 C 
BRANCH   3   4
ATOM      4  C   UNL     1      18.981  15.558  19.189  1.00  0.00     0.053 C 
BRANCH   4   5
ATOM      5  C   UNL     1      18.070  16.087  20.255  1.00  0.00     0.041 C 
ATOM      6  O   UNL     1      18.094  15.592  21.412  1.00  0.00    -0.550 OA
ATOM      7  O   UNL     1      17.170  17.103  19.959  1.00  0.00    -0.550 OA
ENDBRANCH   4   5
ENDBRANCH   3   4
ENDBRANCH   2   3
ENDBRANCH   1   2
BRANCH   1   8
ATOM      8  C   UNL     1      19.858  12.272  17.337  1.00  0.00     0.000 C 
BRANCH   8   9
ATOM      9  C   UNL     1      19.815  13.343  16.240  1.00  0.00     0.000 C 
BRANCH   9  10
ATOM     10  C   UNL     1      18.370  13.741  15.915  1.00  0.00     0.006 C 
BRANCH  10  11
ATOM     11  C   UNL     1      18.316  15.120  15.252  1.00  0.00     0.053 C 
BRANCH  11  12
ATOM     12  C   UNL     1      17.353  16.011  15.972  1.00  0.00     0.041 C 
ATOM     13  O   UNL     1      16.310  15.531  16.487  1.00  0.00    -0.550 OA
ATOM     14  O   UNL     1      17.584  17.379  16.032  1.00  0.00    -0.550 OA
ENDBRANCH  11  12
ENDBRANCH  10  11
ENDBRANCH   9  10
ENDBRANCH   8   9
ENDBRANCH   1   8
TORSDOF 9
ENDMDL
MODEL 5
REMARK VINA RESULT:    -3.518      1.174      4.489
REMARK INTER + INTRA:          -6.117
REMARK INTER:                  -5.398
REMARK INTRA:                  -0.719
REMARK UNBOUND:                -0.749
REMARK SMILES O=C([O-])CCCCCCCCC(=O)[O-]
REMARK SMILES IDX 7 1 6 2 5 3 4 4 2 5 1 6 3 7 8 8 9 9 10 10 11 11 12 12 13 13
REMARK SMILES IDX 14 14
REMARK H PARENT
REMARK Flexibility Score: inf
ROOT
ATOM      1  C   UNL     1      17.524  16.995  16.312  1.00  0.00     0.000 C 
ENDROOT
BRANCH   1   2
ATOM      2  C   UNL     1      17.808  17.637  17.679  1.00  0.00     0.000 C 
BRANCH   2   3
ATOM      3  C   UNL     1      18.258  16.611  18.734  1.00  0.00     0.006 C 
BRANCH   3   4
ATOM      4  C   UNL     1      17.429  16.705  20.022  1.00  0.00     0.053 C 
BRANCH   4   5
ATOM      5  C   UNL     1      18.025  15.884  21.125  1.00  0.00     0.041 C 
ATOM      6  O   UNL     1      17.721  16.116  22.324  1.00  0.00    -0.550 OA
ATOM      7  O   UNL     1      18.944  14.885  20.828  1.00  0.00    -0.550 OA
ENDBRANCH   4   5
ENDBRANCH   3   4
ENDBRANCH   2   3
ENDBRANCH   1   2
BRANCH   1   8
ATOM      8  C   UNL     1      16.866  15.612  16.435  1.00  0.00     0.000 C 
BRANCH   8   9
ATOM      9  C   UNL     1      17.647  14.560  15.637  1.00  0.00     0.000 C 
BRANCH   9  10
ATOM     10  C   UNL     1      19.132  14.930  15.544  1.00  0.00     0.006 C 
BRANCH  10  11
ATOM     11  C   UNL     1      20.018  13.688  15.684  1.00  0.00     0.053 C 
BRANCH  11  12
ATOM     12  C   UNL     1      19.853  13.078  17.040  1.00  0.00     0.041 C 
ATOM     13  O   UNL     1      20.231  13.701  18.066  1.00  0.00    -0.550 OA
ATOM     14  O   UNL     1      19.325  11.799  17.167  1.00  0.00    -0.550 OA
ENDBRANCH  11  12
ENDBRANCH  10  11
ENDBRANCH   9  10
ENDBRANCH   8   9
ENDBRANCH   1   8
TORSDOF 9
ENDMDL
MODEL 6
REMARK VINA RESULT:    -3.511      1.855      4.668
REMARK INTER + INTRA:          -6.107
REMARK INTER:                  -5.251
REMARK INTRA:                  -0.856
REMARK UNBOUND:                -0.749
REMARK SMILES O=C([O-])CCCCCCCCC(=O)[O-]
REMARK SMILES IDX 7 1 6 2 5 3 4 4 2 5 1 6 3 7 8 8 9 9 10 10 11 11 12 12 13 13
REMARK SMILES IDX 14 14
REMARK H PARENT
REMARK Flexibility Score: inf
ROOT
ATOM      1  C   UNL     1      19.008  14.587  15.718  1.00  0.00     0.000 C 
ENDROOT
BRANCH   1   2
ATOM      2  C   UNL     1      17.516  14.868  15.483  1.00  0.00     0.000 C 
BRANCH   2   3
ATOM      3  C   UNL     1      16.969  15.972  16.405  1.00  0.00     0.006 C 
BRANCH   3   4
ATOM      4  C   UNL     1      17.830  17.241  16.363  1.00  0.00     0.053 C 
BRANCH   4   5
ATOM      5  C   UNL     1      17.789  17.982  17.665  1.00  0.00     0.041 C 
ATOM      6  O   UNL     1      17.408  17.400  18.714  1.00  0.00    -0.550 OA
ATOM      7  O   UNL     1      18.138  19.326  17.710  1.00  0.00    -0.550 OA
ENDBRANCH   4   5
ENDBRANCH   3   4
ENDBRANCH   2   3
ENDBRANCH   1   2
BRANCH   1   8
ATOM      8  C   UNL     1      19.262  13.180  16.280  1.00  0.00     0.000 C 
BRANCH   8   9
ATOM      9  C   UNL     1      20.019  13.250  17.613  1.00  0.00     0.000 C 
BRANCH   9  10
ATOM     10  C   UNL     1      20.125  14.696  18.110  1.00  0.00     0.006 C 
BRANCH  10  11
ATOM     11  C   UNL     1      19.668  14.811  19.568  1.00  0.00     0.053 C 
BRANCH  11  12
ATOM     12  C   UNL     1      20.749  14.351  20.494  1.00  0.00     0.041 C 
ATOM     13  O   UNL     1      20.456  13.793  21.583  1.00  0.00    -0.550 OA
ATOM     14  O   UNL     1      22.082  14.583  20.176  1.00  0.00    -0.550 OA
ENDBRANCH  11  12
ENDBRANCH  10  11
ENDBRANCH   9  10
ENDBRANCH   8   9
ENDBRANCH   1   8
TORSDOF 9
ENDMDL
MODEL 7
REMARK VINA RESULT:    -3.502      2.816      4.111
REMARK INTER + INTRA:          -6.094
REMARK INTER:                  -5.283
REMARK INTRA:                  -0.811
REMARK UNBOUND:                -0.749
REMARK SMILES O=C([O-])CCCCCCCCC(=O)[O-]
REMARK SMILES IDX 7 1 6 2 5 3 4 4 2 5 1 6 3 7 8 8 9 9 10 10 11 11 12 12 13 13
REMARK SMILES IDX 14 14
REMARK H PARENT
REMARK Flexibility Score: inf
ROOT
ATOM      1  C   UNL     1      20.453  12.900  17.980  1.00  0.00     0.000 C 
ENDROOT
BRANCH   1   2
ATOM      2  C   UNL     1      19.481  12.700  16.806  1.00  0.00     0.000 C 
BRANCH   2   3
ATOM      3  C   UNL     1      19.282  13.980  15.978  1.00  0.00     0.006 C 
BRANCH   3   4
ATOM      4  C   UNL     1      17.798  14.327  15.796  1.00  0.00     0.053 C 
BRANCH   4   5
ATOM      5  C   UNL     1      17.617  15.609  15.041  1.00  0.00     0.041 C 
ATOM      6  O   UNL     1      17.758  15.635  13.791  1.00  0.00    -0.550 OA
ATOM      7  O   UNL     1      17.326  16.782  15.726  1.00  0.00    -0.550 OA
ENDBRANCH   4   5
ENDBRANCH   3   4
ENDBRANCH   2   3
ENDBRANCH   1   2
BRANCH   1   8
ATOM      8  C   UNL     1      20.490  14.354  18.475  1.00  0.00     0.000 C 
BRANCH   8   9
ATOM      9  C   UNL     1      20.191  14.431  19.977  1.00  0.00     0.000 C 
BRANCH   9  10
ATOM     10  C   UNL     1      18.965  15.310  20.250  1.00  0.00     0.006 C 
BRANCH  10  11
ATOM     11  C   UNL     1      18.549  16.079  18.992  1.00  0.00     0.053 C 
BRANCH  11  12
ATOM     12  C   UNL     1      17.840  17.343  19.362  1.00  0.00     0.041 C 
ATOM     13  O   UNL     1      16.952  17.334  20.255  1.00  0.00    -0.550 OA
ATOM     14  O   UNL     1      18.123  18.522  18.685  1.00  0.00    -0.550 OA
ENDBRANCH  11  12
ENDBRANCH  10  11
ENDBRANCH   9  10
ENDBRANCH   8   9
ENDBRANCH   1   8
TORSDOF 9
ENDMDL
MODEL 8
REMARK VINA RESULT:    -3.494      2.734      4.704
REMARK INTER + INTRA:          -6.081
REMARK INTER:                  -5.175
REMARK INTRA:                  -0.906
REMARK UNBOUND:                -0.749
REMARK SMILES O=C([O-])CCCCCCCCC(=O)[O-]
REMARK SMILES IDX 7 1 6 2 5 3 4 4 2 5 1 6 3 7 8 8 9 9 10 10 11 11 12 12 13 13
REMARK SMILES IDX 14 14
REMARK H PARENT
REMARK Flexibility Score: inf
ROOT
ATOM      1  C   UNL     1      18.387  17.014  17.710  1.00  0.00     0.000 C 
ENDROOT
BRANCH   1   2
ATOM      2  C   UNL     1      17.287  17.057  16.636  1.00  0.00     0.000 C 
BRANCH   2   3
ATOM      3  C   UNL     1      16.776  15.657  16.256  1.00  0.00     0.006 C 
BRANCH   3   4
ATOM      4  C   UNL     1      17.871  14.795  15.615  1.00  0.00     0.053 C 
BRANCH   4   5
ATOM      5  C   UNL     1      18.453  15.452  14.400  1.00  0.00     0.041 C 
ATOM      6  O   UNL     1      19.672  15.765  14.370  1.00  0.00    -0.550 OA
ATOM      7  O   UNL     1      17.639  15.749  13.314  1.00  0.00    -0.550 OA
ENDBRANCH   4   5
ENDBRANCH   3   4
ENDBRANCH   2   3
ENDBRANCH   1   2
BRANCH   1   8
ATOM      8  C   UNL     1      17.873  16.495  19.061  1.00  0.00     0.000 C 
BRANCH   8   9
ATOM      9  C   UNL     1      18.874  15.518  19.690  1.00  0.00     0.000 C 
BRANCH   9  10
ATOM     10  C   UNL     1      19.980  15.147  18.695  1.00  0.00     0.006 C 
BRANCH  10  11
ATOM     11  C   UNL     1      20.389  13.679  18.851  1.00  0.00     0.053 C 
BRANCH  11  12
ATOM     12  C   UNL     1      20.352  12.982  17.527  1.00  0.00     0.041 C 
ATOM     13  O   UNL     1      19.579  12.005  17.346  1.00  0.00    -0.550 OA
ATOM     14  O   UNL     1      21.209  13.380  16.509  1.00  0.00    -0.550 OA
ENDBRANCH  11  12
ENDBRANCH  10  11
ENDBRANCH   9  10
ENDBRANCH   8   9
ENDBRANCH   1   8
TORSDOF 9
ENDMDL
MODEL 9
REMARK VINA RESULT:    -3.439      1.914      3.093
REMARK INTER + INTRA:          -5.997
REMARK INTER:                  -5.107
REMARK INTRA:                  -0.890
REMARK UNBOUND:                -0.749
REMARK SMILES O=C([O-])CCCCCCCCC(=O)[O-]
REMARK SMILES IDX 7 1 6 2 5 3 4 4 2 5 1 6 3 7 8 8 9 9 10 10 11 11 12 12 13 13
REMARK SMILES IDX 14 14
REMARK H PARENT
REMARK Flexibility Score: inf
ROOT
ATOM      1  C   UNL     1      20.207  13.935  15.754  1.00  0.00     0.000 C 
ENDROOT
BRANCH   1   2
ATOM      2  C   UNL     1      19.649  12.965  16.808  1.00  0.00     0.000 C 
BRANCH   2   3
ATOM      3  C   UNL     1      20.350  13.104  18.171  1.00  0.00     0.006 C 
BRANCH   3   4
ATOM      4  C   UNL     1      20.312  14.545  18.697  1.00  0.00     0.053 C 
BRANCH   4   5
ATOM      5  C   UNL     1      19.874  14.600  20.129  1.00  0.00     0.041 C 
ATOM      6  O   UNL     1      18.815  15.204  20.446  1.00  0.00    -0.550 OA
ATOM      7  O   UNL     1      20.654  14.014  21.117  1.00  0.00    -0.550 OA
ENDBRANCH   4   5
ENDBRANCH   3   4
ENDBRANCH   2   3
ENDBRANCH   1   2
BRANCH   1   8
ATOM      8  C   UNL     1      19.119  14.826  15.137  1.00  0.00     0.000 C 
BRANCH   8   9
ATOM      9  C   UNL     1      17.749  14.531  15.761  1.00  0.00     0.000 C 
BRANCH   9  10
ATOM     10  C   UNL     1      16.993  15.829  16.066  1.00  0.00     0.006 C 
BRANCH  10  11
ATOM     11  C   UNL     1      17.346  16.356  17.461  1.00  0.00     0.053 C 
BRANCH  11  12
ATOM     12  C   UNL     1      17.978  17.708  17.366  1.00  0.00     0.041 C 
ATOM     13  O   UNL     1      18.030  18.456  18.378  1.00  0.00    -0.550 OA
ATOM     14  O   UNL     1      18.466  18.164  16.148  1.00  0.00    -0.550 OA
ENDBRANCH  11  12
ENDBRANCH  10  11
ENDBRANCH   9  10
ENDBRANCH   8   9
ENDBRANCH   1   8
TORSDOF 9
ENDMDL
