MODEL 1
REMARK VINA RESULT:    -5.570      0.000      0.000
REMARK INTER + INTRA:         -11.662
REMARK INTER:                 -10.128
REMARK INTRA:                  -1.534
REMARK UNBOUND:                -1.534
REMARK SMILES CCCCCCCCCCCCCCCC(=O)[O-]
REMARK SMILES IDX 9 1 10 2 11 3 12 4 13 5 14 6 15 7 16 8 17 9 18 10 8 11 7 12
REMARK SMILES IDX 6 13 5 14 4 15 3 16 2 17 1 18
REMARK H PARENT
REMARK Flexibility Score: inf
ROOT
ATOM      1  C   UNL     1      49.138  52.928  25.965  1.00  0.00     0.000 C 
ENDROOT
BRANCH   1   2
ATOM      2  C   UNL     1      47.629  53.226  25.935  1.00  0.00     0.000 C 
BRANCH   2   3
ATOM      3  C   UNL     1      46.786  51.964  25.693  1.00  0.00     0.000 C 
BRANCH   3   4
ATOM      4  C   UNL     1      46.249  51.882  24.253  1.00  0.00     0.000 C 
BRANCH   4   5
ATOM      5  C   UNL     1      47.087  50.953  23.362  1.00  0.00     0.000 C 
BRANCH   5   6
ATOM      6  C   UNL     1      47.796  49.847  24.165  1.00  0.00     0.006 C 
BRANCH   6   7
ATOM      7  C   UNL     1      49.119  49.419  23.515  1.00  0.00     0.053 C 
BRANCH   7   8
ATOM      8  C   UNL     1      49.594  48.101  24.045  1.00  0.00     0.041 C 
ATOM      9  O   UNL     1      48.797  47.334  24.647  1.00  0.00    -0.550 OA
ATOM     10  O   UNL     1      50.927  47.735  23.903  1.00  0.00    -0.550 OA
ENDBRANCH   7   8
ENDBRANCH   6   7
ENDBRANCH   5   6
ENDBRANCH   4   5
ENDBRANCH   3   4
ENDBRANCH   2   3
ENDBRANCH   1   2
BRANCH   1  11
ATOM     11  C   UNL     1      49.794  53.042  24.577  1.00  0.00     0.000 C 
BRANCH  11  12
ATOM     12  C   UNL     1      50.975  54.029  24.499  1.00  0.00    -0.000 C 
BRANCH  12  13
ATOM     13  C   UNL     1      52.372  53.380  24.425  1.00  0.00    -0.000 C 
BRANCH  13  14
ATOM     14  C   UNL     1      53.253  53.848  23.252  1.00  0.00    -0.000 C 
BRANCH  14  15
ATOM     15  C   UNL     1      52.443  54.487  22.114  1.00  0.00    -0.000 C 
BRANCH  15  16
ATOM     16  C   UNL     1      52.147  53.503  20.970  1.00  0.00    -0.000 C 
BRANCH  16  17
ATOM     17  C   UNL     1      52.564  52.050  21.279  1.00  0.00    -0.003 C 
ATOM     18  C   UNL     1      51.418  51.060  21.066  1.00  0.00     0.004 C 
ENDBRANCH  16  17
ENDBRANCH  15  16
ENDBRANCH  14  15
ENDBRANCH  13  14
ENDBRANCH  12  13
ENDBRANCH  11  12
ENDBRANCH   1  11
TORSDOF 14
ENDMDL
MODEL 2
REMARK VINA RESULT:    -5.569      2.640      5.275
REMARK INTER + INTRA:         -11.660
REMARK INTER:                  -9.792
REMARK INTRA:                  -1.868
REMARK UNBOUND:                -1.534
REMARK SMILES CCCCCCCCCCCCCCCC(=O)[O-]
REMARK SMILES IDX 9 1 10 2 11 3 12 4 13 5 14 6 15 7 16 8 17 9 18 10 8 11 7 12
REMARK SMILES IDX 6 13 5 14 4 15 3 16 2 17 1 18
REMARK H PARENT
REMARK Flexibility Score: inf
ROOT
ATOM      1  C   UNL     1      47.363  53.496  25.981  1.00  0.00     0.000 C 
ENDROOT
BRANCH   1   2
ATOM      2  C   UNL     1      48.800  52.946  25.995  1.00  0.00     0.000 C 
BRANCH   2   3
ATOM      3  C   UNL     1      49.696  53.616  24.941  1.00  0.00     0.000 C 
BRANCH   3   4
ATOM      4  C   UNL     1      50.201  52.622  23.880  1.00  0.00     0.000 C 
BRANCH   4   5
ATOM      5  C   UNL     1      50.001  53.136  22.447  1.00  0.00     0.000 C 
BRANCH   5   6
ATOM      6  C   UNL     1      51.314  53.616  21.803  1.00  0.00     0.006 C 
BRANCH   6   7
ATOM      7  C   UNL     1      52.518  52.775  22.249  1.00  0.00     0.053 C 
BRANCH   7   8
ATOM      8  C   UNL     1      53.390  53.524  23.209  1.00  0.00     0.041 C 
ATOM      9  O   UNL     1      54.459  53.009  23.631  1.00  0.00    -0.550 OA
ATOM     10  O   UNL     1      53.005  54.779  23.665  1.00  0.00    -0.550 OA
ENDBRANCH   7   8
ENDBRANCH   6   7
ENDBRANCH   5   6
ENDBRANCH   4   5
ENDBRANCH   3   4
ENDBRANCH   2   3
ENDBRANCH   1   2
BRANCH   1  11
ATOM     11  C   UNL     1      46.350  52.496  25.396  1.00  0.00     0.000 C 
BRANCH  11  12
ATOM     12  C   UNL     1      46.417  52.328  23.865  1.00  0.00    -0.000 C 
BRANCH  12  13
ATOM     13  C   UNL     1      46.978  50.977  23.376  1.00  0.00    -0.000 C 
BRANCH  13  14
ATOM     14  C   UNL     1      47.421  50.009  24.489  1.00  0.00    -0.000 C 
BRANCH  14  15
ATOM     15  C   UNL     1      48.480  49.000  24.018  1.00  0.00    -0.000 C 
BRANCH  15  16
ATOM     16  C   UNL     1      49.259  49.488  22.785  1.00  0.00    -0.000 C 
BRANCH  16  17
ATOM     17  C   UNL     1      50.700  48.942  22.707  1.00  0.00    -0.003 C 
ATOM     18  C   UNL     1      50.919  47.747  23.635  1.00  0.00     0.004 C 
ENDBRANCH  16  17
ENDBRANCH  15  16
ENDBRANCH  14  15
ENDBRANCH  13  14
ENDBRANCH  12  13
ENDBRANCH  11  12
ENDBRANCH   1  11
TORSDOF 14
ENDMDL
MODEL 3
REMARK VINA RESULT:    -5.558      0.877      1.824
REMARK INTER + INTRA:         -11.640
REMARK INTER:                  -9.925
REMARK INTRA:                  -1.715
REMARK UNBOUND:                -1.534
REMARK SMILES CCCCCCCCCCCCCCCC(=O)[O-]
REMARK SMILES IDX 9 1 10 2 11 3 12 4 13 5 14 6 15 7 16 8 17 9 18 10 8 11 7 12
REMARK SMILES IDX 6 13 5 14 4 15 3 16 2 17 1 18
REMARK H PARENT
REMARK Flexibility Score: inf
ROOT
ATOM      1  C   UNL     1      48.767  52.930  26.120  1.00  0.00     0.000 C 
ENDROOT
BRANCH   1   2
ATOM      2  C   UNL     1      47.273  53.266  26.266  1.00  0.00     0.000 C 
BRANCH   2   3
ATOM      3  C   UNL     1      46.445  52.797  25.059  1.00  0.00     0.000 C 
BRANCH   3   4
ATOM      4  C   UNL     1      46.270  51.268  25.022  1.00  0.00     0.000 C 
BRANCH   4   5
ATOM      5  C   UNL     1      47.128  50.602  23.936  1.00  0.00     0.000 C 
BRANCH   5   6
ATOM      6  C   UNL     1      47.859  49.348  24.447  1.00  0.00     0.006 C 
BRANCH   6   7
ATOM      7  C   UNL     1      49.134  49.054  23.644  1.00  0.00     0.053 C 
BRANCH   7   8
ATOM      8  C   UNL     1      49.842  47.838  24.157  1.00  0.00     0.041 C 
ATOM      9  O   UNL     1      49.260  47.051  24.950  1.00  0.00    -0.550 OA
ATOM     10  O   UNL     1      51.157  47.590  23.784  1.00  0.00    -0.550 OA
ENDBRANCH   7   8
ENDBRANCH   6   7
ENDBRANCH   5   6
ENDBRANCH   4   5
ENDBRANCH   3   4
ENDBRANCH   2   3
ENDBRANCH   1   2
BRANCH   1  11
ATOM     11  C   UNL     1      49.389  53.524  24.843  1.00  0.00     0.000 C 
BRANCH  11  12
ATOM     12  C   UNL     1      50.182  52.520  23.983  1.00  0.00    -0.000 C 
BRANCH  12  13
ATOM     13  C   UNL     1      50.088  52.742  22.460  1.00  0.00    -0.000 C 
BRANCH  13  14
ATOM     14  C   UNL     1      51.073  51.914  21.614  1.00  0.00    -0.000 C 
BRANCH  14  15
ATOM     15  C   UNL     1      52.394  52.651  21.341  1.00  0.00    -0.000 C 
BRANCH  15  16
ATOM     16  C   UNL     1      52.334  54.139  21.723  1.00  0.00    -0.000 C 
BRANCH  16  17
ATOM     17  C   UNL     1      53.140  54.486  22.992  1.00  0.00    -0.003 C 
ATOM     18  C   UNL     1      53.899  53.280  23.546  1.00  0.00     0.004 C 
ENDBRANCH  16  17
ENDBRANCH  15  16
ENDBRANCH  14  15
ENDBRANCH  13  14
ENDBRANCH  12  13
ENDBRANCH  11  12
ENDBRANCH   1  11
TORSDOF 14
ENDMDL
MODEL 4
REMARK VINA RESULT:    -5.536      1.871      4.516
REMARK INTER + INTRA:         -11.601
REMARK INTER:                 -10.076
REMARK INTRA:                  -1.524
REMARK UNBOUND:                -1.534
REMARK SMILES CCCCCCCCCCCCCCCC(=O)[O-]
REMARK SMILES IDX 9 1 10 2 11 3 12 4 13 5 14 6 15 7 16 8 17 9 18 10 8 11 7 12
REMARK SMILES IDX 6 13 5 14 4 15 3 16 2 17 1 18
REMARK H PARENT
REMARK Flexibility Score: inf
ROOT
ATOM      1  C   UNL     1      53.023  54.207  22.887  1.00  0.00     0.000 C 
ENDROOT
BRANCH   1   2
ATOM      2  C   UNL     1      52.192  54.258  24.180  1.00  0.00     0.000 C 
BRANCH   2   3
ATOM      3  C   UNL     1      51.043  53.237  24.181  1.00  0.00     0.000 C 
BRANCH   3   4
ATOM      4  C   UNL     1      49.875  53.666  25.087  1.00  0.00     0.000 C 
BRANCH   4   5
ATOM      5  C   UNL     1      48.737  52.634  25.110  1.00  0.00     0.000 C 
BRANCH   5   6
ATOM      6  C   UNL     1      47.610  53.020  26.085  1.00  0.00     0.006 C 
BRANCH   6   7
ATOM      7  C   UNL     1      46.219  52.722  25.509  1.00  0.00     0.053 C 
BRANCH   7   8
ATOM      8  C   UNL     1      46.150  51.351  24.910  1.00  0.00     0.041 C 
ATOM      9  O   UNL     1      46.160  50.333  25.651  1.00  0.00    -0.550 OA
ATOM     10  O   UNL     1      46.110  51.196  23.530  1.00  0.00    -0.550 OA
ENDBRANCH   7   8
ENDBRANCH   6   7
ENDBRANCH   5   6
ENDBRANCH   4   5
ENDBRANCH   3   4
ENDBRANCH   2   3
ENDBRANCH   1   2
BRANCH   1  11
ATOM     11  C   UNL     1      52.160  54.347  21.620  1.00  0.00     0.000 C 
BRANCH  11  12
ATOM     12  C   UNL     1      52.407  53.268  20.547  1.00  0.00    -0.000 C 
BRANCH  12  13
ATOM     13  C   UNL     1      52.376  51.813  21.058  1.00  0.00    -0.000 C 
BRANCH  13  14
ATOM     14  C   UNL     1      50.989  51.143  21.049  1.00  0.00    -0.000 C 
BRANCH  14  15
ATOM     15  C   UNL     1      50.820  50.103  22.168  1.00  0.00    -0.000 C 
BRANCH  15  16
ATOM     16  C   UNL     1      49.381  50.037  22.705  1.00  0.00    -0.000 C 
BRANCH  16  17
ATOM     17  C   UNL     1      49.157  48.917  23.743  1.00  0.00    -0.003 C 
ATOM     18  C   UNL     1      50.341  47.952  23.819  1.00  0.00     0.004 C 
ENDBRANCH  16  17
ENDBRANCH  15  16
ENDBRANCH  14  15
ENDBRANCH  13  14
ENDBRANCH  12  13
ENDBRANCH  11  12
ENDBRANCH   1  11
TORSDOF 14
ENDMDL
MODEL 5
REMARK VINA RESULT:    -5.457      2.696      5.702
REMARK INTER + INTRA:         -11.457
REMARK INTER:                  -9.799
REMARK INTRA:                  -1.658
REMARK UNBOUND:                -1.534
REMARK SMILES CCCCCCCCCCCCCCCC(=O)[O-]
REMARK SMILES IDX 9 1 10 2 11 3 12 4 13 5 14 6 15 7 16 8 17 9 18 10 8 11 7 12
REMARK SMILES IDX 6 13 5 14 4 15 3 16 2 17 1 18
REMARK H PARENT
REMARK Flexibility Score: inf
ROOT
ATOM      1  C   UNL     1      49.631  53.428  24.704  1.00  0.00     0.000 C 
ENDROOT
BRANCH   1   2
ATOM      2  C   UNL     1      49.966  52.288  23.727  1.00  0.00     0.000 C 
BRANCH   2   3
ATOM      3  C   UNL     1      49.790  52.704  22.258  1.00  0.00     0.000 C 
BRANCH   3   4
ATOM      4  C   UNL     1      50.173  51.581  21.278  1.00  0.00     0.000 C 
BRANCH   4   5
ATOM      5  C   UNL     1      51.664  51.219  21.348  1.00  0.00     0.000 C 
BRANCH   5   6
ATOM      6  C   UNL     1      52.578  52.436  21.117  1.00  0.00     0.006 C 
BRANCH   6   7
ATOM      7  C   UNL     1      53.356  52.823  22.383  1.00  0.00     0.053 C 
BRANCH   7   8
ATOM      8  C   UNL     1      52.994  54.197  22.856  1.00  0.00     0.041 C 
ATOM      9  O   UNL     1      52.988  54.463  24.087  1.00  0.00    -0.550 OA
ATOM     10  O   UNL     1      52.631  55.175  21.939  1.00  0.00    -0.550 OA
ENDBRANCH   7   8
ENDBRANCH   6   7
ENDBRANCH   5   6
ENDBRANCH   4   5
ENDBRANCH   3   4
ENDBRANCH   2   3
ENDBRANCH   1   2
BRANCH   1  11
ATOM     11  C   UNL     1      48.918  52.931  25.975  1.00  0.00     0.000 C 
BRANCH  11  12
ATOM     12  C   UNL     1      47.398  53.182  26.004  1.00  0.00    -0.000 C 
BRANCH  12  13
ATOM     13  C   UNL     1      46.521  51.926  25.825  1.00  0.00    -0.000 C 
BRANCH  13  14
ATOM     14  C   UNL     1      46.692  51.191  24.483  1.00  0.00    -0.000 C 
BRANCH  14  15
ATOM     15  C   UNL     1      47.226  49.760  24.647  1.00  0.00    -0.000 C 
BRANCH  15  16
ATOM     16  C   UNL     1      48.425  49.463  23.732  1.00  0.00    -0.000 C 
BRANCH  16  17
ATOM     17  C   UNL     1      49.286  48.274  24.204  1.00  0.00    -0.003 C 
ATOM     18  C   UNL     1      50.599  48.163  23.426  1.00  0.00     0.004 C 
ENDBRANCH  16  17
ENDBRANCH  15  16
ENDBRANCH  14  15
ENDBRANCH  13  14
ENDBRANCH  12  13
ENDBRANCH  11  12
ENDBRANCH   1  11
TORSDOF 14
ENDMDL
MODEL 6
REMARK VINA RESULT:    -5.423      2.512      6.106
REMARK INTER + INTRA:         -11.395
REMARK INTER:                  -9.648
REMARK INTRA:                  -1.747
REMARK UNBOUND:                -1.534
REMARK SMILES CCCCCCCCCCCCCCCC(=O)[O-]
REMARK SMILES IDX 9 1 10 2 11 3 12 4 13 5 14 6 15 7 16 8 17 9 18 10 8 11 7 12
REMARK SMILES IDX 6 13 5 14 4 15 3 16 2 17 1 18
REMARK H PARENT
REMARK Flexibility Score: inf
ROOT
ATOM      1  C   UNL     1      48.938  49.181  23.804  1.00  0.00     0.000 C 
ENDROOT
BRANCH   1   2
ATOM      2  C   UNL     1      49.346  49.551  22.367  1.00  0.00     0.000 C 
BRANCH   2   3
ATOM      3  C   UNL     1      50.830  49.937  22.259  1.00  0.00     0.000 C 
BRANCH   3   4
ATOM      4  C   UNL     1      51.109  50.880  21.075  1.00  0.00     0.000 C 
BRANCH   4   5
ATOM      5  C   UNL     1      51.010  52.362  21.467  1.00  0.00     0.000 C 
BRANCH   5   6
ATOM      6  C   UNL     1      52.318  53.131  21.202  1.00  0.00     0.006 C 
BRANCH   6   7
ATOM      7  C   UNL     1      52.441  54.382  22.083  1.00  0.00     0.053 C 
BRANCH   7   8
ATOM      8  C   UNL     1      53.048  54.063  23.415  1.00  0.00     0.041 C 
ATOM      9  O   UNL     1      52.632  54.637  24.456  1.00  0.00    -0.550 OA
ATOM     10  O   UNL     1      54.097  53.156  23.502  1.00  0.00    -0.550 OA
ENDBRANCH   7   8
ENDBRANCH   6   7
ENDBRANCH   5   6
ENDBRANCH   4   5
ENDBRANCH   3   4
ENDBRANCH   2   3
ENDBRANCH   1   2
BRANCH   1  11
ATOM     11  C   UNL     1      47.695  49.950  24.285  1.00  0.00     0.000 C 
BRANCH  11  12
ATOM     12  C   UNL     1      47.146  50.984  23.283  1.00  0.00    -0.000 C 
BRANCH  12  13
ATOM     13  C   UNL     1      45.934  51.799  23.776  1.00  0.00    -0.000 C 
BRANCH  13  14
ATOM     14  C   UNL     1      45.931  52.126  25.281  1.00  0.00    -0.000 C 
BRANCH  14  15
ATOM     15  C   UNL     1      46.681  53.425  25.612  1.00  0.00    -0.000 C 
BRANCH  15  16
ATOM     16  C   UNL     1      47.759  53.231  26.691  1.00  0.00    -0.000 C 
BRANCH  16  17
ATOM     17  C   UNL     1      49.119  52.763  26.132  1.00  0.00    -0.003 C 
ATOM     18  C   UNL     1      49.408  53.344  24.747  1.00  0.00     0.004 C 
ENDBRANCH  16  17
ENDBRANCH  15  16
ENDBRANCH  14  15
ENDBRANCH  13  14
ENDBRANCH  12  13
ENDBRANCH  11  12
ENDBRANCH   1  11
TORSDOF 14
ENDMDL
MODEL 7
REMARK VINA RESULT:    -5.419      0.884      4.867
REMARK INTER + INTRA:         -11.388
REMARK INTER:                  -9.763
REMARK INTRA:                  -1.626
REMARK UNBOUND:                -1.534
REMARK SMILES CCCCCCCCCCCCCCCC(=O)[O-]
REMARK SMILES IDX 9 1 10 2 11 3 12 4 13 5 14 6 15 7 16 8 17 9 18 10 8 11 7 12
REMARK SMILES IDX 6 13 5 14 4 15 3 16 2 17 1 18
REMARK H PARENT
REMARK Flexibility Score: inf
ROOT
ATOM      1  C   UNL     1      52.583  54.036  23.106  1.00  0.00     0.000 C 
ENDROOT
BRANCH   1   2
ATOM      2  C   UNL     1      51.729  54.082  21.827  1.00  0.00     0.000 C 
BRANCH   2   3
ATOM      3  C   UNL     1      52.278  53.168  20.720  1.00  0.00     0.000 C 
BRANCH   3   4
ATOM      4  C   UNL     1      52.332  51.691  21.148  1.00  0.00     0.000 C 
BRANCH   4   5
ATOM      5  C   UNL     1      50.958  51.007  21.085  1.00  0.00     0.000 C 
BRANCH   5   6
ATOM      6  C   UNL     1      50.829  49.849  22.091  1.00  0.00     0.006 C 
BRANCH   6   7
ATOM      7  C   UNL     1      49.457  49.831  22.779  1.00  0.00     0.053 C 
BRANCH   7   8
ATOM      8  C   UNL     1      49.334  48.689  23.739  1.00  0.00     0.041 C 
ATOM      9  O   UNL     1      48.248  48.478  24.340  1.00  0.00    -0.550 OA
ATOM     10  O   UNL     1      50.431  47.875  23.996  1.00  0.00    -0.550 OA
ENDBRANCH   7   8
ENDBRANCH   6   7
ENDBRANCH   5   6
ENDBRANCH   4   5
ENDBRANCH   3   4
ENDBRANCH   2   3
ENDBRANCH   1   2
BRANCH   1  11
ATOM     11  C   UNL     1      51.732  54.004  24.388  1.00  0.00     0.000 C 
BRANCH  11  12
ATOM     12  C   UNL     1      50.683  52.876  24.440  1.00  0.00    -0.000 C 
BRANCH  12  13
ATOM     13  C   UNL     1      49.259  53.320  24.831  1.00  0.00    -0.000 C 
BRANCH  13  14
ATOM     14  C   UNL     1      48.867  53.053  26.296  1.00  0.00    -0.000 C 
BRANCH  14  15
ATOM     15  C   UNL     1      47.357  53.186  26.545  1.00  0.00    -0.000 C 
BRANCH  15  16
ATOM     16  C   UNL     1      46.524  52.992  25.267  1.00  0.00    -0.000 C 
BRANCH  16  17
ATOM     17  C   UNL     1      46.202  51.516  24.955  1.00  0.00    -0.003 C 
ATOM     18  C   UNL     1      46.130  51.244  23.452  1.00  0.00     0.004 C 
ENDBRANCH  16  17
ENDBRANCH  15  16
ENDBRANCH  14  15
ENDBRANCH  13  14
ENDBRANCH  12  13
ENDBRANCH  11  12
ENDBRANCH   1  11
TORSDOF 14
ENDMDL
MODEL 8
REMARK VINA RESULT:    -5.416      2.323      6.215
REMARK INTER + INTRA:         -11.383
REMARK INTER:                  -9.728
REMARK INTRA:                  -1.655
REMARK UNBOUND:                -1.534
REMARK SMILES CCCCCCCCCCCCCCCC(=O)[O-]
REMARK SMILES IDX 9 1 10 2 11 3 12 4 13 5 14 6 15 7 16 8 17 9 18 10 8 11 7 12
REMARK SMILES IDX 6 13 5 14 4 15 3 16 2 17 1 18
REMARK H PARENT
REMARK Flexibility Score: inf
ROOT
ATOM      1  C   UNL     1      50.710  49.771  22.182  1.00  0.00     0.000 C 
ENDROOT
BRANCH   1   2
ATOM      2  C   UNL     1      51.059  50.666  20.979  1.00  0.00     0.000 C 
BRANCH   2   3
ATOM      3  C   UNL     1      52.183  51.665  21.297  1.00  0.00     0.000 C 
BRANCH   3   4
ATOM      4  C   UNL     1      51.760  53.125  21.053  1.00  0.00     0.000 C 
BRANCH   4   5
ATOM      5  C   UNL     1      50.753  53.629  22.097  1.00  0.00     0.000 C 
BRANCH   5   6
ATOM      6  C   UNL     1      51.122  53.201  23.529  1.00  0.00     0.006 C 
BRANCH   6   7
ATOM      7  C   UNL     1      52.238  54.070  24.123  1.00  0.00     0.053 C 
BRANCH   7   8
ATOM      8  C   UNL     1      53.532  53.321  24.218  1.00  0.00     0.041 C 
ATOM      9  O   UNL     1      54.453  53.537  23.388  1.00  0.00    -0.550 OA
ATOM     10  O   UNL     1      53.707  52.358  25.204  1.00  0.00    -0.550 OA
ENDBRANCH   7   8
ENDBRANCH   6   7
ENDBRANCH   5   6
ENDBRANCH   4   5
ENDBRANCH   3   4
ENDBRANCH   2   3
ENDBRANCH   1   2
BRANCH   1  11
ATOM     11  C   UNL     1      49.199  49.726  22.470  1.00  0.00     0.000 C 
BRANCH  11  12
ATOM     12  C   UNL     1      48.829  49.411  23.933  1.00  0.00    -0.000 C 
BRANCH  12  13
ATOM     13  C   UNL     1      47.466  49.960  24.399  1.00  0.00    -0.000 C 
BRANCH  13  14
ATOM     14  C   UNL     1      46.825  51.005  23.467  1.00  0.00    -0.000 C 
BRANCH  14  15
ATOM     15  C   UNL     1      47.041  52.448  23.947  1.00  0.00    -0.000 C 
BRANCH  15  16
ATOM     16  C   UNL     1      46.225  52.784  25.207  1.00  0.00    -0.000 C 
BRANCH  16  17
ATOM     17  C   UNL     1      47.093  53.180  26.420  1.00  0.00    -0.003 C 
ATOM     18  C   UNL     1      48.589  53.051  26.129  1.00  0.00     0.004 C 
ENDBRANCH  16  17
ENDBRANCH  15  16
ENDBRANCH  14  15
ENDBRANCH  13  14
ENDBRANCH  12  13
ENDBRANCH  11  12
ENDBRANCH   1  11
TORSDOF 14
ENDMDL
MODEL 9
REMARK VINA RESULT:    -5.347      2.264      3.985
REMARK INTER + INTRA:         -11.257
REMARK INTER:                  -9.629
REMARK INTRA:                  -1.628
REMARK UNBOUND:                -1.534
REMARK SMILES CCCCCCCCCCCCCCCC(=O)[O-]
REMARK SMILES IDX 9 1 10 2 11 3 12 4 13 5 14 6 15 7 16 8 17 9 18 10 8 11 7 12
REMARK SMILES IDX 6 13 5 14 4 15 3 16 2 17 1 18
REMARK H PARENT
REMARK Flexibility Score: inf
ROOT
ATOM      1  C   UNL     1      50.348  49.797  22.913  1.00  0.00     0.000 C 
ENDROOT
BRANCH   1   2
ATOM      2  C   UNL     1      48.834  49.679  23.160  1.00  0.00     0.000 C 
BRANCH   2   3
ATOM      3  C   UNL     1      48.068  50.940  22.730  1.00  0.00     0.000 C 
BRANCH   3   4
ATOM      4  C   UNL     1      46.725  51.093  23.465  1.00  0.00     0.000 C 
BRANCH   4   5
ATOM      5  C   UNL     1      46.812  50.694  24.945  1.00  0.00     0.000 C 
BRANCH   5   6
ATOM      6  C   UNL     1      46.166  51.735  25.876  1.00  0.00     0.006 C 
BRANCH   6   7
ATOM      7  C   UNL     1      46.786  53.129  25.705  1.00  0.00     0.053 C 
BRANCH   7   8
ATOM      8  C   UNL     1      48.221  53.152  26.134  1.00  0.00     0.041 C 
ATOM      9  O   UNL     1      48.518  53.201  27.357  1.00  0.00    -0.550 OA
ATOM     10  O   UNL     1      49.232  53.155  25.181  1.00  0.00    -0.550 OA
ENDBRANCH   7   8
ENDBRANCH   6   7
ENDBRANCH   5   6
ENDBRANCH   4   5
ENDBRANCH   3   4
ENDBRANCH   2   3
ENDBRANCH   1   2
BRANCH   1  11
ATOM     11  C   UNL     1      50.771  51.212  22.481  1.00  0.00     0.000 C 
BRANCH  11  12
ATOM     12  C   UNL     1      51.614  51.270  21.192  1.00  0.00    -0.000 C 
BRANCH  12  13
ATOM     13  C   UNL     1      52.197  52.656  20.849  1.00  0.00    -0.000 C 
BRANCH  13  14
ATOM     14  C   UNL     1      51.565  53.839  21.607  1.00  0.00    -0.000 C 
BRANCH  14  15
ATOM     15  C   UNL     1      52.588  54.636  22.431  1.00  0.00    -0.000 C 
BRANCH  15  16
ATOM     16  C   UNL     1      52.466  54.376  23.942  1.00  0.00    -0.000 C 
BRANCH  16  17
ATOM     17  C   UNL     1      53.158  53.077  24.406  1.00  0.00    -0.003 C 
ATOM     18  C   UNL     1      54.497  52.851  23.703  1.00  0.00     0.004 C 
ENDBRANCH  16  17
ENDBRANCH  15  16
ENDBRANCH  14  15
ENDBRANCH  13  14
ENDBRANCH  12  13
ENDBRANCH  11  12
ENDBRANCH   1  11
TORSDOF 14
ENDMDL
