MODEL 1
REMARK VINA RESULT:    -3.549      0.000      0.000
REMARK INTER + INTRA:          -3.773
REMARK INTER:                  -3.756
REMARK INTRA:                  -0.017
REMARK UNBOUND:                -0.017
REMARK SMILES O=C([O-])c1cccnc1
REMARK SMILES IDX 4 1 5 2 9 3 6 4 8 5 7 6 2 7 1 8 3 9
REMARK H PARENT
REMARK Flexibility Score: inf
ROOT
ATOM      1  C   UNL     1      32.139  50.030  25.143  1.00  0.00     0.016 A 
ATOM      2  C   UNL     1      31.225  50.244  24.097  1.00  0.00     0.013 A 
ATOM      3  C   UNL     1      32.444  51.107  25.994  1.00  0.00     0.120 A 
ATOM      4  C   UNL     1      30.645  51.502  23.919  1.00  0.00     0.021 A 
ATOM      5  N   UNL     1      31.863  52.322  25.798  1.00  0.00    -0.264 NA
ATOM      6  C   UNL     1      30.979  52.539  24.789  1.00  0.00     0.111 A 
ENDROOT
BRANCH   1   7
ATOM      7  C   UNL     1      32.765  48.707  25.348  1.00  0.00     0.073 C 
ATOM      8  O   UNL     1      33.658  48.292  24.562  1.00  0.00    -0.545 OA
ATOM      9  O   UNL     1      32.377  47.901  26.412  1.00  0.00    -0.545 OA
ENDBRANCH   1   7
TORSDOF 1
ENDMDL
MODEL 2
REMARK VINA RESULT:    -3.471      1.328      1.412
REMARK INTER + INTRA:          -3.691
REMARK INTER:                  -3.673
REMARK INTRA:                  -0.018
REMARK UNBOUND:                -0.017
REMARK SMILES O=C([O-])c1cccnc1
REMARK SMILES IDX 4 1 5 2 9 3 6 4 8 5 7 6 2 7 1 8 3 9
REMARK H PARENT
REMARK Flexibility Score: inf
ROOT
ATOM      1  C   UNL     1      32.308  49.441  25.182  1.00  0.00     0.016 A 
ATOM      2  C   UNL     1      31.569  49.967  24.109  1.00  0.00     0.013 A 
ATOM      3  C   UNL     1      32.025  49.903  26.479  1.00  0.00     0.120 A 
ATOM      4  C   UNL     1      30.581  50.926  24.342  1.00  0.00     0.021 A 
ATOM      5  N   UNL     1      31.057  50.838  26.677  1.00  0.00    -0.264 NA
ATOM      6  C   UNL     1      30.337  51.353  25.647  1.00  0.00     0.111 A 
ENDROOT
BRANCH   1   7
ATOM      7  C   UNL     1      33.359  48.425  24.957  1.00  0.00     0.073 C 
ATOM      8  O   UNL     1      33.081  47.329  24.399  1.00  0.00    -0.545 OA
ATOM      9  O   UNL     1      34.668  48.664  25.357  1.00  0.00    -0.545 OA
ENDBRANCH   1   7
TORSDOF 1
ENDMDL
MODEL 3
REMARK VINA RESULT:    -3.401      0.916      1.930
REMARK INTER + INTRA:          -3.616
REMARK INTER:                  -3.600
REMARK INTRA:                  -0.017
REMARK UNBOUND:                -0.017
REMARK SMILES O=C([O-])c1cccnc1
REMARK SMILES IDX 4 1 5 2 9 3 6 4 8 5 7 6 2 7 1 8 3 9
REMARK H PARENT
REMARK Flexibility Score: inf
ROOT
ATOM      1  C   UNL     1      32.119  50.110  25.155  1.00  0.00     0.016 A 
ATOM      2  C   UNL     1      32.447  51.206  25.971  1.00  0.00     0.013 A 
ATOM      3  C   UNL     1      31.216  50.312  24.097  1.00  0.00     0.120 A 
ATOM      4  C   UNL     1      31.880  52.458  25.724  1.00  0.00     0.021 A 
ATOM      5  N   UNL     1      30.678  51.543  23.880  1.00  0.00    -0.264 NA
ATOM      6  C   UNL     1      30.989  52.609  24.662  1.00  0.00     0.111 A 
ENDROOT
BRANCH   1   7
ATOM      7  C   UNL     1      32.708  48.776  25.399  1.00  0.00     0.073 C 
ATOM      8  O   UNL     1      32.301  48.061  26.353  1.00  0.00    -0.545 OA
ATOM      9  O   UNL     1      33.720  48.292  24.578  1.00  0.00    -0.545 OA
ENDBRANCH   1   7
TORSDOF 1
ENDMDL
MODEL 4
REMARK VINA RESULT:    -3.375      2.305      3.570
REMARK INTER + INTRA:          -3.589
REMARK INTER:                  -3.572
REMARK INTRA:                  -0.016
REMARK UNBOUND:                -0.017
REMARK SMILES O=C([O-])c1cccnc1
REMARK SMILES IDX 4 1 5 2 9 3 6 4 8 5 7 6 2 7 1 8 3 9
REMARK H PARENT
REMARK Flexibility Score: inf
ROOT
ATOM      1  C   UNL     1      32.292  49.879  25.179  1.00  0.00     0.016 A 
ATOM      2  C   UNL     1      32.844  48.689  24.677  1.00  0.00     0.013 A 
ATOM      3  C   UNL     1      33.016  50.595  26.147  1.00  0.00     0.120 A 
ATOM      4  C   UNL     1      34.083  48.241  25.139  1.00  0.00     0.021 A 
ATOM      5  N   UNL     1      34.221  50.136  26.580  1.00  0.00    -0.264 NA
ATOM      6  C   UNL     1      34.764  48.986  26.101  1.00  0.00     0.111 A 
ENDROOT
BRANCH   1   7
ATOM      7  C   UNL     1      30.981  50.371  24.702  1.00  0.00     0.073 C 
ATOM      8  O   UNL     1      29.953  50.251  25.420  1.00  0.00    -0.545 OA
ATOM      9  O   UNL     1      30.865  50.972  23.455  1.00  0.00    -0.545 OA
ENDBRANCH   1   7
TORSDOF 1
ENDMDL
MODEL 5
REMARK VINA RESULT:    -3.316      2.678      3.860
REMARK INTER + INTRA:          -3.526
REMARK INTER:                  -3.508
REMARK INTRA:                  -0.019
REMARK UNBOUND:                -0.017
REMARK SMILES O=C([O-])c1cccnc1
REMARK SMILES IDX 4 1 5 2 9 3 6 4 8 5 7 6 2 7 1 8 3 9
REMARK H PARENT
REMARK Flexibility Score: inf
ROOT
ATOM      1  C   UNL     1      32.562  49.635  25.288  1.00  0.00     0.016 A 
ATOM      2  C   UNL     1      33.409  50.252  26.224  1.00  0.00     0.013 A 
ATOM      3  C   UNL     1      32.970  48.416  24.720  1.00  0.00     0.120 A 
ATOM      4  C   UNL     1      34.623  49.656  26.570  1.00  0.00     0.021 A 
ATOM      5  N   UNL     1      34.159  47.858  25.075  1.00  0.00    -0.264 NA
ATOM      6  C   UNL     1      34.985  48.446  25.979  1.00  0.00     0.111 A 
ENDROOT
BRANCH   1   7
ATOM      7  C   UNL     1      31.272  50.249  24.908  1.00  0.00     0.073 C 
ATOM      8  O   UNL     1      30.980  50.427  23.695  1.00  0.00    -0.545 OA
ATOM      9  O   UNL     1      30.362  50.639  25.884  1.00  0.00    -0.545 OA
ENDBRANCH   1   7
TORSDOF 1
ENDMDL
MODEL 6
REMARK VINA RESULT:    -3.293      3.324      4.315
REMARK INTER + INTRA:          -3.502
REMARK INTER:                  -3.485
REMARK INTRA:                  -0.017
REMARK UNBOUND:                -0.017
REMARK SMILES O=C([O-])c1cccnc1
REMARK SMILES IDX 4 1 5 2 9 3 6 4 8 5 7 6 2 7 1 8 3 9
REMARK H PARENT
REMARK Flexibility Score: inf
ROOT
ATOM      1  C   UNL     1      32.086  52.306  25.709  1.00  0.00     0.016 A 
ATOM      2  C   UNL     1      33.321  52.369  26.375  1.00  0.00     0.013 A 
ATOM      3  C   UNL     1      31.581  51.043  25.356  1.00  0.00     0.120 A 
ATOM      4  C   UNL     1      34.018  51.196  26.672  1.00  0.00     0.021 A 
ATOM      5  N   UNL     1      32.281  49.916  25.658  1.00  0.00    -0.264 NA
ATOM      6  C   UNL     1      33.476  49.966  26.302  1.00  0.00     0.111 A 
ENDROOT
BRANCH   1   7
ATOM      7  C   UNL     1      31.332  53.536  25.385  1.00  0.00     0.073 C 
ATOM      8  O   UNL     1      31.202  53.911  24.189  1.00  0.00    -0.545 OA
ATOM      9  O   UNL     1      30.757  54.297  26.396  1.00  0.00    -0.545 OA
ENDBRANCH   1   7
TORSDOF 1
ENDMDL
MODEL 7
REMARK VINA RESULT:    -3.286      2.179      2.430
REMARK INTER + INTRA:          -3.495
REMARK INTER:                  -3.478
REMARK INTRA:                  -0.017
REMARK UNBOUND:                -0.017
REMARK SMILES O=C([O-])c1cccnc1
REMARK SMILES IDX 4 1 5 2 9 3 6 4 8 5 7 6 2 7 1 8 3 9
REMARK H PARENT
REMARK Flexibility Score: inf
ROOT
ATOM      1  C   UNL     1      31.766  51.219  25.796  1.00  0.00     0.016 A 
ATOM      2  C   UNL     1      31.467  50.630  24.556  1.00  0.00     0.013 A 
ATOM      3  C   UNL     1      30.712  51.769  26.546  1.00  0.00     0.120 A 
ATOM      4  C   UNL     1      30.150  50.601  24.094  1.00  0.00     0.021 A 
ATOM      5  N   UNL     1      29.438  51.727  26.071  1.00  0.00    -0.264 NA
ATOM      6  C   UNL     1      29.138  51.160  24.874  1.00  0.00     0.111 A 
ENDROOT
BRANCH   1   7
ATOM      7  C   UNL     1      33.154  51.261  26.305  1.00  0.00     0.073 C 
ATOM      8  O   UNL     1      33.775  52.354  26.383  1.00  0.00    -0.545 OA
ATOM      9  O   UNL     1      33.794  50.093  26.703  1.00  0.00    -0.545 OA
ENDBRANCH   1   7
TORSDOF 1
ENDMDL
