MODEL 1
REMARK VINA RESULT:    -7.284      0.000      0.000
REMARK INTER + INTRA:          -8.391
REMARK INTER:                  -8.562
REMARK INTRA:                   0.170
REMARK UNBOUND:                 0.170
REMARK SMILES O=C([O-])C=Cc1ccc(O)c(O)c1
REMARK SMILES IDX 6 1 13 2 7 3 11 4 8 5 9 6 5 7 4 8 2 9 1 10 3 11 12 12 10 14
REMARK H PARENT 12 13 10 15
REMARK Flexibility Score: inf
ROOT
ATOM      1  C   UNL     1      12.678 -13.022  28.146  1.00  0.00    -0.022 A 
ATOM      2  C   UNL     1      11.375 -13.353  27.748  1.00  0.00     0.058 A 
ATOM      3  C   UNL     1      12.871 -12.283  29.325  1.00  0.00     0.012 A 
ATOM      4  C   UNL     1      10.271 -12.909  28.486  1.00  0.00     0.157 A 
ATOM      5  C   UNL     1      11.772 -11.838  30.064  1.00  0.00     0.051 A 
ATOM      6  C   UNL     1      10.469 -12.144  29.648  1.00  0.00     0.157 A 
ENDROOT
BRANCH   1   7
ATOM      7  C   UNL     1      13.825 -13.549  27.378  1.00  0.00     0.010 C 
ATOM      8  C   UNL     1      14.340 -14.782  27.501  1.00  0.00     0.025 C 
BRANCH   8   9
ATOM      9  C   UNL     1      13.982 -15.760  28.545  1.00  0.00     0.064 C 
ATOM     10  O   UNL     1      14.067 -16.990  28.292  1.00  0.00    -0.545 OA
ATOM     11  O   UNL     1      13.621 -15.356  29.825  1.00  0.00    -0.545 OA
ENDBRANCH   8   9
ENDBRANCH   1   7
BRANCH   4  12
ATOM     12  O   UNL     1       8.988 -13.241  28.051  1.00  0.00    -0.504 OA
ATOM     13  H   UNL     1       8.824 -13.714  27.171  1.00  0.00     0.293 HD
ENDBRANCH   4  12
BRANCH   6  14
ATOM     14  O   UNL     1       9.374 -11.696  30.385  1.00  0.00    -0.504 OA
ATOM     15  H   UNL     1       9.485 -11.061  31.167  1.00  0.00     0.293 HD
ENDBRANCH   6  14
TORSDOF 4
ENDMDL
MODEL 2
REMARK VINA RESULT:    -6.928      0.885      1.950
REMARK INTER + INTRA:          -7.973
REMARK INTER:                  -8.090
REMARK INTRA:                   0.117
REMARK UNBOUND:                 0.170
REMARK SMILES O=C([O-])C=Cc1ccc(O)c(O)c1
REMARK SMILES IDX 6 1 13 2 7 3 11 4 8 5 9 6 5 7 4 8 2 9 1 10 3 11 12 12 10 14
REMARK H PARENT 12 13 10 15
REMARK Flexibility Score: inf
ROOT
ATOM      1  C   UNL     1      12.601 -12.916  28.409  1.00  0.00    -0.022 A 
ATOM      2  C   UNL     1      12.776 -12.252  29.632  1.00  0.00     0.058 A 
ATOM      3  C   UNL     1      11.302 -13.110  27.911  1.00  0.00     0.012 A 
ATOM      4  C   UNL     1      11.669 -11.832  30.378  1.00  0.00     0.157 A 
ATOM      5  C   UNL     1      10.194 -12.693  28.653  1.00  0.00     0.051 A 
ATOM      6  C   UNL     1      10.370 -12.057  29.890  1.00  0.00     0.157 A 
ENDROOT
BRANCH   1   7
ATOM      7  C   UNL     1      13.788 -13.299  27.618  1.00  0.00     0.010 C 
ATOM      8  C   UNL     1      14.353 -14.517  27.606  1.00  0.00     0.025 C 
BRANCH   8   9
ATOM      9  C   UNL     1      14.012 -15.627  28.514  1.00  0.00     0.064 C 
ATOM     10  O   UNL     1      14.153 -16.814  28.117  1.00  0.00    -0.545 OA
ATOM     11  O   UNL     1      13.607 -15.396  29.824  1.00  0.00    -0.545 OA
ENDBRANCH   8   9
ENDBRANCH   1   7
BRANCH   4  12
ATOM     12  O   UNL     1      11.879 -11.192  31.599  1.00  0.00    -0.504 OA
ATOM     13  H   UNL     1      12.011 -11.707  32.461  1.00  0.00     0.293 HD
ENDBRANCH   4  12
BRANCH   6  14
ATOM     14  O   UNL     1       9.264 -11.645  30.630  1.00  0.00    -0.504 OA
ATOM     15  H   UNL     1       8.738 -12.294  31.204  1.00  0.00     0.293 HD
ENDBRANCH   6  14
TORSDOF 4
ENDMDL
MODEL 3
REMARK VINA RESULT:    -6.474      2.219      3.090
REMARK INTER + INTRA:          -7.439
REMARK INTER:                  -7.535
REMARK INTRA:                   0.096
REMARK UNBOUND:                 0.170
REMARK SMILES O=C([O-])C=Cc1ccc(O)c(O)c1
REMARK SMILES IDX 6 1 13 2 7 3 11 4 8 5 9 6 5 7 4 8 2 9 1 10 3 11 12 12 10 14
REMARK H PARENT 12 13 10 15
REMARK Flexibility Score: inf
ROOT
ATOM      1  C   UNL     1      11.227 -12.136  28.782  1.00  0.00    -0.022 A 
ATOM      2  C   UNL     1      11.856 -12.224  30.033  1.00  0.00     0.058 A 
ATOM      3  C   UNL     1      10.704 -10.902  28.360  1.00  0.00     0.012 A 
ATOM      4  C   UNL     1      11.918 -11.110  30.878  1.00  0.00     0.157 A 
ATOM      5  C   UNL     1      10.764  -9.788  29.201  1.00  0.00     0.051 A 
ATOM      6  C   UNL     1      11.366  -9.886  30.464  1.00  0.00     0.157 A 
ENDROOT
BRANCH   1   7
ATOM      7  C   UNL     1      11.224 -13.313  27.890  1.00  0.00     0.010 C 
ATOM      8  C   UNL     1      12.288 -14.084  27.617  1.00  0.00     0.025 C 
BRANCH   8   9
ATOM      9  C   UNL     1      13.681 -13.788  28.004  1.00  0.00     0.064 C 
ATOM     10  O   UNL     1      14.259 -14.531  28.839  1.00  0.00    -0.545 OA
ATOM     11  O   UNL     1      14.393 -12.750  27.414  1.00  0.00    -0.545 OA
ENDBRANCH   8   9
ENDBRANCH   1   7
BRANCH   4  12
ATOM     12  O   UNL     1      12.535 -11.238  32.122  1.00  0.00    -0.504 OA
ATOM     13  H   UNL     1      12.017 -11.160  32.990  1.00  0.00     0.293 HD
ENDBRANCH   4  12
BRANCH   6  14
ATOM     14  O   UNL     1      11.421  -8.774  31.302  1.00  0.00    -0.504 OA
ATOM     15  H   UNL     1      12.124  -8.691  32.028  1.00  0.00     0.293 HD
ENDBRANCH   6  14
TORSDOF 4
ENDMDL
MODEL 4
REMARK VINA RESULT:    -6.363      1.771      2.518
REMARK INTER + INTRA:          -7.309
REMARK INTER:                  -7.837
REMARK INTRA:                   0.528
REMARK UNBOUND:                 0.170
REMARK SMILES O=C([O-])C=Cc1ccc(O)c(O)c1
REMARK SMILES IDX 6 1 13 2 7 3 11 4 8 5 9 6 5 7 4 8 2 9 1 10 3 11 12 12 10 14
REMARK H PARENT 12 13 10 15
REMARK Flexibility Score: inf
ROOT
ATOM      1  C   UNL     1      11.018 -12.115  28.382  1.00  0.00    -0.022 A 
ATOM      2  C   UNL     1       9.776 -11.793  28.947  1.00  0.00     0.058 A 
ATOM      3  C   UNL     1      12.154 -11.374  28.748  1.00  0.00     0.012 A 
ATOM      4  C   UNL     1       9.654 -10.712  29.827  1.00  0.00     0.157 A 
ATOM      5  C   UNL     1      12.036 -10.294  29.626  1.00  0.00     0.051 A 
ATOM      6  C   UNL     1      10.788  -9.954  30.166  1.00  0.00     0.157 A 
ENDROOT
BRANCH   1   7
ATOM      7  C   UNL     1      11.127 -13.294  27.498  1.00  0.00     0.010 C 
ATOM      8  C   UNL     1      12.181 -14.122  27.434  1.00  0.00     0.025 C 
BRANCH   8   9
ATOM      9  C   UNL     1      13.485 -13.899  28.087  1.00  0.00     0.064 C 
ATOM     10  O   UNL     1      14.403 -13.323  27.447  1.00  0.00    -0.545 OA
ATOM     11  O   UNL     1      13.700 -14.246  29.415  1.00  0.00    -0.545 OA
ENDBRANCH   8   9
ENDBRANCH   1   7
BRANCH   4  12
ATOM     12  O   UNL     1       8.400 -10.407  30.357  1.00  0.00    -0.504 OA
ATOM     13  H   UNL     1       8.167 -10.589  31.326  1.00  0.00     0.293 HD
ENDBRANCH   4  12
BRANCH   6  14
ATOM     14  O   UNL     1      10.673  -8.874  31.040  1.00  0.00    -0.504 OA
ATOM     15  H   UNL     1      10.051  -8.097  30.843  1.00  0.00     0.293 HD
ENDBRANCH   6  14
TORSDOF 4
ENDMDL
MODEL 5
REMARK VINA RESULT:    -6.313     12.847     14.422
REMARK INTER + INTRA:          -7.249
REMARK INTER:                  -7.194
REMARK INTRA:                  -0.055
REMARK UNBOUND:                 0.170
REMARK SMILES O=C([O-])C=Cc1ccc(O)c(O)c1
REMARK SMILES IDX 6 1 13 2 7 3 11 4 8 5 9 6 5 7 4 8 2 9 1 10 3 11 12 12 10 14
REMARK H PARENT 12 13 10 15
REMARK Flexibility Score: inf
ROOT
ATOM      1  C   UNL     1      15.439  -0.900  25.928  1.00  0.00    -0.022 A 
ATOM      2  C   UNL     1      15.333  -1.850  26.954  1.00  0.00     0.058 A 
ATOM      3  C   UNL     1      16.685  -0.683  25.317  1.00  0.00     0.012 A 
ATOM      4  C   UNL     1      16.465  -2.540  27.405  1.00  0.00     0.157 A 
ATOM      5  C   UNL     1      17.817  -1.369  25.764  1.00  0.00     0.051 A 
ATOM      6  C   UNL     1      17.715  -2.296  26.811  1.00  0.00     0.157 A 
ENDROOT
BRANCH   1   7
ATOM      7  C   UNL     1      14.219  -0.227  25.437  1.00  0.00     0.010 C 
ATOM      8  C   UNL     1      13.830   1.014  25.768  1.00  0.00     0.025 C 
BRANCH   8   9
ATOM      9  C   UNL     1      14.442   1.851  26.818  1.00  0.00     0.064 C 
ATOM     10  O   UNL     1      14.597   3.083  26.611  1.00  0.00    -0.545 OA
ATOM     11  O   UNL     1      14.785   1.325  28.058  1.00  0.00    -0.545 OA
ENDBRANCH   8   9
ENDBRANCH   1   7
BRANCH   4  12
ATOM     12  O   UNL     1      16.327  -3.464  28.440  1.00  0.00    -0.504 OA
ATOM     13  H   UNL     1      16.781  -4.369  28.417  1.00  0.00     0.293 HD
ENDBRANCH   4  12
BRANCH   6  14
ATOM     14  O   UNL     1      18.846  -2.977  27.257  1.00  0.00    -0.504 OA
ATOM     15  H   UNL     1      19.775  -2.579  27.167  1.00  0.00     0.293 HD
ENDBRANCH   6  14
TORSDOF 4
ENDMDL
MODEL 6
REMARK VINA RESULT:    -6.297     12.939     14.504
REMARK INTER + INTRA:          -7.230
REMARK INTER:                  -7.315
REMARK INTRA:                   0.085
REMARK UNBOUND:                 0.170
REMARK SMILES O=C([O-])C=Cc1ccc(O)c(O)c1
REMARK SMILES IDX 6 1 13 2 7 3 11 4 8 5 9 6 5 7 4 8 2 9 1 10 3 11 12 12 10 14
REMARK H PARENT 12 13 10 15
REMARK Flexibility Score: inf
ROOT
ATOM      1  C   UNL     1      15.265  -0.992  25.969  1.00  0.00    -0.022 A 
ATOM      2  C   UNL     1      16.619  -0.660  25.819  1.00  0.00     0.058 A 
ATOM      3  C   UNL     1      14.908  -2.073  26.793  1.00  0.00     0.012 A 
ATOM      4  C   UNL     1      17.612  -1.427  26.438  1.00  0.00     0.157 A 
ATOM      5  C   UNL     1      15.896  -2.841  27.413  1.00  0.00     0.051 A 
ATOM      6  C   UNL     1      17.251  -2.527  27.236  1.00  0.00     0.157 A 
ENDROOT
BRANCH   1   7
ATOM      7  C   UNL     1      14.236  -0.132  25.348  1.00  0.00     0.010 C 
ATOM      8  C   UNL     1      13.927   1.114  25.737  1.00  0.00     0.025 C 
BRANCH   8   9
ATOM      9  C   UNL     1      14.419   1.775  26.960  1.00  0.00     0.064 C 
ATOM     10  O   UNL     1      14.612   3.019  26.953  1.00  0.00    -0.545 OA
ATOM     11  O   UNL     1      14.604   1.069  28.143  1.00  0.00    -0.545 OA
ENDBRANCH   8   9
ENDBRANCH   1   7
BRANCH   4  12
ATOM     12  O   UNL     1      18.950  -1.081  26.253  1.00  0.00    -0.504 OA
ATOM     13  H   UNL     1      19.295  -0.719  25.372  1.00  0.00     0.293 HD
ENDBRANCH   4  12
BRANCH   6  14
ATOM     14  O   UNL     1      18.236  -3.297  27.853  1.00  0.00    -0.504 OA
ATOM     15  H   UNL     1      18.888  -2.893  28.516  1.00  0.00     0.293 HD
ENDBRANCH   6  14
TORSDOF 4
ENDMDL
MODEL 7
REMARK VINA RESULT:    -6.291      1.390      4.894
REMARK INTER + INTRA:          -7.224
REMARK INTER:                  -7.044
REMARK INTRA:                  -0.180
REMARK UNBOUND:                 0.170
REMARK SMILES O=C([O-])C=Cc1ccc(O)c(O)c1
REMARK SMILES IDX 6 1 13 2 7 3 11 4 8 5 9 6 5 7 4 8 2 9 1 10 3 11 12 12 10 14
REMARK H PARENT 12 13 10 15
REMARK Flexibility Score: inf
ROOT
ATOM      1  C   UNL     1      13.370 -12.780  29.407  1.00  0.00    -0.022 A 
ATOM      2  C   UNL     1      13.208 -14.146  29.683  1.00  0.00     0.058 A 
ATOM      3  C   UNL     1      13.942 -12.388  28.185  1.00  0.00     0.012 A 
ATOM      4  C   UNL     1      13.657 -15.113  28.777  1.00  0.00     0.157 A 
ATOM      5  C   UNL     1      14.392 -13.351  27.278  1.00  0.00     0.051 A 
ATOM      6  C   UNL     1      14.256 -14.716  27.570  1.00  0.00     0.157 A 
ENDROOT
BRANCH   1   7
ATOM      7  C   UNL     1      12.838 -11.782  30.357  1.00  0.00     0.010 C 
ATOM      8  C   UNL     1      11.627 -11.207  30.283  1.00  0.00     0.025 C 
BRANCH   8   9
ATOM      9  C   UNL     1      10.693 -11.324  29.147  1.00  0.00     0.064 C 
ATOM     10  O   UNL     1      10.464 -10.313  28.432  1.00  0.00    -0.545 OA
ATOM     11  O   UNL     1      10.115 -12.540  28.804  1.00  0.00    -0.545 OA
ENDBRANCH   8   9
ENDBRANCH   1   7
BRANCH   4  12
ATOM     12  O   UNL     1      13.497 -16.462  29.092  1.00  0.00    -0.504 OA
ATOM     13  H   UNL     1      13.853 -17.200  28.497  1.00  0.00     0.293 HD
ENDBRANCH   4  12
BRANCH   6  14
ATOM     14  O   UNL     1      14.709 -15.674  26.665  1.00  0.00    -0.504 OA
ATOM     15  H   UNL     1      14.187 -16.525  26.487  1.00  0.00     0.293 HD
ENDBRANCH   6  14
TORSDOF 4
ENDMDL
MODEL 8
REMARK VINA RESULT:    -6.057      2.037      5.268
REMARK INTER + INTRA:          -6.949
REMARK INTER:                  -6.922
REMARK INTRA:                  -0.027
REMARK UNBOUND:                 0.170
REMARK SMILES O=C([O-])C=Cc1ccc(O)c(O)c1
REMARK SMILES IDX 6 1 13 2 7 3 11 4 8 5 9 6 5 7 4 8 2 9 1 10 3 11 12 12 10 14
REMARK H PARENT 12 13 10 15
REMARK Flexibility Score: inf
ROOT
ATOM      1  C   UNL     1      11.064 -12.626  28.994  1.00  0.00    -0.022 A 
ATOM      2  C   UNL     1      12.212 -12.751  29.790  1.00  0.00     0.058 A 
ATOM      3  C   UNL     1      11.037 -13.230  27.727  1.00  0.00     0.012 A 
ATOM      4  C   UNL     1      13.342 -13.424  29.310  1.00  0.00     0.157 A 
ATOM      5  C   UNL     1      12.162 -13.903  27.243  1.00  0.00     0.051 A 
ATOM      6  C   UNL     1      13.320 -14.000  28.028  1.00  0.00     0.157 A 
ENDROOT
BRANCH   1   7
ATOM      7  C   UNL     1       9.869 -11.957  29.548  1.00  0.00     0.010 C 
ATOM      8  C   UNL     1       9.773 -10.648  29.828  1.00  0.00     0.025 C 
BRANCH   8   9
ATOM      9  C   UNL     1      10.890  -9.685  29.813  1.00  0.00     0.064 C 
ATOM     10  O   UNL     1      11.292  -9.192  30.900  1.00  0.00    -0.545 OA
ATOM     11  O   UNL     1      11.556  -9.363  28.637  1.00  0.00    -0.545 OA
ENDBRANCH   8   9
ENDBRANCH   1   7
BRANCH   4  12
ATOM     12  O   UNL     1      14.473 -13.513  30.121  1.00  0.00    -0.504 OA
ATOM     13  H   UNL     1      15.320 -13.976  29.814  1.00  0.00     0.293 HD
ENDBRANCH   4  12
BRANCH   6  14
ATOM     14  O   UNL     1      14.442 -14.669  27.543  1.00  0.00    -0.504 OA
ATOM     15  H   UNL     1      15.256 -14.166  27.207  1.00  0.00     0.293 HD
ENDBRANCH   6  14
TORSDOF 4
ENDMDL
MODEL 9
REMARK VINA RESULT:    -5.967      1.654      2.230
REMARK INTER + INTRA:          -6.843
REMARK INTER:                  -7.301
REMARK INTRA:                   0.458
REMARK UNBOUND:                 0.170
REMARK SMILES O=C([O-])C=Cc1ccc(O)c(O)c1
REMARK SMILES IDX 6 1 13 2 7 3 11 4 8 5 9 6 5 7 4 8 2 9 1 10 3 11 12 12 10 14
REMARK H PARENT 12 13 10 15
REMARK Flexibility Score: inf
ROOT
ATOM      1  C   UNL     1      12.161 -11.694  29.759  1.00  0.00    -0.022 A 
ATOM      2  C   UNL     1      11.251 -12.573  29.154  1.00  0.00     0.058 A 
ATOM      3  C   UNL     1      11.738 -10.402  30.111  1.00  0.00     0.012 A 
ATOM      4  C   UNL     1       9.950 -12.155  28.853  1.00  0.00     0.157 A 
ATOM      5  C   UNL     1      10.440  -9.980  29.812  1.00  0.00     0.051 A 
ATOM      6  C   UNL     1       9.542 -10.850  29.179  1.00  0.00     0.157 A 
ENDROOT
BRANCH   1   7
ATOM      7  C   UNL     1      13.510 -12.180  30.113  1.00  0.00     0.010 C 
ATOM      8  C   UNL     1      14.242 -13.038  29.386  1.00  0.00     0.025 C 
BRANCH   8   9
ATOM      9  C   UNL     1      13.762 -13.791  28.212  1.00  0.00     0.064 C 
ATOM     10  O   UNL     1      13.852 -13.272  27.068  1.00  0.00    -0.545 OA
ATOM     11  O   UNL     1      13.278 -15.089  28.329  1.00  0.00    -0.545 OA
ENDBRANCH   8   9
ENDBRANCH   1   7
BRANCH   4  12
ATOM     12  O   UNL     1       9.077 -13.049  28.234  1.00  0.00    -0.504 OA
ATOM     13  H   UNL     1       8.461 -13.654  28.763  1.00  0.00     0.293 HD
ENDBRANCH   4  12
BRANCH   6  14
ATOM     14  O   UNL     1       8.248 -10.426  28.879  1.00  0.00    -0.504 OA
ATOM     15  H   UNL     1       7.443 -11.018  29.051  1.00  0.00     0.293 HD
ENDBRANCH   6  14
TORSDOF 4
ENDMDL
