MODEL 1
REMARK VINA RESULT:    -3.979      0.000      0.000
REMARK INTER + INTRA:          -5.421
REMARK INTER:                  -5.141
REMARK INTRA:                  -0.280
REMARK UNBOUND:                -0.280
REMARK SMILES CCOC(=O)C=Cc1ccc(O)c(O)c1
REMARK SMILES IDX 6 1 7 2 4 3 5 4 3 5 2 6 1 7 8 8 15 9 9 10 13 11 10 12 11 13
REMARK SMILES IDX 14 14 12 16
REMARK H PARENT 14 15 12 17
REMARK Flexibility Score: inf
ROOT
ATOM      1  C   UNL     1     -10.259 -20.492  17.793  1.00  0.00     0.094 C 
ATOM      2  C   UNL     1     -11.009 -20.008  18.792  1.00  0.00     0.016 C 
ENDROOT
BRANCH   1   3
ATOM      3  C   UNL     1     -10.857 -21.031  16.562  1.00  0.00     0.330 C 
ATOM      4  O   UNL     1     -11.125 -22.262  16.498  1.00  0.00    -0.247 OA
BRANCH   3   5
ATOM      5  O   UNL     1     -11.125 -20.192  15.475  1.00  0.00    -0.463 OA
BRANCH   5   6
ATOM      6  C   UNL     1     -10.565 -20.404  14.184  1.00  0.00     0.230 C 
ATOM      7  C   UNL     1      -9.048 -20.384  14.277  1.00  0.00     0.049 C 
ENDBRANCH   5   6
ENDBRANCH   3   5
ENDBRANCH   1   3
BRANCH   2   8
ATOM      8  C   UNL     1     -10.451 -19.465  20.055  1.00  0.00    -0.021 A 
ATOM      9  C   UNL     1     -10.060 -20.291  21.127  1.00  0.00     0.058 A 
ATOM     10  C   UNL     1     -10.272 -18.079  20.169  1.00  0.00     0.012 A 
ATOM     11  C   UNL     1      -9.525 -19.743  22.301  1.00  0.00     0.157 A 
ATOM     12  C   UNL     1      -9.744 -17.525  21.336  1.00  0.00     0.051 A 
ATOM     13  C   UNL     1      -9.371 -18.341  22.408  1.00  0.00     0.157 A 
BRANCH  11  14
ATOM     14  O   UNL     1      -9.160 -20.622  23.322  1.00  0.00    -0.504 OA
ATOM     15  H   UNL     1      -8.462 -20.416  24.022  1.00  0.00     0.293 HD
ENDBRANCH  11  14
BRANCH  13  16
ATOM     16  O   UNL     1      -8.853 -17.723  23.549  1.00  0.00    -0.504 OA
ATOM     17  H   UNL     1      -8.902 -16.731  23.725  1.00  0.00     0.293 HD
ENDBRANCH  13  16
ENDBRANCH   2   8
TORSDOF 6
ENDMDL
MODEL 2
REMARK VINA RESULT:    -3.296     18.429     20.991
REMARK INTER + INTRA:          -4.539
REMARK INTER:                  -4.300
REMARK INTRA:                  -0.239
REMARK UNBOUND:                -0.280
REMARK SMILES CCOC(=O)C=Cc1ccc(O)c(O)c1
REMARK SMILES IDX 6 1 7 2 4 3 5 4 3 5 2 6 1 7 8 8 15 9 9 10 13 11 10 12 11 13
REMARK SMILES IDX 14 14 12 16
REMARK H PARENT 14 15 12 17
REMARK Flexibility Score: inf
ROOT
ATOM      1  C   UNL     1       8.309 -21.362  13.208  1.00  0.00     0.094 C 
ATOM      2  C   UNL     1       7.974 -20.652  12.122  1.00  0.00     0.016 C 
ENDROOT
BRANCH   1   3
ATOM      3  C   UNL     1       8.012 -20.888  14.569  1.00  0.00     0.330 C 
ATOM      4  O   UNL     1       8.317 -19.707  14.888  1.00  0.00    -0.247 OA
BRANCH   3   5
ATOM      5  O   UNL     1       7.400 -21.735  15.498  1.00  0.00    -0.463 OA
BRANCH   5   6
ATOM      6  C   UNL     1       7.482 -21.523  16.903  1.00  0.00     0.230 C 
ATOM      7  C   UNL     1       6.099 -21.219  17.454  1.00  0.00     0.049 C 
ENDBRANCH   5   6
ENDBRANCH   3   5
ENDBRANCH   1   3
BRANCH   2   8
ATOM      8  C   UNL     1       8.264 -21.085  10.732  1.00  0.00    -0.021 A 
ATOM      9  C   UNL     1       8.380 -20.175   9.664  1.00  0.00     0.058 A 
ATOM     10  C   UNL     1       8.464 -22.450  10.483  1.00  0.00     0.012 A 
ATOM     11  C   UNL     1       8.666 -20.619   8.366  1.00  0.00     0.157 A 
ATOM     12  C   UNL     1       8.746 -22.902   9.192  1.00  0.00     0.051 A 
ATOM     13  C   UNL     1       8.846 -22.002   8.127  1.00  0.00     0.157 A 
BRANCH  11  14
ATOM     14  O   UNL     1       8.767 -19.660   7.356  1.00  0.00    -0.504 OA
ATOM     15  H   UNL     1       8.266 -19.707   6.481  1.00  0.00     0.293 HD
ENDBRANCH  11  14
BRANCH  13  16
ATOM     16  O   UNL     1       9.125 -22.519   6.860  1.00  0.00    -0.504 OA
ATOM     17  H   UNL     1      10.057 -22.680   6.508  1.00  0.00     0.293 HD
ENDBRANCH  13  16
ENDBRANCH   2   8
TORSDOF 6
ENDMDL
MODEL 3
REMARK VINA RESULT:    -3.175     17.860     20.339
REMARK INTER + INTRA:          -4.383
REMARK INTER:                  -4.207
REMARK INTRA:                  -0.176
REMARK UNBOUND:                -0.280
REMARK SMILES CCOC(=O)C=Cc1ccc(O)c(O)c1
REMARK SMILES IDX 6 1 7 2 4 3 5 4 3 5 2 6 1 7 8 8 15 9 9 10 13 11 10 12 11 13
REMARK SMILES IDX 14 14 12 16
REMARK H PARENT 14 15 12 17
REMARK Flexibility Score: inf
ROOT
ATOM      1  C   UNL     1       6.478 -22.017  12.867  1.00  0.00     0.094 C 
ATOM      2  C   UNL     1       7.708 -22.149  12.352  1.00  0.00     0.016 C 
ENDROOT
BRANCH   1   3
ATOM      3  C   UNL     1       6.161 -22.436  14.242  1.00  0.00     0.330 C 
ATOM      4  O   UNL     1       4.968 -22.717  14.539  1.00  0.00    -0.247 OA
BRANCH   3   5
ATOM      5  O   UNL     1       7.169 -22.521  15.208  1.00  0.00    -0.463 OA
BRANCH   5   6
ATOM      6  C   UNL     1       7.448 -21.467  16.123  1.00  0.00     0.230 C 
ATOM      7  C   UNL     1       6.336 -21.382  17.156  1.00  0.00     0.049 C 
ENDBRANCH   5   6
ENDBRANCH   3   5
ENDBRANCH   1   3
BRANCH   2   8
ATOM      8  C   UNL     1       8.069 -21.752  10.969  1.00  0.00    -0.021 A 
ATOM      9  C   UNL     1       7.930 -22.621   9.870  1.00  0.00     0.058 A 
ATOM     10  C   UNL     1       8.533 -20.448  10.745  1.00  0.00     0.012 A 
ATOM     11  C   UNL     1       8.271 -22.208   8.575  1.00  0.00     0.157 A 
ATOM     12  C   UNL     1       8.878 -20.029   9.459  1.00  0.00     0.051 A 
ATOM     13  C   UNL     1       8.757 -20.895   8.369  1.00  0.00     0.157 A 
BRANCH  11  14
ATOM     14  O   UNL     1       8.107 -23.124   7.534  1.00  0.00    -0.504 OA
ATOM     15  H   UNL     1       8.350 -22.935   6.573  1.00  0.00     0.293 HD
ENDBRANCH  11  14
BRANCH  13  16
ATOM     16  O   UNL     1       9.124 -20.416   7.110  1.00  0.00    -0.504 OA
ATOM     17  H   UNL     1       9.907 -20.767   6.578  1.00  0.00     0.293 HD
ENDBRANCH  13  16
ENDBRANCH   2   8
TORSDOF 6
ENDMDL
MODEL 4
REMARK VINA RESULT:    -2.940     17.191     19.699
REMARK INTER + INTRA:          -4.079
REMARK INTER:                  -3.833
REMARK INTRA:                  -0.246
REMARK UNBOUND:                -0.280
REMARK SMILES CCOC(=O)C=Cc1ccc(O)c(O)c1
REMARK SMILES IDX 6 1 7 2 4 3 5 4 3 5 2 6 1 7 8 8 15 9 9 10 13 11 10 12 11 13
REMARK SMILES IDX 14 14 12 16
REMARK H PARENT 14 15 12 17
REMARK Flexibility Score: inf
ROOT
ATOM      1  C   UNL     1       6.204 -22.130  12.992  1.00  0.00     0.094 C 
ATOM      2  C   UNL     1       7.478 -22.020  12.591  1.00  0.00     0.016 C 
ENDROOT
BRANCH   1   3
ATOM      3  C   UNL     1       5.849 -22.390  14.396  1.00  0.00     0.330 C 
ATOM      4  O   UNL     1       6.727 -22.238  15.289  1.00  0.00    -0.247 OA
BRANCH   3   5
ATOM      5  O   UNL     1       4.556 -22.800  14.738  1.00  0.00    -0.463 OA
BRANCH   5   6
ATOM      6  C   UNL     1       3.559 -23.090  13.765  1.00  0.00     0.230 C 
ATOM      7  C   UNL     1       2.183 -22.813  14.349  1.00  0.00     0.049 C 
ENDBRANCH   5   6
ENDBRANCH   3   5
ENDBRANCH   1   3
BRANCH   2   8
ATOM      8  C   UNL     1       7.882 -21.771  11.186  1.00  0.00    -0.021 A 
ATOM      9  C   UNL     1       7.430 -22.566  10.115  1.00  0.00     0.058 A 
ATOM     10  C   UNL     1       8.718 -20.679  10.911  1.00  0.00     0.012 A 
ATOM     11  C   UNL     1       7.824 -22.294   8.798  1.00  0.00     0.157 A 
ATOM     12  C   UNL     1       9.117 -20.403   9.603  1.00  0.00     0.051 A 
ATOM     13  C   UNL     1       8.684 -21.200   8.540  1.00  0.00     0.157 A 
BRANCH  11  14
ATOM     14  O   UNL     1       7.337 -23.124   7.787  1.00  0.00    -0.504 OA
ATOM     15  H   UNL     1       7.847 -23.907   7.404  1.00  0.00     0.293 HD
ENDBRANCH  11  14
BRANCH  13  16
ATOM     16  O   UNL     1       9.125 -20.873   7.256  1.00  0.00    -0.504 OA
ATOM     17  H   UNL     1       9.793 -20.144   7.057  1.00  0.00     0.293 HD
ENDBRANCH  13  16
ENDBRANCH   2   8
TORSDOF 6
ENDMDL
MODEL 5
REMARK VINA RESULT:    -2.938      2.062      2.728
REMARK INTER + INTRA:          -4.077
REMARK INTER:                  -3.826
REMARK INTRA:                  -0.251
REMARK UNBOUND:                -0.280
REMARK SMILES CCOC(=O)C=Cc1ccc(O)c(O)c1
REMARK SMILES IDX 6 1 7 2 4 3 5 4 3 5 2 6 1 7 8 8 15 9 9 10 13 11 10 12 11 13
REMARK SMILES IDX 14 14 12 16
REMARK H PARENT 14 15 12 17
REMARK Flexibility Score: inf
ROOT
ATOM      1  C   UNL     1      -9.254 -21.018  18.605  1.00  0.00     0.094 C 
ATOM      2  C   UNL     1     -10.321 -20.839  19.395  1.00  0.00     0.016 C 
ENDROOT
BRANCH   1   3
ATOM      3  C   UNL     1      -9.304 -21.878  17.412  1.00  0.00     0.330 C 
ATOM      4  O   UNL     1     -10.319 -21.832  16.665  1.00  0.00    -0.247 OA
BRANCH   3   5
ATOM      5  O   UNL     1      -8.242 -22.736  17.109  1.00  0.00    -0.463 OA
BRANCH   5   6
ATOM      6  C   UNL     1      -7.135 -22.337  16.308  1.00  0.00     0.230 C 
ATOM      7  C   UNL     1      -5.899 -22.198  17.181  1.00  0.00     0.049 C 
ENDBRANCH   5   6
ENDBRANCH   3   5
ENDBRANCH   1   3
BRANCH   2   8
ATOM      8  C   UNL     1     -10.312 -19.992  20.613  1.00  0.00    -0.021 A 
ATOM      9  C   UNL     1      -9.582 -18.791  20.696  1.00  0.00     0.058 A 
ATOM     10  C   UNL     1     -11.090 -20.387  21.710  1.00  0.00     0.012 A 
ATOM     11  C   UNL     1      -9.607 -18.010  21.859  1.00  0.00     0.157 A 
ATOM     12  C   UNL     1     -11.118 -19.617  22.875  1.00  0.00     0.051 A 
ATOM     13  C   UNL     1     -10.381 -18.433  22.966  1.00  0.00     0.157 A 
BRANCH  11  14
ATOM     14  O   UNL     1      -8.859 -16.831  21.869  1.00  0.00    -0.504 OA
ATOM     15  H   UNL     1      -8.362 -16.471  21.068  1.00  0.00     0.293 HD
ENDBRANCH  11  14
BRANCH  13  16
ATOM     16  O   UNL     1     -10.448 -17.713  24.160  1.00  0.00    -0.504 OA
ATOM     17  H   UNL     1      -9.665 -17.226  24.571  1.00  0.00     0.293 HD
ENDBRANCH  13  16
ENDBRANCH   2   8
TORSDOF 6
ENDMDL
MODEL 6
REMARK VINA RESULT:    -2.921      1.808      6.413
REMARK INTER + INTRA:          -4.055
REMARK INTER:                  -3.853
REMARK INTRA:                  -0.202
REMARK UNBOUND:                -0.280
REMARK SMILES CCOC(=O)C=Cc1ccc(O)c(O)c1
REMARK SMILES IDX 6 1 7 2 4 3 5 4 3 5 2 6 1 7 8 8 15 9 9 10 13 11 10 12 11 13
REMARK SMILES IDX 14 14 12 16
REMARK H PARENT 14 15 12 17
REMARK Flexibility Score: inf
ROOT
ATOM      1  C   UNL     1     -10.205 -19.670  20.649  1.00  0.00     0.094 C 
ATOM      2  C   UNL     1     -10.683 -20.548  19.756  1.00  0.00     0.016 C 
ENDROOT
BRANCH   1   3
ATOM      3  C   UNL     1     -10.614 -19.697  22.062  1.00  0.00     0.330 C 
ATOM      4  O   UNL     1     -10.542 -18.637  22.742  1.00  0.00    -0.247 OA
BRANCH   3   5
ATOM      5  O   UNL     1     -11.076 -20.881  22.645  1.00  0.00    -0.463 OA
BRANCH   5   6
ATOM      6  C   UNL     1     -10.267 -21.687  23.494  1.00  0.00     0.230 C 
ATOM      7  C   UNL     1      -8.812 -21.569  23.072  1.00  0.00     0.049 C 
ENDBRANCH   5   6
ENDBRANCH   3   5
ENDBRANCH   1   3
BRANCH   2   8
ATOM      8  C   UNL     1     -10.309 -20.550  18.321  1.00  0.00    -0.021 A 
ATOM      9  C   UNL     1      -9.191 -21.252  17.830  1.00  0.00     0.058 A 
ATOM     10  C   UNL     1     -11.122 -19.856  17.414  1.00  0.00     0.012 A 
ATOM     11  C   UNL     1      -8.874 -21.242  16.465  1.00  0.00     0.157 A 
ATOM     12  C   UNL     1     -10.812 -19.837  16.053  1.00  0.00     0.051 A 
ATOM     13  C   UNL     1      -9.694 -20.519  15.566  1.00  0.00     0.157 A 
BRANCH  11  14
ATOM     14  O   UNL     1      -7.752 -21.961  16.051  1.00  0.00    -0.504 OA
ATOM     15  H   UNL     1      -6.973 -21.554  15.553  1.00  0.00     0.293 HD
ENDBRANCH  11  14
BRANCH  13  16
ATOM     16  O   UNL     1      -9.436 -20.456  14.195  1.00  0.00    -0.504 OA
ATOM     17  H   UNL     1     -10.130 -20.626  13.481  1.00  0.00     0.293 HD
ENDBRANCH  13  16
ENDBRANCH   2   8
TORSDOF 6
ENDMDL
MODEL 7
REMARK VINA RESULT:    -2.900      3.454      6.640
REMARK INTER + INTRA:          -4.027
REMARK INTER:                  -3.709
REMARK INTRA:                  -0.318
REMARK UNBOUND:                -0.280
REMARK SMILES CCOC(=O)C=Cc1ccc(O)c(O)c1
REMARK SMILES IDX 6 1 7 2 4 3 5 4 3 5 2 6 1 7 8 8 15 9 9 10 13 11 10 12 11 13
REMARK SMILES IDX 14 14 12 16
REMARK H PARENT 14 15 12 17
REMARK Flexibility Score: inf
ROOT
ATOM      1  C   UNL     1      -9.154 -21.993  21.385  1.00  0.00     0.094 C 
ATOM      2  C   UNL     1      -9.261 -22.600  20.195  1.00  0.00     0.016 C 
ENDROOT
BRANCH   1   3
ATOM      3  C   UNL     1     -10.253 -22.000  22.363  1.00  0.00     0.330 C 
ATOM      4  O   UNL     1     -10.593 -23.091  22.897  1.00  0.00    -0.247 OA
BRANCH   3   5
ATOM      5  O   UNL     1     -10.914 -20.813  22.698  1.00  0.00    -0.463 OA
BRANCH   5   6
ATOM      6  C   UNL     1     -10.834 -19.637  21.900  1.00  0.00     0.230 C 
ATOM      7  C   UNL     1      -9.957 -18.609  22.596  1.00  0.00     0.049 C 
ENDBRANCH   5   6
ENDBRANCH   3   5
ENDBRANCH   1   3
BRANCH   2   8
ATOM      8  C   UNL     1      -8.184 -22.608  19.174  1.00  0.00    -0.021 A 
ATOM      9  C   UNL     1      -8.370 -22.105  17.873  1.00  0.00     0.058 A 
ATOM     10  C   UNL     1      -6.923 -23.105  19.534  1.00  0.00     0.012 A 
ATOM     11  C   UNL     1      -7.326 -22.119  16.938  1.00  0.00     0.157 A 
ATOM     12  C   UNL     1      -5.878 -23.125  18.607  1.00  0.00     0.051 A 
ATOM     13  C   UNL     1      -6.065 -22.641  17.310  1.00  0.00     0.157 A 
BRANCH  11  14
ATOM     14  O   UNL     1      -7.583 -21.603  15.666  1.00  0.00    -0.504 OA
ATOM     15  H   UNL     1      -7.601 -20.617  15.450  1.00  0.00     0.293 HD
ENDBRANCH  11  14
BRANCH  13  16
ATOM     16  O   UNL     1      -4.982 -22.696  16.430  1.00  0.00    -0.504 OA
ATOM     17  H   UNL     1      -4.471 -23.539  16.214  1.00  0.00     0.293 HD
ENDBRANCH  13  16
ENDBRANCH   2   8
TORSDOF 6
ENDMDL
MODEL 8
REMARK VINA RESULT:    -2.600      4.107      6.461
REMARK INTER + INTRA:          -3.641
REMARK INTER:                  -3.379
REMARK INTRA:                  -0.262
REMARK UNBOUND:                -0.280
REMARK SMILES CCOC(=O)C=Cc1ccc(O)c(O)c1
REMARK SMILES IDX 6 1 7 2 4 3 5 4 3 5 2 6 1 7 8 8 15 9 9 10 13 11 10 12 11 13
REMARK SMILES IDX 14 14 12 16
REMARK H PARENT 14 15 12 17
REMARK Flexibility Score: inf
ROOT
ATOM      1  C   UNL     1      -9.192 -21.246  18.911  1.00  0.00     0.094 C 
ATOM      2  C   UNL     1      -8.605 -22.336  18.398  1.00  0.00     0.016 C 
ENDROOT
BRANCH   1   3
ATOM      3  C   UNL     1     -10.511 -21.305  19.559  1.00  0.00     0.330 C 
ATOM      4  O   UNL     1     -11.084 -22.422  19.686  1.00  0.00    -0.247 OA
BRANCH   3   5
ATOM      5  O   UNL     1     -11.125 -20.139  20.030  1.00  0.00    -0.463 OA
BRANCH   5   6
ATOM      6  C   UNL     1     -10.627 -18.838  19.740  1.00  0.00     0.230 C 
ATOM      7  C   UNL     1      -9.836 -18.319  20.930  1.00  0.00     0.049 C 
ENDBRANCH   5   6
ENDBRANCH   3   5
ENDBRANCH   1   3
BRANCH   2   8
ATOM      8  C   UNL     1      -7.283 -22.321  17.725  1.00  0.00    -0.021 A 
ATOM      9  C   UNL     1      -7.013 -21.516  16.602  1.00  0.00     0.058 A 
ATOM     10  C   UNL     1      -6.253 -23.113  18.253  1.00  0.00     0.012 A 
ATOM     11  C   UNL     1      -5.747 -21.520  15.999  1.00  0.00     0.157 A 
ATOM     12  C   UNL     1      -4.991 -23.125  17.657  1.00  0.00     0.051 A 
ATOM     13  C   UNL     1      -4.725 -22.340  16.532  1.00  0.00     0.157 A 
BRANCH  11  14
ATOM     14  O   UNL     1      -5.552 -20.696  14.889  1.00  0.00    -0.504 OA
ATOM     15  H   UNL     1      -4.796 -20.809  14.229  1.00  0.00     0.293 HD
ENDBRANCH  11  14
BRANCH  13  16
ATOM     16  O   UNL     1      -3.443 -22.402  15.981  1.00  0.00    -0.504 OA
ATOM     17  H   UNL     1      -2.604 -22.559  16.519  1.00  0.00     0.293 HD
ENDBRANCH  13  16
ENDBRANCH   2   8
TORSDOF 6
ENDMDL
MODEL 9
REMARK VINA RESULT:    -2.528      2.414      2.705
REMARK INTER + INTRA:          -3.546
REMARK INTER:                  -3.272
REMARK INTRA:                  -0.274
REMARK UNBOUND:                -0.280
REMARK SMILES CCOC(=O)C=Cc1ccc(O)c(O)c1
REMARK SMILES IDX 6 1 7 2 4 3 5 4 3 5 2 6 1 7 8 8 15 9 9 10 13 11 10 12 11 13
REMARK SMILES IDX 14 14 12 16
REMARK H PARENT 14 15 12 17
REMARK Flexibility Score: inf
ROOT
ATOM      1  C   UNL     1      -8.881 -21.481  18.614  1.00  0.00     0.094 C 
ATOM      2  C   UNL     1      -9.768 -20.497  18.814  1.00  0.00     0.016 C 
ENDROOT
BRANCH   1   3
ATOM      3  C   UNL     1      -8.569 -21.986  17.268  1.00  0.00     0.330 C 
ATOM      4  O   UNL     1      -9.028 -21.379  16.263  1.00  0.00    -0.247 OA
BRANCH   3   5
ATOM      5  O   UNL     1      -7.774 -23.125  17.103  1.00  0.00    -0.463 OA
BRANCH   5   6
ATOM      6  C   UNL     1      -6.492 -23.086  16.486  1.00  0.00     0.230 C 
ATOM      7  C   UNL     1      -5.532 -22.290  17.355  1.00  0.00     0.049 C 
ENDBRANCH   5   6
ENDBRANCH   3   5
ENDBRANCH   1   3
BRANCH   2   8
ATOM      8  C   UNL     1     -10.123 -19.965  20.153  1.00  0.00    -0.021 A 
ATOM      9  C   UNL     1     -10.469 -20.800  21.232  1.00  0.00     0.058 A 
ATOM     10  C   UNL     1     -10.075 -18.579  20.358  1.00  0.00     0.012 A 
ATOM     11  C   UNL     1     -10.788 -20.262  22.487  1.00  0.00     0.157 A 
ATOM     12  C   UNL     1     -10.393 -18.035  21.603  1.00  0.00     0.051 A 
ATOM     13  C   UNL     1     -10.754 -18.860  22.672  1.00  0.00     0.157 A 
BRANCH  11  14
ATOM     14  O   UNL     1     -11.122 -21.150  23.511  1.00  0.00    -0.504 OA
ATOM     15  H   UNL     1     -10.456 -21.747  23.980  1.00  0.00     0.293 HD
ENDBRANCH  11  14
BRANCH  13  16
ATOM     16  O   UNL     1     -11.067 -18.252  23.890  1.00  0.00    -0.504 OA
ATOM     17  H   UNL     1     -11.381 -18.754  24.708  1.00  0.00     0.293 HD
ENDBRANCH  13  16
ENDBRANCH   2   8
TORSDOF 6
ENDMDL
