MODEL 1
REMARK VINA RESULT:    -3.698      0.000      0.000
REMARK INTER + INTRA:          -6.440
REMARK INTER:                  -5.643
REMARK INTRA:                  -0.797
REMARK UNBOUND:                -0.797
REMARK SMILES O=C([O-])CCCCCCCCC(=O)[O-]
REMARK SMILES IDX 7 1 6 2 5 3 4 4 2 5 1 6 3 7 8 8 9 9 10 10 11 11 12 12 13 13
REMARK SMILES IDX 14 14
REMARK H PARENT
REMARK Flexibility Score: inf
ROOT
ATOM      1  C   UNL     1      28.929  11.961 -15.006  1.00  0.00     0.000 C 
ENDROOT
BRANCH   1   2
ATOM      2  C   UNL     1      29.881  12.433 -13.892  1.00  0.00     0.000 C 
BRANCH   2   3
ATOM      3  C   UNL     1      29.222  13.295 -12.794  1.00  0.00     0.006 C 
BRANCH   3   4
ATOM      4  C   UNL     1      27.749  13.644 -13.054  1.00  0.00     0.053 C 
BRANCH   4   5
ATOM      5  C   UNL     1      27.242  14.678 -12.096  1.00  0.00     0.041 C 
ATOM      6  O   UNL     1      27.678  15.859 -12.146  1.00  0.00    -0.550 OA
ATOM      7  O   UNL     1      26.263  14.345 -11.169  1.00  0.00    -0.550 OA
ENDBRANCH   4   5
ENDBRANCH   3   4
ENDBRANCH   2   3
ENDBRANCH   1   2
BRANCH   1   8
ATOM      8  C   UNL     1      29.478  12.226 -16.416  1.00  0.00     0.000 C 
BRANCH   8   9
ATOM      9  C   UNL     1      28.569  13.197 -17.185  1.00  0.00     0.000 C 
BRANCH   9  10
ATOM     10  C   UNL     1      29.347  14.355 -17.829  1.00  0.00     0.006 C 
BRANCH  10  11
ATOM     11  C   UNL     1      30.457  14.898 -16.921  1.00  0.00     0.053 C 
BRANCH  11  12
ATOM     12  C   UNL     1      30.001  16.144 -16.230  1.00  0.00     0.041 C 
ATOM     13  O   UNL     1      30.029  17.249 -16.832  1.00  0.00    -0.550 OA
ATOM     14  O   UNL     1      29.593  16.093 -14.903  1.00  0.00    -0.550 OA
ENDBRANCH  11  12
ENDBRANCH  10  11
ENDBRANCH   9  10
ENDBRANCH   8   9
ENDBRANCH   1   8
TORSDOF 9
ENDMDL
MODEL 2
REMARK VINA RESULT:    -3.662      1.509      2.283
REMARK INTER + INTRA:          -6.385
REMARK INTER:                  -5.543
REMARK INTRA:                  -0.842
REMARK UNBOUND:                -0.797
REMARK SMILES O=C([O-])CCCCCCCCC(=O)[O-]
REMARK SMILES IDX 7 1 6 2 5 3 4 4 2 5 1 6 3 7 8 8 9 9 10 10 11 11 12 12 13 13
REMARK SMILES IDX 14 14
REMARK H PARENT
REMARK Flexibility Score: inf
ROOT
ATOM      1  C   UNL     1      29.992  11.182 -13.058  1.00  0.00     0.000 C 
ENDROOT
BRANCH   1   2
ATOM      2  C   UNL     1      29.695  12.383 -12.143  1.00  0.00     0.000 C 
BRANCH   2   3
ATOM      3  C   UNL     1      28.210  12.565 -11.767  1.00  0.00     0.006 C 
BRANCH   3   4
ATOM      4  C   UNL     1      27.475  13.646 -12.573  1.00  0.00     0.053 C 
BRANCH   4   5
ATOM      5  C   UNL     1      27.040  14.790 -11.707  1.00  0.00     0.041 C 
ATOM      6  O   UNL     1      26.188  14.608 -10.797  1.00  0.00    -0.550 OA
ATOM      7  O   UNL     1      27.599  16.048 -11.886  1.00  0.00    -0.550 OA
ENDBRANCH   4   5
ENDBRANCH   3   4
ENDBRANCH   2   3
ENDBRANCH   1   2
BRANCH   1   8
ATOM      8  C   UNL     1      30.319  11.593 -14.502  1.00  0.00     0.000 C 
BRANCH   8   9
ATOM      9  C   UNL     1      29.167  11.229 -15.450  1.00  0.00     0.000 C 
BRANCH   9  10
ATOM     10  C   UNL     1      28.457  12.465 -16.024  1.00  0.00     0.006 C 
BRANCH  10  11
ATOM     11  C   UNL     1      29.328  13.726 -15.965  1.00  0.00     0.053 C 
BRANCH  11  12
ATOM     12  C   UNL     1      29.440  14.346 -17.322  1.00  0.00     0.041 C 
ATOM     13  O   UNL     1      29.355  13.631 -18.355  1.00  0.00    -0.550 OA
ATOM     14  O   UNL     1      29.689  15.707 -17.447  1.00  0.00    -0.550 OA
ENDBRANCH  11  12
ENDBRANCH  10  11
ENDBRANCH   9  10
ENDBRANCH   8   9
ENDBRANCH   1   8
TORSDOF 9
ENDMDL
MODEL 3
REMARK VINA RESULT:    -3.644      0.951      4.992
REMARK INTER + INTRA:          -6.358
REMARK INTER:                  -5.570
REMARK INTRA:                  -0.787
REMARK UNBOUND:                -0.797
REMARK SMILES O=C([O-])CCCCCCCCC(=O)[O-]
REMARK SMILES IDX 7 1 6 2 5 3 4 4 2 5 1 6 3 7 8 8 9 9 10 10 11 11 12 12 13 13
REMARK SMILES IDX 14 14
REMARK H PARENT
REMARK Flexibility Score: inf
ROOT
ATOM      1  C   UNL     1      29.511  11.469 -15.812  1.00  0.00     0.000 C 
ENDROOT
BRANCH   1   2
ATOM      2  C   UNL     1      28.409  12.466 -16.215  1.00  0.00     0.000 C 
BRANCH   2   3
ATOM      3  C   UNL     1      28.838  13.532 -17.245  1.00  0.00     0.006 C 
BRANCH   3   4
ATOM      4  C   UNL     1      30.143  14.265 -16.899  1.00  0.00     0.053 C 
BRANCH   4   5
ATOM      5  C   UNL     1      29.885  15.623 -16.319  1.00  0.00     0.041 C 
ATOM      6  O   UNL     1      29.870  16.638 -17.064  1.00  0.00    -0.550 OA
ATOM      7  O   UNL     1      29.631  15.761 -14.961  1.00  0.00    -0.550 OA
ENDBRANCH   4   5
ENDBRANCH   3   4
ENDBRANCH   2   3
ENDBRANCH   1   2
BRANCH   1   8
ATOM      8  C   UNL     1      29.592  11.244 -14.295  1.00  0.00     0.000 C 
BRANCH   8   9
ATOM      9  C   UNL     1      29.968  12.543 -13.567  1.00  0.00     0.000 C 
BRANCH   9  10
ATOM     10  C   UNL     1      29.082  12.813 -12.340  1.00  0.00     0.006 C 
BRANCH  10  11
ATOM     11  C   UNL     1      27.805  13.586 -12.692  1.00  0.00     0.053 C 
BRANCH  11  12
ATOM     12  C   UNL     1      26.832  13.529 -11.558  1.00  0.00     0.041 C 
ATOM     13  O   UNL     1      26.706  12.473 -10.882  1.00  0.00    -0.550 OA
ATOM     14  O   UNL     1      26.025  14.625 -11.277  1.00  0.00    -0.550 OA
ENDBRANCH  11  12
ENDBRANCH  10  11
ENDBRANCH   9  10
ENDBRANCH   8   9
ENDBRANCH   1   8
TORSDOF 9
ENDMDL
MODEL 4
REMARK VINA RESULT:    -3.622      2.434      3.702
REMARK INTER + INTRA:          -6.325
REMARK INTER:                  -5.529
REMARK INTRA:                  -0.796
REMARK UNBOUND:                -0.797
REMARK SMILES O=C([O-])CCCCCCCCC(=O)[O-]
REMARK SMILES IDX 7 1 6 2 5 3 4 4 2 5 1 6 3 7 8 8 9 9 10 10 11 11 12 12 13 13
REMARK SMILES IDX 14 14
REMARK H PARENT
REMARK Flexibility Score: inf
ROOT
ATOM      1  C   UNL     1      29.680  12.085 -10.620  1.00  0.00     0.000 C 
ENDROOT
BRANCH   1   2
ATOM      2  C   UNL     1      28.398  11.259 -10.833  1.00  0.00     0.000 C 
BRANCH   2   3
ATOM      3  C   UNL     1      27.085  12.066 -10.773  1.00  0.00     0.006 C 
BRANCH   3   4
ATOM      4  C   UNL     1      27.122  13.404 -11.526  1.00  0.00     0.053 C 
BRANCH   4   5
ATOM      5  C   UNL     1      25.885  14.215 -11.288  1.00  0.00     0.041 C 
ATOM      6  O   UNL     1      25.295  14.770 -12.253  1.00  0.00    -0.550 OA
ATOM      7  O   UNL     1      25.366  14.331 -10.005  1.00  0.00    -0.550 OA
ENDBRANCH   4   5
ENDBRANCH   3   4
ENDBRANCH   2   3
ENDBRANCH   1   2
BRANCH   1   8
ATOM      8  C   UNL     1      30.702  11.908 -11.752  1.00  0.00     0.000 C 
BRANCH   8   9
ATOM      9  C   UNL     1      30.006  11.512 -13.063  1.00  0.00     0.000 C 
BRANCH   9  10
ATOM     10  C   UNL     1      29.929  12.673 -14.068  1.00  0.00     0.006 C 
BRANCH  10  11
ATOM     11  C   UNL     1      28.618  12.681 -14.862  1.00  0.00     0.053 C 
BRANCH  11  12
ATOM     12  C   UNL     1      28.888  12.463 -16.317  1.00  0.00     0.041 C 
ATOM     13  O   UNL     1      28.344  13.200 -17.181  1.00  0.00    -0.550 OA
ATOM     14  O   UNL     1      29.703  11.414 -16.724  1.00  0.00    -0.550 OA
ENDBRANCH  11  12
ENDBRANCH  10  11
ENDBRANCH   9  10
ENDBRANCH   8   9
ENDBRANCH   1   8
TORSDOF 9
ENDMDL
MODEL 5
REMARK VINA RESULT:    -3.616      3.241      3.920
REMARK INTER + INTRA:          -6.315
REMARK INTER:                  -5.799
REMARK INTRA:                  -0.516
REMARK UNBOUND:                -0.797
REMARK SMILES O=C([O-])CCCCCCCCC(=O)[O-]
REMARK SMILES IDX 7 1 6 2 5 3 4 4 2 5 1 6 3 7 8 8 9 9 10 10 11 11 12 12 13 13
REMARK SMILES IDX 14 14
REMARK H PARENT
REMARK Flexibility Score: inf
ROOT
ATOM      1  C   UNL     1      28.424  12.549 -16.165  1.00  0.00     0.000 C 
ENDROOT
BRANCH   1   2
ATOM      2  C   UNL     1      28.997  12.367 -14.747  1.00  0.00     0.000 C 
BRANCH   2   3
ATOM      3  C   UNL     1      28.355  13.260 -13.665  1.00  0.00     0.006 C 
BRANCH   3   4
ATOM      4  C   UNL     1      28.511  12.737 -12.230  1.00  0.00     0.053 C 
BRANCH   4   5
ATOM      5  C   UNL     1      27.265  12.937 -11.422  1.00  0.00     0.041 C 
ATOM      6  O   UNL     1      26.636  14.027 -11.485  1.00  0.00    -0.550 OA
ATOM      7  O   UNL     1      26.781  11.908 -10.625  1.00  0.00    -0.550 OA
ENDBRANCH   4   5
ENDBRANCH   3   4
ENDBRANCH   2   3
ENDBRANCH   1   2
BRANCH   1   8
ATOM      8  C   UNL     1      29.062  13.723 -16.922  1.00  0.00     0.000 C 
BRANCH   8   9
ATOM      9  C   UNL     1      29.658  13.254 -18.258  1.00  0.00     0.000 C 
BRANCH   9  10
ATOM     10  C   UNL     1      30.862  12.317 -18.074  1.00  0.00     0.006 C 
BRANCH  10  11
ATOM     11  C   UNL     1      30.692  10.985 -18.815  1.00  0.00     0.053 C 
BRANCH  11  12
ATOM     12  C   UNL     1      30.546   9.861 -17.839  1.00  0.00     0.041 C 
ATOM     13  O   UNL     1      30.928  10.002 -16.647  1.00  0.00    -0.550 OA
ATOM     14  O   UNL     1      30.035   8.638 -18.257  1.00  0.00    -0.550 OA
ENDBRANCH  11  12
ENDBRANCH  10  11
ENDBRANCH   9  10
ENDBRANCH   8   9
ENDBRANCH   1   8
TORSDOF 9
ENDMDL
MODEL 6
REMARK VINA RESULT:    -3.582      2.979      4.655
REMARK INTER + INTRA:          -6.264
REMARK INTER:                  -5.362
REMARK INTRA:                  -0.901
REMARK UNBOUND:                -0.797
REMARK SMILES O=C([O-])CCCCCCCCC(=O)[O-]
REMARK SMILES IDX 7 1 6 2 5 3 4 4 2 5 1 6 3 7 8 8 9 9 10 10 11 11 12 12 13 13
REMARK SMILES IDX 14 14
REMARK H PARENT
REMARK Flexibility Score: inf
ROOT
ATOM      1  C   UNL     1      29.161  13.302 -17.652  1.00  0.00     0.000 C 
ENDROOT
BRANCH   1   2
ATOM      2  C   UNL     1      30.239  12.499 -18.403  1.00  0.00     0.000 C 
BRANCH   2   3
ATOM      3  C   UNL     1      30.598  11.139 -17.770  1.00  0.00     0.006 C 
BRANCH   3   4
ATOM      4  C   UNL     1      30.551  11.117 -16.235  1.00  0.00     0.053 C 
BRANCH   4   5
ATOM      5  C   UNL     1      29.654  10.032 -15.719  1.00  0.00     0.041 C 
ATOM      6  O   UNL     1      29.266   9.111 -16.486  1.00  0.00    -0.550 OA
ATOM      7  O   UNL     1      29.274  10.023 -14.383  1.00  0.00    -0.550 OA
ENDBRANCH   4   5
ENDBRANCH   3   4
ENDBRANCH   2   3
ENDBRANCH   1   2
BRANCH   1   8
ATOM      8  C   UNL     1      29.576  14.756 -17.381  1.00  0.00     0.000 C 
BRANCH   8   9
ATOM      9  C   UNL     1      30.971  14.817 -16.741  1.00  0.00     0.000 C 
BRANCH   9  10
ATOM     10  C   UNL     1      30.917  14.897 -15.206  1.00  0.00     0.006 C 
BRANCH  10  11
ATOM     11  C   UNL     1      29.643  15.582 -14.696  1.00  0.00     0.053 C 
BRANCH  11  12
ATOM     12  C   UNL     1      28.899  14.674 -13.768  1.00  0.00     0.041 C 
ATOM     13  O   UNL     1      28.963  13.425 -13.917  1.00  0.00    -0.550 OA
ATOM     14  O   UNL     1      28.094  15.207 -12.770  1.00  0.00    -0.550 OA
ENDBRANCH  11  12
ENDBRANCH  10  11
ENDBRANCH   9  10
ENDBRANCH   8   9
ENDBRANCH   1   8
TORSDOF 9
ENDMDL
MODEL 7
REMARK VINA RESULT:    -3.578      1.722      2.254
REMARK INTER + INTRA:          -6.258
REMARK INTER:                  -5.648
REMARK INTRA:                  -0.609
REMARK UNBOUND:                -0.797
REMARK SMILES O=C([O-])CCCCCCCCC(=O)[O-]
REMARK SMILES IDX 7 1 6 2 5 3 4 4 2 5 1 6 3 7 8 8 9 9 10 10 11 11 12 12 13 13
REMARK SMILES IDX 14 14
REMARK H PARENT
REMARK Flexibility Score: inf
ROOT
ATOM      1  C   UNL     1      28.875  12.187 -14.637  1.00  0.00     0.000 C 
ENDROOT
BRANCH   1   2
ATOM      2  C   UNL     1      30.201  12.509 -13.925  1.00  0.00     0.000 C 
BRANCH   2   3
ATOM      3  C   UNL     1      30.278  12.055 -12.452  1.00  0.00     0.006 C 
BRANCH   3   4
ATOM      4  C   UNL     1      29.226  12.693 -11.532  1.00  0.00     0.053 C 
BRANCH   4   5
ATOM      5  C   UNL     1      28.386  11.660 -10.843  1.00  0.00     0.041 C 
ATOM      6  O   UNL     1      28.919  10.626 -10.363  1.00  0.00    -0.550 OA
ATOM      7  O   UNL     1      27.018  11.858 -10.705  1.00  0.00    -0.550 OA
ENDBRANCH   4   5
ENDBRANCH   3   4
ENDBRANCH   2   3
ENDBRANCH   1   2
BRANCH   1   8
ATOM      8  C   UNL     1      29.041  11.983 -16.150  1.00  0.00     0.000 C 
BRANCH   8   9
ATOM      9  C   UNL     1      28.440  13.161 -16.931  1.00  0.00     0.000 C 
BRANCH   9  10
ATOM     10  C   UNL     1      29.478  13.887 -17.802  1.00  0.00     0.006 C 
BRANCH  10  11
ATOM     11  C   UNL     1      30.566  14.578 -16.970  1.00  0.00     0.053 C 
BRANCH  11  12
ATOM     12  C   UNL     1      30.025  15.817 -16.331  1.00  0.00     0.041 C 
ATOM     13  O   UNL     1      29.720  15.820 -15.109  1.00  0.00    -0.550 OA
ATOM     14  O   UNL     1      29.810  16.957 -17.095  1.00  0.00    -0.550 OA
ENDBRANCH  11  12
ENDBRANCH  10  11
ENDBRANCH   9  10
ENDBRANCH   8   9
ENDBRANCH   1   8
TORSDOF 9
ENDMDL
MODEL 8
REMARK VINA RESULT:    -3.533     18.199     19.081
REMARK INTER + INTRA:          -6.188
REMARK INTER:                  -5.397
REMARK INTRA:                  -0.791
REMARK UNBOUND:                -0.797
REMARK SMILES O=C([O-])CCCCCCCCC(=O)[O-]
REMARK SMILES IDX 7 1 6 2 5 3 4 4 2 5 1 6 3 7 8 8 9 9 10 10 11 11 12 12 13 13
REMARK SMILES IDX 14 14
REMARK H PARENT
REMARK Flexibility Score: inf
ROOT
ATOM      1  C   UNL     1      18.449  -0.027 -16.090  1.00  0.00     0.000 C 
ENDROOT
BRANCH   1   2
ATOM      2  C   UNL     1      18.143  -0.278 -14.602  1.00  0.00     0.000 C 
BRANCH   2   3
ATOM      3  C   UNL     1      17.008   0.586 -14.015  1.00  0.00     0.006 C 
BRANCH   3   4
ATOM      4  C   UNL     1      15.748  -0.199 -13.619  1.00  0.00     0.053 C 
BRANCH   4   5
ATOM      5  C   UNL     1      15.530  -0.196 -12.136  1.00  0.00     0.041 C 
ATOM      6  O   UNL     1      14.464   0.271 -11.653  1.00  0.00    -0.550 OA
ATOM      7  O   UNL     1      16.490  -0.737 -11.291  1.00  0.00    -0.550 OA
ENDBRANCH   4   5
ENDBRANCH   3   4
ENDBRANCH   2   3
ENDBRANCH   1   2
BRANCH   1   8
ATOM      8  C   UNL     1      17.608  -0.901 -17.031  1.00  0.00     0.000 C 
BRANCH   8   9
ATOM      9  C   UNL     1      17.043  -0.070 -18.193  1.00  0.00     0.000 C 
BRANCH   9  10
ATOM     10  C   UNL     1      16.396   1.243 -17.723  1.00  0.00     0.006 C 
BRANCH  10  11
ATOM     11  C   UNL     1      15.011   1.029 -17.100  1.00  0.00     0.053 C 
BRANCH  11  12
ATOM     12  C   UNL     1      14.030   2.009 -17.662  1.00  0.00     0.041 C 
ATOM     13  O   UNL     1      14.435   3.026 -18.283  1.00  0.00    -0.550 OA
ATOM     14  O   UNL     1      12.668   1.825 -17.456  1.00  0.00    -0.550 OA
ENDBRANCH  11  12
ENDBRANCH  10  11
ENDBRANCH   9  10
ENDBRANCH   8   9
ENDBRANCH   1   8
TORSDOF 9
ENDMDL
MODEL 9
REMARK VINA RESULT:    -3.439      1.843      5.309
REMARK INTER + INTRA:          -6.045
REMARK INTER:                  -5.409
REMARK INTRA:                  -0.636
REMARK UNBOUND:                -0.797
REMARK SMILES O=C([O-])CCCCCCCCC(=O)[O-]
REMARK SMILES IDX 7 1 6 2 5 3 4 4 2 5 1 6 3 7 8 8 9 9 10 10 11 11 12 12 13 13
REMARK SMILES IDX 14 14
REMARK H PARENT
REMARK Flexibility Score: inf
ROOT
ATOM      1  C   UNL     1      29.499  11.112 -13.081  1.00  0.00     0.000 C 
ENDROOT
BRANCH   1   2
ATOM      2  C   UNL     1      30.588  11.576 -14.066  1.00  0.00     0.000 C 
BRANCH   2   3
ATOM      3  C   UNL     1      30.069  12.030 -15.446  1.00  0.00     0.006 C 
BRANCH   3   4
ATOM      4  C   UNL     1      28.877  12.996 -15.393  1.00  0.00     0.053 C 
BRANCH   4   5
ATOM      5  C   UNL     1      29.312  14.408 -15.140  1.00  0.00     0.041 C 
ATOM      6  O   UNL     1      29.676  15.141 -16.098  1.00  0.00    -0.550 OA
ATOM      7  O   UNL     1      29.283  14.923 -13.851  1.00  0.00    -0.550 OA
ENDBRANCH   4   5
ENDBRANCH   3   4
ENDBRANCH   2   3
ENDBRANCH   1   2
BRANCH   1   8
ATOM      8  C   UNL     1      29.437  11.968 -11.808  1.00  0.00     0.000 C 
BRANCH   8   9
ATOM      9  C   UNL     1      28.462  11.362 -10.787  1.00  0.00     0.000 C 
BRANCH   9  10
ATOM     10  C   UNL     1      27.089  12.054 -10.796  1.00  0.00     0.006 C 
BRANCH  10  11
ATOM     11  C   UNL     1      27.134  13.447 -11.435  1.00  0.00     0.053 C 
BRANCH  11  12
ATOM     12  C   UNL     1      25.874  14.197 -11.139  1.00  0.00     0.041 C 
ATOM     13  O   UNL     1      25.418  14.232  -9.965  1.00  0.00    -0.550 OA
ATOM     14  O   UNL     1      25.175  14.816 -12.167  1.00  0.00    -0.550 OA
ENDBRANCH  11  12
ENDBRANCH  10  11
ENDBRANCH   9  10
ENDBRANCH   8   9
ENDBRANCH   1   8
TORSDOF 9
ENDMDL
