MODEL 1
REMARK VINA RESULT:    -3.135      0.000      0.000
REMARK INTER + INTRA:          -8.364
REMARK INTER:                  -5.701
REMARK INTRA:                  -2.664
REMARK UNBOUND:                -2.664
REMARK SMILES CCCCCCCCCCCCCCCC(=O)[O-]
REMARK SMILES IDX 9 1 10 2 11 3 12 4 13 5 14 6 15 7 16 8 17 9 18 10 8 11 7 12
REMARK SMILES IDX 6 13 5 14 4 15 3 16 2 17 1 18
REMARK H PARENT
REMARK Flexibility Score: inf
ROOT
ATOM      1  C   UNL     1      -3.281 -12.590  41.248  1.00  0.00     0.000 C 
ENDROOT
BRANCH   1   2
ATOM      2  C   UNL     1      -2.115 -12.667  42.250  1.00  0.00     0.000 C 
BRANCH   2   3
ATOM      3  C   UNL     1      -1.097 -11.528  42.074  1.00  0.00     0.000 C 
BRANCH   3   4
ATOM      4  C   UNL     1      -1.382 -10.652  40.841  1.00  0.00     0.000 C 
BRANCH   4   5
ATOM      5  C   UNL     1      -1.865  -9.222  41.148  1.00  0.00     0.000 C 
BRANCH   5   6
ATOM      6  C   UNL     1      -1.349  -8.184  40.139  1.00  0.00     0.006 C 
BRANCH   6   7
ATOM      7  C   UNL     1      -0.457  -8.842  39.083  1.00  0.00     0.053 C 
BRANCH   7   8
ATOM      8  C   UNL     1      -0.863  -8.408  37.710  1.00  0.00     0.041 C 
ATOM      9  O   UNL     1      -0.477  -9.054  36.701  1.00  0.00    -0.550 OA
ATOM     10  O   UNL     1      -1.711  -7.319  37.547  1.00  0.00    -0.550 OA
ENDBRANCH   7   8
ENDBRANCH   6   7
ENDBRANCH   5   6
ENDBRANCH   4   5
ENDBRANCH   3   4
ENDBRANCH   2   3
ENDBRANCH   1   2
BRANCH   1  11
ATOM     11  C   UNL     1      -4.652 -12.242  41.861  1.00  0.00     0.000 C 
BRANCH  11  12
ATOM     12  C   UNL     1      -4.639 -11.080  42.872  1.00  0.00    -0.000 C 
BRANCH  12  13
ATOM     13  C   UNL     1      -5.232  -9.756  42.351  1.00  0.00    -0.000 C 
BRANCH  13  14
ATOM     14  C   UNL     1      -5.717  -9.792  40.891  1.00  0.00    -0.000 C 
BRANCH  14  15
ATOM     15  C   UNL     1      -5.429  -8.487  40.133  1.00  0.00    -0.000 C 
BRANCH  15  16
ATOM     16  C   UNL     1      -4.736  -8.771  38.795  1.00  0.00    -0.000 C 
BRANCH  16  17
ATOM     17  C   UNL     1      -4.407 -10.262  38.651  1.00  0.00    -0.003 C 
ATOM     18  C   UNL     1      -3.774 -10.558  37.295  1.00  0.00     0.004 C 
ENDBRANCH  16  17
ENDBRANCH  15  16
ENDBRANCH  14  15
ENDBRANCH  13  14
ENDBRANCH  12  13
ENDBRANCH  11  12
ENDBRANCH   1  11
TORSDOF 14
ENDMDL
MODEL 2
REMARK VINA RESULT:    -3.109      4.105      6.244
REMARK INTER + INTRA:          -8.317
REMARK INTER:                  -6.241
REMARK INTRA:                  -2.077
REMARK UNBOUND:                -2.664
REMARK SMILES CCCCCCCCCCCCCCCC(=O)[O-]
REMARK SMILES IDX 9 1 10 2 11 3 12 4 13 5 14 6 15 7 16 8 17 9 18 10 8 11 7 12
REMARK SMILES IDX 6 13 5 14 4 15 3 16 2 17 1 18
REMARK H PARENT
REMARK Flexibility Score: inf
ROOT
ATOM      1  C   UNL     1      -3.256  -8.081  36.310  1.00  0.00     0.000 C 
ENDROOT
BRANCH   1   2
ATOM      2  C   UNL     1      -1.922  -7.417  35.921  1.00  0.00     0.000 C 
BRANCH   2   3
ATOM      3  C   UNL     1      -0.709  -8.051  36.623  1.00  0.00     0.000 C 
BRANCH   3   4
ATOM      4  C   UNL     1      -1.106  -9.058  37.718  1.00  0.00     0.000 C 
BRANCH   4   5
ATOM      5  C   UNL     1      -0.475  -8.808  39.100  1.00  0.00     0.000 C 
BRANCH   5   6
ATOM      6  C   UNL     1      -1.444  -8.147  40.093  1.00  0.00     0.006 C 
BRANCH   6   7
ATOM      7  C   UNL     1      -2.814  -8.829  40.058  1.00  0.00     0.053 C 
BRANCH   7   8
ATOM      8  C   UNL     1      -3.048  -9.601  41.318  1.00  0.00     0.041 C 
ATOM      9  O   UNL     1      -2.100 -10.222  41.866  1.00  0.00    -0.550 OA
ATOM     10  O   UNL     1      -4.302  -9.592  41.916  1.00  0.00    -0.550 OA
ENDBRANCH   7   8
ENDBRANCH   6   7
ENDBRANCH   5   6
ENDBRANCH   4   5
ENDBRANCH   3   4
ENDBRANCH   2   3
ENDBRANCH   1   2
BRANCH   1  11
ATOM     11  C   UNL     1      -4.339  -7.120  36.839  1.00  0.00     0.000 C 
BRANCH  11  12
ATOM     12  C   UNL     1      -3.941  -5.632  36.853  1.00  0.00    -0.000 C 
BRANCH  12  13
ATOM     13  C   UNL     1      -4.859  -4.704  36.032  1.00  0.00    -0.000 C 
BRANCH  13  14
ATOM     14  C   UNL     1      -4.213  -4.102  34.771  1.00  0.00    -0.000 C 
BRANCH  14  15
ATOM     15  C   UNL     1      -4.444  -4.956  33.515  1.00  0.00    -0.000 C 
BRANCH  15  16
ATOM     16  C   UNL     1      -3.111  -5.414  32.911  1.00  0.00    -0.000 C 
BRANCH  16  17
ATOM     17  C   UNL     1      -3.146  -6.909  32.572  1.00  0.00    -0.003 C 
ATOM     18  C   UNL     1      -4.537  -7.493  32.800  1.00  0.00     0.004 C 
ENDBRANCH  16  17
ENDBRANCH  15  16
ENDBRANCH  14  15
ENDBRANCH  13  14
ENDBRANCH  12  13
ENDBRANCH  11  12
ENDBRANCH   1  11
TORSDOF 14
ENDMDL
MODEL 3
REMARK VINA RESULT:    -3.043      3.007      4.940
REMARK INTER + INTRA:          -8.196
REMARK INTER:                  -6.056
REMARK INTRA:                  -2.140
REMARK UNBOUND:                -2.664
REMARK SMILES CCCCCCCCCCCCCCCC(=O)[O-]
REMARK SMILES IDX 9 1 10 2 11 3 12 4 13 5 14 6 15 7 16 8 17 9 18 10 8 11 7 12
REMARK SMILES IDX 6 13 5 14 4 15 3 16 2 17 1 18
REMARK H PARENT
REMARK Flexibility Score: inf
ROOT
ATOM      1  C   UNL     1      -1.007 -10.651  37.624  1.00  0.00     0.000 C 
ENDROOT
BRANCH   1   2
ATOM      2  C   UNL     1      -0.893  -9.518  36.587  1.00  0.00     0.000 C 
BRANCH   2   3
ATOM      3  C   UNL     1      -2.226  -8.791  36.344  1.00  0.00     0.000 C 
BRANCH   3   4
ATOM      4  C   UNL     1      -2.105  -7.261  36.459  1.00  0.00     0.000 C 
BRANCH   4   5
ATOM      5  C   UNL     1      -3.195  -6.578  37.307  1.00  0.00     0.000 C 
BRANCH   5   6
ATOM      6  C   UNL     1      -3.971  -5.500  36.534  1.00  0.00     0.006 C 
BRANCH   6   7
ATOM      7  C   UNL     1      -4.155  -5.903  35.068  1.00  0.00     0.053 C 
BRANCH   7   8
ATOM      8  C   UNL     1      -3.709  -4.799  34.162  1.00  0.00     0.041 C 
ATOM      9  O   UNL     1      -3.085  -5.063  33.101  1.00  0.00    -0.550 OA
ATOM     10  O   UNL     1      -4.027  -3.480  34.463  1.00  0.00    -0.550 OA
ENDBRANCH   7   8
ENDBRANCH   6   7
ENDBRANCH   5   6
ENDBRANCH   4   5
ENDBRANCH   3   4
ENDBRANCH   2   3
ENDBRANCH   1   2
BRANCH   1  11
ATOM     11  C   UNL     1      -0.441 -10.324  39.020  1.00  0.00     0.000 C 
BRANCH  11  12
ATOM     12  C   UNL     1      -0.370  -8.823  39.361  1.00  0.00    -0.000 C 
BRANCH  12  13
ATOM     13  C   UNL     1      -1.434  -8.331  40.361  1.00  0.00    -0.000 C 
BRANCH  13  14
ATOM     14  C   UNL     1      -2.012  -9.420  41.283  1.00  0.00    -0.000 C 
BRANCH  14  15
ATOM     15  C   UNL     1      -3.539  -9.545  41.175  1.00  0.00    -0.000 C 
BRANCH  15  16
ATOM     16  C   UNL     1      -4.058  -8.854  39.908  1.00  0.00    -0.000 C 
BRANCH  16  17
ATOM     17  C   UNL     1      -4.508  -9.884  38.865  1.00  0.00    -0.003 C 
ATOM     18  C   UNL     1      -5.680  -9.357  38.041  1.00  0.00     0.004 C 
ENDBRANCH  16  17
ENDBRANCH  15  16
ENDBRANCH  14  15
ENDBRANCH  13  14
ENDBRANCH  12  13
ENDBRANCH  11  12
ENDBRANCH   1  11
TORSDOF 14
ENDMDL
MODEL 4
REMARK VINA RESULT:    -3.040      4.075      5.962
REMARK INTER + INTRA:          -8.192
REMARK INTER:                  -6.603
REMARK INTRA:                  -1.589
REMARK UNBOUND:                -2.664
REMARK SMILES CCCCCCCCCCCCCCCC(=O)[O-]
REMARK SMILES IDX 9 1 10 2 11 3 12 4 13 5 14 6 15 7 16 8 17 9 18 10 8 11 7 12
REMARK SMILES IDX 6 13 5 14 4 15 3 16 2 17 1 18
REMARK H PARENT
REMARK Flexibility Score: inf
ROOT
ATOM      1  C   UNL     1      -3.121  -8.443  36.817  1.00  0.00     0.000 C 
ENDROOT
BRANCH   1   2
ATOM      2  C   UNL     1      -1.685  -8.965  37.002  1.00  0.00     0.000 C 
BRANCH   2   3
ATOM      3  C   UNL     1      -0.867  -8.131  38.003  1.00  0.00     0.000 C 
BRANCH   3   4
ATOM      4  C   UNL     1      -0.526  -8.904  39.290  1.00  0.00     0.000 C 
BRANCH   4   5
ATOM      5  C   UNL     1      -1.440  -8.611  40.494  1.00  0.00     0.000 C 
BRANCH   5   6
ATOM      6  C   UNL     1      -2.592  -9.619  40.633  1.00  0.00     0.006 C 
BRANCH   6   7
ATOM      7  C   UNL     1      -2.115 -11.041  40.329  1.00  0.00     0.053 C 
BRANCH   7   8
ATOM      8  C   UNL     1      -1.904 -11.805  41.598  1.00  0.00     0.041 C 
ATOM      9  O   UNL     1      -2.580 -12.841  41.834  1.00  0.00    -0.550 OA
ATOM     10  O   UNL     1      -0.924 -11.403  42.498  1.00  0.00    -0.550 OA
ENDBRANCH   7   8
ENDBRANCH   6   7
ENDBRANCH   5   6
ENDBRANCH   4   5
ENDBRANCH   3   4
ENDBRANCH   2   3
ENDBRANCH   1   2
BRANCH   1  11
ATOM     11  C   UNL     1      -3.511  -7.257  37.723  1.00  0.00     0.000 C 
BRANCH  11  12
ATOM     12  C   UNL     1      -3.689  -5.911  36.996  1.00  0.00    -0.000 C 
BRANCH  12  13
ATOM     13  C   UNL     1      -5.131  -5.593  36.556  1.00  0.00    -0.000 C 
BRANCH  13  14
ATOM     14  C   UNL     1      -5.282  -4.337  35.679  1.00  0.00    -0.000 C 
BRANCH  14  15
ATOM     15  C   UNL     1      -4.179  -4.215  34.617  1.00  0.00    -0.000 C 
BRANCH  15  16
ATOM     16  C   UNL     1      -4.484  -5.102  33.404  1.00  0.00    -0.000 C 
BRANCH  16  17
ATOM     17  C   UNL     1      -3.192  -5.547  32.709  1.00  0.00    -0.003 C 
ATOM     18  C   UNL     1      -2.299  -6.338  33.661  1.00  0.00     0.004 C 
ENDBRANCH  16  17
ENDBRANCH  15  16
ENDBRANCH  14  15
ENDBRANCH  13  14
ENDBRANCH  12  13
ENDBRANCH  11  12
ENDBRANCH   1  11
TORSDOF 14
ENDMDL
MODEL 5
REMARK VINA RESULT:    -3.029      1.261      2.090
REMARK INTER + INTRA:          -8.171
REMARK INTER:                  -5.813
REMARK INTRA:                  -2.358
REMARK UNBOUND:                -2.664
REMARK SMILES CCCCCCCCCCCCCCCC(=O)[O-]
REMARK SMILES IDX 9 1 10 2 11 3 12 4 13 5 14 6 15 7 16 8 17 9 18 10 8 11 7 12
REMARK SMILES IDX 6 13 5 14 4 15 3 16 2 17 1 18
REMARK H PARENT
REMARK Flexibility Score: inf
ROOT
ATOM      1  C   UNL     1      -3.123 -14.108  42.166  1.00  0.00     0.000 C 
ENDROOT
BRANCH   1   2
ATOM      2  C   UNL     1      -2.836 -12.749  41.503  1.00  0.00     0.000 C 
BRANCH   2   3
ATOM      3  C   UNL     1      -1.708 -11.968  42.199  1.00  0.00     0.000 C 
BRANCH   3   4
ATOM      4  C   UNL     1      -1.483 -10.571  41.594  1.00  0.00     0.000 C 
BRANCH   4   5
ATOM      5  C   UNL     1      -1.071 -10.556  40.111  1.00  0.00     0.000 C 
BRANCH   5   6
ATOM      6  C   UNL     1      -0.595  -9.175  39.632  1.00  0.00     0.006 C 
BRANCH   6   7
ATOM      7  C   UNL     1      -1.679  -8.116  39.851  1.00  0.00     0.053 C 
BRANCH   7   8
ATOM      8  C   UNL     1      -2.258  -7.681  38.542  1.00  0.00     0.041 C 
ATOM      9  O   UNL     1      -3.482  -7.401  38.452  1.00  0.00    -0.550 OA
ATOM     10  O   UNL     1      -1.435  -7.534  37.432  1.00  0.00    -0.550 OA
ENDBRANCH   7   8
ENDBRANCH   6   7
ENDBRANCH   5   6
ENDBRANCH   4   5
ENDBRANCH   3   4
ENDBRANCH   2   3
ENDBRANCH   1   2
BRANCH   1  11
ATOM     11  C   UNL     1      -4.298 -14.118  43.165  1.00  0.00     0.000 C 
BRANCH  11  12
ATOM     12  C   UNL     1      -5.519 -13.277  42.744  1.00  0.00    -0.000 C 
BRANCH  12  13
ATOM     13  C   UNL     1      -5.825 -12.072  43.654  1.00  0.00    -0.000 C 
BRANCH  13  14
ATOM     14  C   UNL     1      -6.209 -10.778  42.912  1.00  0.00    -0.000 C 
BRANCH  14  15
ATOM     15  C   UNL     1      -5.025  -9.815  42.738  1.00  0.00    -0.000 C 
BRANCH  15  16
ATOM     16  C   UNL     1      -4.906  -9.348  41.283  1.00  0.00    -0.000 C 
BRANCH  16  17
ATOM     17  C   UNL     1      -5.553 -10.357  40.327  1.00  0.00    -0.003 C 
ATOM     18  C   UNL     1      -4.671 -10.603  39.106  1.00  0.00     0.004 C 
ENDBRANCH  16  17
ENDBRANCH  15  16
ENDBRANCH  14  15
ENDBRANCH  13  14
ENDBRANCH  12  13
ENDBRANCH  11  12
ENDBRANCH   1  11
TORSDOF 14
ENDMDL
MODEL 6
REMARK VINA RESULT:    -3.027      1.342      2.463
REMARK INTER + INTRA:          -8.168
REMARK INTER:                  -5.673
REMARK INTRA:                  -2.495
REMARK UNBOUND:                -2.664
REMARK SMILES CCCCCCCCCCCCCCCC(=O)[O-]
REMARK SMILES IDX 9 1 10 2 11 3 12 4 13 5 14 6 15 7 16 8 17 9 18 10 8 11 7 12
REMARK SMILES IDX 6 13 5 14 4 15 3 16 2 17 1 18
REMARK H PARENT
REMARK Flexibility Score: inf
ROOT
ATOM      1  C   UNL     1      -2.395 -11.867  40.818  1.00  0.00     0.000 C 
ENDROOT
BRANCH   1   2
ATOM      2  C   UNL     1      -1.357 -10.733  40.725  1.00  0.00     0.000 C 
BRANCH   2   3
ATOM      3  C   UNL     1      -1.895  -9.386  41.237  1.00  0.00     0.000 C 
BRANCH   3   4
ATOM      4  C   UNL     1      -1.537  -8.207  40.314  1.00  0.00     0.000 C 
BRANCH   4   5
ATOM      5  C   UNL     1      -0.650  -8.564  39.106  1.00  0.00     0.000 C 
BRANCH   5   6
ATOM      6  C   UNL     1      -1.218  -8.054  37.772  1.00  0.00     0.006 C 
BRANCH   6   7
ATOM      7  C   UNL     1      -2.393  -7.101  38.005  1.00  0.00     0.053 C 
BRANCH   7   8
ATOM      8  C   UNL     1      -3.169  -6.907  36.741  1.00  0.00     0.041 C 
ATOM      9  O   UNL     1      -4.407  -6.685  36.785  1.00  0.00    -0.550 OA
ATOM     10  O   UNL     1      -2.516  -6.921  35.514  1.00  0.00    -0.550 OA
ENDBRANCH   7   8
ENDBRANCH   6   7
ENDBRANCH   5   6
ENDBRANCH   4   5
ENDBRANCH   3   4
ENDBRANCH   2   3
ENDBRANCH   1   2
BRANCH   1  11
ATOM     11  C   UNL     1      -2.975 -12.115  42.225  1.00  0.00     0.000 C 
BRANCH  11  12
ATOM     12  C   UNL     1      -4.369 -12.769  42.250  1.00  0.00    -0.000 C 
BRANCH  12  13
ATOM     13  C   UNL     1      -5.548 -11.787  42.390  1.00  0.00    -0.000 C 
BRANCH  13  14
ATOM     14  C   UNL     1      -5.214 -10.471  43.116  1.00  0.00    -0.000 C 
BRANCH  14  15
ATOM     15  C   UNL     1      -5.441  -9.230  42.239  1.00  0.00    -0.000 C 
BRANCH  15  16
ATOM     16  C   UNL     1      -5.980  -9.625  40.859  1.00  0.00    -0.000 C 
BRANCH  16  17
ATOM     17  C   UNL     1      -5.225  -8.894  39.744  1.00  0.00    -0.003 C 
ATOM     18  C   UNL     1      -4.656  -9.879  38.726  1.00  0.00     0.004 C 
ENDBRANCH  16  17
ENDBRANCH  15  16
ENDBRANCH  14  15
ENDBRANCH  13  14
ENDBRANCH  12  13
ENDBRANCH  11  12
ENDBRANCH   1  11
TORSDOF 14
ENDMDL
MODEL 7
REMARK VINA RESULT:    -3.018      3.505      5.464
REMARK INTER + INTRA:          -8.152
REMARK INTER:                  -6.264
REMARK INTRA:                  -1.888
REMARK UNBOUND:                -2.664
REMARK SMILES CCCCCCCCCCCCCCCC(=O)[O-]
REMARK SMILES IDX 9 1 10 2 11 3 12 4 13 5 14 6 15 7 16 8 17 9 18 10 8 11 7 12
REMARK SMILES IDX 6 13 5 14 4 15 3 16 2 17 1 18
REMARK H PARENT
REMARK Flexibility Score: inf
ROOT
ATOM      1  C   UNL     1      -1.685 -11.071  37.379  1.00  0.00     0.000 C 
ENDROOT
BRANCH   1   2
ATOM      2  C   UNL     1      -0.245 -10.616  37.681  1.00  0.00     0.000 C 
BRANCH   2   3
ATOM      3  C   UNL     1      -0.070 -10.094  39.117  1.00  0.00     0.000 C 
BRANCH   3   4
ATOM      4  C   UNL     1      -0.467  -8.614  39.271  1.00  0.00     0.000 C 
BRANCH   4   5
ATOM      5  C   UNL     1      -1.484  -8.320  40.390  1.00  0.00     0.000 C 
BRANCH   5   6
ATOM      6  C   UNL     1      -2.860  -8.954  40.134  1.00  0.00     0.006 C 
BRANCH   6   7
ATOM      7  C   UNL     1      -3.350  -9.717  41.368  1.00  0.00     0.053 C 
BRANCH   7   8
ATOM      8  C   UNL     1      -2.554 -10.969  41.560  1.00  0.00     0.041 C 
ATOM      9  O   UNL     1      -2.652 -11.915  40.735  1.00  0.00    -0.550 OA
ATOM     10  O   UNL     1      -1.665 -11.072  42.623  1.00  0.00    -0.550 OA
ENDBRANCH   7   8
ENDBRANCH   6   7
ENDBRANCH   5   6
ENDBRANCH   4   5
ENDBRANCH   3   4
ENDBRANCH   2   3
ENDBRANCH   1   2
BRANCH   1  11
ATOM     11  C   UNL     1      -2.551 -10.047  36.619  1.00  0.00     0.000 C 
BRANCH  11  12
ATOM     12  C   UNL     1      -1.805  -9.226  35.550  1.00  0.00    -0.000 C 
BRANCH  12  13
ATOM     13  C   UNL     1      -1.647  -7.728  35.872  1.00  0.00    -0.000 C 
BRANCH  13  14
ATOM     14  C   UNL     1      -2.805  -7.110  36.676  1.00  0.00    -0.000 C 
BRANCH  14  15
ATOM     15  C   UNL     1      -3.638  -6.114  35.855  1.00  0.00    -0.000 C 
BRANCH  15  16
ATOM     16  C   UNL     1      -3.334  -6.248  34.357  1.00  0.00    -0.000 C 
BRANCH  16  17
ATOM     17  C   UNL     1      -3.258  -4.872  33.687  1.00  0.00    -0.003 C 
ATOM     18  C   UNL     1      -4.048  -3.830  34.474  1.00  0.00     0.004 C 
ENDBRANCH  16  17
ENDBRANCH  15  16
ENDBRANCH  14  15
ENDBRANCH  13  14
ENDBRANCH  12  13
ENDBRANCH  11  12
ENDBRANCH   1  11
TORSDOF 14
ENDMDL
MODEL 8
REMARK VINA RESULT:    -3.015      4.199      6.652
REMARK INTER + INTRA:          -8.147
REMARK INTER:                  -6.301
REMARK INTRA:                  -1.846
REMARK UNBOUND:                -2.664
REMARK SMILES CCCCCCCCCCCCCCCC(=O)[O-]
REMARK SMILES IDX 9 1 10 2 11 3 12 4 13 5 14 6 15 7 16 8 17 9 18 10 8 11 7 12
REMARK SMILES IDX 6 13 5 14 4 15 3 16 2 17 1 18
REMARK H PARENT
REMARK Flexibility Score: inf
ROOT
ATOM      1  C   UNL     1      -2.728  -8.083  35.463  1.00  0.00     0.000 C 
ENDROOT
BRANCH   1   2
ATOM      2  C   UNL     1      -2.169  -7.004  36.408  1.00  0.00     0.000 C 
BRANCH   2   3
ATOM      3  C   UNL     1      -2.955  -6.895  37.726  1.00  0.00     0.000 C 
BRANCH   3   4
ATOM      4  C   UNL     1      -2.883  -8.176  38.576  1.00  0.00     0.000 C 
BRANCH   4   5
ATOM      5  C   UNL     1      -1.739  -8.218  39.606  1.00  0.00     0.000 C 
BRANCH   5   6
ATOM      6  C   UNL     1      -2.068  -9.077  40.837  1.00  0.00     0.006 C 
BRANCH   6   7
ATOM      7  C   UNL     1      -1.439 -10.467  40.718  1.00  0.00     0.053 C 
BRANCH   7   8
ATOM      8  C   UNL     1      -1.683 -11.261  41.963  1.00  0.00     0.041 C 
ATOM      9  O   UNL     1      -0.713 -11.698  42.636  1.00  0.00    -0.550 OA
ATOM     10  O   UNL     1      -2.982 -11.475  42.408  1.00  0.00    -0.550 OA
ENDBRANCH   7   8
ENDBRANCH   6   7
ENDBRANCH   5   6
ENDBRANCH   4   5
ENDBRANCH   3   4
ENDBRANCH   2   3
ENDBRANCH   1   2
BRANCH   1  11
ATOM     11  C   UNL     1      -2.969  -7.624  34.011  1.00  0.00     0.000 C 
BRANCH  11  12
ATOM     12  C   UNL     1      -2.479  -6.200  33.687  1.00  0.00    -0.000 C 
BRANCH  12  13
ATOM     13  C   UNL     1      -3.587  -5.201  33.301  1.00  0.00    -0.000 C 
BRANCH  13  14
ATOM     14  C   UNL     1      -3.782  -4.033  34.285  1.00  0.00    -0.000 C 
BRANCH  14  15
ATOM     15  C   UNL     1      -4.709  -4.388  35.457  1.00  0.00    -0.000 C 
BRANCH  15  16
ATOM     16  C   UNL     1      -5.858  -5.292  34.994  1.00  0.00    -0.000 C 
BRANCH  16  17
ATOM     17  C   UNL     1      -6.310  -6.227  36.121  1.00  0.00    -0.003 C 
ATOM     18  C   UNL     1      -6.367  -7.676  35.646  1.00  0.00     0.004 C 
ENDBRANCH  16  17
ENDBRANCH  15  16
ENDBRANCH  14  15
ENDBRANCH  13  14
ENDBRANCH  12  13
ENDBRANCH  11  12
ENDBRANCH   1  11
TORSDOF 14
ENDMDL
MODEL 9
REMARK VINA RESULT:    -2.937      4.215      6.854
REMARK INTER + INTRA:          -8.005
REMARK INTER:                  -5.601
REMARK INTRA:                  -2.404
REMARK UNBOUND:                -2.664
REMARK SMILES CCCCCCCCCCCCCCCC(=O)[O-]
REMARK SMILES IDX 9 1 10 2 11 3 12 4 13 5 14 6 15 7 16 8 17 9 18 10 8 11 7 12
REMARK SMILES IDX 6 13 5 14 4 15 3 16 2 17 1 18
REMARK H PARENT
REMARK Flexibility Score: inf
ROOT
ATOM      1  C   UNL     1      -2.141  -6.516  33.623  1.00  0.00     0.000 C 
ENDROOT
BRANCH   1   2
ATOM      2  C   UNL     1      -2.607  -7.914  34.068  1.00  0.00     0.000 C 
BRANCH   2   3
ATOM      3  C   UNL     1      -2.402  -8.164  35.571  1.00  0.00     0.000 C 
BRANCH   3   4
ATOM      4  C   UNL     1      -2.257  -6.864  36.383  1.00  0.00     0.000 C 
BRANCH   4   5
ATOM      5  C   UNL     1      -2.899  -6.889  37.783  1.00  0.00     0.000 C 
BRANCH   5   6
ATOM      6  C   UNL     1      -2.694  -8.225  38.514  1.00  0.00     0.006 C 
BRANCH   6   7
ATOM      7  C   UNL     1      -1.601  -8.103  39.580  1.00  0.00     0.053 C 
BRANCH   7   8
ATOM      8  C   UNL     1      -1.532  -9.351  40.403  1.00  0.00     0.041 C 
ATOM      9  O   UNL     1      -0.766 -10.291  40.066  1.00  0.00    -0.550 OA
ATOM     10  O   UNL     1      -2.275  -9.454  41.573  1.00  0.00    -0.550 OA
ENDBRANCH   7   8
ENDBRANCH   6   7
ENDBRANCH   5   6
ENDBRANCH   4   5
ENDBRANCH   3   4
ENDBRANCH   2   3
ENDBRANCH   1   2
BRANCH   1  11
ATOM     11  C   UNL     1      -3.039  -5.827  32.575  1.00  0.00     0.000 C 
BRANCH  11  12
ATOM     12  C   UNL     1      -4.265  -5.091  33.148  1.00  0.00    -0.000 C 
BRANCH  12  13
ATOM     13  C   UNL     1      -3.969  -4.163  34.342  1.00  0.00    -0.000 C 
BRANCH  13  14
ATOM     14  C   UNL     1      -4.925  -4.318  35.538  1.00  0.00    -0.000 C 
BRANCH  14  15
ATOM     15  C   UNL     1      -6.040  -5.345  35.283  1.00  0.00    -0.000 C 
BRANCH  15  16
ATOM     16  C   UNL     1      -6.153  -6.333  36.451  1.00  0.00    -0.000 C 
BRANCH  16  17
ATOM     17  C   UNL     1      -6.111  -7.781  35.952  1.00  0.00    -0.003 C 
ATOM     18  C   UNL     1      -6.302  -7.849  34.439  1.00  0.00     0.004 C 
ENDBRANCH  16  17
ENDBRANCH  15  16
ENDBRANCH  14  15
ENDBRANCH  13  14
ENDBRANCH  12  13
ENDBRANCH  11  12
ENDBRANCH   1  11
TORSDOF 14
ENDMDL
