MODEL 1
REMARK VINA RESULT:    -2.678      0.000      0.000
REMARK INTER + INTRA:          -4.669
REMARK INTER:                  -3.930
REMARK INTRA:                  -0.739
REMARK UNBOUND:                -0.739
REMARK SMILES O=C([O-])CCCCCCCC(=O)[O-]
REMARK SMILES IDX 7 1 6 2 5 3 4 4 2 5 1 6 3 7 8 8 9 9 10 10 11 11 12 12 13 13
REMARK H PARENT
REMARK Flexibility Score: inf
ROOT
ATOM      1  C   UNL     1     -19.907  13.892 -24.805  1.00  0.00     0.000 C 
ENDROOT
BRANCH   1   2
ATOM      2  C   UNL     1     -21.151  12.997 -24.755  1.00  0.00     0.000 C 
BRANCH   2   3
ATOM      3  C   UNL     1     -22.014  13.324 -23.527  1.00  0.00     0.006 C 
BRANCH   3   4
ATOM      4  C   UNL     1     -22.060  14.828 -23.234  1.00  0.00     0.053 C 
BRANCH   4   5
ATOM      5  C   UNL     1     -23.459  15.362 -23.278  1.00  0.00     0.041 C 
ATOM      6  O   UNL     1     -24.327  14.804 -23.999  1.00  0.00    -0.550 OA
ATOM      7  O   UNL     1     -23.812  16.456 -22.497  1.00  0.00    -0.550 OA
ENDBRANCH   4   5
ENDBRANCH   3   4
ENDBRANCH   2   3
ENDBRANCH   1   2
BRANCH   1   8
ATOM      8  C   UNL     1     -18.633  13.081 -24.535  1.00  0.00     0.000 C 
BRANCH   8   9
ATOM      9  C   UNL     1     -17.943  13.553 -23.248  1.00  0.00     0.006 C 
BRANCH   9  10
ATOM     10  C   UNL     1     -18.359  14.976 -22.854  1.00  0.00     0.053 C 
BRANCH  10  11
ATOM     11  C   UNL     1     -18.776  15.055 -21.418  1.00  0.00     0.041 C 
ATOM     12  O   UNL     1     -19.411  14.105 -20.889  1.00  0.00    -0.550 OA
ATOM     13  O   UNL     1     -18.494  16.193 -20.673  1.00  0.00    -0.550 OA
ENDBRANCH  10  11
ENDBRANCH   9  10
ENDBRANCH   8   9
ENDBRANCH   1   8
TORSDOF 8
ENDMDL
MODEL 2
REMARK VINA RESULT:    -2.665      2.535      4.573
REMARK INTER + INTRA:          -4.650
REMARK INTER:                  -4.064
REMARK INTRA:                  -0.586
REMARK UNBOUND:                -0.739
REMARK SMILES O=C([O-])CCCCCCCC(=O)[O-]
REMARK SMILES IDX 7 1 6 2 5 3 4 4 2 5 1 6 3 7 8 8 9 9 10 10 11 11 12 12 13 13
REMARK H PARENT
REMARK Flexibility Score: inf
ROOT
ATOM      1  C   UNL     1     -21.784  13.189 -23.638  1.00  0.00     0.000 C 
ENDROOT
BRANCH   1   2
ATOM      2  C   UNL     1     -20.850  12.820 -24.796  1.00  0.00     0.000 C 
BRANCH   2   3
ATOM      3  C   UNL     1     -19.665  13.793 -24.880  1.00  0.00     0.006 C 
BRANCH   3   4
ATOM      4  C   UNL     1     -18.571  13.466 -23.856  1.00  0.00     0.053 C 
BRANCH   4   5
ATOM      5  C   UNL     1     -17.405  12.771 -24.488  1.00  0.00     0.041 C 
ATOM      6  O   UNL     1     -17.332  11.514 -24.472  1.00  0.00    -0.550 OA
ATOM      7  O   UNL     1     -16.416  13.510 -25.125  1.00  0.00    -0.550 OA
ENDBRANCH   4   5
ENDBRANCH   3   4
ENDBRANCH   2   3
ENDBRANCH   1   2
BRANCH   1   8
ATOM      8  C   UNL     1     -22.068  14.697 -23.618  1.00  0.00     0.000 C 
BRANCH   8   9
ATOM      9  C   UNL     1     -21.853  15.279 -22.213  1.00  0.00     0.006 C 
BRANCH   9  10
ATOM     10  C   UNL     1     -21.076  14.321 -21.301  1.00  0.00     0.053 C 
BRANCH  10  11
ATOM     11  C   UNL     1     -21.097  14.775 -19.874  1.00  0.00     0.041 C 
ATOM     12  O   UNL     1     -20.627  14.039 -18.967  1.00  0.00    -0.550 OA
ATOM     13  O   UNL     1     -21.665  15.998 -19.542  1.00  0.00    -0.550 OA
ENDBRANCH  10  11
ENDBRANCH   9  10
ENDBRANCH   8   9
ENDBRANCH   1   8
TORSDOF 8
ENDMDL
MODEL 3
REMARK VINA RESULT:    -2.657     13.951     15.089
REMARK INTER + INTRA:          -4.640
REMARK INTER:                  -3.819
REMARK INTRA:                  -0.821
REMARK UNBOUND:                -0.739
REMARK SMILES O=C([O-])CCCCCCCC(=O)[O-]
REMARK SMILES IDX 7 1 6 2 5 3 4 4 2 5 1 6 3 7 8 8 9 9 10 10 11 11 12 12 13 13
REMARK H PARENT
REMARK Flexibility Score: inf
ROOT
ATOM      1  C   UNL     1     -23.283  28.118 -22.019  1.00  0.00     0.000 C 
ENDROOT
BRANCH   1   2
ATOM      2  C   UNL     1     -23.352  29.626 -21.745  1.00  0.00     0.000 C 
BRANCH   2   3
ATOM      3  C   UNL     1     -24.660  29.996 -21.032  1.00  0.00     0.006 C 
BRANCH   3   4
ATOM      4  C   UNL     1     -25.125  28.900 -20.065  1.00  0.00     0.053 C 
BRANCH   4   5
ATOM      5  C   UNL     1     -24.736  29.202 -18.651  1.00  0.00     0.041 C 
ATOM      6  O   UNL     1     -24.378  30.365 -18.328  1.00  0.00    -0.550 OA
ATOM      7  O   UNL     1     -24.801  28.208 -17.682  1.00  0.00    -0.550 OA
ENDBRANCH   4   5
ENDBRANCH   3   4
ENDBRANCH   2   3
ENDBRANCH   1   2
BRANCH   1   8
ATOM      8  C   UNL     1     -22.003  27.509 -21.431  1.00  0.00     0.000 C 
BRANCH   8   9
ATOM      9  C   UNL     1     -21.380  28.443 -20.384  1.00  0.00     0.006 C 
BRANCH   9  10
ATOM     10  C   UNL     1     -21.235  27.764 -19.015  1.00  0.00     0.053 C 
BRANCH  10  11
ATOM     11  C   UNL     1     -20.912  28.753 -17.938  1.00  0.00     0.041 C 
ATOM     12  O   UNL     1     -21.615  28.807 -16.894  1.00  0.00    -0.550 OA
ATOM     13  O   UNL     1     -19.853  29.637 -18.100  1.00  0.00    -0.550 OA
ENDBRANCH  10  11
ENDBRANCH   9  10
ENDBRANCH   8   9
ENDBRANCH   1   8
TORSDOF 8
ENDMDL
MODEL 4
REMARK VINA RESULT:    -2.606     13.416     14.988
REMARK INTER + INTRA:          -4.564
REMARK INTER:                  -3.876
REMARK INTRA:                  -0.688
REMARK UNBOUND:                -0.739
REMARK SMILES O=C([O-])CCCCCCCC(=O)[O-]
REMARK SMILES IDX 7 1 6 2 5 3 4 4 2 5 1 6 3 7 8 8 9 9 10 10 11 11 12 12 13 13
REMARK H PARENT
REMARK Flexibility Score: inf
ROOT
ATOM      1  C   UNL     1     -24.960  29.281 -19.749  1.00  0.00     0.000 C 
ENDROOT
BRANCH   1   2
ATOM      2  C   UNL     1     -24.797  30.119 -21.023  1.00  0.00     0.000 C 
BRANCH   2   3
ATOM      3  C   UNL     1     -23.611  29.620 -21.861  1.00  0.00     0.006 C 
BRANCH   3   4
ATOM      4  C   UNL     1     -23.380  28.112 -21.702  1.00  0.00     0.053 C 
BRANCH   4   5
ATOM      5  C   UNL     1     -21.927  27.784 -21.551  1.00  0.00     0.041 C 
ATOM      6  O   UNL     1     -21.463  26.723 -22.046  1.00  0.00    -0.550 OA
ATOM      7  O   UNL     1     -21.078  28.665 -20.893  1.00  0.00    -0.550 OA
ENDBRANCH   4   5
ENDBRANCH   3   4
ENDBRANCH   2   3
ENDBRANCH   1   2
BRANCH   1   8
ATOM      8  C   UNL     1     -24.358  29.999 -18.535  1.00  0.00     0.000 C 
BRANCH   8   9
ATOM      9  C   UNL     1     -23.090  29.284 -18.046  1.00  0.00     0.006 C 
BRANCH   9  10
ATOM     10  C   UNL     1     -23.377  28.323 -16.885  1.00  0.00     0.053 C 
BRANCH  10  11
ATOM     11  C   UNL     1     -23.360  26.893 -17.332  1.00  0.00     0.041 C 
ATOM     12  O   UNL     1     -22.655  26.544 -18.316  1.00  0.00    -0.550 OA
ATOM     13  O   UNL     1     -24.149  25.952 -16.683  1.00  0.00    -0.550 OA
ENDBRANCH  10  11
ENDBRANCH   9  10
ENDBRANCH   8   9
ENDBRANCH   1   8
TORSDOF 8
ENDMDL
MODEL 5
REMARK VINA RESULT:    -2.599     13.490     15.058
REMARK INTER + INTRA:          -4.554
REMARK INTER:                  -3.773
REMARK INTRA:                  -0.781
REMARK UNBOUND:                -0.739
REMARK SMILES O=C([O-])CCCCCCCC(=O)[O-]
REMARK SMILES IDX 7 1 6 2 5 3 4 4 2 5 1 6 3 7 8 8 9 9 10 10 11 11 12 12 13 13
REMARK H PARENT
REMARK Flexibility Score: inf
ROOT
ATOM      1  C   UNL     1     -25.109  29.084 -19.716  1.00  0.00     0.000 C 
ENDROOT
BRANCH   1   2
ATOM      2  C   UNL     1     -24.353  29.989 -18.736  1.00  0.00     0.000 C 
BRANCH   2   3
ATOM      3  C   UNL     1     -23.532  29.156 -17.740  1.00  0.00     0.006 C 
BRANCH   3   4
ATOM      4  C   UNL     1     -23.629  27.651 -18.022  1.00  0.00     0.053 C 
BRANCH   4   5
ATOM      5  C   UNL     1     -23.866  26.865 -16.769  1.00  0.00     0.041 C 
ATOM      6  O   UNL     1     -23.623  25.630 -16.742  1.00  0.00    -0.550 OA
ATOM      7  O   UNL     1     -24.325  27.501 -15.623  1.00  0.00    -0.550 OA
ENDBRANCH   4   5
ENDBRANCH   3   4
ENDBRANCH   2   3
ENDBRANCH   1   2
BRANCH   1   8
ATOM      8  C   UNL     1     -25.125  29.689 -21.125  1.00  0.00     0.000 C 
BRANCH   8   9
ATOM      9  C   UNL     1     -23.733  29.621 -21.769  1.00  0.00     0.006 C 
BRANCH   9  10
ATOM     10  C   UNL     1     -23.295  28.178 -22.055  1.00  0.00     0.053 C 
BRANCH  10  11
ATOM     11  C   UNL     1     -21.960  27.873 -21.450  1.00  0.00     0.041 C 
ATOM     12  O   UNL     1     -21.431  28.680 -20.641  1.00  0.00    -0.550 OA
ATOM     13  O   UNL     1     -21.285  26.712 -21.805  1.00  0.00    -0.550 OA
ENDBRANCH  10  11
ENDBRANCH   9  10
ENDBRANCH   8   9
ENDBRANCH   1   8
TORSDOF 8
ENDMDL
MODEL 6
REMARK VINA RESULT:    -2.584     13.905     15.722
REMARK INTER + INTRA:          -4.532
REMARK INTER:                  -3.961
REMARK INTRA:                  -0.571
REMARK UNBOUND:                -0.739
REMARK SMILES O=C([O-])CCCCCCCC(=O)[O-]
REMARK SMILES IDX 7 1 6 2 5 3 4 4 2 5 1 6 3 7 8 8 9 9 10 10 11 11 12 12 13 13
REMARK H PARENT
REMARK Flexibility Score: inf
ROOT
ATOM      1  C   UNL     1     -24.623  29.249 -19.473  1.00  0.00     0.000 C 
ENDROOT
BRANCH   1   2
ATOM      2  C   UNL     1     -24.406  30.191 -18.283  1.00  0.00     0.000 C 
BRANCH   2   3
ATOM      3  C   UNL     1     -23.832  29.432 -17.078  1.00  0.00     0.006 C 
BRANCH   3   4
ATOM      4  C   UNL     1     -22.708  28.468 -17.479  1.00  0.00     0.053 C 
BRANCH   4   5
ATOM      5  C   UNL     1     -21.360  29.110 -17.371  1.00  0.00     0.041 C 
ATOM      6  O   UNL     1     -21.009  29.671 -16.299  1.00  0.00    -0.550 OA
ATOM      7  O   UNL     1     -20.476  29.061 -18.442  1.00  0.00    -0.550 OA
ENDBRANCH   4   5
ENDBRANCH   3   4
ENDBRANCH   2   3
ENDBRANCH   1   2
BRANCH   1   8
ATOM      8  C   UNL     1     -24.866  30.039 -20.765  1.00  0.00     0.000 C 
BRANCH   8   9
ATOM      9  C   UNL     1     -23.776  29.744 -21.804  1.00  0.00     0.006 C 
BRANCH   9  10
ATOM     10  C   UNL     1     -22.593  28.975 -21.202  1.00  0.00     0.053 C 
BRANCH  10  11
ATOM     11  C   UNL     1     -22.331  27.696 -21.936  1.00  0.00     0.041 C 
ATOM     12  O   UNL     1     -21.428  26.912 -21.543  1.00  0.00    -0.550 OA
ATOM     13  O   UNL     1     -23.064  27.385 -23.074  1.00  0.00    -0.550 OA
ENDBRANCH  10  11
ENDBRANCH   9  10
ENDBRANCH   8   9
ENDBRANCH   1   8
TORSDOF 8
ENDMDL
MODEL 7
REMARK VINA RESULT:    -2.557     13.606     14.798
REMARK INTER + INTRA:          -4.492
REMARK INTER:                  -3.904
REMARK INTRA:                  -0.588
REMARK UNBOUND:                -0.739
REMARK SMILES O=C([O-])CCCCCCCC(=O)[O-]
REMARK SMILES IDX 7 1 6 2 5 3 4 4 2 5 1 6 3 7 8 8 9 9 10 10 11 11 12 12 13 13
REMARK H PARENT
REMARK Flexibility Score: inf
ROOT
ATOM      1  C   UNL     1     -22.222  27.674 -21.838  1.00  0.00     0.000 C 
ENDROOT
BRANCH   1   2
ATOM      2  C   UNL     1     -23.617  28.254 -22.102  1.00  0.00     0.000 C 
BRANCH   2   3
ATOM      3  C   UNL     1     -23.737  29.677 -21.537  1.00  0.00     0.006 C 
BRANCH   3   4
ATOM      4  C   UNL     1     -24.882  29.805 -20.525  1.00  0.00     0.053 C 
BRANCH   4   5
ATOM      5  C   UNL     1     -24.412  29.579 -19.121  1.00  0.00     0.041 C 
ATOM      6  O   UNL     1     -24.399  30.530 -18.296  1.00  0.00    -0.550 OA
ATOM      7  O   UNL     1     -24.021  28.310 -18.713  1.00  0.00    -0.550 OA
ENDBRANCH   4   5
ENDBRANCH   3   4
ENDBRANCH   2   3
ENDBRANCH   1   2
BRANCH   1   8
ATOM      8  C   UNL     1     -21.332  28.689 -21.110  1.00  0.00     0.000 C 
BRANCH   8   9
ATOM      9  C   UNL     1     -20.464  27.998 -20.049  1.00  0.00     0.006 C 
BRANCH   9  10
ATOM     10  C   UNL     1     -19.039  28.565 -20.005  1.00  0.00     0.053 C 
BRANCH  10  11
ATOM     11  C   UNL     1     -18.371  28.491 -21.344  1.00  0.00     0.041 C 
ATOM     12  O   UNL     1     -17.957  29.539 -21.905  1.00  0.00    -0.550 OA
ATOM     13  O   UNL     1     -18.235  27.267 -21.986  1.00  0.00    -0.550 OA
ENDBRANCH  10  11
ENDBRANCH   9  10
ENDBRANCH   8   9
ENDBRANCH   1   8
TORSDOF 8
ENDMDL
MODEL 8
REMARK VINA RESULT:    -2.533     14.351     15.810
REMARK INTER + INTRA:          -4.457
REMARK INTER:                  -3.780
REMARK INTRA:                  -0.677
REMARK UNBOUND:                -0.739
REMARK SMILES O=C([O-])CCCCCCCC(=O)[O-]
REMARK SMILES IDX 7 1 6 2 5 3 4 4 2 5 1 6 3 7 8 8 9 9 10 10 11 11 12 12 13 13
REMARK H PARENT
REMARK Flexibility Score: inf
ROOT
ATOM      1  C   UNL     1     -24.786  30.054 -21.093  1.00  0.00     0.000 C 
ENDROOT
BRANCH   1   2
ATOM      2  C   UNL     1     -24.827  29.248 -19.789  1.00  0.00     0.000 C 
BRANCH   2   3
ATOM      3  C   UNL     1     -24.361  30.101 -18.600  1.00  0.00     0.006 C 
BRANCH   3   4
ATOM      4  C   UNL     1     -24.298  29.294 -17.296  1.00  0.00     0.053 C 
BRANCH   4   5
ATOM      5  C   UNL     1     -23.406  29.943 -16.283  1.00  0.00     0.041 C 
ATOM      6  O   UNL     1     -22.162  29.755 -16.322  1.00  0.00    -0.550 OA
ATOM      7  O   UNL     1     -23.945  30.782 -15.316  1.00  0.00    -0.550 OA
ENDBRANCH   4   5
ENDBRANCH   3   4
ENDBRANCH   2   3
ENDBRANCH   1   2
BRANCH   1   8
ATOM      8  C   UNL     1     -23.534  29.714 -21.912  1.00  0.00     0.000 C 
BRANCH   8   9
ATOM      9  C   UNL     1     -22.951  28.359 -21.489  1.00  0.00     0.006 C 
BRANCH   9  10
ATOM     10  C   UNL     1     -21.467  28.458 -21.111  1.00  0.00     0.053 C 
BRANCH  10  11
ATOM     11  C   UNL     1     -21.244  28.172 -19.657  1.00  0.00     0.041 C 
ATOM     12  O   UNL     1     -21.875  27.241 -19.090  1.00  0.00    -0.550 OA
ATOM     13  O   UNL     1     -20.364  28.955 -18.921  1.00  0.00    -0.550 OA
ENDBRANCH  10  11
ENDBRANCH   9  10
ENDBRANCH   8   9
ENDBRANCH   1   8
TORSDOF 8
ENDMDL
MODEL 9
REMARK VINA RESULT:    -2.522      1.718      2.477
REMARK INTER + INTRA:          -4.441
REMARK INTER:                  -3.597
REMARK INTRA:                  -0.844
REMARK UNBOUND:                -0.739
REMARK SMILES O=C([O-])CCCCCCCC(=O)[O-]
REMARK SMILES IDX 7 1 6 2 5 3 4 4 2 5 1 6 3 7 8 8 9 9 10 10 11 11 12 12 13 13
REMARK H PARENT
REMARK Flexibility Score: inf
ROOT
ATOM      1  C   UNL     1     -18.363  14.588 -23.998  1.00  0.00     0.000 C 
ENDROOT
BRANCH   1   2
ATOM      2  C   UNL     1     -18.697  13.111 -24.236  1.00  0.00     0.000 C 
BRANCH   2   3
ATOM      3  C   UNL     1     -20.095  12.956 -24.853  1.00  0.00     0.006 C 
BRANCH   3   4
ATOM      4  C   UNL     1     -20.928  14.238 -24.735  1.00  0.00     0.053 C 
BRANCH   4   5
ATOM      5  C   UNL     1     -22.039  14.092 -23.741  1.00  0.00     0.041 C 
ATOM      6  O   UNL     1     -22.095  13.076 -23.000  1.00  0.00    -0.550 OA
ATOM      7  O   UNL     1     -22.993  15.093 -23.610  1.00  0.00    -0.550 OA
ENDBRANCH   4   5
ENDBRANCH   3   4
ENDBRANCH   2   3
ENDBRANCH   1   2
BRANCH   1   8
ATOM      8  C   UNL     1     -17.890  14.822 -22.558  1.00  0.00     0.000 C 
BRANCH   8   9
ATOM      9  C   UNL     1     -19.036  15.342 -21.679  1.00  0.00     0.006 C 
BRANCH   9  10
ATOM     10  C   UNL     1     -19.629  14.243 -20.787  1.00  0.00     0.053 C 
BRANCH  10  11
ATOM     11  C   UNL     1     -20.865  14.708 -20.082  1.00  0.00     0.041 C 
ATOM     12  O   UNL     1     -21.240  14.144 -19.020  1.00  0.00    -0.550 OA
ATOM     13  O   UNL     1     -21.622  15.744 -20.614  1.00  0.00    -0.550 OA
ENDBRANCH  10  11
ENDBRANCH   9  10
ENDBRANCH   8   9
ENDBRANCH   1   8
TORSDOF 8
ENDMDL
