MODEL 1
REMARK VINA RESULT:    -8.300      0.000      0.000
REMARK INTER + INTRA:          -9.596
REMARK INTER:                  -9.513
REMARK INTRA:                  -0.083
REMARK UNBOUND:                -0.083
REMARK SMILES CC1(C)CC[C@@]23CO[C@]4(C=C[C@H]5[C@]6(C)CC[C@H](O)[C@](C)(CO)[C@@H]6CC[C@@]5(C)[C@@]4(C)C[C@@H]2O)[C@@H]3C1
REMARK SMILES IDX 1 1 2 2 4 3 5 4 6 5 7 6 8 7 9 8 33 9 34 10 10 11 11 12 12 13
REMARK SMILES IDX 13 14 15 15 16 16 17 17 19 18 23 19 24 20 25 21 26 22 28 23
REMARK SMILES IDX 30 24 31 25 29 26 27 27 20 28 14 29 3 30 32 31 21 33 22 34
REMARK SMILES IDX 18 36
REMARK H PARENT 32 32 22 35 18 37
REMARK Flexibility Score: inf
ROOT
ATOM      1  C   UNL     1      48.930   6.990 144.078  1.00  0.00     0.011 C 
ATOM      2  C   UNL     1      50.124   7.327 145.001  1.00  0.00    -0.035 C 
ATOM      3  C   UNL     1      51.118   8.279 144.300  1.00  0.00     0.007 C 
ATOM      4  C   UNL     1      50.531   9.675 144.061  1.00  0.00     0.013 C 
ATOM      5  C   UNL     1      49.875  10.320 145.316  1.00  0.00     0.026 C 
ATOM      6  C   UNL     1      50.901  10.745 146.374  1.00  0.00     0.171 C 
ATOM      7  O   UNL     1      50.276  10.672 147.640  1.00  0.00    -0.369 OA
ATOM      8  C   UNL     1      48.945  10.226 147.449  1.00  0.00     0.096 C 
ATOM      9  C   UNL     1      49.001   9.384 146.139  1.00  0.00     0.037 C 
ATOM     10  C   UNL     1      49.642   7.973 146.321  1.00  0.00     0.014 C 
ATOM     11  C   UNL     1      48.520   9.416 148.657  1.00  0.00     0.005 C 
ATOM     12  C   UNL     1      47.844   9.921 149.703  1.00  0.00    -0.024 C 
ATOM     13  C   UNL     1      47.394  11.383 149.879  1.00  0.00     0.024 C 
ATOM     14  C   UNL     1      47.705  11.878 151.380  1.00  0.00    -0.022 C 
ATOM     15  C   UNL     1      47.011  13.255 151.727  1.00  0.00     0.010 C 
ATOM     16  C   UNL     1      47.893  14.524 151.918  1.00  0.00     0.033 C 
ATOM     17  C   UNL     1      49.323  14.357 152.499  1.00  0.00     0.123 C 
ATOM     18  C   UNL     1      49.714  12.889 152.820  1.00  0.00     0.020 C 
ATOM     19  C   UNL     1      49.265  11.938 151.630  1.00  0.00     0.006 C 
ATOM     20  C   UNL     1      50.057  12.134 150.290  1.00  0.00     0.005 C 
ATOM     21  C   UNL     1      49.329  12.898 149.161  1.00  0.00     0.008 C 
ATOM     22  C   UNL     1      47.936  12.311 148.708  1.00  0.00    -0.017 C 
ATOM     23  C   UNL     1      47.982  11.480 147.306  1.00  0.00     0.009 C 
ATOM     24  C   UNL     1      48.459  12.360 146.085  1.00  0.00     0.043 C 
ATOM     25  C   UNL     1      49.032  11.561 144.880  1.00  0.00     0.124 C 
ATOM     26  C   UNL     1      46.526  10.996 146.949  1.00  0.00     0.015 C 
ATOM     27  C   UNL     1      46.961  13.525 148.501  1.00  0.00     0.013 C 
ATOM     28  C   UNL     1      49.030  12.472 154.158  1.00  0.00     0.017 C 
ATOM     29  C   UNL     1      47.052  10.814 152.343  1.00  0.00     0.012 C 
ATOM     30  C   UNL     1      50.856   6.009 145.333  1.00  0.00     0.011 C 
ENDROOT
BRANCH  25  31
ATOM     31  O   UNL     1      47.986  11.158 144.029  1.00  0.00    -0.392 OA
ATOM     32  H   UNL     1      47.688  10.262 144.338  1.00  0.00     0.210 HD
ENDBRANCH  25  31
BRANCH  18  33
ATOM     33  C   UNL     1      51.255  12.767 153.096  1.00  0.00     0.165 C 
BRANCH  33  34
ATOM     34  O   UNL     1      51.569  13.162 154.407  1.00  0.00    -0.396 OA
ATOM     35  H   UNL     1      51.302  14.114 154.485  1.00  0.00     0.210 HD
ENDBRANCH  33  34
ENDBRANCH  18  33
BRANCH  17  36
ATOM     36  O   UNL     1      50.242  14.930 151.597  1.00  0.00    -0.392 OA
ATOM     37  H   UNL     1      51.010  14.305 151.509  1.00  0.00     0.210 HD
ENDBRANCH  17  36
TORSDOF 4
ENDMDL
MODEL 2
REMARK VINA RESULT:    -8.108     10.171     13.756
REMARK INTER + INTRA:          -9.376
REMARK INTER:                  -9.292
REMARK INTRA:                  -0.084
REMARK UNBOUND:                -0.083
REMARK SMILES CC1(C)CC[C@@]23CO[C@]4(C=C[C@H]5[C@]6(C)CC[C@H](O)[C@](C)(CO)[C@@H]6CC[C@@]5(C)[C@@]4(C)C[C@@H]2O)[C@@H]3C1
REMARK SMILES IDX 1 1 2 2 4 3 5 4 6 5 7 6 8 7 9 8 33 9 34 10 10 11 11 12 12 13
REMARK SMILES IDX 13 14 15 15 16 16 17 17 19 18 23 19 24 20 25 21 26 22 28 23
REMARK SMILES IDX 30 24 31 25 29 26 27 27 20 28 14 29 3 30 32 31 21 33 22 34
REMARK SMILES IDX 18 36
REMARK H PARENT 32 32 22 35 18 37
REMARK Flexibility Score: inf
ROOT
ATOM      1  C   UNL     1      43.678   6.300 143.469  1.00  0.00     0.011 C 
ATOM      2  C   UNL     1      42.356   5.654 143.945  1.00  0.00    -0.035 C 
ATOM      3  C   UNL     1      41.556   5.080 142.755  1.00  0.00     0.007 C 
ATOM      4  C   UNL     1      42.249   3.878 142.101  1.00  0.00     0.013 C 
ATOM      5  C   UNL     1      42.701   2.775 143.100  1.00  0.00     0.026 C 
ATOM      6  C   UNL     1      41.525   1.991 143.695  1.00  0.00     0.171 C 
ATOM      7  O   UNL     1      41.906   1.543 144.981  1.00  0.00    -0.369 OA
ATOM      8  C   UNL     1      43.224   1.996 145.232  1.00  0.00     0.096 C 
ATOM      9  C   UNL     1      43.362   3.289 144.372  1.00  0.00     0.037 C 
ATOM     10  C   UNL     1      42.626   4.527 144.971  1.00  0.00     0.014 C 
ATOM     11  C   UNL     1      43.382   2.252 146.717  1.00  0.00     0.005 C 
ATOM     12  C   UNL     1      43.884   1.360 147.587  1.00  0.00    -0.024 C 
ATOM     13  C   UNL     1      44.371  -0.063 147.255  1.00  0.00     0.024 C 
ATOM     14  C   UNL     1      43.820  -1.104 148.355  1.00  0.00    -0.022 C 
ATOM     15  C   UNL     1      44.512  -2.522 148.257  1.00  0.00     0.010 C 
ATOM     16  C   UNL     1      43.678  -3.742 147.766  1.00  0.00     0.033 C 
ATOM     17  C   UNL     1      42.160  -3.785 148.088  1.00  0.00     0.123 C 
ATOM     18  C   UNL     1      41.640  -2.554 148.881  1.00  0.00     0.020 C 
ATOM     19  C   UNL     1      42.246  -1.221 148.265  1.00  0.00     0.006 C 
ATOM     20  C   UNL     1      41.720  -0.853 146.834  1.00  0.00     0.005 C 
ATOM     21  C   UNL     1      42.679  -1.125 145.653  1.00  0.00     0.008 C 
ATOM     22  C   UNL     1      44.098  -0.440 145.735  1.00  0.00    -0.017 C 
ATOM     23  C   UNL     1      44.263   0.879 144.790  1.00  0.00     0.009 C 
ATOM     24  C   UNL     1      44.060   0.564 143.256  1.00  0.00     0.043 C 
ATOM     25  C   UNL     1      43.673   1.788 142.378  1.00  0.00     0.124 C 
ATOM     26  C   UNL     1      45.732   1.430 144.930  1.00  0.00     0.015 C 
ATOM     27  C   UNL     1      45.157  -1.495 145.254  1.00  0.00     0.013 C 
ATOM     28  C   UNL     1      42.050  -2.716 150.377  1.00  0.00     0.017 C 
ATOM     29  C   UNL     1      44.233  -0.523 149.762  1.00  0.00     0.012 C 
ATOM     30  C   UNL     1      41.508   6.750 144.624  1.00  0.00     0.011 C 
ENDROOT
BRANCH  25  31
ATOM     31  O   UNL     1      44.832   2.470 141.964  1.00  0.00    -0.392 OA
ATOM     32  H   UNL     1      45.348   2.691 142.784  1.00  0.00     0.210 HD
ENDBRANCH  25  31
BRANCH  18  33
ATOM     33  C   UNL     1      40.071  -2.515 148.889  1.00  0.00     0.165 C 
BRANCH  33  34
ATOM     34  O   UNL     1      39.546  -3.411 149.836  1.00  0.00    -0.396 OA
ATOM     35  H   UNL     1      39.135  -4.154 149.321  1.00  0.00     0.210 HD
ENDBRANCH  33  34
ENDBRANCH  18  33
BRANCH  17  36
ATOM     36  O   UNL     1      41.450  -3.933 146.880  1.00  0.00    -0.392 OA
ATOM     37  H   UNL     1      41.553  -3.091 146.362  1.00  0.00     0.210 HD
ENDBRANCH  17  36
TORSDOF 4
ENDMDL
MODEL 3
REMARK VINA RESULT:    -8.100      7.780     13.038
REMARK INTER + INTRA:          -9.367
REMARK INTER:                  -9.283
REMARK INTRA:                  -0.083
REMARK UNBOUND:                -0.083
REMARK SMILES CC1(C)CC[C@@]23CO[C@]4(C=C[C@H]5[C@]6(C)CC[C@H](O)[C@](C)(CO)[C@@H]6CC[C@@]5(C)[C@@]4(C)C[C@@H]2O)[C@@H]3C1
REMARK SMILES IDX 1 1 2 2 4 3 5 4 6 5 7 6 8 7 9 8 33 9 34 10 10 11 11 12 12 13
REMARK SMILES IDX 13 14 15 15 16 16 17 17 19 18 23 19 24 20 25 21 26 22 28 23
REMARK SMILES IDX 30 24 31 25 29 26 27 27 20 28 14 29 3 30 32 31 21 33 22 34
REMARK SMILES IDX 18 36
REMARK H PARENT 32 32 22 35 18 37
REMARK Flexibility Score: inf
ROOT
ATOM      1  C   UNL     1      48.108   4.720 152.081  1.00  0.00     0.011 C 
ATOM      2  C   UNL     1      49.513   4.507 151.472  1.00  0.00    -0.035 C 
ATOM      3  C   UNL     1      50.392   3.630 152.391  1.00  0.00     0.007 C 
ATOM      4  C   UNL     1      49.892   2.184 152.484  1.00  0.00     0.013 C 
ATOM      5  C   UNL     1      49.614   1.510 151.109  1.00  0.00     0.026 C 
ATOM      6  C   UNL     1      50.896   1.198 150.328  1.00  0.00     0.171 C 
ATOM      7  O   UNL     1      50.587   1.243 148.948  1.00  0.00    -0.369 OA
ATOM      8  C   UNL     1      49.215   1.567 148.815  1.00  0.00     0.096 C 
ATOM      9  C   UNL     1      48.881   2.384 150.100  1.00  0.00     0.037 C 
ATOM     10  C   UNL     1      49.419   3.848 150.074  1.00  0.00     0.014 C 
ATOM     11  C   UNL     1      49.019   2.361 147.539  1.00  0.00     0.005 C 
ATOM     12  C   UNL     1      48.659   1.821 146.363  1.00  0.00    -0.024 C 
ATOM     13  C   UNL     1      48.397   0.330 146.086  1.00  0.00     0.024 C 
ATOM     14  C   UNL     1      49.100  -0.105 144.703  1.00  0.00    -0.022 C 
ATOM     15  C   UNL     1      48.634  -1.530 144.201  1.00  0.00     0.010 C 
ATOM     16  C   UNL     1      49.645  -2.714 144.228  1.00  0.00     0.033 C 
ATOM     17  C   UNL     1      51.152  -2.412 144.006  1.00  0.00     0.123 C 
ATOM     18  C   UNL     1      51.476  -0.909 143.786  1.00  0.00     0.020 C 
ATOM     19  C   UNL     1      50.673  -0.025 144.834  1.00  0.00     0.006 C 
ATOM     20  C   UNL     1      51.137  -0.179 146.324  1.00  0.00     0.005 C 
ATOM     21  C   UNL     1      50.232  -1.026 147.247  1.00  0.00     0.008 C 
ATOM     22  C   UNL     1      48.724  -0.572 147.353  1.00  0.00    -0.017 C 
ATOM     23  C   UNL     1      48.361   0.232 148.724  1.00  0.00     0.009 C 
ATOM     24  C   UNL     1      48.610  -0.629 150.025  1.00  0.00     0.043 C 
ATOM     25  C   UNL     1      48.805   0.192 151.331  1.00  0.00     0.124 C 
ATOM     26  C   UNL     1      46.824   0.580 148.722  1.00  0.00     0.015 C 
ATOM     27  C   UNL     1      47.840  -1.869 147.322  1.00  0.00     0.013 C 
ATOM     28  C   UNL     1      51.096  -0.525 142.324  1.00  0.00     0.017 C 
ATOM     29  C   UNL     1      48.603   0.917 143.610  1.00  0.00     0.012 C 
ATOM     30  C   UNL     1      50.183   5.890 151.324  1.00  0.00     0.011 C 
ENDROOT
BRANCH  25  31
ATOM     31  O   UNL     1      47.555   0.486 151.908  1.00  0.00    -0.392 OA
ATOM     32  H   UNL     1      46.865   0.040 151.349  1.00  0.00     0.210 HD
ENDBRANCH  25  31
BRANCH  18  33
ATOM     33  C   UNL     1      53.021  -0.648 143.887  1.00  0.00     0.165 C 
BRANCH  33  34
ATOM     34  O   UNL     1      53.675  -1.004 142.696  1.00  0.00    -0.396 OA
ATOM     35  H   UNL     1      54.626  -1.156 142.932  1.00  0.00     0.210 HD
ENDBRANCH  33  34
ENDBRANCH  18  33
BRANCH  17  36
ATOM     36  O   UNL     1      51.877  -2.921 145.102  1.00  0.00    -0.392 OA
ATOM     37  H   UNL     1      51.571  -2.442 145.917  1.00  0.00     0.210 HD
ENDBRANCH  17  36
TORSDOF 4
ENDMDL
MODEL 4
REMARK VINA RESULT:    -8.083      9.133     13.033
REMARK INTER + INTRA:          -9.348
REMARK INTER:                  -9.111
REMARK INTRA:                  -0.237
REMARK UNBOUND:                -0.083
REMARK SMILES CC1(C)CC[C@@]23CO[C@]4(C=C[C@H]5[C@]6(C)CC[C@H](O)[C@](C)(CO)[C@@H]6CC[C@@]5(C)[C@@]4(C)C[C@@H]2O)[C@@H]3C1
REMARK SMILES IDX 1 1 2 2 4 3 5 4 6 5 7 6 8 7 9 8 33 9 34 10 10 11 11 12 12 13
REMARK SMILES IDX 13 14 15 15 16 16 17 17 19 18 23 19 24 20 25 21 26 22 28 23
REMARK SMILES IDX 30 24 31 25 29 26 27 27 20 28 14 29 3 30 32 31 21 33 22 34
REMARK SMILES IDX 18 36
REMARK H PARENT 32 32 22 35 18 37
REMARK Flexibility Score: inf
ROOT
ATOM      1  C   UNL     1      38.705  -1.267 146.643  1.00  0.00     0.011 C 
ATOM      2  C   UNL     1      40.082  -1.873 147.004  1.00  0.00    -0.035 C 
ATOM      3  C   UNL     1      40.424  -3.066 146.084  1.00  0.00     0.007 C 
ATOM      4  C   UNL     1      40.664  -2.643 144.630  1.00  0.00     0.013 C 
ATOM      5  C   UNL     1      41.658  -1.458 144.460  1.00  0.00     0.026 C 
ATOM      6  C   UNL     1      43.109  -1.849 144.765  1.00  0.00     0.171 C 
ATOM      7  O   UNL     1      43.780  -0.697 145.238  1.00  0.00    -0.369 OA
ATOM      8  C   UNL     1      42.855   0.375 145.256  1.00  0.00     0.096 C 
ATOM      9  C   UNL     1      41.468  -0.311 145.445  1.00  0.00     0.037 C 
ATOM     10  C   UNL     1      41.201  -0.809 146.899  1.00  0.00     0.014 C 
ATOM     11  C   UNL     1      43.211   1.312 146.392  1.00  0.00     0.005 C 
ATOM     12  C   UNL     1      43.969   2.413 146.252  1.00  0.00    -0.024 C 
ATOM     13  C   UNL     1      44.616   2.915 144.948  1.00  0.00     0.024 C 
ATOM     14  C   UNL     1      46.139   3.364 145.226  1.00  0.00    -0.022 C 
ATOM     15  C   UNL     1      46.772   4.161 144.017  1.00  0.00     0.010 C 
ATOM     16  C   UNL     1      47.904   3.496 143.178  1.00  0.00     0.033 C 
ATOM     17  C   UNL     1      48.876   2.513 143.885  1.00  0.00     0.123 C 
ATOM     18  C   UNL     1      48.582   2.300 145.395  1.00  0.00     0.020 C 
ATOM     19  C   UNL     1      47.021   2.112 145.620  1.00  0.00     0.006 C 
ATOM     20  C   UNL     1      46.424   0.781 145.045  1.00  0.00     0.005 C 
ATOM     21  C   UNL     1      45.616   0.895 143.733  1.00  0.00     0.008 C 
ATOM     22  C   UNL     1      44.395   1.894 143.749  1.00  0.00    -0.017 C 
ATOM     23  C   UNL     1      42.939   1.173 143.886  1.00  0.00     0.009 C 
ATOM     24  C   UNL     1      42.628   0.185 142.695  1.00  0.00     0.043 C 
ATOM     25  C   UNL     1      41.563  -0.905 143.002  1.00  0.00     0.124 C 
ATOM     26  C   UNL     1      41.814   2.275 143.841  1.00  0.00     0.015 C 
ATOM     27  C   UNL     1      44.406   2.671 142.385  1.00  0.00     0.013 C 
ATOM     28  C   UNL     1      49.117   3.533 146.186  1.00  0.00     0.017 C 
ATOM     29  C   UNL     1      46.089   4.381 146.430  1.00  0.00     0.012 C 
ATOM     30  C   UNL     1      40.014  -2.378 148.460  1.00  0.00     0.011 C 
ENDROOT
BRANCH  25  31
ATOM     31  O   UNL     1      40.272  -0.398 142.763  1.00  0.00    -0.392 OA
ATOM     32  H   UNL     1      39.759  -0.497 143.608  1.00  0.00     0.210 HD
ENDBRANCH  25  31
BRANCH  18  33
ATOM     33  C   UNL     1      49.389   1.075 145.955  1.00  0.00     0.165 C 
BRANCH  33  34
ATOM     34  O   UNL     1      50.764   1.215 145.703  1.00  0.00    -0.396 OA
ATOM     35  H   UNL     1      50.920   2.180 145.530  1.00  0.00     0.210 HD
ENDBRANCH  33  34
ENDBRANCH  18  33
BRANCH  17  36
ATOM     36  O   UNL     1      48.850   1.285 143.196  1.00  0.00    -0.392 OA
ATOM     37  H   UNL     1      48.847   1.483 142.222  1.00  0.00     0.210 HD
ENDBRANCH  17  36
TORSDOF 4
ENDMDL
MODEL 5
REMARK VINA RESULT:    -8.080      6.127      9.398
REMARK INTER + INTRA:          -9.344
REMARK INTER:                  -9.145
REMARK INTRA:                  -0.199
REMARK UNBOUND:                -0.083
REMARK SMILES CC1(C)CC[C@@]23CO[C@]4(C=C[C@H]5[C@]6(C)CC[C@H](O)[C@](C)(CO)[C@@H]6CC[C@@]5(C)[C@@]4(C)C[C@@H]2O)[C@@H]3C1
REMARK SMILES IDX 1 1 2 2 4 3 5 4 6 5 7 6 8 7 9 8 33 9 34 10 10 11 11 12 12 13
REMARK SMILES IDX 13 14 15 15 16 16 17 17 19 18 23 19 24 20 25 21 26 22 28 23
REMARK SMILES IDX 30 24 31 25 29 26 27 27 20 28 14 29 3 30 32 31 21 33 22 34
REMARK SMILES IDX 18 36
REMARK H PARENT 32 32 22 35 18 37
REMARK Flexibility Score: inf
ROOT
ATOM      1  C   UNL     1      42.705   5.282 151.574  1.00  0.00     0.011 C 
ATOM      2  C   UNL     1      41.477   5.805 150.792  1.00  0.00    -0.035 C 
ATOM      3  C   UNL     1      40.390   6.336 151.751  1.00  0.00     0.007 C 
ATOM      4  C   UNL     1      40.825   7.605 152.494  1.00  0.00     0.013 C 
ATOM      5  C   UNL     1      41.403   8.721 151.577  1.00  0.00     0.026 C 
ATOM      6  C   UNL     1      40.334   9.391 150.706  1.00  0.00     0.171 C 
ATOM      7  O   UNL     1      40.959   9.841 149.519  1.00  0.00    -0.369 OA
ATOM      8  C   UNL     1      42.330   9.494 149.585  1.00  0.00     0.096 C 
ATOM      9  C   UNL     1      42.370   8.236 150.504  1.00  0.00     0.037 C 
ATOM     10  C   UNL     1      41.883   6.928 149.807  1.00  0.00     0.014 C 
ATOM     11  C   UNL     1      42.835   9.220 148.183  1.00  0.00     0.005 C 
ATOM     12  C   UNL     1      43.450  10.132 147.411  1.00  0.00    -0.024 C 
ATOM     13  C   UNL     1      43.740  11.597 147.786  1.00  0.00     0.024 C 
ATOM     14  C   UNL     1      43.372  12.565 146.551  1.00  0.00    -0.022 C 
ATOM     15  C   UNL     1      43.913  14.037 146.744  1.00  0.00     0.010 C 
ATOM     16  C   UNL     1      42.900  15.194 146.989  1.00  0.00     0.033 C 
ATOM     17  C   UNL     1      41.494  15.103 146.337  1.00  0.00     0.123 C 
ATOM     18  C   UNL     1      41.260  13.817 145.499  1.00  0.00     0.020 C 
ATOM     19  C   UNL     1      41.813  12.552 146.285  1.00  0.00     0.006 C 
ATOM     20  C   UNL     1      41.010  12.173 147.578  1.00  0.00     0.005 C 
ATOM     21  C   UNL     1      41.656  12.549 148.930  1.00  0.00     0.008 C 
ATOM     22  C   UNL     1      43.106  11.983 149.192  1.00  0.00    -0.017 C 
ATOM     23  C   UNL     1      43.155  10.704 150.201  1.00  0.00     0.009 C 
ATOM     24  C   UNL     1      42.590  11.033 151.638  1.00  0.00     0.043 C 
ATOM     25  C   UNL     1      42.111   9.801 152.457  1.00  0.00     0.124 C 
ATOM     26  C   UNL     1      44.655  10.273 150.412  1.00  0.00     0.015 C 
ATOM     27  C   UNL     1      43.946  13.133 149.853  1.00  0.00     0.013 C 
ATOM     28  C   UNL     1      41.981  13.980 144.125  1.00  0.00     0.017 C 
ATOM     29  C   UNL     1      44.132  11.990 145.294  1.00  0.00     0.012 C 
ATOM     30  C   UNL     1      40.889   4.628 149.985  1.00  0.00     0.011 C 
ENDROOT
BRANCH  25  31
ATOM     31  O   UNL     1      43.197   9.226 153.144  1.00  0.00    -0.392 OA
ATOM     32  H   UNL     1      42.943   8.290 153.359  1.00  0.00     0.210 HD
ENDBRANCH  25  31
BRANCH  18  33
ATOM     33  C   UNL     1      39.740  13.647 145.144  1.00  0.00     0.165 C 
BRANCH  33  34
ATOM     34  O   UNL     1      39.266  14.743 144.404  1.00  0.00    -0.396 OA
ATOM     35  H   UNL     1      39.434  15.549 144.958  1.00  0.00     0.210 HD
ENDBRANCH  33  34
ENDBRANCH  18  33
BRANCH  17  36
ATOM     36  O   UNL     1      40.522  15.217 147.351  1.00  0.00    -0.392 OA
ATOM     37  H   UNL     1      39.781  14.591 147.134  1.00  0.00     0.210 HD
ENDBRANCH  17  36
TORSDOF 4
ENDMDL
MODEL 6
REMARK VINA RESULT:    -8.005      5.472      8.284
REMARK INTER + INTRA:          -9.257
REMARK INTER:                  -8.991
REMARK INTRA:                  -0.267
REMARK UNBOUND:                -0.083
REMARK SMILES CC1(C)CC[C@@]23CO[C@]4(C=C[C@H]5[C@]6(C)CC[C@H](O)[C@](C)(CO)[C@@H]6CC[C@@]5(C)[C@@]4(C)C[C@@H]2O)[C@@H]3C1
REMARK SMILES IDX 1 1 2 2 4 3 5 4 6 5 7 6 8 7 9 8 33 9 34 10 10 11 11 12 12 13
REMARK SMILES IDX 13 14 15 15 16 16 17 17 19 18 23 19 24 20 25 21 26 22 28 23
REMARK SMILES IDX 30 24 31 25 29 26 27 27 20 28 14 29 3 30 32 31 21 33 22 34
REMARK SMILES IDX 18 36
REMARK H PARENT 32 32 22 35 18 37
REMARK Flexibility Score: inf
ROOT
ATOM      1  C   UNL     1      38.072  12.431 147.187  1.00  0.00     0.011 C 
ATOM      2  C   UNL     1      39.460  13.107 147.089  1.00  0.00    -0.035 C 
ATOM      3  C   UNL     1      39.550  14.332 148.025  1.00  0.00     0.007 C 
ATOM      4  C   UNL     1      39.517  13.947 149.509  1.00  0.00     0.013 C 
ATOM      5  C   UNL     1      40.518  12.823 149.904  1.00  0.00     0.026 C 
ATOM      6  C   UNL     1      41.978  13.290 149.881  1.00  0.00     0.171 C 
ATOM      7  O   UNL     1      42.789  12.170 149.582  1.00  0.00    -0.369 OA
ATOM      8  C   UNL     1      41.943  11.047 149.410  1.00  0.00     0.096 C 
ATOM      9  C   UNL     1      40.587  11.651 148.933  1.00  0.00     0.037 C 
ATOM     10  C   UNL     1      40.590  12.109 147.442  1.00  0.00     0.014 C 
ATOM     11  C   UNL     1      42.566  10.113 148.393  1.00  0.00     0.005 C 
ATOM     12  C   UNL     1      43.337   9.059 148.710  1.00  0.00    -0.024 C 
ATOM     13  C   UNL     1      43.737   8.616 150.130  1.00  0.00     0.024 C 
ATOM     14  C   UNL     1      45.306   8.249 150.170  1.00  0.00    -0.022 C 
ATOM     15  C   UNL     1      45.727   7.509 151.502  1.00  0.00     0.010 C 
ATOM     16  C   UNL     1      46.632   8.250 152.529  1.00  0.00     0.033 C 
ATOM     17  C   UNL     1      47.673   9.274 152.002  1.00  0.00     0.123 C 
ATOM     18  C   UNL     1      47.675   9.446 150.459  1.00  0.00     0.020 C 
ATOM     19  C   UNL     1      46.182   9.542 149.925  1.00  0.00     0.006 C 
ATOM     20  C   UNL     1      45.414  10.847 150.334  1.00  0.00     0.005 C 
ATOM     21  C   UNL     1      44.369  10.709 151.463  1.00  0.00     0.008 C 
ATOM     22  C   UNL     1      43.229   9.642 151.233  1.00  0.00    -0.017 C 
ATOM     23  C   UNL     1      41.794  10.278 150.791  1.00  0.00     0.009 C 
ATOM     24  C   UNL     1      41.202  11.266 151.871  1.00  0.00     0.043 C 
ATOM     25  C   UNL     1      40.163  12.289 151.329  1.00  0.00     0.124 C 
ATOM     26  C   UNL     1      40.741   9.115 150.643  1.00  0.00     0.015 C 
ATOM     27  C   UNL     1      43.009   8.890 152.593  1.00  0.00     0.013 C 
ATOM     28  C   UNL     1      48.420   8.233 149.823  1.00  0.00     0.017 C 
ATOM     29  C   UNL     1      45.549   7.211 149.009  1.00  0.00     0.012 C 
ATOM     30  C   UNL     1      39.656  13.583 145.634  1.00  0.00     0.011 C 
ENDROOT
BRANCH  25  31
ATOM     31  O   UNL     1      38.879  11.714 151.322  1.00  0.00    -0.392 OA
ATOM     32  H   UNL     1      38.977  10.785 150.985  1.00  0.00     0.210 HD
ENDBRANCH  25  31
BRANCH  18  33
ATOM     33  C   UNL     1      48.513  10.705 150.036  1.00  0.00     0.165 C 
BRANCH  33  34
ATOM     34  O   UNL     1      49.775  10.705 150.652  1.00  0.00    -0.396 OA
ATOM     35  H   UNL     1      49.731  11.376 151.382  1.00  0.00     0.210 HD
ENDBRANCH  33  34
ENDBRANCH  18  33
BRANCH  17  36
ATOM     36  O   UNL     1      47.447  10.511 152.639  1.00  0.00    -0.392 OA
ATOM     37  H   UNL     1      48.293  10.782 153.086  1.00  0.00     0.210 HD
ENDBRANCH  17  36
TORSDOF 4
ENDMDL
MODEL 7
REMARK VINA RESULT:    -7.998      9.390     12.053
REMARK INTER + INTRA:          -9.250
REMARK INTER:                  -8.985
REMARK INTRA:                  -0.265
REMARK UNBOUND:                -0.083
REMARK SMILES CC1(C)CC[C@@]23CO[C@]4(C=C[C@H]5[C@]6(C)CC[C@H](O)[C@](C)(CO)[C@@H]6CC[C@@]5(C)[C@@]4(C)C[C@@H]2O)[C@@H]3C1
REMARK SMILES IDX 1 1 2 2 4 3 5 4 6 5 7 6 8 7 9 8 33 9 34 10 10 11 11 12 12 13
REMARK SMILES IDX 13 14 15 15 16 16 17 17 19 18 23 19 24 20 25 21 26 22 28 23
REMARK SMILES IDX 30 24 31 25 29 26 27 27 20 28 14 29 3 30 32 31 21 33 22 34
REMARK SMILES IDX 18 36
REMARK H PARENT 32 32 22 35 18 37
REMARK Flexibility Score: inf
ROOT
ATOM      1  C   UNL     1      53.718  -0.462 146.322  1.00  0.00     0.011 C 
ATOM      2  C   UNL     1      52.400  -1.024 145.740  1.00  0.00    -0.035 C 
ATOM      3  C   UNL     1      52.192  -2.497 146.156  1.00  0.00     0.007 C 
ATOM      4  C   UNL     1      51.939  -2.657 147.660  1.00  0.00     0.013 C 
ATOM      5  C   UNL     1      50.838  -1.717 148.231  1.00  0.00     0.026 C 
ATOM      6  C   UNL     1      49.426  -2.109 147.778  1.00  0.00     0.171 C 
ATOM      7  O   UNL     1      48.638  -0.935 147.745  1.00  0.00    -0.369 OA
ATOM      8  C   UNL     1      49.455   0.155 148.134  1.00  0.00     0.096 C 
ATOM      9  C   UNL     1      50.898  -0.279 147.735  1.00  0.00     0.037 C 
ATOM     10  C   UNL     1      51.186  -0.185 146.204  1.00  0.00     0.014 C 
ATOM     11  C   UNL     1      48.989   1.402 147.411  1.00  0.00     0.005 C 
ATOM     12  C   UNL     1      48.131   2.297 147.928  1.00  0.00    -0.024 C 
ATOM     13  C   UNL     1      47.462   2.225 149.313  1.00  0.00     0.024 C 
ATOM     14  C   UNL     1      45.899   2.595 149.190  1.00  0.00    -0.022 C 
ATOM     15  C   UNL     1      45.213   2.832 150.594  1.00  0.00     0.010 C 
ATOM     16  C   UNL     1      44.167   1.801 151.112  1.00  0.00     0.033 C 
ATOM     17  C   UNL     1      43.281   1.054 150.079  1.00  0.00     0.123 C 
ATOM     18  C   UNL     1      43.567   1.435 148.600  1.00  0.00     0.020 C 
ATOM     19  C   UNL     1      45.135   1.494 148.351  1.00  0.00     0.006 C 
ATOM     20  C   UNL     1      45.868   0.109 148.413  1.00  0.00     0.005 C 
ATOM     21  C   UNL     1      46.685  -0.186 149.692  1.00  0.00     0.008 C 
ATOM     22  C   UNL     1      47.803   0.864 150.062  1.00  0.00    -0.017 C 
ATOM     23  C   UNL     1      49.319   0.387 149.699  1.00  0.00     0.009 C 
ATOM     24  C   UNL     1      49.745  -0.932 150.455  1.00  0.00     0.043 C 
ATOM     25  C   UNL     1      50.906  -1.727 149.791  1.00  0.00     0.124 C 
ATOM     26  C   UNL     1      50.332   1.500 150.163  1.00  0.00     0.015 C 
ATOM     27  C   UNL     1      47.741   1.087 151.616  1.00  0.00     0.013 C 
ATOM     28  C   UNL     1      42.901   2.813 148.302  1.00  0.00     0.017 C 
ATOM     29  C   UNL     1      45.828   3.980 148.440  1.00  0.00     0.012 C 
ATOM     30  C   UNL     1      52.491  -0.956 144.201  1.00  0.00     0.011 C 
ENDROOT
BRANCH  25  31
ATOM     31  O   UNL     1      52.146  -1.220 150.223  1.00  0.00    -0.392 OA
ATOM     32  H   UNL     1      52.012  -0.868 151.143  1.00  0.00     0.210 HD
ENDBRANCH  25  31
BRANCH  18  33
ATOM     33  C   UNL     1      42.872   0.426 147.618  1.00  0.00     0.165 C 
BRANCH  33  34
ATOM     34  O   UNL     1      41.517   0.250 147.945  1.00  0.00    -0.396 OA
ATOM     35  H   UNL     1      41.033   1.025 147.557  1.00  0.00     0.210 HD
ENDBRANCH  33  34
ENDBRANCH  18  33
BRANCH  17  36
ATOM     36  O   UNL     1      43.439  -0.332 150.274  1.00  0.00    -0.392 OA
ATOM     37  H   UNL     1      42.568  -0.768 150.073  1.00  0.00     0.210 HD
ENDBRANCH  17  36
TORSDOF 4
ENDMDL
MODEL 8
REMARK VINA RESULT:    -7.988      2.743      6.860
REMARK INTER + INTRA:          -9.238
REMARK INTER:                  -8.975
REMARK INTRA:                  -0.263
REMARK UNBOUND:                -0.083
REMARK SMILES CC1(C)CC[C@@]23CO[C@]4(C=C[C@H]5[C@]6(C)CC[C@H](O)[C@](C)(CO)[C@@H]6CC[C@@]5(C)[C@@]4(C)C[C@@H]2O)[C@@H]3C1
REMARK SMILES IDX 1 1 2 2 4 3 5 4 6 5 7 6 8 7 9 8 33 9 34 10 10 11 11 12 12 13
REMARK SMILES IDX 13 14 15 15 16 16 17 17 19 18 23 19 24 20 25 21 26 22 28 23
REMARK SMILES IDX 30 24 31 25 29 26 27 27 20 28 14 29 3 30 32 31 21 33 22 34
REMARK SMILES IDX 18 36
REMARK H PARENT 32 32 22 35 18 37
REMARK Flexibility Score: inf
ROOT
ATOM      1  C   UNL     1      52.906  12.514 151.028  1.00  0.00     0.011 C 
ATOM      2  C   UNL     1      51.462  12.969 151.344  1.00  0.00    -0.035 C 
ATOM      3  C   UNL     1      51.240  14.442 150.938  1.00  0.00     0.007 C 
ATOM      4  C   UNL     1      51.287  14.652 149.420  1.00  0.00     0.013 C 
ATOM      5  C   UNL     1      50.392  13.672 148.608  1.00  0.00     0.026 C 
ATOM      6  C   UNL     1      48.894  13.956 148.773  1.00  0.00     0.171 C 
ATOM      7  O   UNL     1      48.199  12.735 148.609  1.00  0.00    -0.369 OA
ATOM      8  C   UNL     1      49.152  11.716 148.363  1.00  0.00     0.096 C 
ATOM      9  C   UNL     1      50.450  12.220 149.063  1.00  0.00     0.037 C 
ATOM     10  C   UNL     1      50.427  12.077 150.616  1.00  0.00     0.014 C 
ATOM     11  C   UNL     1      48.636  10.412 148.937  1.00  0.00     0.005 C 
ATOM     12  C   UNL     1      47.965   9.489 148.228  1.00  0.00    -0.024 C 
ATOM     13  C   UNL     1      47.587   9.580 146.739  1.00  0.00     0.024 C 
ATOM     14  C   UNL     1      46.060   9.109 146.528  1.00  0.00    -0.022 C 
ATOM     15  C   UNL     1      45.691   8.892 145.006  1.00  0.00     0.010 C 
ATOM     16  C   UNL     1      44.703   9.878 144.315  1.00  0.00     0.033 C 
ATOM     17  C   UNL     1      43.577  10.523 145.167  1.00  0.00     0.123 C 
ATOM     18  C   UNL     1      43.583  10.097 146.661  1.00  0.00     0.020 C 
ATOM     19  C   UNL     1      45.068  10.124 147.224  1.00  0.00     0.006 C 
ATOM     20  C   UNL     1      45.701  11.553 147.356  1.00  0.00     0.005 C 
ATOM     21  C   UNL     1      46.738  11.952 146.281  1.00  0.00     0.008 C 
ATOM     22  C   UNL     1      47.978  10.990 146.117  1.00  0.00    -0.017 C 
ATOM     23  C   UNL     1      49.352  11.544 146.797  1.00  0.00     0.009 C 
ATOM     24  C   UNL     1      49.830  12.918 146.184  1.00  0.00     0.043 C 
ATOM     25  C   UNL     1      50.774  13.754 147.095  1.00  0.00     0.124 C 
ATOM     26  C   UNL     1      50.513  10.517 146.517  1.00  0.00     0.015 C 
ATOM     27  C   UNL     1      48.248  10.832 144.578  1.00  0.00     0.013 C 
ATOM     28  C   UNL     1      42.967   8.669 146.775  1.00  0.00     0.017 C 
ATOM     29  C   UNL     1      45.935   7.691 147.205  1.00  0.00     0.012 C 
ATOM     30  C   UNL     1      51.243  12.839 152.866  1.00  0.00     0.011 C 
ENDROOT
BRANCH  25  31
ATOM     31  O   UNL     1      52.108  13.343 146.912  1.00  0.00    -0.392 OA
ATOM     32  H   UNL     1      52.329  13.489 145.955  1.00  0.00     0.210 HD
ENDBRANCH  25  31
BRANCH  18  33
ATOM     33  C   UNL     1      42.636  11.018 147.510  1.00  0.00     0.165 C 
BRANCH  33  34
ATOM     34  O   UNL     1      41.365  11.120 146.919  1.00  0.00    -0.396 OA
ATOM     35  H   UNL     1      40.705  10.983 147.648  1.00  0.00     0.210 HD
ENDBRANCH  33  34
ENDBRANCH  18  33
BRANCH  17  36
ATOM     36  O   UNL     1      43.674  11.924 145.050  1.00  0.00    -0.392 OA
ATOM     37  H   UNL     1      43.135  12.201 144.263  1.00  0.00     0.210 HD
ENDBRANCH  17  36
TORSDOF 4
ENDMDL
MODEL 9
REMARK VINA RESULT:    -7.720      9.892     13.152
REMARK INTER + INTRA:          -8.932
REMARK INTER:                  -8.655
REMARK INTRA:                  -0.276
REMARK UNBOUND:                -0.083
REMARK SMILES CC1(C)CC[C@@]23CO[C@]4(C=C[C@H]5[C@]6(C)CC[C@H](O)[C@](C)(CO)[C@@H]6CC[C@@]5(C)[C@@]4(C)C[C@@H]2O)[C@@H]3C1
REMARK SMILES IDX 1 1 2 2 4 3 5 4 6 5 7 6 8 7 9 8 33 9 34 10 10 11 11 12 12 13
REMARK SMILES IDX 13 14 15 15 16 16 17 17 19 18 23 19 24 20 25 21 26 22 28 23
REMARK SMILES IDX 30 24 31 25 29 26 27 27 20 28 14 29 3 30 32 31 21 33 22 34
REMARK SMILES IDX 18 36
REMARK H PARENT 32 32 22 35 18 37
REMARK Flexibility Score: inf
ROOT
ATOM      1  C   UNL     1      40.396  -1.148 146.215  1.00  0.00     0.011 C 
ATOM      2  C   UNL     1      41.163  -1.566 144.938  1.00  0.00    -0.035 C 
ATOM      3  C   UNL     1      40.754  -0.692 143.732  1.00  0.00     0.007 C 
ATOM      4  C   UNL     1      41.204   0.767 143.879  1.00  0.00     0.013 C 
ATOM      5  C   UNL     1      42.703   0.942 144.259  1.00  0.00     0.026 C 
ATOM      6  C   UNL     1      43.655   0.585 143.111  1.00  0.00     0.171 C 
ATOM      7  O   UNL     1      44.867   0.127 143.677  1.00  0.00    -0.369 OA
ATOM      8  C   UNL     1      44.737   0.166 145.087  1.00  0.00     0.096 C 
ATOM      9  C   UNL     1      43.208  -0.003 145.341  1.00  0.00     0.037 C 
ATOM     10  C   UNL     1      42.692  -1.462 145.150  1.00  0.00     0.014 C 
ATOM     11  C   UNL     1      45.564  -0.952 145.688  1.00  0.00     0.005 C 
ATOM     12  C   UNL     1      46.821  -0.802 146.138  1.00  0.00    -0.024 C 
ATOM     13  C   UNL     1      47.648   0.497 146.118  1.00  0.00     0.024 C 
ATOM     14  C   UNL     1      49.146   0.189 145.611  1.00  0.00    -0.022 C 
ATOM     15  C   UNL     1      50.133   1.402 145.843  1.00  0.00     0.010 C 
ATOM     16  C   UNL     1      50.672   2.188 144.611  1.00  0.00     0.033 C 
ATOM     17  C   UNL     1      50.888   1.426 143.276  1.00  0.00     0.123 C 
ATOM     18  C   UNL     1      50.515  -0.081 143.334  1.00  0.00     0.020 C 
ATOM     19  C   UNL     1      49.134  -0.266 144.097  1.00  0.00     0.006 C 
ATOM     20  C   UNL     1      47.878   0.286 143.337  1.00  0.00     0.005 C 
ATOM     21  C   UNL     1      47.295   1.624 143.846  1.00  0.00     0.008 C 
ATOM     22  C   UNL     1      46.882   1.672 145.368  1.00  0.00    -0.017 C 
ATOM     23  C   UNL     1      45.278   1.555 145.632  1.00  0.00     0.009 C 
ATOM     24  C   UNL     1      44.458   2.726 144.961  1.00  0.00     0.043 C 
ATOM     25  C   UNL     1      42.956   2.418 144.705  1.00  0.00     0.124 C 
ATOM     26  C   UNL     1      45.003   1.665 147.179  1.00  0.00     0.015 C 
ATOM     27  C   UNL     1      47.352   3.057 145.939  1.00  0.00     0.013 C 
ATOM     28  C   UNL     1      51.662  -0.851 144.058  1.00  0.00     0.017 C 
ATOM     29  C   UNL     1      49.689  -0.983 146.516  1.00  0.00     0.012 C 
ATOM     30  C   UNL     1      40.804  -3.034 144.625  1.00  0.00     0.011 C 
ENDROOT
BRANCH  25  31
ATOM     31  O   UNL     1      42.201   2.709 145.857  1.00  0.00    -0.392 OA
ATOM     32  H   UNL     1      41.245   2.707 145.587  1.00  0.00     0.210 HD
ENDBRANCH  25  31
BRANCH  18  33
ATOM     33  C   UNL     1      50.457  -0.699 141.892  1.00  0.00     0.165 C 
BRANCH  33  34
ATOM     34  O   UNL     1      51.585  -0.335 141.137  1.00  0.00    -0.396 OA
ATOM     35  H   UNL     1      51.256  -0.129 140.224  1.00  0.00     0.210 HD
ENDBRANCH  33  34
ENDBRANCH  18  33
BRANCH  17  36
ATOM     36  O   UNL     1      50.157   2.080 142.264  1.00  0.00    -0.392 OA
ATOM     37  H   UNL     1      50.772   2.236 141.499  1.00  0.00     0.210 HD
ENDBRANCH  17  36
TORSDOF 4
ENDMDL
