MODEL 1
REMARK VINA RESULT:    -0.997      0.000      0.000
REMARK INTER + INTRA:          -1.355
REMARK INTER:                  -1.201
REMARK INTRA:                  -0.155
REMARK UNBOUND:                -0.155
REMARK SMILES O=c1c(O)c(-c2ccc(O)c(O)c2)oc2cc(O)cc(O)c12
REMARK SMILES IDX 5 1 3 2 2 3 1 4 22 5 20 6 19 7 17 8 16 9 15 10 14 11 6 12
REMARK SMILES IDX 7 13 8 14 9 15 13 16 11 17 10 18 12 20 4 22 21 24 18 26
REMARK H PARENT 10 19 12 21 4 23 21 25 18 27
REMARK Flexibility Score: inf
ROOT
ATOM      1  C   UNL     1      29.616  37.955  27.211  1.00  0.00     0.180 A 
ATOM      2  C   UNL     1      28.285  38.193  26.829  1.00  0.00     0.208 A 
ATOM      3  C   UNL     1      27.525  37.132  26.311  1.00  0.00     0.238 A 
ATOM      4  O   UNL     1      26.313  37.335  26.040  1.00  0.00    -0.285 OA
ATOM      5  C   UNL     1      28.122  35.861  26.127  1.00  0.00     0.111 A 
ATOM      6  C   UNL     1      27.460  34.726  25.569  1.00  0.00     0.134 A 
ATOM      7  C   UNL     1      28.118  33.490  25.535  1.00  0.00     0.093 A 
ATOM      8  C   UNL     1      29.432  33.361  25.980  1.00  0.00     0.123 A 
ATOM      9  C   UNL     1      30.108  34.476  26.477  1.00  0.00     0.094 A 
ATOM     10  C   UNL     1      29.466  35.714  26.559  1.00  0.00     0.146 A 
ATOM     11  O   UNL     1      30.138  36.744  27.059  1.00  0.00    -0.452 OA
ENDROOT
BRANCH   1  12
ATOM     12  C   UNL     1      30.475  39.018  27.780  1.00  0.00     0.025 A 
ATOM     13  C   UNL     1      30.134  39.596  29.013  1.00  0.00     0.016 A 
ATOM     14  C   UNL     1      30.919  40.613  29.559  1.00  0.00     0.051 A 
ATOM     15  C   UNL     1      32.046  41.081  28.877  1.00  0.00     0.157 A 
ATOM     16  C   UNL     1      31.598  39.504  27.085  1.00  0.00     0.062 A 
ATOM     17  C   UNL     1      32.386  40.527  27.631  1.00  0.00     0.158 A 
BRANCH  15  18
ATOM     18  O   UNL     1      32.812  42.097  29.447  1.00  0.00    -0.504 OA
ATOM     19  H   UNL     1      33.459  42.654  28.903  1.00  0.00     0.293 HD
ENDBRANCH  15  18
BRANCH  17  20
ATOM     20  O   UNL     1      33.500  40.998  26.938  1.00  0.00    -0.504 OA
ATOM     21  H   UNL     1      34.043  40.394  26.332  1.00  0.00     0.293 HD
ENDBRANCH  17  20
ENDBRANCH   1  12
BRANCH   2  22
ATOM     22  O   UNL     1      27.738  39.473  26.945  1.00  0.00    -0.502 OA
ATOM     23  H   UNL     1      26.812  39.638  27.323  1.00  0.00     0.293 HD
ENDBRANCH   2  22
BRANCH   6  24
ATOM     24  O   UNL     1      26.177  34.761  25.014  1.00  0.00    -0.507 OA
ATOM     25  H   UNL     1      25.413  35.323  25.359  1.00  0.00     0.293 HD
ENDBRANCH   6  24
BRANCH   8  26
ATOM     26  O   UNL     1      30.061  32.119  25.915  1.00  0.00    -0.508 OA
ATOM     27  H   UNL     1      30.813  31.873  26.548  1.00  0.00     0.293 HD
ENDBRANCH   8  26
TORSDOF 6
ENDMDL
MODEL 2
REMARK VINA RESULT:     0.195      3.131      5.463
REMARK INTER + INTRA:           0.080
REMARK INTER:                   0.341
REMARK INTRA:                  -0.261
REMARK UNBOUND:                -0.155
REMARK SMILES O=c1c(O)c(-c2ccc(O)c(O)c2)oc2cc(O)cc(O)c12
REMARK SMILES IDX 5 1 3 2 2 3 1 4 22 5 20 6 19 7 17 8 16 9 15 10 14 11 6 12
REMARK SMILES IDX 7 13 8 14 9 15 13 16 11 17 10 18 12 20 4 22 21 24 18 26
REMARK H PARENT 10 19 12 21 4 23 21 25 18 27
REMARK Flexibility Score: inf
ROOT
ATOM      1  C   UNL     1      29.680  37.716  26.373  1.00  0.00     0.180 A 
ATOM      2  C   UNL     1      28.341  37.296  26.448  1.00  0.00     0.208 A 
ATOM      3  C   UNL     1      27.652  37.429  27.663  1.00  0.00     0.238 A 
ATOM      4  O   UNL     1      26.433  37.119  27.702  1.00  0.00    -0.285 OA
ATOM      5  C   UNL     1      28.326  37.927  28.806  1.00  0.00     0.111 A 
ATOM      6  C   UNL     1      27.739  38.062  30.100  1.00  0.00     0.134 A 
ATOM      7  C   UNL     1      28.471  38.667  31.130  1.00  0.00     0.093 A 
ATOM      8  C   UNL     1      29.786  39.084  30.931  1.00  0.00     0.123 A 
ATOM      9  C   UNL     1      30.388  38.907  29.685  1.00  0.00     0.094 A 
ATOM     10  C   UNL     1      29.671  38.341  28.627  1.00  0.00     0.146 A 
ATOM     11  O   UNL     1      30.276  38.211  27.452  1.00  0.00    -0.452 OA
ENDROOT
BRANCH   1  12
ATOM     12  C   UNL     1      30.468  37.623  25.124  1.00  0.00     0.025 A 
ATOM     13  C   UNL     1      30.222  38.533  24.083  1.00  0.00     0.016 A 
ATOM     14  C   UNL     1      30.939  38.452  22.888  1.00  0.00     0.051 A 
ATOM     15  C   UNL     1      31.901  37.454  22.706  1.00  0.00     0.157 A 
ATOM     16  C   UNL     1      31.421  36.607  24.931  1.00  0.00     0.062 A 
ATOM     17  C   UNL     1      32.140  36.522  23.731  1.00  0.00     0.158 A 
BRANCH  15  18
ATOM     18  O   UNL     1      32.602  37.398  21.502  1.00  0.00    -0.504 OA
ATOM     19  H   UNL     1      32.792  36.523  21.029  1.00  0.00     0.293 HD
ENDBRANCH  15  18
BRANCH  17  20
ATOM     20  O   UNL     1      33.087  35.515  23.551  1.00  0.00    -0.504 OA
ATOM     21  H   UNL     1      33.878  35.634  22.929  1.00  0.00     0.293 HD
ENDBRANCH  17  20
ENDBRANCH   1  12
BRANCH   2  22
ATOM     22  O   UNL     1      27.717  36.735  25.330  1.00  0.00    -0.502 OA
ATOM     23  H   UNL     1      27.280  35.821  25.352  1.00  0.00     0.293 HD
ENDBRANCH   2  22
BRANCH   6  24
ATOM     24  O   UNL     1      26.463  37.600  30.434  1.00  0.00    -0.507 OA
ATOM     25  H   UNL     1      26.267  36.890  31.123  1.00  0.00     0.293 HD
ENDBRANCH   6  24
BRANCH   8  26
ATOM     26  O   UNL     1      30.489  39.667  31.984  1.00  0.00    -0.508 OA
ATOM     27  H   UNL     1      30.842  39.113  32.755  1.00  0.00     0.293 HD
ENDBRANCH   8  26
TORSDOF 6
ENDMDL
MODEL 3
REMARK VINA RESULT:     0.425      3.162      5.334
REMARK INTER + INTRA:           0.357
REMARK INTER:                   0.551
REMARK INTRA:                  -0.194
REMARK UNBOUND:                -0.155
REMARK SMILES O=c1c(O)c(-c2ccc(O)c(O)c2)oc2cc(O)cc(O)c12
REMARK SMILES IDX 5 1 3 2 2 3 1 4 22 5 20 6 19 7 17 8 16 9 15 10 14 11 6 12
REMARK SMILES IDX 7 13 8 14 9 15 13 16 11 17 10 18 12 20 4 22 21 24 18 26
REMARK H PARENT 10 19 12 21 4 23 21 25 18 27
REMARK Flexibility Score: inf
ROOT
ATOM      1  C   UNL     1      29.659  37.247  26.907  1.00  0.00     0.180 A 
ATOM      2  C   UNL     1      28.347  37.517  27.334  1.00  0.00     0.208 A 
ATOM      3  C   UNL     1      27.602  38.499  26.664  1.00  0.00     0.238 A 
ATOM      4  O   UNL     1      26.403  38.682  27.003  1.00  0.00    -0.285 OA
ATOM      5  C   UNL     1      28.195  39.241  25.613  1.00  0.00     0.111 A 
ATOM      6  C   UNL     1      27.548  40.291  24.893  1.00  0.00     0.134 A 
ATOM      7  C   UNL     1      28.197  40.882  23.802  1.00  0.00     0.093 A 
ATOM      8  C   UNL     1      29.491  40.507  23.443  1.00  0.00     0.123 A 
ATOM      9  C   UNL     1      30.153  39.520  24.173  1.00  0.00     0.094 A 
ATOM     10  C   UNL     1      29.518  38.885  25.243  1.00  0.00     0.146 A 
ATOM     11  O   UNL     1      30.177  37.935  25.897  1.00  0.00    -0.452 OA
ENDROOT
BRANCH   1  12
ATOM     12  C   UNL     1      30.502  36.216  27.553  1.00  0.00     0.025 A 
ATOM     13  C   UNL     1      30.152  34.862  27.429  1.00  0.00     0.016 A 
ATOM     14  C   UNL     1      30.922  33.873  28.045  1.00  0.00     0.051 A 
ATOM     15  C   UNL     1      32.041  34.219  28.808  1.00  0.00     0.157 A 
ATOM     16  C   UNL     1      31.616  36.564  28.338  1.00  0.00     0.062 A 
ATOM     17  C   UNL     1      32.388  35.573  28.959  1.00  0.00     0.158 A 
BRANCH  15  18
ATOM     18  O   UNL     1      32.791  33.210  29.410  1.00  0.00    -0.504 OA
ATOM     19  H   UNL     1      33.286  32.511  28.870  1.00  0.00     0.293 HD
ENDBRANCH  15  18
BRANCH  17  20
ATOM     20  O   UNL     1      33.495  35.927  29.729  1.00  0.00    -0.504 OA
ATOM     21  H   UNL     1      33.435  36.635  30.451  1.00  0.00     0.293 HD
ENDBRANCH  17  20
ENDBRANCH   1  12
BRANCH   2  22
ATOM     22  O   UNL     1      27.806  36.828  28.422  1.00  0.00    -0.502 OA
ATOM     23  H   UNL     1      28.267  36.785  29.324  1.00  0.00     0.293 HD
ENDBRANCH   2  22
BRANCH   6  24
ATOM     24  O   UNL     1      26.291  40.806  25.221  1.00  0.00    -0.507 OA
ATOM     25  H   UNL     1      26.107  41.764  25.479  1.00  0.00     0.293 HD
ENDBRANCH   6  24
BRANCH   8  26
ATOM     26  O   UNL     1      30.111  41.129  22.362  1.00  0.00    -0.508 OA
ATOM     27  H   UNL     1      30.829  41.832  22.496  1.00  0.00     0.293 HD
ENDBRANCH   8  26
TORSDOF 6
ENDMDL
