MODEL 1
REMARK VINA RESULT:     5.371      0.000      0.000
REMARK INTER + INTRA:           6.104
REMARK INTER:                   6.157
REMARK INTRA:                  -0.053
REMARK UNBOUND:                -0.053
REMARK SMILES O=C([O-])c1cc(O)c(O)c(O)c1
REMARK SMILES IDX 4 1 5 2 12 3 6 4 10 5 8 6 2 7 1 8 3 9 7 10 11 12 9 14
REMARK H PARENT 7 11 11 13 9 15
REMARK Flexibility Score: inf
ROOT
ATOM      1  C   UNL     1     103.751 103.277 105.068  1.00  0.00     0.005 A 
ATOM      2  C   UNL     1     104.066 104.409 104.300  1.00  0.00     0.060 A 
ATOM      3  C   UNL     1     103.418 102.078 104.413  1.00  0.00     0.060 A 
ATOM      4  C   UNL     1     104.050 104.350 102.902  1.00  0.00     0.162 A 
ATOM      5  C   UNL     1     103.400 102.011 103.013  1.00  0.00     0.162 A 
ATOM      6  C   UNL     1     103.717 103.149 102.253  1.00  0.00     0.200 A 
ENDROOT
BRANCH   1   7
ATOM      7  C   UNL     1     103.770 103.348 106.546  1.00  0.00     0.072 C 
ATOM      8  O   UNL     1     103.480 102.339 107.242  1.00  0.00    -0.545 OA
ATOM      9  O   UNL     1     104.110 104.533 107.189  1.00  0.00    -0.545 OA
ENDBRANCH   1   7
BRANCH   4  10
ATOM     10  O   UNL     1     104.369 105.497 102.174  1.00  0.00    -0.504 OA
ATOM     11  H   UNL     1     103.677 106.004 101.637  1.00  0.00     0.293 HD
ENDBRANCH   4  10
BRANCH   5  12
ATOM     12  O   UNL     1     103.069 100.817 102.376  1.00  0.00    -0.504 OA
ATOM     13  H   UNL     1     103.495  99.936 102.640  1.00  0.00     0.293 HD
ENDBRANCH   5  12
BRANCH   6  14
ATOM     14  O   UNL     1     103.704 103.100 100.858  1.00  0.00    -0.502 OA
ATOM     15  H   UNL     1     104.002 102.279 100.344  1.00  0.00     0.293 HD
ENDBRANCH   6  14
TORSDOF 4
ENDMDL
MODEL 2
REMARK VINA RESULT:     5.407      1.402      3.075
REMARK INTER + INTRA:           6.144
REMARK INTER:                   6.197
REMARK INTRA:                  -0.053
REMARK UNBOUND:                -0.053
REMARK SMILES O=C([O-])c1cc(O)c(O)c(O)c1
REMARK SMILES IDX 4 1 5 2 12 3 6 4 10 5 8 6 2 7 1 8 3 9 7 10 11 12 9 14
REMARK H PARENT 7 11 11 13 9 15
REMARK Flexibility Score: inf
ROOT
ATOM      1  C   UNL     1     104.245 104.998 105.089  1.00  0.00     0.005 A 
ATOM      2  C   UNL     1     103.941 103.861 104.324  1.00  0.00     0.060 A 
ATOM      3  C   UNL     1     104.568 106.198 104.431  1.00  0.00     0.060 A 
ATOM      4  C   UNL     1     103.958 103.916 102.925  1.00  0.00     0.162 A 
ATOM      5  C   UNL     1     104.588 106.261 103.031  1.00  0.00     0.162 A 
ATOM      6  C   UNL     1     104.283 105.117 102.274  1.00  0.00     0.200 A 
ENDROOT
BRANCH   1   7
ATOM      7  C   UNL     1     104.223 104.931 106.567  1.00  0.00     0.072 C 
ATOM      8  O   UNL     1     103.923 103.859 107.157  1.00  0.00    -0.545 OA
ATOM      9  O   UNL     1     104.535 106.052 107.327  1.00  0.00    -0.545 OA
ENDBRANCH   1   7
BRANCH   4  10
ATOM     10  O   UNL     1     103.651 102.764 102.201  1.00  0.00    -0.504 OA
ATOM     11  H   UNL     1     104.240 101.940 102.224  1.00  0.00     0.293 HD
ENDBRANCH   4  10
BRANCH   5  12
ATOM     12  O   UNL     1     104.910 107.456 102.391  1.00  0.00    -0.504 OA
ATOM     13  H   UNL     1     104.299 107.869 101.695  1.00  0.00     0.293 HD
ENDBRANCH   5  12
BRANCH   6  14
ATOM     14  O   UNL     1     104.298 105.162 100.879  1.00  0.00    -0.502 OA
ATOM     15  H   UNL     1     104.732 105.922 100.368  1.00  0.00     0.293 HD
ENDBRANCH   6  14
TORSDOF 4
ENDMDL
MODEL 3
REMARK VINA RESULT:     5.440      1.475      2.001
REMARK INTER + INTRA:           6.182
REMARK INTER:                   6.235
REMARK INTRA:                  -0.053
REMARK UNBOUND:                -0.053
REMARK SMILES O=C([O-])c1cc(O)c(O)c(O)c1
REMARK SMILES IDX 4 1 5 2 12 3 6 4 10 5 8 6 2 7 1 8 3 9 7 10 11 12 9 14
REMARK H PARENT 7 11 11 13 9 15
REMARK Flexibility Score: inf
ROOT
ATOM      1  C   UNL     1     104.241 105.155 105.041  1.00  0.00     0.005 A 
ATOM      2  C   UNL     1     104.582 106.320 104.335  1.00  0.00     0.060 A 
ATOM      3  C   UNL     1     103.916 103.991 104.323  1.00  0.00     0.060 A 
ATOM      4  C   UNL     1     104.600 106.326 102.936  1.00  0.00     0.162 A 
ATOM      5  C   UNL     1     103.931 103.990 102.922  1.00  0.00     0.162 A 
ATOM      6  C   UNL     1     104.273 105.160 102.223  1.00  0.00     0.200 A 
ENDROOT
BRANCH   1   7
ATOM      7  C   UNL     1     104.225 105.157 106.521  1.00  0.00     0.072 C 
ATOM      8  O   UNL     1     104.115 104.079 107.163  1.00  0.00    -0.545 OA
ATOM      9  O   UNL     1     104.332 106.352 107.224  1.00  0.00    -0.545 OA
ENDBRANCH   1   7
BRANCH   4  10
ATOM     10  O   UNL     1     104.944 107.504 102.271  1.00  0.00    -0.504 OA
ATOM     11  H   UNL     1     104.248 108.109 101.853  1.00  0.00     0.293 HD
ENDBRANCH   4  10
BRANCH   5  12
ATOM     12  O   UNL     1     103.607 102.830 102.221  1.00  0.00    -0.504 OA
ATOM     13  H   UNL     1     103.729 101.910 102.629  1.00  0.00     0.293 HD
ENDBRANCH   5  12
BRANCH   6  14
ATOM     14  O   UNL     1     104.294 105.177 100.828  1.00  0.00    -0.502 OA
ATOM     15  H   UNL     1     105.051 105.600 100.304  1.00  0.00     0.293 HD
ENDBRANCH   6  14
TORSDOF 4
ENDMDL
MODEL 4
REMARK VINA RESULT:     5.441      3.731      5.186
REMARK INTER + INTRA:           6.183
REMARK INTER:                   6.236
REMARK INTRA:                  -0.053
REMARK UNBOUND:                -0.053
REMARK SMILES O=C([O-])c1cc(O)c(O)c(O)c1
REMARK SMILES IDX 4 1 5 2 12 3 6 4 10 5 8 6 2 7 1 8 3 9 7 10 11 12 9 14
REMARK H PARENT 7 11 11 13 9 15
REMARK Flexibility Score: inf
ROOT
ATOM      1  C   UNL     1     104.236 104.972 109.806  1.00  0.00     0.005 A 
ATOM      2  C   UNL     1     104.609 106.170 109.176  1.00  0.00     0.060 A 
ATOM      3  C   UNL     1     103.888 103.863 109.015  1.00  0.00     0.060 A 
ATOM      4  C   UNL     1     104.637 106.263 107.780  1.00  0.00     0.162 A 
ATOM      5  C   UNL     1     103.912 103.949 107.616  1.00  0.00     0.162 A 
ATOM      6  C   UNL     1     104.287 105.152 106.995  1.00  0.00     0.200 A 
ENDROOT
BRANCH   1   7
ATOM      7  C   UNL     1     104.211 104.882 111.283  1.00  0.00     0.072 C 
ATOM      8  O   UNL     1     104.534 105.872 111.992  1.00  0.00    -0.545 OA
ATOM      9  O   UNL     1     103.828 103.702 111.910  1.00  0.00    -0.545 OA
ENDBRANCH   1   7
BRANCH   4  10
ATOM     10  O   UNL     1     105.013 107.471 107.192  1.00  0.00    -0.504 OA
ATOM     11  H   UNL     1     105.031 108.341 107.711  1.00  0.00     0.293 HD
ENDBRANCH   4  10
BRANCH   5  12
ATOM     12  O   UNL     1     103.565 102.843 106.843  1.00  0.00    -0.504 OA
ATOM     13  H   UNL     1     103.063 102.942 105.967  1.00  0.00     0.293 HD
ENDBRANCH   5  12
BRANCH   6  14
ATOM     14  O   UNL     1     104.317 105.255 105.603  1.00  0.00    -0.502 OA
ATOM     15  H   UNL     1     105.136 105.006 105.060  1.00  0.00     0.293 HD
ENDBRANCH   6  14
TORSDOF 4
ENDMDL
MODEL 5
REMARK VINA RESULT:     5.444      3.414      5.342
REMARK INTER + INTRA:           6.186
REMARK INTER:                   6.239
REMARK INTRA:                  -0.053
REMARK UNBOUND:                -0.053
REMARK SMILES O=C([O-])c1cc(O)c(O)c(O)c1
REMARK SMILES IDX 4 1 5 2 12 3 6 4 10 5 8 6 2 7 1 8 3 9 7 10 11 12 9 14
REMARK H PARENT 7 11 11 13 9 15
REMARK Flexibility Score: inf
ROOT
ATOM      1  C   UNL     1     103.738 103.297 109.826  1.00  0.00     0.005 A 
ATOM      2  C   UNL     1     103.398 102.104 109.167  1.00  0.00     0.060 A 
ATOM      3  C   UNL     1     104.062 104.431 109.061  1.00  0.00     0.060 A 
ATOM      4  C   UNL     1     103.379 102.041 107.769  1.00  0.00     0.162 A 
ATOM      5  C   UNL     1     104.046 104.375 107.661  1.00  0.00     0.162 A 
ATOM      6  C   UNL     1     103.704 103.178 107.010  1.00  0.00     0.200 A 
ENDROOT
BRANCH   1   7
ATOM      7  C   UNL     1     103.755 103.354 111.304  1.00  0.00     0.072 C 
ATOM      8  O   UNL     1     103.455 102.341 111.990  1.00  0.00    -0.545 OA
ATOM      9  O   UNL     1     104.102 104.530 111.959  1.00  0.00    -0.545 OA
ENDBRANCH   1   7
BRANCH   4  10
ATOM     10  O   UNL     1     103.036 100.838 107.153  1.00  0.00    -0.504 OA
ATOM     11  H   UNL     1     103.627 100.401 106.456  1.00  0.00     0.293 HD
ENDBRANCH   4  10
BRANCH   5  12
ATOM     12  O   UNL     1     104.370 105.507 106.913  1.00  0.00    -0.504 OA
ATOM     13  H   UNL     1     104.636 106.379 107.356  1.00  0.00     0.293 HD
ENDBRANCH   5  12
BRANCH   6  14
ATOM     14  O   UNL     1     103.683 103.105 105.616  1.00  0.00    -0.502 OA
ATOM     15  H   UNL     1     103.218 103.802 105.046  1.00  0.00     0.293 HD
ENDBRANCH   6  14
TORSDOF 4
ENDMDL
MODEL 6
REMARK VINA RESULT:     5.460      3.419      4.764
REMARK INTER + INTRA:           6.205
REMARK INTER:                   6.258
REMARK INTRA:                  -0.053
REMARK UNBOUND:                -0.053
REMARK SMILES O=C([O-])c1cc(O)c(O)c(O)c1
REMARK SMILES IDX 4 1 5 2 12 3 6 4 10 5 8 6 2 7 1 8 3 9 7 10 11 12 9 14
REMARK H PARENT 7 11 11 13 9 15
REMARK Flexibility Score: inf
ROOT
ATOM      1  C   UNL     1     103.728 103.280 109.831  1.00  0.00     0.005 A 
ATOM      2  C   UNL     1     104.055 104.407 109.061  1.00  0.00     0.060 A 
ATOM      3  C   UNL     1     103.381 102.084 109.179  1.00  0.00     0.060 A 
ATOM      4  C   UNL     1     104.037 104.346 107.663  1.00  0.00     0.162 A 
ATOM      5  C   UNL     1     103.360 102.015 107.780  1.00  0.00     0.162 A 
ATOM      6  C   UNL     1     103.688 103.148 107.017  1.00  0.00     0.200 A 
ENDROOT
BRANCH   1   7
ATOM      7  C   UNL     1     103.751 103.354 111.309  1.00  0.00     0.072 C 
ATOM      8  O   UNL     1     103.444 102.351 112.007  1.00  0.00    -0.545 OA
ATOM      9  O   UNL     1     104.111 104.535 111.949  1.00  0.00    -0.545 OA
ENDBRANCH   1   7
BRANCH   4  10
ATOM     10  O   UNL     1     104.368 105.488 106.933  1.00  0.00    -0.504 OA
ATOM     11  H   UNL     1     104.738 105.438 105.992  1.00  0.00     0.293 HD
ENDBRANCH   4  10
BRANCH   5  12
ATOM     12  O   UNL     1     103.014 100.824 107.145  1.00  0.00    -0.504 OA
ATOM     13  H   UNL     1     102.987  99.942 107.645  1.00  0.00     0.293 HD
ENDBRANCH   5  12
BRANCH   6  14
ATOM     14  O   UNL     1     103.673 103.097 105.622  1.00  0.00    -0.502 OA
ATOM     15  H   UNL     1     104.524 103.067 105.073  1.00  0.00     0.293 HD
ENDBRANCH   6  14
TORSDOF 4
ENDMDL
MODEL 7
REMARK VINA RESULT:     5.482      3.685      5.675
REMARK INTER + INTRA:           6.231
REMARK INTER:                   6.283
REMARK INTRA:                  -0.053
REMARK UNBOUND:                -0.053
REMARK SMILES O=C([O-])c1cc(O)c(O)c(O)c1
REMARK SMILES IDX 4 1 5 2 12 3 6 4 10 5 8 6 2 7 1 8 3 9 7 10 11 12 9 14
REMARK H PARENT 7 11 11 13 9 15
REMARK Flexibility Score: inf
ROOT
ATOM      1  C   UNL     1     104.204 104.772 100.317  1.00  0.00     0.005 A 
ATOM      2  C   UNL     1     103.894 103.677  99.494  1.00  0.00     0.060 A 
ATOM      3  C   UNL     1     104.525 106.004  99.722  1.00  0.00     0.060 A 
ATOM      4  C   UNL     1     103.903 103.807  98.101  1.00  0.00     0.162 A 
ATOM      5  C   UNL     1     104.536 106.142  98.328  1.00  0.00     0.162 A 
ATOM      6  C   UNL     1     104.225 105.041  97.512  1.00  0.00     0.200 A 
ENDROOT
BRANCH   1   7
ATOM      7  C   UNL     1     104.192 104.625 101.790  1.00  0.00     0.072 C 
ATOM      8  O   UNL     1     104.650 105.537 102.529  1.00  0.00    -0.545 OA
ATOM      9  O   UNL     1     103.674 103.478 102.379  1.00  0.00    -0.545 OA
ENDBRANCH   1   7
BRANCH   4  10
ATOM     10  O   UNL     1     103.589 102.695  97.318  1.00  0.00    -0.504 OA
ATOM     11  H   UNL     1     102.647 102.514  96.992  1.00  0.00     0.293 HD
ENDBRANCH   4  10
BRANCH   5  12
ATOM     12  O   UNL     1     104.857 107.369  97.750  1.00  0.00    -0.504 OA
ATOM     13  H   UNL     1     105.224 107.434  96.807  1.00  0.00     0.293 HD
ENDBRANCH   5  12
BRANCH   6  14
ATOM     14  O   UNL     1     104.231 105.160  96.121  1.00  0.00    -0.502 OA
ATOM     15  H   UNL     1     103.479 105.614  95.615  1.00  0.00     0.293 HD
ENDBRANCH   6  14
TORSDOF 4
ENDMDL
MODEL 8
REMARK VINA RESULT:     5.486      3.759      5.753
REMARK INTER + INTRA:           6.235
REMARK INTER:                   6.288
REMARK INTRA:                  -0.053
REMARK UNBOUND:                -0.053
REMARK SMILES O=C([O-])c1cc(O)c(O)c(O)c1
REMARK SMILES IDX 4 1 5 2 12 3 6 4 10 5 8 6 2 7 1 8 3 9 7 10 11 12 9 14
REMARK H PARENT 7 11 11 13 9 15
REMARK Flexibility Score: inf
ROOT
ATOM      1  C   UNL     1     104.254 105.032 109.838  1.00  0.00     0.005 A 
ATOM      2  C   UNL     1     103.932 103.892 109.084  1.00  0.00     0.060 A 
ATOM      3  C   UNL     1     104.590 106.222 109.168  1.00  0.00     0.060 A 
ATOM      4  C   UNL     1     103.942 103.935 107.685  1.00  0.00     0.162 A 
ATOM      5  C   UNL     1     104.604 106.272 107.767  1.00  0.00     0.162 A 
ATOM      6  C   UNL     1     104.280 105.126 107.021  1.00  0.00     0.200 A 
ENDROOT
BRANCH   1   7
ATOM      7  C   UNL     1     104.239 104.978 111.317  1.00  0.00     0.072 C 
ATOM      8  O   UNL     1     104.530 105.996 111.999  1.00  0.00    -0.545 OA
ATOM      9  O   UNL     1     103.903 103.800 111.974  1.00  0.00    -0.545 OA
ENDBRANCH   1   7
BRANCH   4  10
ATOM     10  O   UNL     1     103.616 102.781 106.973  1.00  0.00    -0.504 OA
ATOM     11  H   UNL     1     102.714 102.659 106.528  1.00  0.00     0.293 HD
ENDBRANCH   4  10
BRANCH   5  12
ATOM     12  O   UNL     1     104.939 107.457 107.115  1.00  0.00    -0.504 OA
ATOM     13  H   UNL     1     105.717 108.031 107.420  1.00  0.00     0.293 HD
ENDBRANCH   5  12
BRANCH   6  14
ATOM     14  O   UNL     1     104.288 105.159 105.626  1.00  0.00    -0.502 OA
ATOM     15  H   UNL     1     104.716 104.426 105.071  1.00  0.00     0.293 HD
ENDBRANCH   6  14
TORSDOF 4
ENDMDL
MODEL 9
REMARK VINA RESULT:     5.545      0.348      2.615
REMARK INTER + INTRA:           6.303
REMARK INTER:                   6.355
REMARK INTRA:                  -0.052
REMARK UNBOUND:                -0.053
REMARK SMILES O=C([O-])c1cc(O)c(O)c(O)c1
REMARK SMILES IDX 4 1 5 2 12 3 6 4 10 5 8 6 2 7 1 8 3 9 7 10 11 12 9 14
REMARK H PARENT 7 11 11 13 9 15
REMARK Flexibility Score: inf
ROOT
ATOM      1  C   UNL     1     103.681 102.990 105.076  1.00  0.00     0.005 A 
ATOM      2  C   UNL     1     103.371 101.843 104.327  1.00  0.00     0.060 A 
ATOM      3  C   UNL     1     104.009 104.179 104.401  1.00  0.00     0.060 A 
ATOM      4  C   UNL     1     103.387 101.879 102.928  1.00  0.00     0.162 A 
ATOM      5  C   UNL     1     104.028 104.221 103.000  1.00  0.00     0.162 A 
ATOM      6  C   UNL     1     103.717 103.069 102.259  1.00  0.00     0.200 A 
ENDROOT
BRANCH   1   7
ATOM      7  C   UNL     1     103.660 102.943 106.555  1.00  0.00     0.072 C 
ATOM      8  O   UNL     1     103.627 104.006 107.230  1.00  0.00    -0.545 OA
ATOM      9  O   UNL     1     103.677 101.724 107.221  1.00  0.00    -0.545 OA
ENDBRANCH   1   7
BRANCH   4  10
ATOM     10  O   UNL     1     103.074 100.718 102.220  1.00  0.00    -0.504 OA
ATOM     11  H   UNL     1     102.502  99.982 102.618  1.00  0.00     0.293 HD
ENDBRANCH   4  10
BRANCH   5  12
ATOM     12  O   UNL     1     104.356 105.406 102.342  1.00  0.00    -0.504 OA
ATOM     13  H   UNL     1     105.165 105.956 102.607  1.00  0.00     0.293 HD
ENDBRANCH   5  12
BRANCH   6  14
ATOM     14  O   UNL     1     103.731 103.094 100.863  1.00  0.00    -0.502 OA
ATOM     15  H   UNL     1     103.184 102.448 100.306  1.00  0.00     0.293 HD
ENDBRANCH   6  14
TORSDOF 4
ENDMDL
