MODEL 1
REMARK VINA RESULT:    -2.684      0.000      0.000
REMARK INTER + INTRA:          -4.470
REMARK INTER:                  -4.096
REMARK INTRA:                  -0.374
REMARK UNBOUND:                -0.374
REMARK SMILES CC1=CCC[C@@H](C)C(=O)C[C@H](C(C)C)C(=O)C1
REMARK SMILES IDX 8 1 9 2 6 3 7 4 5 5 4 6 3 7 2 8 1 9 10 11 11 12 15 13 16 14
REMARK SMILES IDX 17 15 12 17 13 18 14 19
REMARK H PARENT
REMARK Flexibility Score: 70.00
ROOT
ATOM      1  C   UNL     1      16.373  37.151  90.552  1.00  0.00     0.136 C 
ATOM      2  O   UNL     1      15.691  36.240  91.004  1.00  0.00    -0.299 OA
ENDROOT
BRANCH   1   3
ATOM      3  C   UNL     1      17.093  36.966  89.235  1.00  0.00     0.053 C 
ATOM      4  C   UNL     1      16.361  35.928  88.376  1.00  0.00     0.016 C 
BRANCH   3   5
ATOM      5  C   UNL     1      18.563  36.559  89.450  1.00  0.00     0.015 C 
BRANCH   5   6
ATOM      6  C   UNL     1      19.560  37.644  88.993  1.00  0.00     0.028 C 
BRANCH   6   7
ATOM      7  C   UNL     1      20.550  37.983  90.083  1.00  0.00    -0.028 C 
ATOM      8  C   UNL     1      20.457  38.976  91.001  1.00  0.00    -0.070 CG0
ATOM      9  C   UNL     1      21.617  39.152  91.952  1.00  0.00     0.039 C 
ATOM     10  G   UNL     1      19.270  39.914  91.146  1.00  0.00     0.000 G0
ENDBRANCH   6   7
ENDBRANCH   5   6
ENDBRANCH   3   5
ENDBRANCH   1   3
BRANCH   1  11
ATOM     11  C   UNL     1      16.432  38.485  91.260  1.00  0.00     0.087 C 
BRANCH  11  12
ATOM     12  C   UNL     1      17.407  38.507  92.465  1.00  0.00     0.066 C 
BRANCH  12  13
ATOM     13  C   UNL     1      18.446  39.618  92.392  1.00  0.00     0.140 C 
ATOM     14  O   UNL     1      18.572  40.349  93.364  1.00  0.00    -0.299 OA
BRANCH  13  15
ATOM     15  C   UNL     1      19.263  39.919  91.153  1.00  0.00     0.106 CG0
ATOM     16  G   UNL     1      20.445  38.971  91.032  1.00  0.00     0.000 G0
ENDBRANCH  13  15
ENDBRANCH  12  13
BRANCH  12  17
ATOM     17  C   UNL     1      16.702  38.493  93.856  1.00  0.00    -0.006 C 
ATOM     18  C   UNL     1      17.240  37.376  94.764  1.00  0.00     0.008 C 
ATOM     19  C   UNL     1      15.167  38.412  93.778  1.00  0.00     0.008 C 
ENDBRANCH  12  17
ENDBRANCH  11  12
ENDBRANCH   1  11
TORSDOF 1
ENDMDL
MODEL 2
REMARK VINA RESULT:    -2.647      2.911      6.303
REMARK INTER + INTRA:          -4.413
REMARK INTER:                  -4.349
REMARK INTRA:                  -0.064
REMARK UNBOUND:                -0.374
REMARK SMILES CC1=CCC[C@@H](C)C(=O)C[C@H](C(C)C)C(=O)C1
REMARK SMILES IDX 8 1 9 2 6 3 7 4 5 5 4 6 3 7 2 8 1 9 10 11 11 12 15 13 16 14
REMARK SMILES IDX 17 15 12 17 13 18 14 19
REMARK H PARENT
REMARK Flexibility Score: 70.00
ROOT
ATOM      1  C   UNL     1      21.536  42.884  91.647  1.00  0.00     0.136 C 
ATOM      2  O   UNL     1      22.335  43.430  90.898  1.00  0.00    -0.299 OA
ENDROOT
BRANCH   1   3
ATOM      3  C   UNL     1      21.698  43.022  93.144  1.00  0.00     0.053 C 
ATOM      4  C   UNL     1      22.724  42.006  93.659  1.00  0.00     0.016 C 
BRANCH   3   5
ATOM      5  C   UNL     1      20.350  42.854  93.873  1.00  0.00     0.015 C 
BRANCH   5   6
ATOM      6  C   UNL     1      20.335  41.649  94.837  1.00  0.00     0.028 C 
BRANCH   6   7
ATOM      7  C   UNL     1      19.018  40.910  94.782  1.00  0.00    -0.028 C 
ATOM      8  C   UNL     1      18.694  39.862  93.986  1.00  0.00    -0.070 CG0
ATOM      9  C   UNL     1      17.281  39.337  94.074  1.00  0.00     0.039 C 
ATOM     10  G   UNL     1      19.649  39.177  93.024  1.00  0.00     0.000 G0
ENDBRANCH   6   7
ENDBRANCH   5   6
ENDBRANCH   3   5
ENDBRANCH   1   3
BRANCH   1  11
ATOM     11  C   UNL     1      20.345  42.143  91.085  1.00  0.00     0.087 C 
BRANCH  11  12
ATOM     12  C   UNL     1      20.572  40.616  90.944  1.00  0.00     0.066 C 
BRANCH  12  13
ATOM     13  C   UNL     1      19.498  39.772  91.619  1.00  0.00     0.140 C 
ATOM     14  O   UNL     1      18.440  39.613  91.028  1.00  0.00    -0.299 OA
BRANCH  13  15
ATOM     15  C   UNL     1      19.639  39.199  93.013  1.00  0.00     0.106 CG0
ATOM     16  G   UNL     1      18.673  39.864  93.980  1.00  0.00     0.000 G0
ENDBRANCH  13  15
ENDBRANCH  12  13
BRANCH  12  17
ATOM     17  C   UNL     1      20.817  40.140  89.479  1.00  0.00    -0.006 C 
ATOM     18  C   UNL     1      21.586  38.811  89.424  1.00  0.00     0.008 C 
ATOM     19  C   UNL     1      21.512  41.186  88.590  1.00  0.00     0.008 C 
ENDBRANCH  12  17
ENDBRANCH  11  12
ENDBRANCH   1  11
TORSDOF 1
ENDMDL
MODEL 3
REMARK VINA RESULT:    -2.595      2.452      4.833
REMARK INTER + INTRA:          -4.334
REMARK INTER:                  -4.325
REMARK INTRA:                  -0.010
REMARK UNBOUND:                -0.374
REMARK SMILES CC1=CCC[C@@H](C)C(=O)C[C@H](C(C)C)C(=O)C1
REMARK SMILES IDX 8 1 9 2 6 3 7 4 5 5 4 6 3 7 2 8 1 9 10 11 11 12 15 13 16 14
REMARK SMILES IDX 17 15 12 17 13 18 14 19
REMARK H PARENT
REMARK Flexibility Score: 70.00
ROOT
ATOM      1  C   UNL     1      18.085  38.840  92.535  1.00  0.00     0.136 C 
ATOM      2  O   UNL     1      17.094  38.658  91.839  1.00  0.00    -0.299 OA
ENDROOT
BRANCH   1   3
ATOM      3  C   UNL     1      17.925  39.067  94.021  1.00  0.00     0.053 C 
ATOM      4  C   UNL     1      16.516  38.661  94.469  1.00  0.00     0.016 C 
BRANCH   3   5
ATOM      5  C   UNL     1      18.218  40.532  94.401  1.00  0.00     0.015 C 
BRANCH   5   6
ATOM      6  C   UNL     1      19.683  40.760  94.830  1.00  0.00     0.028 C 
BRANCH   6   7
ATOM      7  C   UNL     1      20.250  42.020  94.217  1.00  0.00    -0.028 C 
ATOM      8  C   UNL     1      21.041  42.120  93.121  1.00  0.00    -0.070 CG0
ATOM      9  C   UNL     1      21.534  43.496  92.746  1.00  0.00     0.039 C 
ATOM     10  G   UNL     1      21.457  40.951  92.244  1.00  0.00     0.000 G0
ENDBRANCH   6   7
ENDBRANCH   5   6
ENDBRANCH   3   5
ENDBRANCH   1   3
BRANCH   1  11
ATOM     11  C   UNL     1      19.468  38.755  91.932  1.00  0.00     0.087 C 
BRANCH  11  12
ATOM     12  C   UNL     1      19.675  39.696  90.717  1.00  0.00     0.066 C 
BRANCH  12  13
ATOM     13  C   UNL     1      20.646  40.838  90.985  1.00  0.00     0.140 C 
ATOM     14  O   UNL     1      20.808  41.671  90.104  1.00  0.00    -0.299 OA
BRANCH  13  15
ATOM     15  C   UNL     1      21.483  40.946  92.242  1.00  0.00     0.106 CG0
ATOM     16  G   UNL     1      21.036  42.118  93.100  1.00  0.00     0.000 G0
ENDBRANCH  13  15
ENDBRANCH  12  13
BRANCH  12  17
ATOM     17  C   UNL     1      20.034  38.956  89.392  1.00  0.00    -0.006 C 
ATOM     18  C   UNL     1      19.202  37.678  89.200  1.00  0.00     0.008 C 
ATOM     19  C   UNL     1      21.531  38.635  89.241  1.00  0.00     0.008 C 
ENDBRANCH  12  17
ENDBRANCH  11  12
ENDBRANCH   1  11
TORSDOF 1
ENDMDL
MODEL 4
REMARK VINA RESULT:    -2.549      2.329      4.244
REMARK INTER + INTRA:          -4.264
REMARK INTER:                  -4.113
REMARK INTRA:                  -0.150
REMARK UNBOUND:                -0.374
REMARK SMILES CC1=CCC[C@@H](C)C(=O)C[C@H](C(C)C)C(=O)C1
REMARK SMILES IDX 8 1 9 2 6 3 7 4 5 5 4 6 3 7 2 8 1 9 10 11 11 12 15 13 16 14
REMARK SMILES IDX 17 15 12 17 13 18 14 19
REMARK H PARENT
REMARK Flexibility Score: 70.00
ROOT
ATOM      1  C   UNL     1      19.425  39.364  91.242  1.00  0.00     0.136 C 
ATOM      2  O   UNL     1      19.451  40.524  90.851  1.00  0.00    -0.299 OA
ENDROOT
BRANCH   1   3
ATOM      3  C   UNL     1      19.499  38.234  90.240  1.00  0.00     0.053 C 
ATOM      4  C   UNL     1      20.246  38.693  88.982  1.00  0.00     0.016 C 
BRANCH   3   5
ATOM      5  C   UNL     1      18.096  37.708  89.880  1.00  0.00     0.015 C 
BRANCH   5   6
ATOM      6  C   UNL     1      17.588  36.632  90.863  1.00  0.00     0.028 C 
BRANCH   6   7
ATOM      7  C   UNL     1      16.218  36.976  91.404  1.00  0.00    -0.028 C 
ATOM      8  C   UNL     1      15.910  37.417  92.648  1.00  0.00    -0.070 CG0
ATOM      9  C   UNL     1      14.449  37.630  92.965  1.00  0.00     0.039 C 
ATOM     10  G   UNL     1      16.926  37.717  93.737  1.00  0.00     0.000 G0
ENDBRANCH   6   7
ENDBRANCH   5   6
ENDBRANCH   3   5
ENDBRANCH   1   3
BRANCH   1  11
ATOM     11  C   UNL     1      19.403  39.057  92.721  1.00  0.00     0.087 C 
BRANCH  11  12
ATOM     12  C   UNL     1      18.411  39.938  93.524  1.00  0.00     0.066 C 
BRANCH  12  13
ATOM     13  C   UNL     1      17.140  39.209  93.937  1.00  0.00     0.140 C 
ATOM     14  O   UNL     1      16.266  39.855  94.499  1.00  0.00    -0.299 OA
BRANCH  13  15
ATOM     15  C   UNL     1      16.939  37.717  93.770  1.00  0.00     0.106 CG0
ATOM     16  G   UNL     1      15.918  37.420  92.685  1.00  0.00     0.000 G0
ENDBRANCH  13  15
ENDBRANCH  12  13
BRANCH  12  17
ATOM     17  C   UNL     1      19.054  40.673  94.741  1.00  0.00    -0.006 C 
ATOM     18  C   UNL     1      20.025  41.779  94.300  1.00  0.00     0.008 C 
ATOM     19  C   UNL     1      19.748  39.734  95.743  1.00  0.00     0.008 C 
ENDBRANCH  12  17
ENDBRANCH  11  12
ENDBRANCH   1  11
TORSDOF 1
ENDMDL
MODEL 5
REMARK VINA RESULT:    -2.451      2.110      4.344
REMARK INTER + INTRA:          -4.115
REMARK INTER:                  -4.054
REMARK INTRA:                  -0.061
REMARK UNBOUND:                -0.374
REMARK SMILES CC1=CCC[C@@H](C)C(=O)C[C@H](C(C)C)C(=O)C1
REMARK SMILES IDX 8 1 9 2 6 3 7 4 5 5 4 6 3 7 2 8 1 9 10 11 11 12 15 13 16 14
REMARK SMILES IDX 17 15 12 17 13 18 14 19
REMARK H PARENT
REMARK Flexibility Score: 70.00
ROOT
ATOM      1  C   UNL     1      20.724  41.148  91.448  1.00  0.00     0.136 C 
ATOM      2  O   UNL     1      20.257  42.258  91.666  1.00  0.00    -0.299 OA
ENDROOT
BRANCH   1   3
ATOM      3  C   UNL     1      21.741  40.967  90.343  1.00  0.00     0.053 C 
ATOM      4  C   UNL     1      22.319  42.325  89.931  1.00  0.00     0.016 C 
BRANCH   3   5
ATOM      5  C   UNL     1      21.128  40.243  89.129  1.00  0.00     0.015 C 
BRANCH   5   6
ATOM      6  C   UNL     1      21.077  38.711  89.305  1.00  0.00     0.028 C 
BRANCH   6   7
ATOM      7  C   UNL     1      19.727  38.152  88.919  1.00  0.00    -0.028 C 
ATOM      8  C   UNL     1      18.780  37.641  89.744  1.00  0.00    -0.070 CG0
ATOM      9  C   UNL     1      17.532  37.083  89.103  1.00  0.00     0.039 C 
ATOM     10  G   UNL     1      18.883  37.598  91.259  1.00  0.00     0.000 G0
ENDBRANCH   6   7
ENDBRANCH   5   6
ENDBRANCH   3   5
ENDBRANCH   1   3
BRANCH   1  11
ATOM     11  C   UNL     1      20.355  39.977  92.329  1.00  0.00     0.087 C 
BRANCH  11  12
ATOM     12  C   UNL     1      18.838  39.884  92.636  1.00  0.00     0.066 C 
BRANCH  12  13
ATOM     13  C   UNL     1      18.138  38.737  91.921  1.00  0.00     0.140 C 
ATOM     14  O   UNL     1      16.915  38.711  91.941  1.00  0.00    -0.299 OA
BRANCH  13  15
ATOM     15  C   UNL     1      18.873  37.586  91.268  1.00  0.00     0.106 CG0
ATOM     16  G   UNL     1      18.774  37.661  89.754  1.00  0.00     0.000 G0
ENDBRANCH  13  15
ENDBRANCH  12  13
BRANCH  12  17
ATOM     17  C   UNL     1      18.495  39.887  94.158  1.00  0.00    -0.006 C 
ATOM     18  C   UNL     1      19.074  41.115  94.878  1.00  0.00     0.008 C 
ATOM     19  C   UNL     1      18.909  38.602  94.895  1.00  0.00     0.008 C 
ENDBRANCH  12  17
ENDBRANCH  11  12
ENDBRANCH   1  11
TORSDOF 1
ENDMDL
MODEL 6
REMARK VINA RESULT:    -2.426      2.473      4.459
REMARK INTER + INTRA:          -4.077
REMARK INTER:                  -3.701
REMARK INTRA:                  -0.375
REMARK UNBOUND:                -0.374
REMARK SMILES CC1=CCC[C@@H](C)C(=O)C[C@H](C(C)C)C(=O)C1
REMARK SMILES IDX 8 1 9 2 6 3 7 4 5 5 4 6 3 7 2 8 1 9 10 11 11 12 15 13 16 14
REMARK SMILES IDX 17 15 12 17 13 18 14 19
REMARK H PARENT
REMARK Flexibility Score: 70.00
ROOT
ATOM      1  C   UNL     1      18.595  40.254  94.214  1.00  0.00     0.136 C 
ATOM      2  O   UNL     1      18.653  39.808  95.353  1.00  0.00    -0.299 OA
ENDROOT
BRANCH   1   3
ATOM      3  C   UNL     1      17.693  39.593  93.196  1.00  0.00     0.053 C 
ATOM      4  C   UNL     1      16.469  38.986  93.892  1.00  0.00     0.016 C 
BRANCH   3   5
ATOM      5  C   UNL     1      18.449  38.521  92.387  1.00  0.00     0.015 C 
BRANCH   5   6
ATOM      6  C   UNL     1      18.476  38.820  90.873  1.00  0.00     0.028 C 
BRANCH   6   7
ATOM      7  C   UNL     1      19.891  38.889  90.346  1.00  0.00    -0.028 C 
ATOM      8  C   UNL     1      20.685  39.984  90.257  1.00  0.00    -0.070 CG0
ATOM      9  C   UNL     1      22.046  39.803  89.629  1.00  0.00     0.039 C 
ATOM     10  G   UNL     1      20.306  41.371  90.748  1.00  0.00     0.000 G0
ENDBRANCH   6   7
ENDBRANCH   5   6
ENDBRANCH   3   5
ENDBRANCH   1   3
BRANCH   1  11
ATOM     11  C   UNL     1      19.353  41.508  93.845  1.00  0.00     0.087 C 
BRANCH  11  12
ATOM     12  C   UNL     1      20.803  41.239  93.365  1.00  0.00     0.066 C 
BRANCH  12  13
ATOM     13  C   UNL     1      21.097  41.779  91.971  1.00  0.00     0.140 C 
ATOM     14  O   UNL     1      21.963  42.635  91.861  1.00  0.00    -0.299 OA
BRANCH  13  15
ATOM     15  C   UNL     1      20.316  41.379  90.738  1.00  0.00     0.106 CG0
ATOM     16  G   UNL     1      20.707  39.987  90.269  1.00  0.00     0.000 G0
ENDBRANCH  13  15
ENDBRANCH  12  13
BRANCH  12  17
ATOM     17  C   UNL     1      21.902  41.681  94.379  1.00  0.00    -0.006 C 
ATOM     18  C   UNL     1      22.770  40.500  94.842  1.00  0.00     0.008 C 
ATOM     19  C   UNL     1      21.357  42.441  95.600  1.00  0.00     0.008 C 
ENDBRANCH  12  17
ENDBRANCH  11  12
ENDBRANCH   1  11
TORSDOF 1
ENDMDL
MODEL 7
REMARK VINA RESULT:    -2.339      2.896      4.913
REMARK INTER + INTRA:          -3.944
REMARK INTER:                  -3.647
REMARK INTRA:                  -0.298
REMARK UNBOUND:                -0.374
REMARK SMILES CC1=CCC[C@@H](C)C(=O)C[C@H](C(C)C)C(=O)C1
REMARK SMILES IDX 8 1 9 2 6 3 7 4 5 5 4 6 3 7 2 8 1 9 10 11 11 12 15 13 16 14
REMARK SMILES IDX 17 15 12 17 13 18 14 19
REMARK H PARENT
REMARK Flexibility Score: 70.00
ROOT
ATOM      1  C   UNL     1      20.525  40.872  90.331  1.00  0.00     0.136 C 
ATOM      2  O   UNL     1      20.844  40.321  89.285  1.00  0.00    -0.299 OA
ENDROOT
BRANCH   1   3
ATOM      3  C   UNL     1      21.303  42.076  90.810  1.00  0.00     0.053 C 
ATOM      4  C   UNL     1      21.261  43.186  89.753  1.00  0.00     0.016 C 
BRANCH   3   5
ATOM      5  C   UNL     1      22.758  41.706  91.156  1.00  0.00     0.015 C 
BRANCH   5   6
ATOM      6  C   UNL     1      22.879  40.904  92.469  1.00  0.00     0.028 C 
BRANCH   6   7
ATOM      7  C   UNL     1      22.323  41.677  93.644  1.00  0.00    -0.028 C 
ATOM      8  C   UNL     1      21.373  41.273  94.520  1.00  0.00    -0.070 CG0
ATOM      9  C   UNL     1      20.940  42.261  95.577  1.00  0.00     0.039 C 
ATOM     10  G   UNL     1      20.721  39.900  94.519  1.00  0.00     0.000 G0
ENDBRANCH   6   7
ENDBRANCH   5   6
ENDBRANCH   3   5
ENDBRANCH   1   3
BRANCH   1  11
ATOM     11  C   UNL     1      19.310  40.407  91.099  1.00  0.00     0.087 C 
BRANCH  11  12
ATOM     12  C   UNL     1      19.623  39.321  92.160  1.00  0.00     0.066 C 
BRANCH  12  13
ATOM     13  C   UNL     1      19.536  39.823  93.595  1.00  0.00     0.140 C 
ATOM     14  O   UNL     1      18.463  40.263  93.983  1.00  0.00    -0.299 OA
BRANCH  13  15
ATOM     15  C   UNL     1      20.723  39.888  94.532  1.00  0.00     0.106 CG0
ATOM     16  G   UNL     1      21.362  41.266  94.513  1.00  0.00     0.000 G0
ENDBRANCH  13  15
ENDBRANCH  12  13
BRANCH  12  17
ATOM     17  C   UNL     1      18.811  38.001  91.980  1.00  0.00    -0.006 C 
ATOM     18  C   UNL     1      19.690  36.848  91.469  1.00  0.00     0.008 C 
ATOM     19  C   UNL     1      17.568  38.149  91.086  1.00  0.00     0.008 C 
ENDBRANCH  12  17
ENDBRANCH  11  12
ENDBRANCH   1  11
TORSDOF 1
ENDMDL
MODEL 8
REMARK VINA RESULT:    -2.274      2.427      5.023
REMARK INTER + INTRA:          -3.844
REMARK INTER:                  -3.665
REMARK INTRA:                  -0.179
REMARK UNBOUND:                -0.374
REMARK SMILES CC1=CCC[C@@H](C)C(=O)C[C@H](C(C)C)C(=O)C1
REMARK SMILES IDX 8 1 9 2 6 3 7 4 5 5 4 6 3 7 2 8 1 9 10 11 11 12 15 13 16 14
REMARK SMILES IDX 17 15 12 17 13 18 14 19
REMARK H PARENT
REMARK Flexibility Score: 70.00
ROOT
ATOM      1  C   UNL     1      19.111  40.670  94.266  1.00  0.00     0.136 C 
ATOM      2  O   UNL     1      19.702  41.087  95.253  1.00  0.00    -0.299 OA
ENDROOT
BRANCH   1   3
ATOM      3  C   UNL     1      17.878  39.812  94.438  1.00  0.00     0.053 C 
ATOM      4  C   UNL     1      18.154  38.688  95.444  1.00  0.00     0.016 C 
BRANCH   3   5
ATOM      5  C   UNL     1      17.402  39.234  93.091  1.00  0.00     0.015 C 
BRANCH   5   6
ATOM      6  C   UNL     1      18.165  37.957  92.682  1.00  0.00     0.028 C 
BRANCH   6   7
ATOM      7  C   UNL     1      18.341  37.872  91.183  1.00  0.00    -0.028 C 
ATOM      8  C   UNL     1      19.477  38.081  90.473  1.00  0.00    -0.070 CG0
ATOM      9  C   UNL     1      19.379  37.998  88.969  1.00  0.00     0.039 C 
ATOM     10  G   UNL     1      20.836  38.383  91.082  1.00  0.00     0.000 G0
ENDBRANCH   6   7
ENDBRANCH   5   6
ENDBRANCH   3   5
ENDBRANCH   1   3
BRANCH   1  11
ATOM     11  C   UNL     1      19.556  41.076  92.880  1.00  0.00     0.087 C 
BRANCH  11  12
ATOM     12  C   UNL     1      20.996  40.618  92.531  1.00  0.00     0.066 C 
BRANCH  12  13
ATOM     13  C   UNL     1      21.096  39.862  91.213  1.00  0.00     0.140 C 
ATOM     14  O   UNL     1      21.323  40.507  90.199  1.00  0.00    -0.299 OA
BRANCH  13  15
ATOM     15  C   UNL     1      20.843  38.375  91.080  1.00  0.00     0.106 CG0
ATOM     16  G   UNL     1      19.471  38.104  90.485  1.00  0.00     0.000 G0
ENDBRANCH  13  15
ENDBRANCH  12  13
BRANCH  12  17
ATOM     17  C   UNL     1      22.061  41.756  92.605  1.00  0.00    -0.006 C 
ATOM     18  C   UNL     1      23.060  41.538  93.753  1.00  0.00     0.008 C 
ATOM     19  C   UNL     1      21.461  43.169  92.693  1.00  0.00     0.008 C 
ENDBRANCH  12  17
ENDBRANCH  11  12
ENDBRANCH   1  11
TORSDOF 1
ENDMDL
MODEL 9
REMARK VINA RESULT:    -2.255      2.054      3.018
REMARK INTER + INTRA:          -3.816
REMARK INTER:                  -3.483
REMARK INTRA:                  -0.333
REMARK UNBOUND:                -0.374
REMARK SMILES CC1=CCC[C@@H](C)C(=O)C[C@H](C(C)C)C(=O)C1
REMARK SMILES IDX 8 1 9 2 6 3 7 4 5 5 4 6 3 7 2 8 1 9 10 11 11 12 15 13 16 14
REMARK SMILES IDX 17 15 12 17 13 18 14 19
REMARK H PARENT
REMARK Flexibility Score: 70.00
ROOT
ATOM      1  C   UNL     1      18.578  38.339  90.375  1.00  0.00     0.136 C 
ATOM      2  O   UNL     1      17.834  37.539  89.824  1.00  0.00    -0.299 OA
ENDROOT
BRANCH   1   3
ATOM      3  C   UNL     1      19.999  38.502  89.885  1.00  0.00     0.053 C 
ATOM      4  C   UNL     1      20.892  37.411  90.486  1.00  0.00     0.016 C 
BRANCH   3   5
ATOM      5  C   UNL     1      20.551  39.903  90.215  1.00  0.00     0.015 C 
BRANCH   5   6
ATOM      6  C   UNL     1      21.492  39.904  91.437  1.00  0.00     0.028 C 
BRANCH   6   7
ATOM      7  C   UNL     1      21.270  41.120  92.307  1.00  0.00    -0.028 C 
ATOM      8  C   UNL     1      20.663  41.168  93.518  1.00  0.00    -0.070 CG0
ATOM      9  C   UNL     1      20.506  42.525  94.161  1.00  0.00     0.039 C 
ATOM     10  G   UNL     1      20.138  39.957  94.271  1.00  0.00     0.000 G0
ENDBRANCH   6   7
ENDBRANCH   5   6
ENDBRANCH   3   5
ENDBRANCH   1   3
BRANCH   1  11
ATOM     11  C   UNL     1      18.060  39.223  91.486  1.00  0.00     0.087 C 
BRANCH  11  12
ATOM     12  C   UNL     1      18.285  38.636  92.903  1.00  0.00     0.066 C 
BRANCH  12  13
ATOM     13  C   UNL     1      18.706  39.672  93.937  1.00  0.00     0.140 C 
ATOM     14  O   UNL     1      17.831  40.351  94.456  1.00  0.00    -0.299 OA
BRANCH  13  15
ATOM     15  C   UNL     1      20.149  39.965  94.286  1.00  0.00     0.106 CG0
ATOM     16  G   UNL     1      20.670  41.161  93.507  1.00  0.00     0.000 G0
ENDBRANCH  13  15
ENDBRANCH  12  13
BRANCH  12  17
ATOM     17  C   UNL     1      17.097  37.773  93.430  1.00  0.00    -0.006 C 
ATOM     18  C   UNL     1      17.377  36.267  93.304  1.00  0.00     0.008 C 
ATOM     19  C   UNL     1      15.743  38.110  92.783  1.00  0.00     0.008 C 
ENDBRANCH  12  17
ENDBRANCH  11  12
ENDBRANCH   1  11
TORSDOF 1
ENDMDL
