MODEL 1
REMARK VINA RESULT:    -6.786      0.000      0.000
REMARK INTER + INTRA:          -6.786
REMARK INTER:                  -6.786
REMARK INTRA:                   0.000
REMARK UNBOUND:                 0.000
REMARK SMILES Cc1cccc2ccccc12
REMARK SMILES IDX 1 1 2 2 3 3 4 4 5 5 6 6 7 7 8 8 9 9 10 10 11 11
REMARK H PARENT
REMARK Flexibility Score: inf
ROOT
ATOM      1  C   UNL     1     -11.333   5.635 -31.629  1.00  0.00     0.045 C 
ATOM      2  C   UNL     1     -11.037   6.141 -33.018  1.00  0.00    -0.043 A 
ATOM      3  C   UNL     1     -11.527   5.419 -34.120  1.00  0.00     0.004 A 
ATOM      4  C   UNL     1     -11.278   5.850 -35.423  1.00  0.00     0.001 A 
ATOM      5  C   UNL     1     -10.537   7.008 -35.651  1.00  0.00     0.009 A 
ATOM      6  C   UNL     1     -10.035   7.749 -34.574  1.00  0.00    -0.018 A 
ATOM      7  C   UNL     1      -9.289   8.915 -34.811  1.00  0.00     0.009 A 
ATOM      8  C   UNL     1      -8.787   9.659 -33.742  1.00  0.00     0.001 A 
ATOM      9  C   UNL     1      -9.023   9.248 -32.430  1.00  0.00     0.001 A 
ATOM     10  C   UNL     1      -9.763   8.091 -32.176  1.00  0.00     0.009 A 
ATOM     11  C   UNL     1     -10.282   7.321 -33.240  1.00  0.00    -0.015 A 
ENDROOT
TORSDOF 0
ENDMDL
MODEL 2
REMARK VINA RESULT:    -6.785      0.795      2.555
REMARK INTER + INTRA:          -6.785
REMARK INTER:                  -6.785
REMARK INTRA:                   0.000
REMARK UNBOUND:                 0.000
REMARK SMILES Cc1cccc2ccccc12
REMARK SMILES IDX 1 1 2 2 3 3 4 4 5 5 6 6 7 7 8 8 9 9 10 10 11 11
REMARK H PARENT
REMARK Flexibility Score: inf
ROOT
ATOM      1  C   UNL     1     -11.528   5.828 -35.808  1.00  0.00     0.045 C 
ATOM      2  C   UNL     1     -11.183   6.094 -34.365  1.00  0.00    -0.043 A 
ATOM      3  C   UNL     1     -11.656   5.210 -33.381  1.00  0.00     0.004 A 
ATOM      4  C   UNL     1     -11.361   5.417 -32.033  1.00  0.00     0.001 A 
ATOM      5  C   UNL     1     -10.589   6.510 -31.642  1.00  0.00     0.009 A 
ATOM      6  C   UNL     1     -10.103   7.410 -32.599  1.00  0.00    -0.018 A 
ATOM      7  C   UNL     1      -9.326   8.509 -32.199  1.00  0.00     0.009 A 
ATOM      8  C   UNL     1      -8.837   9.408 -33.147  1.00  0.00     0.001 A 
ATOM      9  C   UNL     1      -9.119   9.222 -34.500  1.00  0.00     0.001 A 
ATOM     10  C   UNL     1      -9.891   8.134 -34.917  1.00  0.00     0.009 A 
ATOM     11  C   UNL     1     -10.396   7.210 -33.977  1.00  0.00    -0.015 A 
ENDROOT
TORSDOF 0
ENDMDL
MODEL 3
REMARK VINA RESULT:    -6.765      0.775      4.214
REMARK INTER + INTRA:          -6.765
REMARK INTER:                  -6.765
REMARK INTRA:                   0.000
REMARK UNBOUND:                 0.000
REMARK SMILES Cc1cccc2ccccc12
REMARK SMILES IDX 1 1 2 2 3 3 4 4 5 5 6 6 7 7 8 8 9 9 10 10 11 11
REMARK H PARENT
REMARK Flexibility Score: inf
ROOT
ATOM      1  C   UNL     1      -9.658   8.510 -36.125  1.00  0.00     0.045 C 
ATOM      2  C   UNL     1      -9.671   8.339 -34.627  1.00  0.00    -0.043 A 
ATOM      3  C   UNL     1      -9.004   9.286 -33.831  1.00  0.00     0.004 A 
ATOM      4  C   UNL     1      -8.991   9.168 -32.442  1.00  0.00     0.001 A 
ATOM      5  C   UNL     1      -9.642   8.105 -31.819  1.00  0.00     0.009 A 
ATOM      6  C   UNL     1     -10.316   7.144 -32.585  1.00  0.00    -0.018 A 
ATOM      7  C   UNL     1     -10.970   6.075 -31.952  1.00  0.00     0.009 A 
ATOM      8  C   UNL     1     -11.644   5.115 -32.708  1.00  0.00     0.001 A 
ATOM      9  C   UNL     1     -11.671   5.211 -34.099  1.00  0.00     0.001 A 
ATOM     10  C   UNL     1     -11.026   6.269 -34.746  1.00  0.00     0.009 A 
ATOM     11  C   UNL     1     -10.338   7.252 -34.003  1.00  0.00    -0.015 A 
ENDROOT
TORSDOF 0
ENDMDL
MODEL 4
REMARK VINA RESULT:    -6.713     13.713     14.404
REMARK INTER + INTRA:          -6.713
REMARK INTER:                  -6.713
REMARK INTRA:                   0.000
REMARK UNBOUND:                 0.000
REMARK SMILES Cc1cccc2ccccc12
REMARK SMILES IDX 1 1 2 2 3 3 4 4 5 5 6 6 7 7 8 8 9 9 10 10 11 11
REMARK H PARENT
REMARK Flexibility Score: inf
ROOT
ATOM      1  C   UNL     1     -22.644  13.741 -32.385  1.00  0.00     0.045 C 
ATOM      2  C   UNL     1     -22.871  12.975 -33.664  1.00  0.00    -0.043 A 
ATOM      3  C   UNL     1     -22.352  13.490 -34.864  1.00  0.00     0.004 A 
ATOM      4  C   UNL     1     -22.538  12.815 -36.070  1.00  0.00     0.001 A 
ATOM      5  C   UNL     1     -23.243  11.614 -36.103  1.00  0.00     0.009 A 
ATOM      6  C   UNL     1     -23.774  11.074 -34.924  1.00  0.00    -0.018 A 
ATOM      7  C   UNL     1     -24.485   9.864 -34.964  1.00  0.00     0.009 A 
ATOM      8  C   UNL     1     -25.015   9.320 -33.793  1.00  0.00     0.001 A 
ATOM      9  C   UNL     1     -24.842   9.977 -32.574  1.00  0.00     0.001 A 
ATOM     10  C   UNL     1     -24.138  11.182 -32.516  1.00  0.00     0.009 A 
ATOM     11  C   UNL     1     -23.592  11.752 -33.687  1.00  0.00    -0.015 A 
ENDROOT
TORSDOF 0
ENDMDL
MODEL 5
REMARK VINA RESULT:    -6.703     12.082     13.183
REMARK INTER + INTRA:          -6.703
REMARK INTER:                  -6.703
REMARK INTRA:                   0.000
REMARK UNBOUND:                 0.000
REMARK SMILES Cc1cccc2ccccc12
REMARK SMILES IDX 1 1 2 2 3 3 4 4 5 5 6 6 7 7 8 8 9 9 10 10 11 11
REMARK H PARENT
REMARK Flexibility Score: inf
ROOT
ATOM      1  C   UNL     1     -18.535  13.059 -22.047  1.00  0.00     0.045 C 
ATOM      2  C   UNL     1     -18.130  13.511 -23.427  1.00  0.00    -0.043 A 
ATOM      3  C   UNL     1     -19.120  13.990 -24.302  1.00  0.00     0.004 A 
ATOM      4  C   UNL     1     -18.790  14.418 -25.588  1.00  0.00     0.001 A 
ATOM      5  C   UNL     1     -17.467  14.378 -26.025  1.00  0.00     0.009 A 
ATOM      6  C   UNL     1     -16.457  13.905 -25.177  1.00  0.00    -0.018 A 
ATOM      7  C   UNL     1     -15.126  13.867 -25.624  1.00  0.00     0.009 A 
ATOM      8  C   UNL     1     -14.115  13.399 -24.784  1.00  0.00     0.001 A 
ATOM      9  C   UNL     1     -14.421  12.965 -23.494  1.00  0.00     0.001 A 
ATOM     10  C   UNL     1     -15.739  12.996 -23.033  1.00  0.00     0.009 A 
ATOM     11  C   UNL     1     -16.780  13.466 -23.863  1.00  0.00    -0.015 A 
ENDROOT
TORSDOF 0
ENDMDL
MODEL 6
REMARK VINA RESULT:    -6.594     10.532     12.578
REMARK INTER + INTRA:          -6.594
REMARK INTER:                  -6.594
REMARK INTRA:                   0.000
REMARK UNBOUND:                 0.000
REMARK SMILES Cc1cccc2ccccc12
REMARK SMILES IDX 1 1 2 2 3 3 4 4 5 5 6 6 7 7 8 8 9 9 10 10 11 11
REMARK H PARENT
REMARK Flexibility Score: inf
ROOT
ATOM      1  C   UNL     1     -15.656   8.101 -21.473  1.00  0.00     0.045 C 
ATOM      2  C   UNL     1     -16.036   7.514 -22.808  1.00  0.00    -0.043 A 
ATOM      3  C   UNL     1     -15.051   6.858 -23.565  1.00  0.00     0.004 A 
ATOM      4  C   UNL     1     -15.358   6.299 -24.806  1.00  0.00     0.001 A 
ATOM      5  C   UNL     1     -16.653   6.383 -25.314  1.00  0.00     0.009 A 
ATOM      6  C   UNL     1     -17.657   7.031 -24.584  1.00  0.00    -0.018 A 
ATOM      7  C   UNL     1     -18.960   7.113 -25.102  1.00  0.00     0.009 A 
ATOM      8  C   UNL     1     -19.966   7.756 -24.380  1.00  0.00     0.001 A 
ATOM      9  C   UNL     1     -19.683   8.323 -23.137  1.00  0.00     0.001 A 
ATOM     10  C   UNL     1     -18.393   8.250 -22.606  1.00  0.00     0.009 A 
ATOM     11  C   UNL     1     -17.358   7.605 -23.318  1.00  0.00    -0.015 A 
ENDROOT
TORSDOF 0
ENDMDL
MODEL 7
REMARK VINA RESULT:    -6.592      0.812      3.407
REMARK INTER + INTRA:          -6.592
REMARK INTER:                  -6.592
REMARK INTRA:                   0.000
REMARK UNBOUND:                 0.000
REMARK SMILES Cc1cccc2ccccc12
REMARK SMILES IDX 1 1 2 2 3 3 4 4 5 5 6 6 7 7 8 8 9 9 10 10 11 11
REMARK H PARENT
REMARK Flexibility Score: inf
ROOT
ATOM      1  C   UNL     1      -9.182   9.098 -31.970  1.00  0.00     0.045 C 
ATOM      2  C   UNL     1      -9.616   8.435 -33.252  1.00  0.00    -0.043 A 
ATOM      3  C   UNL     1      -9.275   9.038 -34.475  1.00  0.00     0.004 A 
ATOM      4  C   UNL     1      -9.655   8.460 -35.687  1.00  0.00     0.001 A 
ATOM      5  C   UNL     1     -10.383   7.271 -35.701  1.00  0.00     0.009 A 
ATOM      6  C   UNL     1     -10.739   6.646 -34.499  1.00  0.00    -0.018 A 
ATOM      7  C   UNL     1     -11.472   5.449 -34.520  1.00  0.00     0.009 A 
ATOM      8  C   UNL     1     -11.829   4.821 -33.326  1.00  0.00     0.001 A 
ATOM      9  C   UNL     1     -11.460   5.380 -32.103  1.00  0.00     0.001 A 
ATOM     10  C   UNL     1     -10.731   6.570 -32.063  1.00  0.00     0.009 A 
ATOM     11  C   UNL     1     -10.357   7.224 -33.257  1.00  0.00    -0.015 A 
ENDROOT
TORSDOF 0
ENDMDL
MODEL 8
REMARK VINA RESULT:    -6.533     11.918     13.184
REMARK INTER + INTRA:          -6.533
REMARK INTER:                  -6.533
REMARK INTRA:                   0.000
REMARK UNBOUND:                 0.000
REMARK SMILES Cc1cccc2ccccc12
REMARK SMILES IDX 1 1 2 2 3 3 4 4 5 5 6 6 7 7 8 8 9 9 10 10 11 11
REMARK H PARENT
REMARK Flexibility Score: inf
ROOT
ATOM      1  C   UNL     1     -14.775  12.680 -22.347  1.00  0.00     0.045 C 
ATOM      2  C   UNL     1     -15.214  13.170 -23.704  1.00  0.00    -0.043 A 
ATOM      3  C   UNL     1     -14.263  13.244 -24.737  1.00  0.00     0.004 A 
ATOM      4  C   UNL     1     -14.624  13.691 -26.008  1.00  0.00     0.001 A 
ATOM      5  C   UNL     1     -15.939  14.071 -26.273  1.00  0.00     0.009 A 
ATOM      6  C   UNL     1     -16.909  14.009 -25.265  1.00  0.00    -0.018 A 
ATOM      7  C   UNL     1     -18.232  14.394 -25.538  1.00  0.00     0.009 A 
ATOM      8  C   UNL     1     -19.203  14.333 -24.538  1.00  0.00     0.001 A 
ATOM      9  C   UNL     1     -18.866  13.890 -23.259  1.00  0.00     0.001 A 
ATOM     10  C   UNL     1     -17.555  13.503 -22.970  1.00  0.00     0.009 A 
ATOM     11  C   UNL     1     -16.555  13.555 -23.964  1.00  0.00    -0.015 A 
ENDROOT
TORSDOF 0
ENDMDL
MODEL 9
REMARK VINA RESULT:    -6.505     12.050     13.370
REMARK INTER + INTRA:          -6.505
REMARK INTER:                  -6.505
REMARK INTRA:                   0.000
REMARK UNBOUND:                 0.000
REMARK SMILES Cc1cccc2ccccc12
REMARK SMILES IDX 1 1 2 2 3 3 4 4 5 5 6 6 7 7 8 8 9 9 10 10 11 11
REMARK H PARENT
REMARK Flexibility Score: inf
ROOT
ATOM      1  C   UNL     1     -18.873  14.533 -26.303  1.00  0.00     0.045 C 
ATOM      2  C   UNL     1     -18.250  14.094 -25.002  1.00  0.00    -0.043 A 
ATOM      3  C   UNL     1     -19.077  13.928 -23.877  1.00  0.00     0.004 A 
ATOM      4  C   UNL     1     -18.544  13.523 -22.653  1.00  0.00     0.001 A 
ATOM      5  C   UNL     1     -17.178  13.274 -22.528  1.00  0.00     0.009 A 
ATOM      6  C   UNL     1     -16.328  13.431 -23.630  1.00  0.00    -0.018 A 
ATOM      7  C   UNL     1     -14.953  13.180 -23.497  1.00  0.00     0.009 A 
ATOM      8  C   UNL     1     -14.100  13.333 -24.592  1.00  0.00     0.001 A 
ATOM      9  C   UNL     1     -14.610  13.737 -25.826  1.00  0.00     0.001 A 
ATOM     10  C   UNL     1     -15.975  13.991 -25.976  1.00  0.00     0.009 A 
ATOM     11  C   UNL     1     -16.858  13.844 -24.884  1.00  0.00    -0.015 A 
ENDROOT
TORSDOF 0
ENDMDL
