MODEL 1
REMARK VINA RESULT:    -5.253      0.000      0.000
REMARK INTER + INTRA:          -8.783
REMARK INTER:                  -8.323
REMARK INTRA:                  -0.459
REMARK UNBOUND:                -0.459
REMARK SMILES CCCCCCCCCCCC(=O)[O-]
REMARK SMILES IDX 7 1 8 2 9 3 10 4 11 5 12 6 13 7 14 8 6 9 5 10 4 11 3 12 2 13
REMARK SMILES IDX 1 14
REMARK H PARENT
REMARK Flexibility Score: inf
ROOT
ATOM      1  C   UNL     1       0.365 -26.643   8.650  1.00  0.00     0.000 C 
ENDROOT
BRANCH   1   2
ATOM      2  C   UNL     1       0.920 -26.927   7.243  1.00  0.00     0.000 C 
BRANCH   2   3
ATOM      3  C   UNL     1      -0.180 -27.323   6.244  1.00  0.00     0.000 C 
BRANCH   3   4
ATOM      4  C   UNL     1       0.085 -26.788   4.826  1.00  0.00     0.006 C 
BRANCH   4   5
ATOM      5  C   UNL     1      -1.136 -26.062   4.244  1.00  0.00     0.053 C 
BRANCH   5   6
ATOM      6  C   UNL     1      -1.461 -26.542   2.862  1.00  0.00     0.041 C 
ATOM      7  O   UNL     1      -1.752 -25.717   1.957  1.00  0.00    -0.550 OA
ATOM      8  O   UNL     1      -1.468 -27.902   2.583  1.00  0.00    -0.550 OA
ENDBRANCH   5   6
ENDBRANCH   4   5
ENDBRANCH   3   4
ENDBRANCH   2   3
ENDBRANCH   1   2
BRANCH   1   9
ATOM      9  C   UNL     1      -1.129 -26.987   8.774  1.00  0.00     0.000 C 
BRANCH   9  10
ATOM     10  C   UNL     1      -1.583 -27.136  10.235  1.00  0.00    -0.000 C 
BRANCH  10  11
ATOM     11  C   UNL     1      -2.330 -25.897  10.757  1.00  0.00    -0.000 C 
BRANCH  11  12
ATOM     12  C   UNL     1      -3.822 -25.865  10.366  1.00  0.00    -0.000 C 
BRANCH  12  13
ATOM     13  C   UNL     1      -4.498 -24.542  10.756  1.00  0.00    -0.003 C 
ATOM     14  C   UNL     1      -3.724 -23.833  11.863  1.00  0.00     0.004 C 
ENDBRANCH  12  13
ENDBRANCH  11  12
ENDBRANCH  10  11
ENDBRANCH   9  10
ENDBRANCH   1   9
TORSDOF 10
ENDMDL
MODEL 2
REMARK VINA RESULT:    -5.200      1.276      1.806
REMARK INTER + INTRA:          -8.700
REMARK INTER:                  -8.260
REMARK INTRA:                  -0.440
REMARK UNBOUND:                -0.459
REMARK SMILES CCCCCCCCCCCC(=O)[O-]
REMARK SMILES IDX 7 1 8 2 9 3 10 4 11 5 12 6 13 7 14 8 6 9 5 10 4 11 3 12 2 13
REMARK SMILES IDX 1 14
REMARK H PARENT
REMARK Flexibility Score: inf
ROOT
ATOM      1  C   UNL     1      -0.389 -28.259   7.585  1.00  0.00     0.000 C 
ENDROOT
BRANCH   1   2
ATOM      2  C   UNL     1      -0.460 -28.338   6.050  1.00  0.00     0.000 C 
BRANCH   2   3
ATOM      3  C   UNL     1      -0.349 -26.957   5.383  1.00  0.00     0.000 C 
BRANCH   3   4
ATOM      4  C   UNL     1      -0.933 -26.936   3.960  1.00  0.00     0.006 C 
BRANCH   4   5
ATOM      5  C   UNL     1       0.058 -27.478   2.920  1.00  0.00     0.053 C 
BRANCH   5   6
ATOM      6  C   UNL     1      -0.631 -28.296   1.870  1.00  0.00     0.041 C 
ATOM      7  O   UNL     1      -1.803 -28.009   1.510  1.00  0.00    -0.550 OA
ATOM      8  O   UNL     1       0.013 -29.391   1.310  1.00  0.00    -0.550 OA
ENDBRANCH   5   6
ENDBRANCH   4   5
ENDBRANCH   3   4
ENDBRANCH   2   3
ENDBRANCH   1   2
BRANCH   1   9
ATOM      9  C   UNL     1       0.154 -26.908   8.082  1.00  0.00     0.000 C 
BRANCH   9  10
ATOM     10  C   UNL     1      -0.322 -26.564   9.502  1.00  0.00    -0.000 C 
BRANCH  10  11
ATOM     11  C   UNL     1      -1.799 -26.923   9.739  1.00  0.00    -0.000 C 
BRANCH  11  12
ATOM     12  C   UNL     1      -2.509 -25.990  10.742  1.00  0.00    -0.000 C 
BRANCH  12  13
ATOM     13  C   UNL     1      -3.898 -25.555  10.251  1.00  0.00    -0.003 C 
ATOM     14  C   UNL     1      -4.377 -24.308  10.987  1.00  0.00     0.004 C 
ENDBRANCH  12  13
ENDBRANCH  11  12
ENDBRANCH  10  11
ENDBRANCH   9  10
ENDBRANCH   1   9
TORSDOF 10
ENDMDL
MODEL 3
REMARK VINA RESULT:    -5.198      3.034      5.331
REMARK INTER + INTRA:          -8.696
REMARK INTER:                  -7.655
REMARK INTRA:                  -1.041
REMARK UNBOUND:                -0.459
REMARK SMILES CCCCCCCCCCCC(=O)[O-]
REMARK SMILES IDX 7 1 8 2 9 3 10 4 11 5 12 6 13 7 14 8 6 9 5 10 4 11 3 12 2 13
REMARK SMILES IDX 1 14
REMARK H PARENT
REMARK Flexibility Score: inf
ROOT
ATOM      1  C   UNL     1       0.611 -30.244   2.788  1.00  0.00     0.000 C 
ENDROOT
BRANCH   1   2
ATOM      2  C   UNL     1       0.162 -29.485   1.527  1.00  0.00     0.000 C 
BRANCH   2   3
ATOM      3  C   UNL     1      -0.171 -28.012   1.813  1.00  0.00     0.000 C 
BRANCH   3   4
ATOM      4  C   UNL     1      -1.684 -27.759   1.937  1.00  0.00     0.006 C 
BRANCH   4   5
ATOM      5  C   UNL     1      -2.002 -26.286   2.224  1.00  0.00     0.053 C 
BRANCH   5   6
ATOM      6  C   UNL     1      -2.119 -25.486   0.962  1.00  0.00     0.041 C 
ATOM      7  O   UNL     1      -2.372 -26.059  -0.130  1.00  0.00    -0.550 OA
ATOM      8  O   UNL     1      -1.923 -24.112   0.990  1.00  0.00    -0.550 OA
ENDBRANCH   5   6
ENDBRANCH   4   5
ENDBRANCH   3   4
ENDBRANCH   2   3
ENDBRANCH   1   2
BRANCH   1   9
ATOM      9  C   UNL     1       1.693 -29.488   3.577  1.00  0.00     0.000 C 
BRANCH   9  10
ATOM     10  C   UNL     1       1.390 -29.419   5.083  1.00  0.00    -0.000 C 
BRANCH  10  11
ATOM     11  C   UNL     1      -0.095 -29.147   5.380  1.00  0.00    -0.000 C 
BRANCH  11  12
ATOM     12  C   UNL     1      -0.419 -27.653   5.587  1.00  0.00    -0.000 C 
BRANCH  12  13
ATOM     13  C   UNL     1       0.400 -27.032   6.730  1.00  0.00    -0.003 C 
ATOM     14  C   UNL     1      -0.399 -27.004   8.028  1.00  0.00     0.004 C 
ENDBRANCH  12  13
ENDBRANCH  11  12
ENDBRANCH  10  11
ENDBRANCH   9  10
ENDBRANCH   1   9
TORSDOF 10
ENDMDL
MODEL 4
REMARK VINA RESULT:    -5.197      4.488      6.061
REMARK INTER + INTRA:          -8.694
REMARK INTER:                  -7.442
REMARK INTRA:                  -1.252
REMARK UNBOUND:                -0.459
REMARK SMILES CCCCCCCCCCCC(=O)[O-]
REMARK SMILES IDX 7 1 8 2 9 3 10 4 11 5 12 6 13 7 14 8 6 9 5 10 4 11 3 12 2 13
REMARK SMILES IDX 1 14
REMARK H PARENT
REMARK Flexibility Score: inf
ROOT
ATOM      1  C   UNL     1       0.229 -29.712   2.264  1.00  0.00     0.000 C 
ENDROOT
BRANCH   1   2
ATOM      2  C   UNL     1      -0.201 -28.488   1.436  1.00  0.00     0.000 C 
BRANCH   2   3
ATOM      3  C   UNL     1      -1.663 -28.087   1.692  1.00  0.00     0.000 C 
BRANCH   3   4
ATOM      4  C   UNL     1      -1.906 -26.579   1.505  1.00  0.00     0.006 C 
BRANCH   4   5
ATOM      5  C   UNL     1      -1.362 -26.067   0.165  1.00  0.00     0.053 C 
BRANCH   5   6
ATOM      6  C   UNL     1      -2.347 -25.176  -0.530  1.00  0.00     0.041 C 
ATOM      7  O   UNL     1      -2.373 -23.942  -0.280  1.00  0.00    -0.550 OA
ATOM      8  O   UNL     1      -3.253 -25.714  -1.433  1.00  0.00    -0.550 OA
ENDBRANCH   5   6
ENDBRANCH   4   5
ENDBRANCH   3   4
ENDBRANCH   2   3
ENDBRANCH   1   2
BRANCH   1   9
ATOM      9  C   UNL     1       1.598 -29.517   2.938  1.00  0.00     0.000 C 
BRANCH   9  10
ATOM     10  C   UNL     1       1.521 -29.603   4.471  1.00  0.00    -0.000 C 
BRANCH  10  11
ATOM     11  C   UNL     1       0.106 -29.338   5.012  1.00  0.00    -0.000 C 
BRANCH  11  12
ATOM     12  C   UNL     1      -0.014 -28.022   5.809  1.00  0.00    -0.000 C 
BRANCH  12  13
ATOM     13  C   UNL     1      -0.526 -26.861   4.942  1.00  0.00    -0.003 C 
ATOM     14  C   UNL     1       0.626 -26.136   4.255  1.00  0.00     0.004 C 
ENDBRANCH  12  13
ENDBRANCH  11  12
ENDBRANCH  10  11
ENDBRANCH   9  10
ENDBRANCH   1   9
TORSDOF 10
ENDMDL
MODEL 5
REMARK VINA RESULT:    -5.181      1.337      1.983
REMARK INTER + INTRA:          -8.670
REMARK INTER:                  -8.296
REMARK INTRA:                  -0.374
REMARK UNBOUND:                -0.459
REMARK SMILES CCCCCCCCCCCC(=O)[O-]
REMARK SMILES IDX 7 1 8 2 9 3 10 4 11 5 12 6 13 7 14 8 6 9 5 10 4 11 3 12 2 13
REMARK SMILES IDX 1 14
REMARK H PARENT
REMARK Flexibility Score: inf
ROOT
ATOM      1  C   UNL     1      -0.361 -27.119   7.102  1.00  0.00     0.000 C 
ENDROOT
BRANCH   1   2
ATOM      2  C   UNL     1       0.454 -27.169   5.798  1.00  0.00     0.000 C 
BRANCH   2   3
ATOM      3  C   UNL     1      -0.437 -27.260   4.548  1.00  0.00     0.000 C 
BRANCH   3   4
ATOM      4  C   UNL     1      -1.133 -25.927   4.218  1.00  0.00     0.006 C 
BRANCH   4   5
ATOM      5  C   UNL     1      -1.576 -25.854   2.751  1.00  0.00     0.053 C 
BRANCH   5   6
ATOM      6  C   UNL     1      -0.874 -24.754   2.013  1.00  0.00     0.041 C 
ATOM      7  O   UNL     1       0.380 -24.656   2.063  1.00  0.00    -0.550 OA
ATOM      8  O   UNL     1      -1.610 -23.823   1.292  1.00  0.00    -0.550 OA
ENDBRANCH   5   6
ENDBRANCH   4   5
ENDBRANCH   3   4
ENDBRANCH   2   3
ENDBRANCH   1   2
BRANCH   1   9
ATOM      9  C   UNL     1       0.532 -27.070   8.353  1.00  0.00     0.000 C 
BRANCH   9  10
ATOM     10  C   UNL     1      -0.202 -26.514   9.584  1.00  0.00    -0.000 C 
BRANCH  10  11
ATOM     11  C   UNL     1      -1.716 -26.783   9.547  1.00  0.00    -0.000 C 
BRANCH  11  12
ATOM     12  C   UNL     1      -2.491 -26.115  10.702  1.00  0.00    -0.000 C 
BRANCH  12  13
ATOM     13  C   UNL     1      -3.853 -25.568  10.249  1.00  0.00    -0.003 C 
ATOM     14  C   UNL     1      -4.132 -24.202  10.869  1.00  0.00     0.004 C 
ENDBRANCH  12  13
ENDBRANCH  11  12
ENDBRANCH  10  11
ENDBRANCH   9  10
ENDBRANCH   1   9
TORSDOF 10
ENDMDL
MODEL 6
REMARK VINA RESULT:    -5.157      3.826      6.894
REMARK INTER + INTRA:          -8.631
REMARK INTER:                  -7.584
REMARK INTRA:                  -1.047
REMARK UNBOUND:                -0.459
REMARK SMILES CCCCCCCCCCCC(=O)[O-]
REMARK SMILES IDX 7 1 8 2 9 3 10 4 11 5 12 6 13 7 14 8 6 9 5 10 4 11 3 12 2 13
REMARK SMILES IDX 1 14
REMARK H PARENT
REMARK Flexibility Score: inf
ROOT
ATOM      1  C   UNL     1       1.615 -28.976   3.524  1.00  0.00     0.000 C 
ENDROOT
BRANCH   1   2
ATOM      2  C   UNL     1       1.396 -29.066   5.045  1.00  0.00     0.000 C 
BRANCH   2   3
ATOM      3  C   UNL     1      -0.087 -29.223   5.418  1.00  0.00     0.000 C 
BRANCH   3   4
ATOM      4  C   UNL     1      -0.396 -28.730   6.843  1.00  0.00     0.006 C 
BRANCH   4   5
ATOM      5  C   UNL     1      -0.297 -27.203   6.961  1.00  0.00     0.053 C 
BRANCH   5   6
ATOM      6  C   UNL     1      -0.171 -26.764   8.389  1.00  0.00     0.041 C 
ATOM      7  O   UNL     1       0.949 -26.416   8.849  1.00  0.00    -0.550 OA
ATOM      8  O   UNL     1      -1.285 -26.765   9.216  1.00  0.00    -0.550 OA
ENDBRANCH   5   6
ENDBRANCH   4   5
ENDBRANCH   3   4
ENDBRANCH   2   3
ENDBRANCH   1   2
BRANCH   1   9
ATOM      9  C   UNL     1       0.980 -30.154   2.766  1.00  0.00     0.000 C 
BRANCH   9  10
ATOM     10  C   UNL     1       0.018 -29.697   1.658  1.00  0.00    -0.000 C 
BRANCH  10  11
ATOM     11  C   UNL     1      -0.246 -28.181   1.686  1.00  0.00    -0.000 C 
BRANCH  11  12
ATOM     12  C   UNL     1      -1.739 -27.817   1.813  1.00  0.00    -0.000 C 
BRANCH  12  13
ATOM     13  C   UNL     1      -1.947 -26.366   2.275  1.00  0.00    -0.003 C 
ATOM     14  C   UNL     1      -1.231 -26.100   3.595  1.00  0.00     0.004 C 
ENDBRANCH  12  13
ENDBRANCH  11  12
ENDBRANCH  10  11
ENDBRANCH   9  10
ENDBRANCH   1   9
TORSDOF 10
ENDMDL
MODEL 7
REMARK VINA RESULT:    -5.141      3.558      6.784
REMARK INTER + INTRA:          -8.606
REMARK INTER:                  -8.032
REMARK INTRA:                  -0.574
REMARK UNBOUND:                -0.459
REMARK SMILES CCCCCCCCCCCC(=O)[O-]
REMARK SMILES IDX 7 1 8 2 9 3 10 4 11 5 12 6 13 7 14 8 6 9 5 10 4 11 3 12 2 13
REMARK SMILES IDX 1 14
REMARK H PARENT
REMARK Flexibility Score: inf
ROOT
ATOM      1  C   UNL     1      -0.547 -27.262   7.571  1.00  0.00     0.000 C 
ENDROOT
BRANCH   1   2
ATOM      2  C   UNL     1       0.167 -26.596   8.761  1.00  0.00     0.000 C 
BRANCH   2   3
ATOM      3  C   UNL     1      -0.591 -26.785  10.085  1.00  0.00     0.000 C 
BRANCH   3   4
ATOM      4  C   UNL     1      -2.113 -26.621   9.925  1.00  0.00     0.006 C 
BRANCH   4   5
ATOM      5  C   UNL     1      -2.685 -25.566  10.881  1.00  0.00     0.053 C 
BRANCH   5   6
ATOM      6  C   UNL     1      -4.106 -25.226  10.549  1.00  0.00     0.041 C 
ATOM      7  O   UNL     1      -4.831 -26.057   9.940  1.00  0.00    -0.550 OA
ATOM      8  O   UNL     1      -4.621 -23.982  10.888  1.00  0.00    -0.550 OA
ENDBRANCH   5   6
ENDBRANCH   4   5
ENDBRANCH   3   4
ENDBRANCH   2   3
ENDBRANCH   1   2
BRANCH   1   9
ATOM      9  C   UNL     1       0.256 -27.148   6.264  1.00  0.00     0.000 C 
BRANCH   9  10
ATOM     10  C   UNL     1      -0.215 -28.143   5.191  1.00  0.00    -0.000 C 
BRANCH  10  11
ATOM     11  C   UNL     1      -0.670 -27.451   3.895  1.00  0.00    -0.000 C 
BRANCH  11  12
ATOM     12  C   UNL     1      -1.201 -26.019   4.114  1.00  0.00    -0.000 C 
BRANCH  12  13
ATOM     13  C   UNL     1      -0.547 -25.004   3.163  1.00  0.00    -0.003 C 
ATOM     14  C   UNL     1       0.941 -25.287   2.994  1.00  0.00     0.004 C 
ENDBRANCH  12  13
ENDBRANCH  11  12
ENDBRANCH  10  11
ENDBRANCH   9  10
ENDBRANCH   1   9
TORSDOF 10
ENDMDL
MODEL 8
REMARK VINA RESULT:    -5.107      4.378      6.401
REMARK INTER + INTRA:          -8.552
REMARK INTER:                  -7.282
REMARK INTRA:                  -1.269
REMARK UNBOUND:                -0.459
REMARK SMILES CCCCCCCCCCCC(=O)[O-]
REMARK SMILES IDX 7 1 8 2 9 3 10 4 11 5 12 6 13 7 14 8 6 9 5 10 4 11 3 12 2 13
REMARK SMILES IDX 1 14
REMARK H PARENT
REMARK Flexibility Score: inf
ROOT
ATOM      1  C   UNL     1      -1.623 -27.611   2.052  1.00  0.00     0.000 C 
ENDROOT
BRANCH   1   2
ATOM      2  C   UNL     1      -1.603 -26.170   2.590  1.00  0.00     0.000 C 
BRANCH   2   3
ATOM      3  C   UNL     1      -0.283 -25.444   2.283  1.00  0.00     0.000 C 
BRANCH   3   4
ATOM      4  C   UNL     1      -0.430 -24.390   1.171  1.00  0.00     0.006 C 
BRANCH   4   5
ATOM      5  C   UNL     1      -1.900 -24.089   0.850  1.00  0.00     0.053 C 
BRANCH   5   6
ATOM      6  C   UNL     1      -2.248 -24.460  -0.559  1.00  0.00     0.041 C 
ATOM      7  O   UNL     1      -2.093 -23.627  -1.491  1.00  0.00    -0.550 OA
ATOM      8  O   UNL     1      -2.769 -25.716  -0.838  1.00  0.00    -0.550 OA
ENDBRANCH   5   6
ENDBRANCH   4   5
ENDBRANCH   3   4
ENDBRANCH   2   3
ENDBRANCH   1   2
BRANCH   1   9
ATOM      9  C   UNL     1      -0.271 -28.034   1.451  1.00  0.00     0.000 C 
BRANCH   9  10
ATOM     10  C   UNL     1       0.377 -29.200   2.214  1.00  0.00    -0.000 C 
BRANCH  10  11
ATOM     11  C   UNL     1       1.099 -28.746   3.495  1.00  0.00    -0.000 C 
BRANCH  11  12
ATOM     12  C   UNL     1       0.660 -29.517   4.757  1.00  0.00    -0.000 C 
BRANCH  12  13
ATOM     13  C   UNL     1      -0.349 -28.724   5.602  1.00  0.00    -0.003 C 
ATOM     14  C   UNL     1       0.033 -27.249   5.676  1.00  0.00     0.004 C 
ENDBRANCH  12  13
ENDBRANCH  11  12
ENDBRANCH  10  11
ENDBRANCH   9  10
ENDBRANCH   1   9
TORSDOF 10
ENDMDL
MODEL 9
REMARK VINA RESULT:    -5.104      4.126      6.361
REMARK INTER + INTRA:          -8.548
REMARK INTER:                  -7.456
REMARK INTRA:                  -1.092
REMARK UNBOUND:                -0.459
REMARK SMILES CCCCCCCCCCCC(=O)[O-]
REMARK SMILES IDX 7 1 8 2 9 3 10 4 11 5 12 6 13 7 14 8 6 9 5 10 4 11 3 12 2 13
REMARK SMILES IDX 1 14
REMARK H PARENT
REMARK Flexibility Score: inf
ROOT
ATOM      1  C   UNL     1      -0.098 -26.535   4.924  1.00  0.00     0.000 C 
ENDROOT
BRANCH   1   2
ATOM      2  C   UNL     1      -1.253 -26.372   3.921  1.00  0.00     0.000 C 
BRANCH   2   3
ATOM      3  C   UNL     1      -1.060 -25.163   2.990  1.00  0.00     0.000 C 
BRANCH   3   4
ATOM      4  C   UNL     1      -1.006 -25.561   1.504  1.00  0.00     0.006 C 
BRANCH   4   5
ATOM      5  C   UNL     1      -2.401 -25.835   0.928  1.00  0.00     0.053 C 
BRANCH   5   6
ATOM      6  C   UNL     1      -2.593 -25.169  -0.401  1.00  0.00     0.041 C 
ATOM      7  O   UNL     1      -3.182 -25.775  -1.335  1.00  0.00    -0.550 OA
ATOM      8  O   UNL     1      -2.099 -23.890  -0.614  1.00  0.00    -0.550 OA
ENDBRANCH   5   6
ENDBRANCH   4   5
ENDBRANCH   3   4
ENDBRANCH   2   3
ENDBRANCH   1   2
BRANCH   1   9
ATOM      9  C   UNL     1      -0.446 -27.498   6.072  1.00  0.00     0.000 C 
BRANCH   9  10
ATOM     10  C   UNL     1      -0.156 -28.966   5.723  1.00  0.00    -0.000 C 
BRANCH  10  11
ATOM     11  C   UNL     1       1.147 -29.142   4.922  1.00  0.00    -0.000 C 
BRANCH  11  12
ATOM     12  C   UNL     1       0.967 -29.949   3.619  1.00  0.00    -0.000 C 
BRANCH  12  13
ATOM     13  C   UNL     1       0.930 -29.046   2.376  1.00  0.00    -0.003 C 
ATOM     14  C   UNL     1      -0.385 -29.203   1.620  1.00  0.00     0.004 C 
ENDBRANCH  12  13
ENDBRANCH  11  12
ENDBRANCH  10  11
ENDBRANCH   9  10
ENDBRANCH   1   9
TORSDOF 10
ENDMDL
