MODEL 1
REMARK VINA RESULT:     3.643      0.000      0.000
REMARK INTER + INTRA:           4.138
REMARK INTER:                   4.281
REMARK INTRA:                  -0.144
REMARK UNBOUND:                -0.144
REMARK SMILES Oc1ccc(-c2[o+]c3cc(O)cc(O)c3cc2O)cc1
REMARK SMILES IDX 6 1 7 2 8 3 9 4 10 5 12 6 13 7 15 8 16 9 17 10 5 11 4 12
REMARK SMILES IDX 3 13 2 14 19 15 20 16 1 17 18 19 11 21 14 23
REMARK H PARENT 1 18 18 20 11 22 14 24
REMARK Flexibility Score: inf
ROOT
ATOM      1  C   UNL     1    -116.887 -99.426  36.772  1.00  0.00     0.401 A 
ATOM      2  O   UNL     1    -117.754 -99.165  35.797  1.00  0.00    -0.202 OA
ATOM      3  C   UNL     1    -117.435 -99.199  34.508  1.00  0.00     0.368 A 
ATOM      4  C   UNL     1    -118.416 -98.907  33.556  1.00  0.00     0.162 A 
ATOM      5  C   UNL     1    -118.108 -98.930  32.196  1.00  0.00     0.128 A 
ATOM      6  C   UNL     1    -116.809 -99.248  31.780  1.00  0.00     0.093 A 
ATOM      7  C   UNL     1    -115.808 -99.543  32.714  1.00  0.00     0.136 A 
ATOM      8  C   UNL     1    -116.119 -99.523  34.099  1.00  0.00     0.125 A 
ATOM      9  C   UNL     1    -115.184 -99.818  35.104  1.00  0.00     0.078 A 
ATOM     10  C   UNL     1    -115.565 -99.783  36.448  1.00  0.00     0.223 A 
ENDROOT
BRANCH   1  11
ATOM     11  C   UNL     1    -117.363 -99.346  38.172  1.00  0.00     0.084 A 
ATOM     12  C   UNL     1    -116.773 -98.467  39.099  1.00  0.00     0.022 A 
ATOM     13  C   UNL     1    -117.255 -98.393  40.409  1.00  0.00     0.047 A 
ATOM     14  C   UNL     1    -118.339 -99.187  40.806  1.00  0.00     0.115 A 
ATOM     15  C   UNL     1    -118.462-100.124  38.574  1.00  0.00     0.022 A 
ATOM     16  C   UNL     1    -118.941-100.048  39.885  1.00  0.00     0.047 A 
BRANCH  14  17
ATOM     17  O   UNL     1    -118.827 -99.122  42.109  1.00  0.00    -0.508 OA
ATOM     18  H   UNL     1    -119.279 -99.918  42.546  1.00  0.00     0.293 HD
ENDBRANCH  14  17
ENDBRANCH   1  11
BRANCH  10  19
ATOM     19  O   UNL     1    -114.649-100.125  37.445  1.00  0.00    -0.500 OA
ATOM     20  H   UNL     1    -113.671 -99.873  37.378  1.00  0.00     0.294 HD
ENDBRANCH  10  19
BRANCH   5  21
ATOM     21  O   UNL     1    -119.100 -98.637  31.262  1.00  0.00    -0.507 OA
ATOM     22  H   UNL     1    -118.918 -98.677  30.266  1.00  0.00     0.293 HD
ENDBRANCH   5  21
BRANCH   7  23
ATOM     23  O   UNL     1    -114.536 -99.847  32.219  1.00  0.00    -0.507 OA
ATOM     24  H   UNL     1    -113.672 -99.583  32.669  1.00  0.00     0.293 HD
ENDBRANCH   7  23
TORSDOF 5
ENDMDL
MODEL 2
REMARK VINA RESULT:     4.167      1.811      2.866
REMARK INTER + INTRA:           4.753
REMARK INTER:                   5.069
REMARK INTRA:                  -0.315
REMARK UNBOUND:                -0.144
REMARK SMILES Oc1ccc(-c2[o+]c3cc(O)cc(O)c3cc2O)cc1
REMARK SMILES IDX 6 1 7 2 8 3 9 4 10 5 12 6 13 7 15 8 16 9 17 10 5 11 4 12
REMARK SMILES IDX 3 13 2 14 19 15 20 16 1 17 18 19 11 21 14 23
REMARK H PARENT 1 18 18 20 11 22 14 24
REMARK Flexibility Score: inf
ROOT
ATOM      1  C   UNL     1    -117.077 -98.826  37.928  1.00  0.00     0.401 A 
ATOM      2  O   UNL     1    -116.196 -98.253  37.113  1.00  0.00    -0.202 OA
ATOM      3  C   UNL     1    -116.249 -98.359  35.789  1.00  0.00     0.368 A 
ATOM      4  C   UNL     1    -115.274 -97.722  35.017  1.00  0.00     0.162 A 
ATOM      5  C   UNL     1    -115.302 -97.819  33.625  1.00  0.00     0.128 A 
ATOM      6  C   UNL     1    -116.312 -98.559  32.998  1.00  0.00     0.093 A 
ATOM      7  C   UNL     1    -117.300 -99.207  33.751  1.00  0.00     0.136 A 
ATOM      8  C   UNL     1    -117.275 -99.108  35.167  1.00  0.00     0.125 A 
ATOM      9  C   UNL     1    -118.231 -99.712  35.999  1.00  0.00     0.078 A 
ATOM     10  C   UNL     1    -118.145 -99.566  37.386  1.00  0.00     0.223 A 
ENDROOT
BRANCH   1  11
ATOM     11  C   UNL     1    -116.906 -98.642  39.387  1.00  0.00     0.084 A 
ATOM     12  C   UNL     1    -117.544 -97.594  40.075  1.00  0.00     0.022 A 
ATOM     13  C   UNL     1    -117.386 -97.456  41.457  1.00  0.00     0.047 A 
ATOM     14  C   UNL     1    -116.598 -98.369  42.171  1.00  0.00     0.115 A 
ATOM     15  C   UNL     1    -116.134 -99.564  40.114  1.00  0.00     0.022 A 
ATOM     16  C   UNL     1    -115.976 -99.423  41.496  1.00  0.00     0.047 A 
BRANCH  14  17
ATOM     17  O   UNL     1    -116.432 -98.240  43.547  1.00  0.00    -0.508 OA
ATOM     18  H   UNL     1    -116.916 -98.848  44.199  1.00  0.00     0.293 HD
ENDBRANCH  14  17
ENDBRANCH   1  11
BRANCH  10  19
ATOM     19  O   UNL     1    -119.122-100.125  38.211  1.00  0.00    -0.500 OA
ATOM     20  H   UNL     1    -119.843-100.735  37.845  1.00  0.00     0.294 HD
ENDBRANCH  10  19
BRANCH   5  21
ATOM     21  O   UNL     1    -114.322 -97.176  32.872  1.00  0.00    -0.507 OA
ATOM     22  H   UNL     1    -113.432 -97.617  32.675  1.00  0.00     0.293 HD
ENDBRANCH   5  21
BRANCH   7  23
ATOM     23  O   UNL     1    -118.272 -99.929  33.051  1.00  0.00    -0.507 OA
ATOM     24  H   UNL     1    -119.197 -99.584  32.842  1.00  0.00     0.293 HD
ENDBRANCH   7  23
TORSDOF 5
ENDMDL
MODEL 3
REMARK VINA RESULT:     5.212      1.827      7.570
REMARK INTER + INTRA:           5.982
REMARK INTER:                   5.657
REMARK INTRA:                   0.325
REMARK UNBOUND:                -0.144
REMARK SMILES Oc1ccc(-c2[o+]c3cc(O)cc(O)c3cc2O)cc1
REMARK SMILES IDX 6 1 7 2 8 3 9 4 10 5 12 6 13 7 15 8 16 9 17 10 5 11 4 12
REMARK SMILES IDX 3 13 2 14 19 15 20 16 1 17 18 19 11 21 14 23
REMARK H PARENT 1 18 18 20 11 22 14 24
REMARK Flexibility Score: inf
ROOT
ATOM      1  C   UNL     1    -116.898 -99.322  38.134  1.00  0.00     0.401 A 
ATOM      2  O   UNL     1    -116.020 -99.003  39.080  1.00  0.00    -0.202 OA
ATOM      3  C   UNL     1    -116.308 -99.016  40.377  1.00  0.00     0.368 A 
ATOM      4  C   UNL     1    -115.318 -98.663  41.298  1.00  0.00     0.162 A 
ATOM      5  C   UNL     1    -115.593 -98.663  42.665  1.00  0.00     0.128 A 
ATOM      6  C   UNL     1    -116.868 -99.021  43.120  1.00  0.00     0.093 A 
ATOM      7  C   UNL     1    -117.878 -99.379  42.217  1.00  0.00     0.136 A 
ATOM      8  C   UNL     1    -117.600 -99.381  40.825  1.00  0.00     0.125 A 
ATOM      9  C   UNL     1    -118.546 -99.739  39.851  1.00  0.00     0.078 A 
ATOM     10  C   UNL     1    -118.198 -99.722  38.497  1.00  0.00     0.223 A 
ENDROOT
BRANCH   1  11
ATOM     11  C   UNL     1    -116.459 -99.259  36.720  1.00  0.00     0.084 A 
ATOM     12  C   UNL     1    -117.084-100.029  35.723  1.00  0.00     0.022 A 
ATOM     13  C   UNL     1    -116.667 -99.934  34.392  1.00  0.00     0.047 A 
ATOM     14  C   UNL     1    -115.630 -99.061  34.039  1.00  0.00     0.115 A 
ATOM     15  C   UNL     1    -115.434 -98.370  36.354  1.00  0.00     0.022 A 
ATOM     16  C   UNL     1    -115.018 -98.279  35.022  1.00  0.00     0.047 A 
BRANCH  14  17
ATOM     17  O   UNL     1    -115.206 -98.959  32.716  1.00  0.00    -0.508 OA
ATOM     18  H   UNL     1    -115.590 -98.261  32.089  1.00  0.00     0.293 HD
ENDBRANCH  14  17
ENDBRANCH   1  11
BRANCH  10  19
ATOM     19  O   UNL     1    -119.122-100.125  37.532  1.00  0.00    -0.500 OA
ATOM     20  H   UNL     1    -119.262 -99.599  36.678  1.00  0.00     0.294 HD
ENDBRANCH  10  19
BRANCH   5  21
ATOM     21  O   UNL     1    -114.592 -98.308  43.567  1.00  0.00    -0.507 OA
ATOM     22  H   UNL     1    -114.743 -97.597  44.273  1.00  0.00     0.293 HD
ENDBRANCH   5  21
BRANCH   7  23
ATOM     23  O   UNL     1    -119.125 -99.720  42.750  1.00  0.00    -0.507 OA
ATOM     24  H   UNL     1    -119.371-100.641  43.079  1.00  0.00     0.293 HD
ENDBRANCH   7  23
TORSDOF 5
ENDMDL
MODEL 4
REMARK VINA RESULT:     6.261      1.135      1.536
REMARK INTER + INTRA:           7.215
REMARK INTER:                   7.043
REMARK INTRA:                   0.172
REMARK UNBOUND:                -0.144
REMARK SMILES Oc1ccc(-c2[o+]c3cc(O)cc(O)c3cc2O)cc1
REMARK SMILES IDX 6 1 7 2 8 3 9 4 10 5 12 6 13 7 15 8 16 9 17 10 5 11 4 12
REMARK SMILES IDX 3 13 2 14 19 15 20 16 1 17 18 19 11 21 14 23
REMARK H PARENT 1 18 18 20 11 22 14 24
REMARK Flexibility Score: inf
ROOT
ATOM      1  C   UNL     1    -116.780 -99.044  36.232  1.00  0.00     0.401 A 
ATOM      2  O   UNL     1    -117.668 -98.546  35.377  1.00  0.00    -0.202 OA
ATOM      3  C   UNL     1    -117.381 -98.260  34.111  1.00  0.00     0.368 A 
ATOM      4  C   UNL     1    -118.382 -97.737  33.288  1.00  0.00     0.162 A 
ATOM      5  C   UNL     1    -118.109 -97.424  31.957  1.00  0.00     0.128 A 
ATOM      6  C   UNL     1    -116.825 -97.635  31.440  1.00  0.00     0.093 A 
ATOM      7  C   UNL     1    -115.804 -98.157  32.245  1.00  0.00     0.136 A 
ATOM      8  C   UNL     1    -116.080 -98.479  33.599  1.00  0.00     0.125 A 
ATOM      9  C   UNL     1    -115.123 -99.019  34.474  1.00  0.00     0.078 A 
ATOM     10  C   UNL     1    -115.470 -99.316  35.795  1.00  0.00     0.223 A 
ENDROOT
BRANCH   1  11
ATOM     11  C   UNL     1    -117.219 -99.312  37.622  1.00  0.00     0.084 A 
ATOM     12  C   UNL     1    -118.485 -99.858  37.899  1.00  0.00     0.022 A 
ATOM     13  C   UNL     1    -118.867-100.124  39.217  1.00  0.00     0.047 A 
ATOM     14  C   UNL     1    -117.984 -99.859  40.273  1.00  0.00     0.115 A 
ATOM     15  C   UNL     1    -116.333 -99.068  38.685  1.00  0.00     0.022 A 
ATOM     16  C   UNL     1    -116.718 -99.334  40.002  1.00  0.00     0.047 A 
BRANCH  14  17
ATOM     17  O   UNL     1    -118.354-100.119  41.590  1.00  0.00    -0.508 OA
ATOM     18  H   UNL     1    -117.727-100.588  42.234  1.00  0.00     0.293 HD
ENDBRANCH  14  17
ENDBRANCH   1  11
BRANCH  10  19
ATOM     19  O   UNL     1    -114.534 -99.898  36.651  1.00  0.00    -0.500 OA
ATOM     20  H   UNL     1    -114.507 -99.679  37.639  1.00  0.00     0.294 HD
ENDBRANCH  10  19
BRANCH   5  21
ATOM     21  O   UNL     1    -119.121 -96.904  31.152  1.00  0.00    -0.507 OA
ATOM     22  H   UNL     1    -118.994 -96.045  30.630  1.00  0.00     0.293 HD
ENDBRANCH   5  21
BRANCH   7  23
ATOM     23  O   UNL     1    -114.549 -98.335  31.656  1.00  0.00    -0.507 OA
ATOM     24  H   UNL     1    -114.245 -97.872  30.812  1.00  0.00     0.293 HD
ENDBRANCH   7  23
TORSDOF 5
ENDMDL
