MODEL 1
REMARK VINA RESULT:    -3.496      0.000      0.000
REMARK INTER + INTRA:         -11.349
REMARK INTER:                  -7.584
REMARK INTRA:                  -3.765
REMARK UNBOUND:                -3.765
REMARK SMILES CCCCCCCCCCCCCCCCCCCCCC(=O)[O-]
REMARK SMILES IDX 12 1 11 2 10 3 9 4 8 5 7 6 6 7 5 8 4 9 3 10 2 11 1 12 13 13
REMARK SMILES IDX 14 14 15 15 16 16 17 17 18 18 19 19 20 20 21 21 22 22 23 23
REMARK SMILES IDX 24 24
REMARK H PARENT
REMARK Flexibility Score: inf
ROOT
ATOM      1  C   UNL     1     162.352 165.019 187.585  1.00  0.00     0.000 C 
ENDROOT
BRANCH   1   2
ATOM      2  C   UNL     1     160.869 165.380 187.377  1.00  0.00     0.000 C 
BRANCH   2   3
ATOM      3  C   UNL     1     160.390 165.122 185.942  1.00  0.00     0.000 C 
BRANCH   3   4
ATOM      4  C   UNL     1     161.540 164.622 185.060  1.00  0.00    -0.000 C 
BRANCH   4   5
ATOM      5  C   UNL     1     161.124 163.375 184.268  1.00  0.00    -0.000 C 
BRANCH   5   6
ATOM      6  C   UNL     1     160.512 162.313 185.194  1.00  0.00    -0.000 C 
BRANCH   6   7
ATOM      7  C   UNL     1     161.186 160.933 185.034  1.00  0.00    -0.000 C 
BRANCH   7   8
ATOM      8  C   UNL     1     162.559 160.993 184.339  1.00  0.00    -0.000 C 
BRANCH   8   9
ATOM      9  C   UNL     1     163.767 160.788 185.272  1.00  0.00    -0.000 C 
BRANCH   9  10
ATOM     10  C   UNL     1     165.144 161.022 184.618  1.00  0.00    -0.000 C 
BRANCH  10  11
ATOM     11  C   UNL     1     166.023 162.077 185.312  1.00  0.00    -0.003 C 
ATOM     12  C   UNL     1     165.218 163.238 185.894  1.00  0.00     0.004 C 
ENDBRANCH  10  11
ENDBRANCH   9  10
ENDBRANCH   8   9
ENDBRANCH   7   8
ENDBRANCH   6   7
ENDBRANCH   5   6
ENDBRANCH   4   5
ENDBRANCH   3   4
ENDBRANCH   2   3
ENDBRANCH   1   2
BRANCH   1  13
ATOM     13  C   UNL     1     162.610 163.849 188.556  1.00  0.00     0.000 C 
BRANCH  13  14
ATOM     14  C   UNL     1     161.457 162.839 188.693  1.00  0.00     0.000 C 
BRANCH  14  15
ATOM     15  C   UNL     1     161.918 161.380 188.536  1.00  0.00     0.000 C 
BRANCH  15  16
ATOM     16  C   UNL     1     163.449 161.237 188.536  1.00  0.00     0.000 C 
BRANCH  16  17
ATOM     17  C   UNL     1     163.944 159.875 189.069  1.00  0.00     0.000 C 
BRANCH  17  18
ATOM     18  C   UNL     1     165.356 159.969 189.667  1.00  0.00     0.000 C 
BRANCH  18  19
ATOM     19  C   UNL     1     166.225 160.952 188.875  1.00  0.00     0.000 C 
BRANCH  19  20
ATOM     20  C   UNL     1     166.968 161.910 189.815  1.00  0.00     0.006 C 
BRANCH  20  21
ATOM     21  C   UNL     1     166.140 163.173 190.075  1.00  0.00     0.053 C 
BRANCH  21  22
ATOM     22  C   UNL     1     166.790 164.368 189.452  1.00  0.00     0.041 C 
ATOM     23  O   UNL     1     166.095 165.214 188.830  1.00  0.00    -0.550 OA
ATOM     24  O   UNL     1     168.168 164.531 189.529  1.00  0.00    -0.550 OA
ENDBRANCH  21  22
ENDBRANCH  20  21
ENDBRANCH  19  20
ENDBRANCH  18  19
ENDBRANCH  17  18
ENDBRANCH  16  17
ENDBRANCH  15  16
ENDBRANCH  14  15
ENDBRANCH  13  14
ENDBRANCH   1  13
TORSDOF 20
ENDMDL
MODEL 2
REMARK VINA RESULT:    -3.440      6.905      9.665
REMARK INTER + INTRA:         -11.228
REMARK INTER:                  -9.790
REMARK INTRA:                  -1.437
REMARK UNBOUND:                -3.765
REMARK SMILES CCCCCCCCCCCCCCCCCCCCCC(=O)[O-]
REMARK SMILES IDX 12 1 11 2 10 3 9 4 8 5 7 6 6 7 5 8 4 9 3 10 2 11 1 12 13 13
REMARK SMILES IDX 14 14 15 15 16 16 17 17 18 18 19 19 20 20 21 21 22 22 23 23
REMARK SMILES IDX 24 24
REMARK H PARENT
REMARK Flexibility Score: inf
ROOT
ATOM      1  C   UNL     1     171.425 161.532 187.483  1.00  0.00     0.000 C 
ENDROOT
BRANCH   1   2
ATOM      2  C   UNL     1     169.896 161.690 187.391  1.00  0.00     0.000 C 
BRANCH   2   3
ATOM      3  C   UNL     1     169.153 160.350 187.489  1.00  0.00     0.000 C 
BRANCH   3   4
ATOM      4  C   UNL     1     167.657 160.569 187.740  1.00  0.00    -0.000 C 
BRANCH   4   5
ATOM      5  C   UNL     1     167.425 161.741 188.703  1.00  0.00    -0.000 C 
BRANCH   5   6
ATOM      6  C   UNL     1     166.011 161.691 189.302  1.00  0.00    -0.000 C 
BRANCH   6   7
ATOM      7  C   UNL     1     165.476 160.249 189.428  1.00  0.00    -0.000 C 
BRANCH   7   8
ATOM      8  C   UNL     1     163.982 160.111 189.078  1.00  0.00    -0.000 C 
BRANCH   8   9
ATOM      9  C   UNL     1     163.481 161.077 187.987  1.00  0.00    -0.000 C 
BRANCH   9  10
ATOM     10  C   UNL     1     162.482 162.147 188.471  1.00  0.00    -0.000 C 
BRANCH  10  11
ATOM     11  C   UNL     1     161.087 162.076 187.826  1.00  0.00    -0.003 C 
ATOM     12  C   UNL     1     159.960 161.943 188.849  1.00  0.00     0.004 C 
ENDBRANCH  10  11
ENDBRANCH   9  10
ENDBRANCH   8   9
ENDBRANCH   7   8
ENDBRANCH   6   7
ENDBRANCH   5   6
ENDBRANCH   4   5
ENDBRANCH   3   4
ENDBRANCH   2   3
ENDBRANCH   1   2
BRANCH   1  13
ATOM     13  C   UNL     1     171.912 160.160 187.994  1.00  0.00     0.000 C 
BRANCH  13  14
ATOM     14  C   UNL     1     173.161 160.197 188.892  1.00  0.00     0.000 C 
BRANCH  14  15
ATOM     15  C   UNL     1     174.189 161.249 188.443  1.00  0.00     0.000 C 
BRANCH  15  16
ATOM     16  C   UNL     1     175.559 160.637 188.104  1.00  0.00     0.000 C 
BRANCH  16  17
ATOM     17  C   UNL     1     176.722 161.650 188.163  1.00  0.00     0.000 C 
BRANCH  17  18
ATOM     18  C   UNL     1     177.048 162.071 189.604  1.00  0.00     0.000 C 
BRANCH  18  19
ATOM     19  C   UNL     1     177.119 163.597 189.730  1.00  0.00     0.000 C 
BRANCH  19  20
ATOM     20  C   UNL     1     176.307 164.279 188.622  1.00  0.00     0.006 C 
BRANCH  20  21
ATOM     21  C   UNL     1     177.009 165.549 188.130  1.00  0.00     0.053 C 
BRANCH  21  22
ATOM     22  C   UNL     1     178.157 165.205 187.235  1.00  0.00     0.041 C 
ATOM     23  O   UNL     1     179.248 165.826 187.338  1.00  0.00    -0.550 OA
ATOM     24  O   UNL     1     178.014 164.220 186.266  1.00  0.00    -0.550 OA
ENDBRANCH  21  22
ENDBRANCH  20  21
ENDBRANCH  19  20
ENDBRANCH  18  19
ENDBRANCH  17  18
ENDBRANCH  16  17
ENDBRANCH  15  16
ENDBRANCH  14  15
ENDBRANCH  13  14
ENDBRANCH   1  13
TORSDOF 20
ENDMDL
MODEL 3
REMARK VINA RESULT:    -3.422      2.236      3.675
REMARK INTER + INTRA:         -11.188
REMARK INTER:                  -6.975
REMARK INTRA:                  -4.213
REMARK UNBOUND:                -3.765
REMARK SMILES CCCCCCCCCCCCCCCCCCCCCC(=O)[O-]
REMARK SMILES IDX 12 1 11 2 10 3 9 4 8 5 7 6 6 7 5 8 4 9 3 10 2 11 1 12 13 13
REMARK SMILES IDX 14 14 15 15 16 16 17 17 18 18 19 19 20 20 21 21 22 22 23 23
REMARK SMILES IDX 24 24
REMARK H PARENT
REMARK Flexibility Score: inf
ROOT
ATOM      1  C   UNL     1     161.125 161.385 187.124  1.00  0.00     0.000 C 
ENDROOT
BRANCH   1   2
ATOM      2  C   UNL     1     162.277 161.064 186.154  1.00  0.00     0.000 C 
BRANCH   2   3
ATOM      3  C   UNL     1     161.848 161.119 184.681  1.00  0.00     0.000 C 
BRANCH   3   4
ATOM      4  C   UNL     1     161.281 162.498 184.325  1.00  0.00    -0.000 C 
BRANCH   4   5
ATOM      5  C   UNL     1     162.045 163.121 183.150  1.00  0.00    -0.000 C 
BRANCH   5   6
ATOM      6  C   UNL     1     161.653 162.455 181.822  1.00  0.00    -0.000 C 
BRANCH   6   7
ATOM      7  C   UNL     1     162.880 162.109 180.952  1.00  0.00    -0.000 C 
BRANCH   7   8
ATOM      8  C   UNL     1     163.362 160.655 181.114  1.00  0.00    -0.000 C 
BRANCH   8   9
ATOM      9  C   UNL     1     164.779 160.503 181.698  1.00  0.00    -0.000 C 
BRANCH   9  10
ATOM     10  C   UNL     1     164.841 159.877 183.106  1.00  0.00    -0.000 C 
BRANCH  10  11
ATOM     11  C   UNL     1     165.507 160.754 184.180  1.00  0.00    -0.003 C 
ATOM     12  C   UNL     1     165.519 162.239 183.817  1.00  0.00     0.004 C 
ENDBRANCH  10  11
ENDBRANCH   9  10
ENDBRANCH   8   9
ENDBRANCH   7   8
ENDBRANCH   6   7
ENDBRANCH   5   6
ENDBRANCH   4   5
ENDBRANCH   3   4
ENDBRANCH   2   3
ENDBRANCH   1   2
BRANCH   1  13
ATOM     13  C   UNL     1     161.560 161.776 188.551  1.00  0.00     0.000 C 
BRANCH  13  14
ATOM     14  C   UNL     1     161.357 163.256 188.920  1.00  0.00     0.000 C 
BRANCH  14  15
ATOM     15  C   UNL     1     160.613 164.046 187.831  1.00  0.00     0.000 C 
BRANCH  15  16
ATOM     16  C   UNL     1     161.527 165.027 187.077  1.00  0.00     0.000 C 
BRANCH  16  17
ATOM     17  C   UNL     1     163.002 164.974 187.532  1.00  0.00     0.000 C 
BRANCH  17  18
ATOM     18  C   UNL     1     163.903 164.294 186.491  1.00  0.00     0.000 C 
BRANCH  18  19
ATOM     19  C   UNL     1     165.244 163.882 187.107  1.00  0.00     0.000 C 
BRANCH  19  20
ATOM     20  C   UNL     1     165.041 162.855 188.228  1.00  0.00     0.006 C 
BRANCH  20  21
ATOM     21  C   UNL     1     165.451 161.452 187.768  1.00  0.00     0.053 C 
BRANCH  21  22
ATOM     22  C   UNL     1     165.642 160.546 188.943  1.00  0.00     0.041 C 
ATOM     23  O   UNL     1     164.655 159.955 189.454  1.00  0.00    -0.550 OA
ATOM     24  O   UNL     1     166.906 160.379 189.495  1.00  0.00    -0.550 OA
ENDBRANCH  21  22
ENDBRANCH  20  21
ENDBRANCH  19  20
ENDBRANCH  18  19
ENDBRANCH  17  18
ENDBRANCH  16  17
ENDBRANCH  15  16
ENDBRANCH  14  15
ENDBRANCH  13  14
ENDBRANCH   1  13
TORSDOF 20
ENDMDL
MODEL 4
REMARK VINA RESULT:    -3.390      1.703      4.364
REMARK INTER + INTRA:         -11.118
REMARK INTER:                  -7.104
REMARK INTRA:                  -4.014
REMARK UNBOUND:                -3.765
REMARK SMILES CCCCCCCCCCCCCCCCCCCCCC(=O)[O-]
REMARK SMILES IDX 12 1 11 2 10 3 9 4 8 5 7 6 6 7 5 8 4 9 3 10 2 11 1 12 13 13
REMARK SMILES IDX 14 14 15 15 16 16 17 17 18 18 19 19 20 20 21 21 22 22 23 23
REMARK SMILES IDX 24 24
REMARK H PARENT
REMARK Flexibility Score: inf
ROOT
ATOM      1  C   UNL     1     161.559 165.204 186.831  1.00  0.00     0.000 C 
ENDROOT
BRANCH   1   2
ATOM      2  C   UNL     1     162.021 164.361 188.034  1.00  0.00     0.000 C 
BRANCH   2   3
ATOM      3  C   UNL     1     160.870 163.593 188.699  1.00  0.00     0.000 C 
BRANCH   3   4
ATOM      4  C   UNL     1     161.151 162.086 188.713  1.00  0.00    -0.000 C 
BRANCH   4   5
ATOM      5  C   UNL     1     162.556 161.783 188.180  1.00  0.00    -0.000 C 
BRANCH   5   6
ATOM      6  C   UNL     1     163.156 160.552 188.877  1.00  0.00    -0.000 C 
BRANCH   6   7
ATOM      7  C   UNL     1     164.609 160.273 188.434  1.00  0.00    -0.000 C 
BRANCH   7   8
ATOM      8  C   UNL     1     165.616 160.247 189.599  1.00  0.00    -0.000 C 
BRANCH   8   9
ATOM      9  C   UNL     1     166.461 161.527 189.754  1.00  0.00    -0.000 C 
BRANCH   9  10
ATOM     10  C   UNL     1     167.381 161.850 188.559  1.00  0.00    -0.000 C 
BRANCH  10  11
ATOM     11  C   UNL     1     168.211 160.665 188.037  1.00  0.00    -0.003 C 
ATOM     12  C   UNL     1     167.833 160.250 186.616  1.00  0.00     0.004 C 
ENDBRANCH  10  11
ENDBRANCH   9  10
ENDBRANCH   8   9
ENDBRANCH   7   8
ENDBRANCH   6   7
ENDBRANCH   5   6
ENDBRANCH   4   5
ENDBRANCH   3   4
ENDBRANCH   2   3
ENDBRANCH   1   2
BRANCH   1  13
ATOM     13  C   UNL     1     160.219 164.769 186.203  1.00  0.00     0.000 C 
BRANCH  13  14
ATOM     14  C   UNL     1     160.334 163.854 184.971  1.00  0.00     0.000 C 
BRANCH  14  15
ATOM     15  C   UNL     1     159.875 162.414 185.252  1.00  0.00     0.000 C 
BRANCH  15  16
ATOM     16  C   UNL     1     160.958 161.370 184.931  1.00  0.00     0.000 C 
BRANCH  16  17
ATOM     17  C   UNL     1     162.306 161.988 184.502  1.00  0.00     0.000 C 
BRANCH  17  18
ATOM     18  C   UNL     1     163.473 161.004 184.674  1.00  0.00     0.000 C 
BRANCH  18  19
ATOM     19  C   UNL     1     164.751 161.733 185.104  1.00  0.00     0.000 C 
BRANCH  19  20
ATOM     20  C   UNL     1     164.467 163.210 185.403  1.00  0.00     0.006 C 
BRANCH  20  21
ATOM     21  C   UNL     1     165.631 163.849 186.167  1.00  0.00     0.053 C 
BRANCH  21  22
ATOM     22  C   UNL     1     166.752 164.186 185.235  1.00  0.00     0.041 C 
ATOM     23  O   UNL     1     166.614 165.105 184.385  1.00  0.00    -0.550 OA
ATOM     24  O   UNL     1     167.938 163.465 185.282  1.00  0.00    -0.550 OA
ENDBRANCH  21  22
ENDBRANCH  20  21
ENDBRANCH  19  20
ENDBRANCH  18  19
ENDBRANCH  17  18
ENDBRANCH  16  17
ENDBRANCH  15  16
ENDBRANCH  14  15
ENDBRANCH  13  14
ENDBRANCH   1  13
TORSDOF 20
ENDMDL
MODEL 5
REMARK VINA RESULT:    -3.338      1.253      3.899
REMARK INTER + INTRA:         -11.006
REMARK INTER:                  -7.414
REMARK INTRA:                  -3.592
REMARK UNBOUND:                -3.765
REMARK SMILES CCCCCCCCCCCCCCCCCCCCCC(=O)[O-]
REMARK SMILES IDX 12 1 11 2 10 3 9 4 8 5 7 6 6 7 5 8 4 9 3 10 2 11 1 12 13 13
REMARK SMILES IDX 14 14 15 15 16 16 17 17 18 18 19 19 20 20 21 21 22 22 23 23
REMARK SMILES IDX 24 24
REMARK H PARENT
REMARK Flexibility Score: inf
ROOT
ATOM      1  C   UNL     1     161.948 163.096 184.257  1.00  0.00     0.000 C 
ENDROOT
BRANCH   1   2
ATOM      2  C   UNL     1     160.767 162.206 184.686  1.00  0.00     0.000 C 
BRANCH   2   3
ATOM      3  C   UNL     1     160.107 162.682 185.988  1.00  0.00     0.000 C 
BRANCH   3   4
ATOM      4  C   UNL     1     160.031 161.545 187.013  1.00  0.00    -0.000 C 
BRANCH   4   5
ATOM      5  C   UNL     1     160.663 161.963 188.347  1.00  0.00    -0.000 C 
BRANCH   5   6
ATOM      6  C   UNL     1     162.057 161.340 188.516  1.00  0.00    -0.000 C 
BRANCH   6   7
ATOM      7  C   UNL     1     163.179 162.401 188.528  1.00  0.00    -0.000 C 
BRANCH   7   8
ATOM      8  C   UNL     1     162.658 163.851 188.574  1.00  0.00    -0.000 C 
BRANCH   8   9
ATOM      9  C   UNL     1     163.306 164.804 187.552  1.00  0.00    -0.000 C 
BRANCH   9  10
ATOM     10  C   UNL     1     162.669 166.206 187.472  1.00  0.00    -0.000 C 
BRANCH  10  11
ATOM     11  C   UNL     1     162.177 166.619 186.074  1.00  0.00    -0.003 C 
ATOM     12  C   UNL     1     160.710 166.267 185.828  1.00  0.00     0.004 C 
ENDBRANCH  10  11
ENDBRANCH   9  10
ENDBRANCH   8   9
ENDBRANCH   7   8
ENDBRANCH   6   7
ENDBRANCH   5   6
ENDBRANCH   4   5
ENDBRANCH   3   4
ENDBRANCH   2   3
ENDBRANCH   1   2
BRANCH   1  13
ATOM     13  C   UNL     1     163.340 162.589 184.687  1.00  0.00     0.000 C 
BRANCH  13  14
ATOM     14  C   UNL     1     163.406 161.104 185.087  1.00  0.00     0.000 C 
BRANCH  14  15
ATOM     15  C   UNL     1     164.618 160.376 184.482  1.00  0.00     0.000 C 
BRANCH  15  16
ATOM     16  C   UNL     1     165.863 160.442 185.382  1.00  0.00     0.000 C 
BRANCH  16  17
ATOM     17  C   UNL     1     165.552 160.260 186.884  1.00  0.00     0.000 C 
BRANCH  17  18
ATOM     18  C   UNL     1     166.725 160.700 187.772  1.00  0.00     0.000 C 
BRANCH  18  19
ATOM     19  C   UNL     1     166.383 160.536 189.258  1.00  0.00     0.000 C 
BRANCH  19  20
ATOM     20  C   UNL     1     166.475 161.878 189.995  1.00  0.00     0.006 C 
BRANCH  20  21
ATOM     21  C   UNL     1     166.877 163.004 189.036  1.00  0.00     0.053 C 
BRANCH  21  22
ATOM     22  C   UNL     1     167.076 164.286 189.782  1.00  0.00     0.041 C 
ATOM     23  O   UNL     1     167.702 164.292 190.874  1.00  0.00    -0.550 OA
ATOM     24  O   UNL     1     166.543 165.469 189.286  1.00  0.00    -0.550 OA
ENDBRANCH  21  22
ENDBRANCH  20  21
ENDBRANCH  19  20
ENDBRANCH  18  19
ENDBRANCH  17  18
ENDBRANCH  16  17
ENDBRANCH  15  16
ENDBRANCH  14  15
ENDBRANCH  13  14
ENDBRANCH   1  13
TORSDOF 20
ENDMDL
MODEL 6
REMARK VINA RESULT:    -3.333      3.269      6.298
REMARK INTER + INTRA:         -10.995
REMARK INTER:                  -7.656
REMARK INTRA:                  -3.339
REMARK UNBOUND:                -3.765
REMARK SMILES CCCCCCCCCCCCCCCCCCCCCC(=O)[O-]
REMARK SMILES IDX 12 1 11 2 10 3 9 4 8 5 7 6 6 7 5 8 4 9 3 10 2 11 1 12 13 13
REMARK SMILES IDX 14 14 15 15 16 16 17 17 18 18 19 19 20 20 21 21 22 22 23 23
REMARK SMILES IDX 24 24
REMARK H PARENT
REMARK Flexibility Score: inf
ROOT
ATOM      1  C   UNL     1     162.292 164.201 187.801  1.00  0.00     0.000 C 
ENDROOT
BRANCH   1   2
ATOM      2  C   UNL     1     161.459 163.233 188.662  1.00  0.00     0.000 C 
BRANCH   2   3
ATOM      3  C   UNL     1     161.938 161.778 188.553  1.00  0.00     0.000 C 
BRANCH   3   4
ATOM      4  C   UNL     1     163.306 161.700 187.867  1.00  0.00    -0.000 C 
BRANCH   4   5
ATOM      5  C   UNL     1     164.070 160.443 188.302  1.00  0.00    -0.000 C 
BRANCH   5   6
ATOM      6  C   UNL     1     165.375 160.288 187.508  1.00  0.00    -0.000 C 
BRANCH   6   7
ATOM      7  C   UNL     1     166.627 160.515 188.382  1.00  0.00    -0.000 C 
BRANCH   7   8
ATOM      8  C   UNL     1     166.305 160.804 189.860  1.00  0.00    -0.000 C 
BRANCH   8   9
ATOM      9  C   UNL     1     166.714 162.206 190.351  1.00  0.00    -0.000 C 
BRANCH   9  10
ATOM     10  C   UNL     1     165.741 163.340 189.972  1.00  0.00    -0.000 C 
BRANCH  10  11
ATOM     11  C   UNL     1     166.111 164.116 188.696  1.00  0.00    -0.003 C 
ATOM     12  C   UNL     1     167.612 164.122 188.413  1.00  0.00     0.004 C 
ENDBRANCH  10  11
ENDBRANCH   9  10
ENDBRANCH   8   9
ENDBRANCH   7   8
ENDBRANCH   6   7
ENDBRANCH   5   6
ENDBRANCH   4   5
ENDBRANCH   3   4
ENDBRANCH   2   3
ENDBRANCH   1   2
BRANCH   1  13
ATOM     13  C   UNL     1     161.471 165.171 186.927  1.00  0.00     0.000 C 
BRANCH  13  14
ATOM     14  C   UNL     1     160.667 164.514 185.790  1.00  0.00     0.000 C 
BRANCH  14  15
ATOM     15  C   UNL     1     161.504 163.528 184.959  1.00  0.00     0.000 C 
BRANCH  15  16
ATOM     16  C   UNL     1     160.789 162.186 184.729  1.00  0.00     0.000 C 
BRANCH  16  17
ATOM     17  C   UNL     1     161.717 160.959 184.857  1.00  0.00     0.000 C 
BRANCH  17  18
ATOM     18  C   UNL     1     163.093 161.208 184.222  1.00  0.00     0.000 C 
BRANCH  18  19
ATOM     19  C   UNL     1     163.446 160.102 183.220  1.00  0.00     0.000 C 
BRANCH  19  20
ATOM     20  C   UNL     1     163.787 160.693 181.847  1.00  0.00     0.006 C 
BRANCH  20  21
ATOM     21  C   UNL     1     163.229 162.113 181.707  1.00  0.00     0.053 C 
BRANCH  21  22
ATOM     22  C   UNL     1     162.060 162.131 180.773  1.00  0.00     0.041 C 
ATOM     23  O   UNL     1     160.889 162.217 181.227  1.00  0.00    -0.550 OA
ATOM     24  O   UNL     1     162.261 162.020 179.403  1.00  0.00    -0.550 OA
ENDBRANCH  21  22
ENDBRANCH  20  21
ENDBRANCH  19  20
ENDBRANCH  18  19
ENDBRANCH  17  18
ENDBRANCH  16  17
ENDBRANCH  15  16
ENDBRANCH  14  15
ENDBRANCH  13  14
ENDBRANCH   1  13
TORSDOF 20
ENDMDL
MODEL 7
REMARK VINA RESULT:    -3.323      2.097      5.065
REMARK INTER + INTRA:         -10.973
REMARK INTER:                  -7.254
REMARK INTRA:                  -3.719
REMARK UNBOUND:                -3.765
REMARK SMILES CCCCCCCCCCCCCCCCCCCCCC(=O)[O-]
REMARK SMILES IDX 12 1 11 2 10 3 9 4 8 5 7 6 6 7 5 8 4 9 3 10 2 11 1 12 13 13
REMARK SMILES IDX 14 14 15 15 16 16 17 17 18 18 19 19 20 20 21 21 22 22 23 23
REMARK SMILES IDX 24 24
REMARK H PARENT
REMARK Flexibility Score: inf
ROOT
ATOM      1  C   UNL     1     166.990 162.114 189.252  1.00  0.00     0.000 C 
ENDROOT
BRANCH   1   2
ATOM      2  C   UNL     1     165.919 163.009 189.901  1.00  0.00     0.000 C 
BRANCH   2   3
ATOM      3  C   UNL     1     165.039 163.727 188.869  1.00  0.00     0.000 C 
BRANCH   3   4
ATOM      4  C   UNL     1     165.786 163.913 187.544  1.00  0.00    -0.000 C 
BRANCH   4   5
ATOM      5  C   UNL     1     165.173 163.044 186.439  1.00  0.00    -0.000 C 
BRANCH   5   6
ATOM      6  C   UNL     1     166.253 162.543 185.468  1.00  0.00    -0.000 C 
BRANCH   6   7
ATOM      7  C   UNL     1     166.356 161.003 185.444  1.00  0.00    -0.000 C 
BRANCH   7   8
ATOM      8  C   UNL     1     165.089 160.307 184.912  1.00  0.00    -0.000 C 
BRANCH   8   9
ATOM      9  C   UNL     1     164.982 160.241 183.376  1.00  0.00    -0.000 C 
BRANCH   9  10
ATOM     10  C   UNL     1     164.067 161.306 182.739  1.00  0.00    -0.000 C 
BRANCH  10  11
ATOM     11  C   UNL     1     162.721 161.521 183.455  1.00  0.00    -0.003 C 
ATOM     12  C   UNL     1     162.363 162.997 183.624  1.00  0.00     0.004 C 
ENDBRANCH  10  11
ENDBRANCH   9  10
ENDBRANCH   8   9
ENDBRANCH   7   8
ENDBRANCH   6   7
ENDBRANCH   5   6
ENDBRANCH   4   5
ENDBRANCH   3   4
ENDBRANCH   2   3
ENDBRANCH   1   2
BRANCH   1  13
ATOM     13  C   UNL     1     166.648 160.611 189.205  1.00  0.00     0.000 C 
BRANCH  13  14
ATOM     14  C   UNL     1     165.210 160.249 189.617  1.00  0.00     0.000 C 
BRANCH  14  15
ATOM     15  C   UNL     1     164.264 160.099 188.415  1.00  0.00     0.000 C 
BRANCH  15  16
ATOM     16  C   UNL     1     162.942 160.864 188.599  1.00  0.00     0.000 C 
BRANCH  16  17
ATOM     17  C   UNL     1     162.191 161.130 187.276  1.00  0.00     0.000 C 
BRANCH  17  18
ATOM     18  C   UNL     1     161.545 162.523 187.250  1.00  0.00     0.000 C 
BRANCH  18  19
ATOM     19  C   UNL     1     160.955 162.882 188.618  1.00  0.00     0.000 C 
BRANCH  19  20
ATOM     20  C   UNL     1     159.890 163.978 188.487  1.00  0.00     0.006 C 
BRANCH  20  21
ATOM     21  C   UNL     1     160.034 164.726 187.158  1.00  0.00     0.053 C 
BRANCH  21  22
ATOM     22  C   UNL     1     160.623 166.084 187.377  1.00  0.00     0.041 C 
ATOM     23  O   UNL     1     159.875 167.065 187.626  1.00  0.00    -0.550 OA
ATOM     24  O   UNL     1     161.996 166.272 187.275  1.00  0.00    -0.550 OA
ENDBRANCH  21  22
ENDBRANCH  20  21
ENDBRANCH  19  20
ENDBRANCH  18  19
ENDBRANCH  17  18
ENDBRANCH  16  17
ENDBRANCH  15  16
ENDBRANCH  14  15
ENDBRANCH  13  14
ENDBRANCH   1  13
TORSDOF 20
ENDMDL
MODEL 8
REMARK VINA RESULT:    -2.417      1.540      4.412
REMARK INTER + INTRA:          -9.008
REMARK INTER:                  -5.131
REMARK INTRA:                  -3.877
REMARK UNBOUND:                -3.765
REMARK SMILES CCCCCCCCCCCCCCCCCCCCCC(=O)[O-]
REMARK SMILES IDX 12 1 11 2 10 3 9 4 8 5 7 6 6 7 5 8 4 9 3 10 2 11 1 12 13 13
REMARK SMILES IDX 14 14 15 15 16 16 17 17 18 18 19 19 20 20 21 21 22 22 23 23
REMARK SMILES IDX 24 24
REMARK H PARENT
REMARK Flexibility Score: inf
ROOT
ATOM      1  C   UNL     1     160.114 164.125 186.674  1.00  0.00     0.000 C 
ENDROOT
BRANCH   1   2
ATOM      2  C   UNL     1     159.875 163.840 188.168  1.00  0.00     0.000 C 
BRANCH   2   3
ATOM      3  C   UNL     1     160.912 162.877 188.763  1.00  0.00     0.000 C 
BRANCH   3   4
ATOM      4  C   UNL     1     162.285 163.550 188.876  1.00  0.00    -0.000 C 
BRANCH   4   5
ATOM      5  C   UNL     1     163.404 162.594 188.443  1.00  0.00    -0.000 C 
BRANCH   5   6
ATOM      6  C   UNL     1     162.938 161.132 188.513  1.00  0.00    -0.000 C 
BRANCH   6   7
ATOM      7  C   UNL     1     164.108 160.133 188.386  1.00  0.00    -0.000 C 
BRANCH   7   8
ATOM      8  C   UNL     1     165.081 160.167 189.580  1.00  0.00    -0.000 C 
BRANCH   8   9
ATOM      9  C   UNL     1     166.539 160.512 189.218  1.00  0.00    -0.000 C 
BRANCH   9  10
ATOM     10  C   UNL     1     166.907 162.004 189.347  1.00  0.00    -0.000 C 
BRANCH  10  11
ATOM     11  C   UNL     1     167.166 162.728 188.015  1.00  0.00    -0.003 C 
ATOM     12  C   UNL     1     167.595 164.183 188.199  1.00  0.00     0.004 C 
ENDBRANCH  10  11
ENDBRANCH   9  10
ENDBRANCH   8   9
ENDBRANCH   7   8
ENDBRANCH   6   7
ENDBRANCH   5   6
ENDBRANCH   4   5
ENDBRANCH   3   4
ENDBRANCH   2   3
ENDBRANCH   1   2
BRANCH   1  13
ATOM     13  C   UNL     1     159.896 162.921 185.734  1.00  0.00     0.000 C 
BRANCH  13  14
ATOM     14  C   UNL     1     160.454 163.088 184.309  1.00  0.00     0.000 C 
BRANCH  14  15
ATOM     15  C   UNL     1     161.434 161.971 183.916  1.00  0.00     0.000 C 
BRANCH  15  16
ATOM     16  C   UNL     1     162.296 161.492 185.097  1.00  0.00     0.000 C 
BRANCH  16  17
ATOM     17  C   UNL     1     163.692 160.984 184.678  1.00  0.00     0.000 C 
BRANCH  17  18
ATOM     18  C   UNL     1     164.815 161.899 185.189  1.00  0.00     0.000 C 
BRANCH  18  19
ATOM     19  C   UNL     1     164.741 163.283 184.533  1.00  0.00     0.000 C 
BRANCH  19  20
ATOM     20  C   UNL     1     164.842 164.396 185.582  1.00  0.00     0.006 C 
BRANCH  20  21
ATOM     21  C   UNL     1     163.530 165.182 185.676  1.00  0.00     0.053 C 
BRANCH  21  22
ATOM     22  C   UNL     1     163.602 166.201 186.770  1.00  0.00     0.041 C 
ATOM     23  O   UNL     1     162.899 167.243 186.711  1.00  0.00    -0.550 OA
ATOM     24  O   UNL     1     164.471 166.015 187.838  1.00  0.00    -0.550 OA
ENDBRANCH  21  22
ENDBRANCH  20  21
ENDBRANCH  19  20
ENDBRANCH  18  19
ENDBRANCH  17  18
ENDBRANCH  16  17
ENDBRANCH  15  16
ENDBRANCH  14  15
ENDBRANCH  13  14
ENDBRANCH   1  13
TORSDOF 20
ENDMDL
