MODEL 1
REMARK VINA RESULT:    -3.587      0.000      0.000
REMARK INTER + INTRA:          -4.594
REMARK INTER:                  -4.321
REMARK INTRA:                  -0.274
REMARK UNBOUND:                -0.274
REMARK SMILES NC(=O)C[C@H]([NH3+])C(=O)[O-]
REMARK SMILES IDX 4 1 5 2 6 3 7 7 8 8 9 9 2 10 3 11 1 12
REMARK H PARENT 6 4 6 5 6 6 1 13 1 14
REMARK Flexibility Score: inf
ROOT
ATOM      1  C   UNL     1      17.340  30.368  44.237  1.00  0.00     0.171 C 
ENDROOT
BRANCH   1   2
ATOM      2  C   UNL     1      18.447  30.977  45.125  1.00  0.00     0.237 C 
BRANCH   2   3
ATOM      3  N   UNL     1      18.426  32.447  45.095  1.00  0.00    -0.350 N 
ATOM      4  H   UNL     1      18.645  32.820  46.048  1.00  0.00     0.345 HD
ATOM      5  H   UNL     1      17.473  32.782  44.823  1.00  0.00     0.345 HD
ATOM      6  H   UNL     1      19.128  32.821  44.416  1.00  0.00     0.345 HD
ENDBRANCH   2   3
BRANCH   2   7
ATOM      7  C   UNL     1      19.807  30.439  44.759  1.00  0.00     0.100 C 
ATOM      8  O   UNL     1      20.705  31.204  44.316  1.00  0.00    -0.544 OA
ATOM      9  O   UNL     1      20.060  29.077  44.859  1.00  0.00    -0.544 OA
ENDBRANCH   2   7
ENDBRANCH   1   2
BRANCH   1  10
ATOM     10  C   UNL     1      17.602  30.532  42.766  1.00  0.00     0.223 C 
ATOM     11  O   UNL     1      17.174  31.554  42.163  1.00  0.00    -0.275 OA
ATOM     12  N   UNL     1      18.314  29.530  42.040  1.00  0.00    -0.369 N 
ATOM     13  H   UNL     1      18.485  29.643  41.016  1.00  0.00     0.159 HD
ATOM     14  H   UNL     1      18.669  28.675  42.520  1.00  0.00     0.159 HD
ENDBRANCH   1  10
TORSDOF 4
ENDMDL
MODEL 2
REMARK VINA RESULT:    -3.547     23.134     23.968
REMARK INTER + INTRA:          -4.546
REMARK INTER:                  -4.314
REMARK INTRA:                  -0.232
REMARK UNBOUND:                -0.274
REMARK SMILES NC(=O)C[C@H]([NH3+])C(=O)[O-]
REMARK SMILES IDX 4 1 5 2 6 3 7 7 8 8 9 9 2 10 3 11 1 12
REMARK H PARENT 6 4 6 5 6 6 1 13 1 14
REMARK Flexibility Score: inf
ROOT
ATOM      1  C   UNL     1      17.774  46.767  24.921  1.00  0.00     0.171 C 
ENDROOT
BRANCH   1   2
ATOM      2  C   UNL     1      18.087  47.299  26.336  1.00  0.00     0.237 C 
BRANCH   2   3
ATOM      3  N   UNL     1      18.240  48.761  26.349  1.00  0.00    -0.350 N 
ATOM      4  H   UNL     1      18.454  49.100  25.382  1.00  0.00     0.345 HD
ATOM      5  H   UNL     1      19.037  49.028  26.972  1.00  0.00     0.345 HD
ATOM      6  H   UNL     1      17.369  49.230  26.687  1.00  0.00     0.345 HD
ENDBRANCH   2   3
BRANCH   2   7
ATOM      7  C   UNL     1      19.292  46.615  26.930  1.00  0.00     0.100 C 
ATOM      8  O   UNL     1      19.369  45.358  26.964  1.00  0.00    -0.544 OA
ATOM      9  O   UNL     1      20.308  47.376  27.495  1.00  0.00    -0.544 OA
ENDBRANCH   2   7
ENDBRANCH   1   2
BRANCH   1  10
ATOM     10  C   UNL     1      16.730  45.685  24.910  1.00  0.00     0.223 C 
ATOM     11  O   UNL     1      15.508  45.994  24.948  1.00  0.00    -0.275 OA
ATOM     12  N   UNL     1      17.110  44.309  24.878  1.00  0.00    -0.369 N 
ATOM     13  H   UNL     1      16.382  43.561  24.881  1.00  0.00     0.159 HD
ATOM     14  H   UNL     1      18.117  44.035  24.855  1.00  0.00     0.159 HD
ENDBRANCH   1  10
TORSDOF 4
ENDMDL
MODEL 3
REMARK VINA RESULT:    -3.547      1.055      3.764
REMARK INTER + INTRA:          -4.546
REMARK INTER:                  -4.207
REMARK INTRA:                  -0.339
REMARK UNBOUND:                -0.274
REMARK SMILES NC(=O)C[C@H]([NH3+])C(=O)[O-]
REMARK SMILES IDX 4 1 5 2 6 3 7 7 8 8 9 9 2 10 3 11 1 12
REMARK H PARENT 6 4 6 5 6 6 1 13 1 14
REMARK Flexibility Score: inf
ROOT
ATOM      1  C   UNL     1      17.425  30.374  43.949  1.00  0.00     0.171 C 
ENDROOT
BRANCH   1   2
ATOM      2  C   UNL     1      17.778  30.027  42.487  1.00  0.00     0.237 C 
BRANCH   2   3
ATOM      3  N   UNL     1      19.094  29.380  42.380  1.00  0.00    -0.350 N 
ATOM      4  H   UNL     1      19.100  28.501  42.948  1.00  0.00     0.345 HD
ATOM      5  H   UNL     1      19.833  30.017  42.757  1.00  0.00     0.345 HD
ATOM      6  H   UNL     1      19.321  29.143  41.387  1.00  0.00     0.345 HD
ENDBRANCH   2   3
BRANCH   2   7
ATOM      7  C   UNL     1      17.688  31.239  41.594  1.00  0.00     0.100 C 
ATOM      8  O   UNL     1      16.890  32.177  41.859  1.00  0.00    -0.544 OA
ATOM      9  O   UNL     1      18.453  31.301  40.436  1.00  0.00    -0.544 OA
ENDBRANCH   2   7
ENDBRANCH   1   2
BRANCH   1  10
ATOM     10  C   UNL     1      18.593  30.905  44.732  1.00  0.00     0.223 C 
ATOM     11  O   UNL     1      19.524  30.127  45.074  1.00  0.00    -0.275 OA
ATOM     12  N   UNL     1      18.648  32.281  45.110  1.00  0.00    -0.369 N 
ATOM     13  H   UNL     1      19.456  32.643  45.662  1.00  0.00     0.159 HD
ATOM     14  H   UNL     1      17.882  32.938  44.843  1.00  0.00     0.159 HD
ENDBRANCH   1  10
TORSDOF 4
ENDMDL
MODEL 4
REMARK VINA RESULT:    -3.545      2.049      3.354
REMARK INTER + INTRA:          -4.544
REMARK INTER:                  -4.236
REMARK INTRA:                  -0.308
REMARK UNBOUND:                -0.274
REMARK SMILES NC(=O)C[C@H]([NH3+])C(=O)[O-]
REMARK SMILES IDX 4 1 5 2 6 3 7 7 8 8 9 9 2 10 3 11 1 12
REMARK H PARENT 6 4 6 5 6 6 1 13 1 14
REMARK Flexibility Score: inf
ROOT
ATOM      1  C   UNL     1      19.485  30.009  42.822  1.00  0.00     0.171 C 
ENDROOT
BRANCH   1   2
ATOM      2  C   UNL     1      18.765  31.169  43.543  1.00  0.00     0.237 C 
BRANCH   2   3
ATOM      3  N   UNL     1      19.524  31.647  44.707  1.00  0.00    -0.350 N 
ATOM      4  H   UNL     1      19.209  31.137  45.565  1.00  0.00     0.345 HD
ATOM      5  H   UNL     1      19.347  32.668  44.851  1.00  0.00     0.345 HD
ATOM      6  H   UNL     1      20.551  31.492  44.579  1.00  0.00     0.345 HD
ENDBRANCH   2   3
BRANCH   2   7
ATOM      7  C   UNL     1      17.355  30.792  43.924  1.00  0.00     0.100 C 
ATOM      8  O   UNL     1      16.677  30.016  43.199  1.00  0.00    -0.544 OA
ATOM      9  O   UNL     1      16.776  31.346  45.058  1.00  0.00    -0.544 OA
ENDBRANCH   2   7
ENDBRANCH   1   2
BRANCH   1  10
ATOM     10  C   UNL     1      20.518  29.329  43.678  1.00  0.00     0.223 C 
ATOM     11  O   UNL     1      20.201  28.897  44.819  1.00  0.00    -0.275 OA
ATOM     12  N   UNL     1      21.861  29.184  43.216  1.00  0.00    -0.369 N 
ATOM     13  H   UNL     1      22.577  28.719  43.817  1.00  0.00     0.159 HD
ATOM     14  H   UNL     1      22.144  29.541  42.278  1.00  0.00     0.159 HD
ENDBRANCH   1  10
TORSDOF 4
ENDMDL
MODEL 5
REMARK VINA RESULT:    -3.524      1.744      2.887
REMARK INTER + INTRA:          -4.518
REMARK INTER:                  -4.082
REMARK INTRA:                  -0.437
REMARK UNBOUND:                -0.274
REMARK SMILES NC(=O)C[C@H]([NH3+])C(=O)[O-]
REMARK SMILES IDX 4 1 5 2 6 3 7 7 8 8 9 9 2 10 3 11 1 12
REMARK H PARENT 6 4 6 5 6 6 1 13 1 14
REMARK Flexibility Score: inf
ROOT
ATOM      1  C   UNL     1      19.575  31.768  42.705  1.00  0.00     0.171 C 
ENDROOT
BRANCH   1   2
ATOM      2  C   UNL     1      19.860  30.320  42.255  1.00  0.00     0.237 C 
BRANCH   2   3
ATOM      3  N   UNL     1      18.622  29.546  42.082  1.00  0.00    -0.350 N 
ATOM      4  H   UNL     1      18.021  30.005  41.360  1.00  0.00     0.345 HD
ATOM      5  H   UNL     1      18.090  29.523  42.983  1.00  0.00     0.345 HD
ATOM      6  H   UNL     1      18.827  28.566  41.780  1.00  0.00     0.345 HD
ENDBRANCH   2   3
BRANCH   2   7
ATOM      7  C   UNL     1      20.814  29.627  43.196  1.00  0.00     0.100 C 
ATOM      8  O   UNL     1      20.425  29.217  44.323  1.00  0.00    -0.544 OA
ATOM      9  O   UNL     1      22.150  29.483  42.842  1.00  0.00    -0.544 OA
ENDBRANCH   2   7
ENDBRANCH   1   2
BRANCH   1  10
ATOM     10  C   UNL     1      18.482  31.867  43.733  1.00  0.00     0.223 C 
ATOM     11  O   UNL     1      17.276  31.869  43.366  1.00  0.00    -0.275 OA
ATOM     12  N   UNL     1      18.799  31.979  45.121  1.00  0.00    -0.369 N 
ATOM     13  H   UNL     1      18.036  32.057  45.830  1.00  0.00     0.159 HD
ATOM     14  H   UNL     1      19.791  31.988  45.441  1.00  0.00     0.159 HD
ENDBRANCH   1  10
TORSDOF 4
ENDMDL
MODEL 6
REMARK VINA RESULT:    -3.489     23.398     24.274
REMARK INTER + INTRA:          -4.477
REMARK INTER:                  -4.373
REMARK INTRA:                  -0.104
REMARK UNBOUND:                -0.274
REMARK SMILES NC(=O)C[C@H]([NH3+])C(=O)[O-]
REMARK SMILES IDX 4 1 5 2 6 3 7 7 8 8 9 9 2 10 3 11 1 12
REMARK H PARENT 6 4 6 5 6 6 1 13 1 14
REMARK Flexibility Score: inf
ROOT
ATOM      1  C   UNL     1      17.259  46.904  25.093  1.00  0.00     0.171 C 
ENDROOT
BRANCH   1   2
ATOM      2  C   UNL     1      16.845  45.562  25.735  1.00  0.00     0.237 C 
BRANCH   2   3
ATOM      3  N   UNL     1      17.179  44.417  24.875  1.00  0.00    -0.350 N 
ATOM      4  H   UNL     1      18.184  44.474  24.592  1.00  0.00     0.345 HD
ATOM      5  H   UNL     1      16.593  44.443  24.009  1.00  0.00     0.345 HD
ATOM      6  H   UNL     1      17.017  43.511  25.372  1.00  0.00     0.345 HD
ENDBRANCH   2   3
BRANCH   2   7
ATOM      7  C   UNL     1      15.385  45.558  26.113  1.00  0.00     0.100 C 
ATOM      8  O   UNL     1      14.517  45.091  25.329  1.00  0.00    -0.544 OA
ATOM      9  O   UNL     1      14.983  46.122  27.318  1.00  0.00    -0.544 OA
ENDBRANCH   2   7
ENDBRANCH   1   2
BRANCH   1  10
ATOM     10  C   UNL     1      18.209  47.701  25.942  1.00  0.00     0.223 C 
ATOM     11  O   UNL     1      18.964  47.110  26.761  1.00  0.00    -0.275 OA
ATOM     12  N   UNL     1      18.250  49.125  25.844  1.00  0.00    -0.369 N 
ATOM     13  H   UNL     1      18.905  49.675  26.443  1.00  0.00     0.159 HD
ATOM     14  H   UNL     1      17.627  49.631  25.178  1.00  0.00     0.159 HD
ENDBRANCH   1  10
TORSDOF 4
ENDMDL
MODEL 7
REMARK VINA RESULT:    -3.381      2.123      3.176
REMARK INTER + INTRA:          -4.346
REMARK INTER:                  -4.004
REMARK INTRA:                  -0.342
REMARK UNBOUND:                -0.274
REMARK SMILES NC(=O)C[C@H]([NH3+])C(=O)[O-]
REMARK SMILES IDX 4 1 5 2 6 3 7 7 8 8 9 9 2 10 3 11 1 12
REMARK H PARENT 6 4 6 5 6 6 1 13 1 14
REMARK Flexibility Score: inf
ROOT
ATOM      1  C   UNL     1      20.015  30.402  44.537  1.00  0.00     0.171 C 
ENDROOT
BRANCH   1   2
ATOM      2  C   UNL     1      18.507  30.251  44.245  1.00  0.00     0.237 C 
BRANCH   2   3
ATOM      3  N   UNL     1      18.260  29.750  42.885  1.00  0.00    -0.350 N 
ATOM      4  H   UNL     1      18.829  30.300  42.201  1.00  0.00     0.345 HD
ATOM      5  H   UNL     1      17.250  29.870  42.642  1.00  0.00     0.345 HD
ATOM      6  H   UNL     1      18.515  28.739  42.802  1.00  0.00     0.345 HD
ENDBRANCH   2   3
BRANCH   2   7
ATOM      7  C   UNL     1      17.763  31.537  44.500  1.00  0.00     0.100 C 
ATOM      8  O   UNL     1      18.274  32.649  44.197  1.00  0.00    -0.544 OA
ATOM      9  O   UNL     1      16.522  31.505  45.124  1.00  0.00    -0.544 OA
ENDBRANCH   2   7
ENDBRANCH   1   2
BRANCH   1  10
ATOM     10  C   UNL     1      20.875  30.254  43.313  1.00  0.00     0.223 C 
ATOM     11  O   UNL     1      20.701  31.021  42.327  1.00  0.00    -0.275 OA
ATOM     12  N   UNL     1      21.877  29.238  43.248  1.00  0.00    -0.369 N 
ATOM     13  H   UNL     1      22.465  29.132  42.392  1.00  0.00     0.159 HD
ATOM     14  H   UNL     1      22.030  28.589  44.051  1.00  0.00     0.159 HD
ENDBRANCH   1  10
TORSDOF 4
ENDMDL
MODEL 8
REMARK VINA RESULT:    -3.373     22.617     23.794
REMARK INTER + INTRA:          -4.337
REMARK INTER:                  -4.003
REMARK INTRA:                  -0.333
REMARK UNBOUND:                -0.274
REMARK SMILES NC(=O)C[C@H]([NH3+])C(=O)[O-]
REMARK SMILES IDX 4 1 5 2 6 3 7 7 8 8 9 9 2 10 3 11 1 12
REMARK H PARENT 6 4 6 5 6 6 1 13 1 14
REMARK Flexibility Score: inf
ROOT
ATOM      1  C   UNL     1      17.153  46.941  25.283  1.00  0.00     0.171 C 
ENDROOT
BRANCH   1   2
ATOM      2  C   UNL     1      16.107  46.240  26.175  1.00  0.00     0.237 C 
BRANCH   2   3
ATOM      3  N   UNL     1      16.008  46.868  27.501  1.00  0.00    -0.350 N 
ATOM      4  H   UNL     1      15.488  47.773  27.422  1.00  0.00     0.345 HD
ATOM      5  H   UNL     1      16.966  47.073  27.867  1.00  0.00     0.345 HD
ATOM      6  H   UNL     1      15.508  46.248  28.177  1.00  0.00     0.345 HD
ENDBRANCH   2   3
BRANCH   2   7
ATOM      7  C   UNL     1      16.379  44.761  26.287  1.00  0.00     0.100 C 
ATOM      8  O   UNL     1      16.738  44.093  25.280  1.00  0.00    -0.544 OA
ATOM      9  O   UNL     1      16.181  44.113  27.500  1.00  0.00    -0.544 OA
ENDBRANCH   2   7
ENDBRANCH   1   2
BRANCH   1  10
ATOM     10  C   UNL     1      18.189  47.700  26.066  1.00  0.00     0.223 C 
ATOM     11  O   UNL     1      19.000  47.075  26.802  1.00  0.00    -0.275 OA
ATOM     12  N   UNL     1      18.250  49.125  25.998  1.00  0.00    -0.369 N 
ATOM     13  H   UNL     1      18.964  49.648  26.551  1.00  0.00     0.159 HD
ATOM     14  H   UNL     1      17.581  49.659  25.401  1.00  0.00     0.159 HD
ENDBRANCH   1  10
TORSDOF 4
ENDMDL
