MODEL 1
REMARK VINA RESULT:    -5.967      0.000      0.000
REMARK INTER + INTRA:          -7.715
REMARK INTER:                  -7.363
REMARK INTRA:                  -0.352
REMARK UNBOUND:                -0.352
REMARK SMILES O=c1c(O)c(-c2cc(O)c(O)c(O)c2)oc2cc(O)cc(O)c12
REMARK SMILES IDX 5 1 3 2 2 3 1 4 23 5 21 6 20 7 18 8 17 9 16 10 15 11 6 12
REMARK SMILES IDX 7 13 8 14 14 15 10 16 12 17 9 18 11 20 13 22 4 24 22 26
REMARK SMILES IDX 19 28
REMARK H PARENT 9 19 11 21 13 23 4 25 22 27 19 29
REMARK Flexibility Score: inf
ROOT
ATOM      1  C   UNL     1      69.945  47.551   6.918  1.00  0.00     0.180 A 
ATOM      2  C   UNL     1      70.419  48.255   5.798  1.00  0.00     0.208 A 
ATOM      3  C   UNL     1      71.654  47.891   5.238  1.00  0.00     0.238 A 
ATOM      4  O   UNL     1      72.047  48.489   4.202  1.00  0.00    -0.285 OA
ATOM      5  C   UNL     1      72.408  46.840   5.816  1.00  0.00     0.111 A 
ATOM      6  C   UNL     1      73.690  46.416   5.356  1.00  0.00     0.134 A 
ATOM      7  C   UNL     1      74.285  45.281   5.922  1.00  0.00     0.093 A 
ATOM      8  C   UNL     1      73.676  44.596   6.972  1.00  0.00     0.123 A 
ATOM      9  C   UNL     1      72.449  45.039   7.470  1.00  0.00     0.094 A 
ATOM     10  C   UNL     1      71.814  46.145   6.902  1.00  0.00     0.146 A 
ATOM     11  O   UNL     1      70.644  46.528   7.397  1.00  0.00    -0.452 OA
ENDROOT
BRANCH   1  12
ATOM     12  C   UNL     1      68.664  47.892   7.579  1.00  0.00     0.029 A 
ATOM     13  C   UNL     1      67.466  47.253   7.221  1.00  0.00     0.062 A 
ATOM     14  C   UNL     1      66.261  47.604   7.842  1.00  0.00     0.162 A 
ATOM     15  C   UNL     1      68.631  48.911   8.540  1.00  0.00     0.062 A 
ATOM     16  C   UNL     1      66.234  48.609   8.820  1.00  0.00     0.200 A 
ATOM     17  C   UNL     1      67.434  49.273   9.169  1.00  0.00     0.162 A 
BRANCH  14  18
ATOM     18  O   UNL     1      65.076  46.960   7.487  1.00  0.00    -0.504 OA
ATOM     19  H   UNL     1      64.276  47.475   7.138  1.00  0.00     0.293 HD
ENDBRANCH  14  18
BRANCH  16  20
ATOM     20  O   UNL     1      65.007  48.916   9.412  1.00  0.00    -0.502 OA
ATOM     21  H   UNL     1      64.899  49.530  10.206  1.00  0.00     0.293 HD
ENDBRANCH  16  20
BRANCH  17  22
ATOM     22  O   UNL     1      67.483  50.291  10.125  1.00  0.00    -0.504 OA
ATOM     23  H   UNL     1      67.846  50.173  11.059  1.00  0.00     0.293 HD
ENDBRANCH  17  22
ENDBRANCH   1  12
BRANCH   2  24
ATOM     24  O   UNL     1      69.648  49.274   5.231  1.00  0.00    -0.502 OA
ATOM     25  H   UNL     1      69.891  49.714   4.352  1.00  0.00     0.293 HD
ENDBRANCH   2  24
BRANCH   6  26
ATOM     26  O   UNL     1      74.429  47.084   4.374  1.00  0.00    -0.507 OA
ATOM     27  H   UNL     1      75.346  46.809   4.060  1.00  0.00     0.293 HD
ENDBRANCH   6  26
BRANCH   8  28
ATOM     28  O   UNL     1      74.304  43.481   7.521  1.00  0.00    -0.508 OA
ATOM     29  H   UNL     1      75.098  43.043   7.069  1.00  0.00     0.293 HD
ENDBRANCH   8  28
TORSDOF 7
ENDMDL
MODEL 2
REMARK VINA RESULT:    -5.681      1.997      3.356
REMARK INTER + INTRA:          -7.362
REMARK INTER:                  -7.433
REMARK INTRA:                   0.071
REMARK UNBOUND:                -0.352
REMARK SMILES O=c1c(O)c(-c2cc(O)c(O)c(O)c2)oc2cc(O)cc(O)c12
REMARK SMILES IDX 5 1 3 2 2 3 1 4 23 5 21 6 20 7 18 8 17 9 16 10 15 11 6 12
REMARK SMILES IDX 7 13 8 14 14 15 10 16 12 17 9 18 11 20 13 22 4 24 22 26
REMARK SMILES IDX 19 28
REMARK H PARENT 9 19 11 21 13 23 4 25 22 27 19 29
REMARK Flexibility Score: inf
ROOT
ATOM      1  C   UNL     1      69.527  47.612   7.892  1.00  0.00     0.180 A 
ATOM      2  C   UNL     1      70.291  48.176   8.928  1.00  0.00     0.208 A 
ATOM      3  C   UNL     1      71.665  48.384   8.727  1.00  0.00     0.238 A 
ATOM      4  O   UNL     1      72.331  48.940   9.638  1.00  0.00    -0.285 OA
ATOM      5  C   UNL     1      72.261  48.010   7.498  1.00  0.00     0.111 A 
ATOM      6  C   UNL     1      73.651  48.137   7.200  1.00  0.00     0.134 A 
ATOM      7  C   UNL     1      74.108  47.856   5.906  1.00  0.00     0.093 A 
ATOM      8  C   UNL     1      73.240  47.391   4.920  1.00  0.00     0.123 A 
ATOM      9  C   UNL     1      71.888  47.206   5.218  1.00  0.00     0.094 A 
ATOM     10  C   UNL     1      71.396  47.512   6.488  1.00  0.00     0.146 A 
ATOM     11  O   UNL     1      70.103  47.332   6.727  1.00  0.00    -0.452 OA
ENDROOT
BRANCH   1  12
ATOM     12  C   UNL     1      68.079  47.340   8.037  1.00  0.00     0.029 A 
ATOM     13  C   UNL     1      67.215  48.278   8.624  1.00  0.00     0.062 A 
ATOM     14  C   UNL     1      65.853  47.994   8.774  1.00  0.00     0.162 A 
ATOM     15  C   UNL     1      67.564  46.099   7.635  1.00  0.00     0.062 A 
ATOM     16  C   UNL     1      65.336  46.761   8.349  1.00  0.00     0.200 A 
ATOM     17  C   UNL     1      66.205  45.801   7.778  1.00  0.00     0.162 A 
BRANCH  14  18
ATOM     18  O   UNL     1      65.000  48.934   9.351  1.00  0.00    -0.504 OA
ATOM     19  H   UNL     1      65.151  49.281  10.291  1.00  0.00     0.293 HD
ENDBRANCH  14  18
BRANCH  16  20
ATOM     20  O   UNL     1      63.968  46.531   8.515  1.00  0.00    -0.502 OA
ATOM     21  H   UNL     1      63.439  45.854   7.985  1.00  0.00     0.293 HD
ENDBRANCH  16  20
BRANCH  17  22
ATOM     22  O   UNL     1      65.764  44.549   7.344  1.00  0.00    -0.504 OA
ATOM     23  H   UNL     1      66.223  44.004   6.629  1.00  0.00     0.293 HD
ENDBRANCH  17  22
ENDBRANCH   1  12
BRANCH   2  24
ATOM     24  O   UNL     1      69.677  48.558  10.124  1.00  0.00    -0.502 OA
ATOM     25  H   UNL     1      70.013  49.332  10.684  1.00  0.00     0.293 HD
ENDBRANCH   2  24
BRANCH   6  26
ATOM     26  O   UNL     1      74.620  48.505   8.139  1.00  0.00    -0.507 OA
ATOM     27  H   UNL     1      75.587  48.691   7.922  1.00  0.00     0.293 HD
ENDBRANCH   6  26
BRANCH   8  28
ATOM     28  O   UNL     1      73.732  47.107   3.649  1.00  0.00    -0.508 OA
ATOM     29  H   UNL     1      73.816  46.155   3.313  1.00  0.00     0.293 HD
ENDBRANCH   8  28
TORSDOF 7
ENDMDL
MODEL 3
REMARK VINA RESULT:    -5.626      1.327      7.051
REMARK INTER + INTRA:          -7.294
REMARK INTER:                  -7.225
REMARK INTRA:                  -0.069
REMARK UNBOUND:                -0.352
REMARK SMILES O=c1c(O)c(-c2cc(O)c(O)c(O)c2)oc2cc(O)cc(O)c12
REMARK SMILES IDX 5 1 3 2 2 3 1 4 23 5 21 6 20 7 18 8 17 9 16 10 15 11 6 12
REMARK SMILES IDX 7 13 8 14 14 15 10 16 12 17 9 18 11 20 13 22 4 24 22 26
REMARK SMILES IDX 19 28
REMARK H PARENT 9 19 11 21 13 23 4 25 22 27 19 29
REMARK Flexibility Score: inf
ROOT
ATOM      1  C   UNL     1      70.731  47.586   7.259  1.00  0.00     0.180 A 
ATOM      2  C   UNL     1      70.921  48.580   8.235  1.00  0.00     0.208 A 
ATOM      3  C   UNL     1      69.800  49.123   8.882  1.00  0.00     0.238 A 
ATOM      4  O   UNL     1      69.980  49.972   9.793  1.00  0.00    -0.285 OA
ATOM      5  C   UNL     1      68.501  48.677   8.534  1.00  0.00     0.111 A 
ATOM      6  C   UNL     1      67.292  49.187   9.096  1.00  0.00     0.134 A 
ATOM      7  C   UNL     1      66.072  48.581   8.772  1.00  0.00     0.093 A 
ATOM      8  C   UNL     1      66.008  47.530   7.858  1.00  0.00     0.123 A 
ATOM      9  C   UNL     1      67.179  47.063   7.257  1.00  0.00     0.094 A 
ATOM     10  C   UNL     1      68.415  47.623   7.588  1.00  0.00     0.146 A 
ATOM     11  O   UNL     1      69.505  47.143   7.002  1.00  0.00    -0.452 OA
ENDROOT
BRANCH   1  12
ATOM     12  C   UNL     1      71.861  46.984   6.517  1.00  0.00     0.029 A 
ATOM     13  C   UNL     1      72.083  45.598   6.523  1.00  0.00     0.062 A 
ATOM     14  C   UNL     1      73.171  45.049   5.833  1.00  0.00     0.162 A 
ATOM     15  C   UNL     1      72.765  47.815   5.839  1.00  0.00     0.062 A 
ATOM     16  C   UNL     1      74.061  45.881   5.136  1.00  0.00     0.200 A 
ATOM     17  C   UNL     1      73.856  47.281   5.145  1.00  0.00     0.162 A 
BRANCH  14  18
ATOM     18  O   UNL     1      73.380  43.670   5.837  1.00  0.00    -0.504 OA
ATOM     19  H   UNL     1      73.890  43.209   5.093  1.00  0.00     0.293 HD
ENDBRANCH  14  18
BRANCH  16  20
ATOM     20  O   UNL     1      75.125  45.281   4.459  1.00  0.00    -0.502 OA
ATOM     21  H   UNL     1      75.872  45.792   4.012  1.00  0.00     0.293 HD
ENDBRANCH  16  20
BRANCH  17  22
ATOM     22  O   UNL     1      74.706  48.171   4.485  1.00  0.00    -0.504 OA
ATOM     23  H   UNL     1      75.708  48.189   4.602  1.00  0.00     0.293 HD
ENDBRANCH  17  22
ENDBRANCH   1  12
BRANCH   2  24
ATOM     24  O   UNL     1      72.213  48.988   8.579  1.00  0.00    -0.502 OA
ATOM     25  H   UNL     1      73.022  48.766   8.011  1.00  0.00     0.293 HD
ENDBRANCH   2  24
BRANCH   6  26
ATOM     26  O   UNL     1      67.233  50.294   9.948  1.00  0.00    -0.507 OA
ATOM     27  H   UNL     1      67.808  50.420  10.766  1.00  0.00     0.293 HD
ENDBRANCH   6  26
BRANCH   8  28
ATOM     28  O   UNL     1      64.776  46.962   7.548  1.00  0.00    -0.508 OA
ATOM     29  H   UNL     1      64.702  46.154   6.941  1.00  0.00     0.293 HD
ENDBRANCH   8  28
TORSDOF 7
ENDMDL
MODEL 4
REMARK VINA RESULT:    -5.565      4.597      5.998
REMARK INTER + INTRA:          -7.219
REMARK INTER:                  -6.860
REMARK INTRA:                  -0.359
REMARK UNBOUND:                -0.352
REMARK SMILES O=c1c(O)c(-c2cc(O)c(O)c(O)c2)oc2cc(O)cc(O)c12
REMARK SMILES IDX 5 1 3 2 2 3 1 4 23 5 21 6 20 7 18 8 17 9 16 10 15 11 6 12
REMARK SMILES IDX 7 13 8 14 14 15 10 16 12 17 9 18 11 20 13 22 4 24 22 26
REMARK SMILES IDX 19 28
REMARK H PARENT 9 19 11 21 13 23 4 25 22 27 19 29
REMARK Flexibility Score: inf
ROOT
ATOM      1  C   UNL     1      68.917  43.532   7.286  1.00  0.00     0.180 A 
ATOM      2  C   UNL     1      68.469  42.733   8.352  1.00  0.00     0.208 A 
ATOM      3  C   UNL     1      68.553  41.336   8.239  1.00  0.00     0.238 A 
ATOM      4  O   UNL     1      68.201  40.629   9.219  1.00  0.00    -0.285 OA
ATOM      5  C   UNL     1      69.068  40.755   7.055  1.00  0.00     0.111 A 
ATOM      6  C   UNL     1      69.161  39.351   6.816  1.00  0.00     0.134 A 
ATOM      7  C   UNL     1      69.808  38.889   5.663  1.00  0.00     0.093 A 
ATOM      8  C   UNL     1      70.305  39.776   4.710  1.00  0.00     0.123 A 
ATOM      9  C   UNL     1      70.166  41.152   4.905  1.00  0.00     0.094 A 
ATOM     10  C   UNL     1      69.559  41.643   6.063  1.00  0.00     0.146 A 
ATOM     11  O   UNL     1      69.456  42.958   6.215  1.00  0.00    -0.452 OA
ENDROOT
BRANCH   1  12
ATOM     12  C   UNL     1      68.838  45.010   7.321  1.00  0.00     0.029 A 
ATOM     13  C   UNL     1      67.660  45.687   6.969  1.00  0.00     0.062 A 
ATOM     14  C   UNL     1      67.612  47.086   6.987  1.00  0.00     0.162 A 
ATOM     15  C   UNL     1      69.978  45.755   7.656  1.00  0.00     0.062 A 
ATOM     16  C   UNL     1      68.747  47.829   7.345  1.00  0.00     0.200 A 
ATOM     17  C   UNL     1      69.945  47.154   7.678  1.00  0.00     0.162 A 
BRANCH  14  18
ATOM     18  O   UNL     1      66.436  47.752   6.644  1.00  0.00    -0.504 OA
ATOM     19  H   UNL     1      66.139  48.590   7.129  1.00  0.00     0.293 HD
ENDBRANCH  14  18
BRANCH  16  20
ATOM     20  O   UNL     1      68.642  49.222   7.353  1.00  0.00    -0.502 OA
ATOM     21  H   UNL     1      67.791  49.727   7.154  1.00  0.00     0.293 HD
ENDBRANCH  16  20
BRANCH  17  22
ATOM     22  O   UNL     1      71.116  47.827   8.033  1.00  0.00    -0.504 OA
ATOM     23  H   UNL     1      71.958  47.828   7.477  1.00  0.00     0.293 HD
ENDBRANCH  17  22
ENDBRANCH   1  12
BRANCH   2  24
ATOM     24  O   UNL     1      67.984  43.329   9.520  1.00  0.00    -0.502 OA
ATOM     25  H   UNL     1      67.171  42.979  10.011  1.00  0.00     0.293 HD
ENDBRANCH   2  24
BRANCH   6  26
ATOM     26  O   UNL     1      68.615  38.377   7.658  1.00  0.00    -0.507 OA
ATOM     27  H   UNL     1      67.823  38.522   8.264  1.00  0.00     0.293 HD
ENDBRANCH   6  26
BRANCH   8  28
ATOM     28  O   UNL     1      70.929  39.281   3.568  1.00  0.00    -0.508 OA
ATOM     29  H   UNL     1      71.028  38.286   3.407  1.00  0.00     0.293 HD
ENDBRANCH   8  28
TORSDOF 7
ENDMDL
MODEL 5
REMARK VINA RESULT:    -5.557      2.185      7.293
REMARK INTER + INTRA:          -7.209
REMARK INTER:                  -6.909
REMARK INTRA:                  -0.300
REMARK UNBOUND:                -0.352
REMARK SMILES O=c1c(O)c(-c2cc(O)c(O)c(O)c2)oc2cc(O)cc(O)c12
REMARK SMILES IDX 5 1 3 2 2 3 1 4 23 5 21 6 20 7 18 8 17 9 16 10 15 11 6 12
REMARK SMILES IDX 7 13 8 14 14 15 10 16 12 17 9 18 11 20 13 22 4 24 22 26
REMARK SMILES IDX 19 28
REMARK H PARENT 9 19 11 21 13 23 4 25 22 27 19 29
REMARK Flexibility Score: inf
ROOT
ATOM      1  C   UNL     1      67.797  47.350   8.117  1.00  0.00     0.180 A 
ATOM      2  C   UNL     1      67.148  48.369   8.837  1.00  0.00     0.208 A 
ATOM      3  C   UNL     1      65.862  48.130   9.346  1.00  0.00     0.238 A 
ATOM      4  O   UNL     1      65.310  49.026  10.036  1.00  0.00    -0.285 OA
ATOM      5  C   UNL     1      65.234  46.882   9.116  1.00  0.00     0.111 A 
ATOM      6  C   UNL     1      63.917  46.546   9.551  1.00  0.00     0.134 A 
ATOM      7  C   UNL     1      63.447  45.238   9.381  1.00  0.00     0.093 A 
ATOM      8  C   UNL     1      64.218  44.273   8.735  1.00  0.00     0.123 A 
ATOM      9  C   UNL     1      65.484  44.607   8.252  1.00  0.00     0.094 A 
ATOM     10  C   UNL     1      65.995  45.894   8.439  1.00  0.00     0.146 A 
ATOM     11  O   UNL     1      67.208  46.168   7.975  1.00  0.00    -0.452 OA
ENDROOT
BRANCH   1  12
ATOM     12  C   UNL     1      69.143  47.535   7.529  1.00  0.00     0.029 A 
ATOM     13  C   UNL     1      70.286  46.992   8.135  1.00  0.00     0.062 A 
ATOM     14  C   UNL     1      71.553  47.196   7.576  1.00  0.00     0.162 A 
ATOM     15  C   UNL     1      69.292  48.316   6.374  1.00  0.00     0.062 A 
ATOM     16  C   UNL     1      71.697  47.958   6.407  1.00  0.00     0.200 A 
ATOM     17  C   UNL     1      70.551  48.528   5.802  1.00  0.00     0.162 A 
BRANCH  14  18
ATOM     18  O   UNL     1      72.684  46.647   8.180  1.00  0.00    -0.504 OA
ATOM     19  H   UNL     1      73.591  46.670   7.729  1.00  0.00     0.293 HD
ENDBRANCH  14  18
BRANCH  16  20
ATOM     20  O   UNL     1      72.982  48.125   5.887  1.00  0.00    -0.502 OA
ATOM     21  H   UNL     1      73.189  48.636   5.041  1.00  0.00     0.293 HD
ENDBRANCH  16  20
BRANCH  17  22
ATOM     22  O   UNL     1      70.618  49.308   4.645  1.00  0.00    -0.504 OA
ATOM     23  H   UNL     1      70.040  50.118   4.474  1.00  0.00     0.293 HD
ENDBRANCH  17  22
ENDBRANCH   1  12
BRANCH   2  24
ATOM     24  O   UNL     1      67.797  49.585   9.071  1.00  0.00    -0.502 OA
ATOM     25  H   UNL     1      67.469  50.251   9.759  1.00  0.00     0.293 HD
ENDBRANCH   2  24
BRANCH   6  26
ATOM     26  O   UNL     1      63.027  47.459  10.125  1.00  0.00    -0.507 OA
ATOM     27  H   UNL     1      62.705  47.424  11.080  1.00  0.00     0.293 HD
ENDBRANCH   6  26
BRANCH   8  28
ATOM     28  O   UNL     1      63.712  42.986   8.569  1.00  0.00    -0.508 OA
ATOM     29  H   UNL     1      64.018  42.389   7.810  1.00  0.00     0.293 HD
ENDBRANCH   8  28
TORSDOF 7
ENDMDL
MODEL 6
REMARK VINA RESULT:    -5.550      3.661      6.307
REMARK INTER + INTRA:          -7.200
REMARK INTER:                  -6.893
REMARK INTRA:                  -0.307
REMARK UNBOUND:                -0.352
REMARK SMILES O=c1c(O)c(-c2cc(O)c(O)c(O)c2)oc2cc(O)cc(O)c12
REMARK SMILES IDX 5 1 3 2 2 3 1 4 23 5 21 6 20 7 18 8 17 9 16 10 15 11 6 12
REMARK SMILES IDX 7 13 8 14 14 15 10 16 12 17 9 18 11 20 13 22 4 24 22 26
REMARK SMILES IDX 19 28
REMARK H PARENT 9 19 11 21 13 23 4 25 22 27 19 29
REMARK Flexibility Score: inf
ROOT
ATOM      1  C   UNL     1      69.532  44.914   7.434  1.00  0.00     0.180 A 
ATOM      2  C   UNL     1      68.391  45.731   7.356  1.00  0.00     0.208 A 
ATOM      3  C   UNL     1      68.448  47.034   7.874  1.00  0.00     0.238 A 
ATOM      4  O   UNL     1      67.441  47.778   7.752  1.00  0.00    -0.285 OA
ATOM      5  C   UNL     1      69.641  47.499   8.480  1.00  0.00     0.111 A 
ATOM      6  C   UNL     1      69.799  48.787   9.075  1.00  0.00     0.134 A 
ATOM      7  C   UNL     1      71.062  49.187   9.528  1.00  0.00     0.093 A 
ATOM      8  C   UNL     1      72.156  48.326   9.469  1.00  0.00     0.123 A 
ATOM      9  C   UNL     1      71.999  47.042   8.944  1.00  0.00     0.094 A 
ATOM     10  C   UNL     1      70.760  46.627   8.450  1.00  0.00     0.146 A 
ATOM     11  O   UNL     1      70.655  45.402   7.949  1.00  0.00    -0.452 OA
ENDROOT
BRANCH   1  12
ATOM     12  C   UNL     1      69.541  43.522   6.931  1.00  0.00     0.029 A 
ATOM     13  C   UNL     1      68.888  42.491   7.625  1.00  0.00     0.062 A 
ATOM     14  C   UNL     1      68.927  41.176   7.145  1.00  0.00     0.162 A 
ATOM     15  C   UNL     1      70.262  43.210   5.770  1.00  0.00     0.062 A 
ATOM     16  C   UNL     1      69.630  40.871   5.970  1.00  0.00     0.200 A 
ATOM     17  C   UNL     1      70.309  41.901   5.278  1.00  0.00     0.162 A 
BRANCH  14  18
ATOM     18  O   UNL     1      68.270  40.158   7.836  1.00  0.00    -0.504 OA
ATOM     19  H   UNL     1      68.150  40.191   8.842  1.00  0.00     0.293 HD
ENDBRANCH  14  18
BRANCH  16  20
ATOM     20  O   UNL     1      69.631  39.544   5.533  1.00  0.00    -0.502 OA
ATOM     21  H   UNL     1      69.940  39.250   4.618  1.00  0.00     0.293 HD
ENDBRANCH  16  20
BRANCH  17  22
ATOM     22  O   UNL     1      71.039  41.671   4.110  1.00  0.00    -0.504 OA
ATOM     23  H   UNL     1      71.460  40.785   3.871  1.00  0.00     0.293 HD
ENDBRANCH  17  22
ENDBRANCH   1  12
BRANCH   2  24
ATOM     24  O   UNL     1      67.231  45.259   6.733  1.00  0.00    -0.502 OA
ATOM     25  H   UNL     1      66.343  45.197   7.215  1.00  0.00     0.293 HD
ENDBRANCH   2  24
BRANCH   6  26
ATOM     26  O   UNL     1      68.750  49.691   9.269  1.00  0.00    -0.507 OA
ATOM     27  H   UNL     1      68.785  50.487   9.887  1.00  0.00     0.293 HD
ENDBRANCH   6  26
BRANCH   8  28
ATOM     28  O   UNL     1      73.393  48.752   9.943  1.00  0.00    -0.508 OA
ATOM     29  H   UNL     1      73.963  48.165  10.541  1.00  0.00     0.293 HD
ENDBRANCH   8  28
TORSDOF 7
ENDMDL
MODEL 7
REMARK VINA RESULT:    -5.522      3.135      6.960
REMARK INTER + INTRA:          -7.165
REMARK INTER:                  -7.056
REMARK INTRA:                  -0.109
REMARK UNBOUND:                -0.352
REMARK SMILES O=c1c(O)c(-c2cc(O)c(O)c(O)c2)oc2cc(O)cc(O)c12
REMARK SMILES IDX 5 1 3 2 2 3 1 4 23 5 21 6 20 7 18 8 17 9 16 10 15 11 6 12
REMARK SMILES IDX 7 13 8 14 14 15 10 16 12 17 9 18 11 20 13 22 4 24 22 26
REMARK SMILES IDX 19 28
REMARK H PARENT 9 19 11 21 13 23 4 25 22 27 19 29
REMARK Flexibility Score: inf
ROOT
ATOM      1  C   UNL     1      68.458  47.728   9.017  1.00  0.00     0.180 A 
ATOM      2  C   UNL     1      67.431  48.546   9.517  1.00  0.00     0.208 A 
ATOM      3  C   UNL     1      66.107  48.081   9.475  1.00  0.00     0.238 A 
ATOM      4  O   UNL     1      65.199  48.795   9.975  1.00  0.00    -0.285 OA
ATOM      5  C   UNL     1      65.824  46.810   8.918  1.00  0.00     0.111 A 
ATOM      6  C   UNL     1      64.516  46.255   8.787  1.00  0.00     0.134 A 
ATOM      7  C   UNL     1      64.367  44.937   8.341  1.00  0.00     0.093 A 
ATOM      8  C   UNL     1      65.470  44.175   7.959  1.00  0.00     0.123 A 
ATOM      9  C   UNL     1      66.750  44.729   8.026  1.00  0.00     0.094 A 
ATOM     10  C   UNL     1      66.934  46.029   8.502  1.00  0.00     0.146 A 
ATOM     11  O   UNL     1      68.168  46.514   8.561  1.00  0.00    -0.452 OA
ENDROOT
BRANCH   1  12
ATOM     12  C   UNL     1      69.874  48.159   9.004  1.00  0.00     0.029 A 
ATOM     13  C   UNL     1      70.266  49.363   8.398  1.00  0.00     0.062 A 
ATOM     14  C   UNL     1      71.613  49.743   8.377  1.00  0.00     0.162 A 
ATOM     15  C   UNL     1      70.856  47.325   9.557  1.00  0.00     0.062 A 
ATOM     16  C   UNL     1      72.591  48.917   8.952  1.00  0.00     0.200 A 
ATOM     17  C   UNL     1      72.206  47.691   9.545  1.00  0.00     0.162 A 
BRANCH  14  18
ATOM     18  O   UNL     1      71.993  50.944   7.779  1.00  0.00    -0.504 OA
ATOM     19  H   UNL     1      72.351  51.719   8.326  1.00  0.00     0.293 HD
ENDBRANCH  14  18
BRANCH  16  20
ATOM     20  O   UNL     1      73.919  49.347   8.909  1.00  0.00    -0.502 OA
ATOM     21  H   UNL     1      74.426  49.536   8.057  1.00  0.00     0.293 HD
ENDBRANCH  16  20
BRANCH  17  22
ATOM     22  O   UNL     1      73.125  46.813  10.125  1.00  0.00    -0.504 OA
ATOM     23  H   UNL     1      73.747  47.063  10.879  1.00  0.00     0.293 HD
ENDBRANCH  17  22
ENDBRANCH   1  12
BRANCH   2  24
ATOM     24  O   UNL     1      67.735  49.788  10.083  1.00  0.00    -0.502 OA
ATOM     25  H   UNL     1      67.982  50.594   9.523  1.00  0.00     0.293 HD
ENDBRANCH   2  24
BRANCH   6  26
ATOM     26  O   UNL     1      63.338  46.962   9.053  1.00  0.00    -0.507 OA
ATOM     27  H   UNL     1      62.433  46.538   9.186  1.00  0.00     0.293 HD
ENDBRANCH   6  26
BRANCH   8  28
ATOM     28  O   UNL     1      65.283  42.872   7.505  1.00  0.00    -0.508 OA
ATOM     29  H   UNL     1      66.035  42.193   7.518  1.00  0.00     0.293 HD
ENDBRANCH   8  28
TORSDOF 7
ENDMDL
MODEL 8
REMARK VINA RESULT:    -5.492      1.496      7.144
REMARK INTER + INTRA:          -7.128
REMARK INTER:                  -6.760
REMARK INTRA:                  -0.369
REMARK UNBOUND:                -0.352
REMARK SMILES O=c1c(O)c(-c2cc(O)c(O)c(O)c2)oc2cc(O)cc(O)c12
REMARK SMILES IDX 5 1 3 2 2 3 1 4 23 5 21 6 20 7 18 8 17 9 16 10 15 11 6 12
REMARK SMILES IDX 7 13 8 14 14 15 10 16 12 17 9 18 11 20 13 22 4 24 22 26
REMARK SMILES IDX 19 28
REMARK H PARENT 9 19 11 21 13 23 4 25 22 27 19 29
REMARK Flexibility Score: inf
ROOT
ATOM      1  C   UNL     1      70.803  46.693   7.410  1.00  0.00     0.180 A 
ATOM      2  C   UNL     1      71.142  47.715   8.314  1.00  0.00     0.208 A 
ATOM      3  C   UNL     1      70.118  48.483   8.889  1.00  0.00     0.238 A 
ATOM      4  O   UNL     1      70.424  49.359   9.739  1.00  0.00    -0.285 OA
ATOM      5  C   UNL     1      68.768  48.232   8.541  1.00  0.00     0.111 A 
ATOM      6  C   UNL     1      67.653  48.975   9.031  1.00  0.00     0.134 A 
ATOM      7  C   UNL     1      66.354  48.556   8.721  1.00  0.00     0.093 A 
ATOM      8  C   UNL     1      66.129  47.462   7.887  1.00  0.00     0.123 A 
ATOM      9  C   UNL     1      67.214  46.763   7.353  1.00  0.00     0.094 A 
ATOM     10  C   UNL     1      68.521  47.136   7.674  1.00  0.00     0.146 A 
ATOM     11  O   UNL     1      69.525  46.439   7.154  1.00  0.00    -0.452 OA
ENDROOT
BRANCH   1  12
ATOM     12  C   UNL     1      71.828  45.857   6.745  1.00  0.00     0.029 A 
ATOM     13  C   UNL     1      72.407  46.244   5.526  1.00  0.00     0.062 A 
ATOM     14  C   UNL     1      73.358  45.429   4.901  1.00  0.00     0.162 A 
ATOM     15  C   UNL     1      72.190  44.626   7.309  1.00  0.00     0.062 A 
ATOM     16  C   UNL     1      73.736  44.208   5.480  1.00  0.00     0.200 A 
ATOM     17  C   UNL     1      73.139  43.801   6.697  1.00  0.00     0.162 A 
BRANCH  14  18
ATOM     18  O   UNL     1      73.935  45.824   3.694  1.00  0.00    -0.504 OA
ATOM     19  H   UNL     1      73.402  45.840   2.832  1.00  0.00     0.293 HD
ENDBRANCH  14  18
BRANCH  16  20
ATOM     20  O   UNL     1      74.694  43.437   4.818  1.00  0.00    -0.502 OA
ATOM     21  H   UNL     1      74.927  43.540   3.841  1.00  0.00     0.293 HD
ENDBRANCH  16  20
BRANCH  17  22
ATOM     22  O   UNL     1      73.456  42.595   7.325  1.00  0.00    -0.504 OA
ATOM     23  H   UNL     1      73.900  42.527   8.229  1.00  0.00     0.293 HD
ENDBRANCH  17  22
ENDBRANCH   1  12
BRANCH   2  24
ATOM     24  O   UNL     1      72.479  47.931   8.660  1.00  0.00    -0.502 OA
ATOM     25  H   UNL     1      72.948  48.813   8.494  1.00  0.00     0.293 HD
ENDBRANCH   2  24
BRANCH   6  26
ATOM     26  O   UNL     1      67.767  50.140   9.797  1.00  0.00    -0.507 OA
ATOM     27  H   UNL     1      67.808  50.163  10.804  1.00  0.00     0.293 HD
ENDBRANCH   6  26
BRANCH   8  28
ATOM     28  O   UNL     1      64.824  47.082   7.587  1.00  0.00    -0.508 OA
ATOM     29  H   UNL     1      64.625  46.341   6.925  1.00  0.00     0.293 HD
ENDBRANCH   8  28
TORSDOF 7
ENDMDL
MODEL 9
REMARK VINA RESULT:    -5.483      1.256      2.730
REMARK INTER + INTRA:          -7.118
REMARK INTER:                  -6.973
REMARK INTRA:                  -0.145
REMARK UNBOUND:                -0.352
REMARK SMILES O=c1c(O)c(-c2cc(O)c(O)c(O)c2)oc2cc(O)cc(O)c12
REMARK SMILES IDX 5 1 3 2 2 3 1 4 23 5 21 6 20 7 18 8 17 9 16 10 15 11 6 12
REMARK SMILES IDX 7 13 8 14 14 15 10 16 12 17 9 18 11 20 13 22 4 24 22 26
REMARK SMILES IDX 19 28
REMARK H PARENT 9 19 11 21 13 23 4 25 22 27 19 29
REMARK Flexibility Score: inf
ROOT
ATOM      1  C   UNL     1      69.775  46.642   7.402  1.00  0.00     0.180 A 
ATOM      2  C   UNL     1      70.060  45.275   7.565  1.00  0.00     0.208 A 
ATOM      3  C   UNL     1      71.244  44.757   7.018  1.00  0.00     0.238 A 
ATOM      4  O   UNL     1      71.520  43.545   7.214  1.00  0.00    -0.285 OA
ATOM      5  C   UNL     1      72.121  45.607   6.301  1.00  0.00     0.111 A 
ATOM      6  C   UNL     1      73.327  45.181   5.670  1.00  0.00     0.134 A 
ATOM      7  C   UNL     1      74.182  46.132   5.099  1.00  0.00     0.093 A 
ATOM      8  C   UNL     1      73.844  47.485   5.079  1.00  0.00     0.123 A 
ATOM      9  C   UNL     1      72.637  47.906   5.641  1.00  0.00     0.094 A 
ATOM     10  C   UNL     1      71.781  46.984   6.249  1.00  0.00     0.146 A 
ATOM     11  O   UNL     1      70.648  47.427   6.781  1.00  0.00    -0.452 OA
ENDROOT
BRANCH   1  12
ATOM     12  C   UNL     1      68.535  47.257   7.929  1.00  0.00     0.029 A 
ATOM     13  C   UNL     1      67.268  46.784   7.551  1.00  0.00     0.062 A 
ATOM     14  C   UNL     1      66.107  47.393   8.043  1.00  0.00     0.162 A 
ATOM     15  C   UNL     1      68.621  48.370   8.777  1.00  0.00     0.062 A 
ATOM     16  C   UNL     1      66.196  48.492   8.910  1.00  0.00     0.200 A 
ATOM     17  C   UNL     1      67.470  48.988   9.276  1.00  0.00     0.162 A 
BRANCH  14  18
ATOM     18  O   UNL     1      64.852  46.913   7.669  1.00  0.00    -0.504 OA
ATOM     19  H   UNL     1      64.102  47.540   7.403  1.00  0.00     0.293 HD
ENDBRANCH  14  18
BRANCH  16  20
ATOM     20  O   UNL     1      65.007  49.057   9.376  1.00  0.00    -0.502 OA
ATOM     21  H   UNL     1      64.903  49.490  10.282  1.00  0.00     0.293 HD
ENDBRANCH  16  20
BRANCH  17  22
ATOM     22  O   UNL     1      67.636  50.085  10.125  1.00  0.00    -0.504 OA
ATOM     23  H   UNL     1      66.925  50.426  10.754  1.00  0.00     0.293 HD
ENDBRANCH  17  22
ENDBRANCH   1  12
BRANCH   2  24
ATOM     24  O   UNL     1      69.192  44.459   8.295  1.00  0.00    -0.502 OA
ATOM     25  H   UNL     1      68.530  44.832   8.964  1.00  0.00     0.293 HD
ENDBRANCH   2  24
BRANCH   6  26
ATOM     26  O   UNL     1      73.716  43.842   5.551  1.00  0.00    -0.507 OA
ATOM     27  H   UNL     1      73.113  43.095   5.246  1.00  0.00     0.293 HD
ENDBRANCH   6  26
BRANCH   8  28
ATOM     28  O   UNL     1      74.710  48.401   4.490  1.00  0.00    -0.508 OA
ATOM     29  H   UNL     1      74.473  49.384   4.416  1.00  0.00     0.293 HD
ENDBRANCH   8  28
TORSDOF 7
ENDMDL
