MODEL 1
REMARK VINA RESULT:    -3.061      0.000      0.000
REMARK INTER + INTRA:          -3.846
REMARK INTER:                  -3.598
REMARK INTRA:                  -0.249
REMARK UNBOUND:                -0.249
REMARK SMILES [NH3+][C@@H](CO)C(=O)[O-]
REMARK SMILES IDX 3 1 2 2 1 3 5 7 6 8 7 9 4 10
REMARK H PARENT 1 4 1 5 1 6 4 11
REMARK Flexibility Score: inf
ROOT
ATOM      1  C   UNL     1     162.399 162.583 175.119  1.00  0.00     0.227 C 
ENDROOT
BRANCH   1   2
ATOM      2  C   UNL     1     161.324 162.135 176.127  1.00  0.00     0.253 C 
BRANCH   2   3
ATOM      3  N   UNL     1     161.916 161.777 177.421  1.00  0.00    -0.348 N 
ATOM      4  H   UNL     1     162.795 162.315 177.596  1.00  0.00     0.345 HD
ATOM      5  H   UNL     1     162.136 160.754 177.435  1.00  0.00     0.345 HD
ATOM      6  H   UNL     1     161.234 161.976 178.190  1.00  0.00     0.345 HD
ENDBRANCH   2   3
BRANCH   2   7
ATOM      7  C   UNL     1     160.508 160.998 175.572  1.00  0.00     0.102 C 
ATOM      8  O   UNL     1     160.016 161.067 174.414  1.00  0.00    -0.544 OA
ATOM      9  O   UNL     1     160.261 159.877 176.353  1.00  0.00    -0.544 OA
ENDBRANCH   2   7
ENDBRANCH   1   2
BRANCH   1  10
ATOM     10  O   UNL     1     162.970 161.484 174.458  1.00  0.00    -0.390 OA
ATOM     11  H   UNL     1     163.523 161.846 173.718  1.00  0.00     0.210 HD
ENDBRANCH   1  10
TORSDOF 4
ENDMDL
MODEL 2
REMARK VINA RESULT:    -2.955      4.157      4.823
REMARK INTER + INTRA:          -3.722
REMARK INTER:                  -3.495
REMARK INTRA:                  -0.228
REMARK UNBOUND:                -0.249
REMARK SMILES [NH3+][C@@H](CO)C(=O)[O-]
REMARK SMILES IDX 3 1 2 2 1 3 5 7 6 8 7 9 4 10
REMARK H PARENT 1 4 1 5 1 6 4 11
REMARK Flexibility Score: inf
ROOT
ATOM      1  C   UNL     1     162.347 162.283 177.976  1.00  0.00     0.227 C 
ENDROOT
BRANCH   1   2
ATOM      2  C   UNL     1     163.312 162.455 179.165  1.00  0.00     0.253 C 
BRANCH   2   3
ATOM      3  N   UNL     1     164.316 161.385 179.201  1.00  0.00    -0.348 N 
ATOM      4  H   UNL     1     164.159 160.693 178.433  1.00  0.00     0.345 HD
ATOM      5  H   UNL     1     164.267 160.888 180.120  1.00  0.00     0.345 HD
ATOM      6  H   UNL     1     165.273 161.795 179.101  1.00  0.00     0.345 HD
ENDBRANCH   2   3
BRANCH   2   7
ATOM      7  C   UNL     1     162.554 162.529 180.464  1.00  0.00     0.102 C 
ATOM      8  O   UNL     1     163.168 162.617 181.561  1.00  0.00    -0.544 OA
ATOM      9  O   UNL     1     161.167 162.461 180.463  1.00  0.00    -0.544 OA
ENDBRANCH   2   7
ENDBRANCH   1   2
BRANCH   1  10
ATOM     10  O   UNL     1     161.779 161.000 177.960  1.00  0.00    -0.390 OA
ATOM     11  H   UNL     1     162.523 160.352 178.063  1.00  0.00     0.210 HD
ENDBRANCH   1  10
TORSDOF 4
ENDMDL
MODEL 3
REMARK VINA RESULT:    -2.918     22.319     22.680
REMARK INTER + INTRA:          -3.678
REMARK INTER:                  -3.435
REMARK INTRA:                  -0.243
REMARK UNBOUND:                -0.249
REMARK SMILES [NH3+][C@@H](CO)C(=O)[O-]
REMARK SMILES IDX 3 1 2 2 1 3 5 7 6 8 7 9 4 10
REMARK H PARENT 1 4 1 5 1 6 4 11
REMARK Flexibility Score: inf
ROOT
ATOM      1  C   UNL     1     177.837 175.376 180.243  1.00  0.00     0.227 C 
ENDROOT
BRANCH   1   2
ATOM      2  C   UNL     1     176.985 175.967 179.104  1.00  0.00     0.253 C 
BRANCH   2   3
ATOM      3  N   UNL     1     177.135 175.195 177.865  1.00  0.00    -0.348 N 
ATOM      4  H   UNL     1     176.209 174.863 177.513  1.00  0.00     0.345 HD
ATOM      5  H   UNL     1     177.749 174.366 178.040  1.00  0.00     0.345 HD
ATOM      6  H   UNL     1     177.588 175.788 177.131  1.00  0.00     0.345 HD
ENDBRANCH   2   3
BRANCH   2   7
ATOM      7  C   UNL     1     177.319 177.419 178.881  1.00  0.00     0.102 C 
ATOM      8  O   UNL     1     177.531 177.858 177.719  1.00  0.00    -0.544 OA
ATOM      9  O   UNL     1     177.434 178.277 179.967  1.00  0.00    -0.544 OA
ENDBRANCH   2   7
ENDBRANCH   1   2
BRANCH   1  10
ATOM     10  O   UNL     1     179.073 176.034 180.352  1.00  0.00    -0.390 OA
ATOM     11  H   UNL     1     179.418 175.853 181.265  1.00  0.00     0.210 HD
ENDBRANCH   1  10
TORSDOF 4
ENDMDL
MODEL 4
REMARK VINA RESULT:    -2.875     21.242     22.297
REMARK INTER + INTRA:          -3.628
REMARK INTER:                  -3.412
REMARK INTRA:                  -0.216
REMARK UNBOUND:                -0.249
REMARK SMILES [NH3+][C@@H](CO)C(=O)[O-]
REMARK SMILES IDX 3 1 2 2 1 3 5 7 6 8 7 9 4 10
REMARK H PARENT 1 4 1 5 1 6 4 11
REMARK Flexibility Score: inf
ROOT
ATOM      1  C   UNL     1     177.321 174.073 179.591  1.00  0.00     0.227 C 
ENDROOT
BRANCH   1   2
ATOM      2  C   UNL     1     177.059 175.553 179.254  1.00  0.00     0.253 C 
BRANCH   2   3
ATOM      3  N   UNL     1     177.202 175.811 177.817  1.00  0.00    -0.348 N 
ATOM      4  H   UNL     1     176.335 176.240 177.422  1.00  0.00     0.345 HD
ATOM      5  H   UNL     1     177.393 174.912 177.316  1.00  0.00     0.345 HD
ATOM      6  H   UNL     1     178.009 176.455 177.651  1.00  0.00     0.345 HD
ENDBRANCH   2   3
BRANCH   2   7
ATOM      7  C   UNL     1     177.958 176.454 180.058  1.00  0.00     0.102 C 
ATOM      8  O   UNL     1     178.930 175.979 180.706  1.00  0.00    -0.544 OA
ATOM      9  O   UNL     1     177.697 177.816 180.122  1.00  0.00    -0.544 OA
ENDBRANCH   2   7
ENDBRANCH   1   2
BRANCH   1  10
ATOM     10  O   UNL     1     178.583 173.660 179.136  1.00  0.00    -0.390 OA
ATOM     11  H   UNL     1     178.516 173.558 178.151  1.00  0.00     0.210 HD
ENDBRANCH   1  10
TORSDOF 4
ENDMDL
MODEL 5
REMARK VINA RESULT:    -2.867     13.844     14.317
REMARK INTER + INTRA:          -3.619
REMARK INTER:                  -3.408
REMARK INTRA:                  -0.211
REMARK UNBOUND:                -0.249
REMARK SMILES [NH3+][C@@H](CO)C(=O)[O-]
REMARK SMILES IDX 3 1 2 2 1 3 5 7 6 8 7 9 4 10
REMARK H PARENT 1 4 1 5 1 6 4 11
REMARK Flexibility Score: inf
ROOT
ATOM      1  C   UNL     1     174.286 161.009 178.436  1.00  0.00     0.227 C 
ENDROOT
BRANCH   1   2
ATOM      2  C   UNL     1     174.810 162.097 179.391  1.00  0.00     0.253 C 
BRANCH   2   3
ATOM      3  N   UNL     1     176.237 162.364 179.171  1.00  0.00    -0.348 N 
ATOM      4  H   UNL     1     176.378 163.271 178.670  1.00  0.00     0.345 HD
ATOM      5  H   UNL     1     176.653 161.593 178.598  1.00  0.00     0.345 HD
ATOM      6  H   UNL     1     176.737 162.398 180.088  1.00  0.00     0.345 HD
ENDBRANCH   2   3
BRANCH   2   7
ATOM      7  C   UNL     1     174.545 161.725 180.826  1.00  0.00     0.102 C 
ATOM      8  O   UNL     1     175.006 162.426 181.767  1.00  0.00    -0.544 OA
ATOM      9  O   UNL     1     173.819 160.579 181.121  1.00  0.00    -0.544 OA
ENDBRANCH   2   7
ENDBRANCH   1   2
BRANCH   1  10
ATOM     10  O   UNL     1     175.132 159.889 178.422  1.00  0.00    -0.390 OA
ATOM     11  H   UNL     1     175.490 159.808 177.500  1.00  0.00     0.210 HD
ENDBRANCH   1  10
TORSDOF 4
ENDMDL
MODEL 6
REMARK VINA RESULT:    -2.817     17.399     18.069
REMARK INTER + INTRA:          -3.559
REMARK INTER:                  -3.234
REMARK INTRA:                  -0.325
REMARK UNBOUND:                -0.249
REMARK SMILES [NH3+][C@@H](CO)C(=O)[O-]
REMARK SMILES IDX 3 1 2 2 1 3 5 7 6 8 7 9 4 10
REMARK H PARENT 1 4 1 5 1 6 4 11
REMARK Flexibility Score: inf
ROOT
ATOM      1  C   UNL     1     177.522 163.344 180.100  1.00  0.00     0.227 C 
ENDROOT
BRANCH   1   2
ATOM      2  C   UNL     1     177.778 164.449 179.058  1.00  0.00     0.253 C 
BRANCH   2   3
ATOM      3  N   UNL     1     177.207 164.099 177.752  1.00  0.00    -0.348 N 
ATOM      4  H   UNL     1     176.679 164.903 177.343  1.00  0.00     0.345 HD
ATOM      5  H   UNL     1     176.556 163.287 177.860  1.00  0.00     0.345 HD
ATOM      6  H   UNL     1     177.971 163.821 177.094  1.00  0.00     0.345 HD
ENDBRANCH   2   3
BRANCH   2   7
ATOM      7  C   UNL     1     179.250 164.747 178.943  1.00  0.00     0.102 C 
ATOM      8  O   UNL     1     179.884 164.454 177.894  1.00  0.00    -0.544 OA
ATOM      9  O   UNL     1     179.928 165.313 180.014  1.00  0.00    -0.544 OA
ENDBRANCH   2   7
ENDBRANCH   1   2
BRANCH   1  10
ATOM     10  O   UNL     1     178.678 162.584 180.336  1.00  0.00    -0.390 OA
ATOM     11  H   UNL     1     178.392 161.760 180.808  1.00  0.00     0.210 HD
ENDBRANCH   1  10
TORSDOF 4
ENDMDL
MODEL 7
REMARK VINA RESULT:    -2.814      1.868      2.372
REMARK INTER + INTRA:          -3.557
REMARK INTER:                  -3.309
REMARK INTRA:                  -0.247
REMARK UNBOUND:                -0.249
REMARK SMILES [NH3+][C@@H](CO)C(=O)[O-]
REMARK SMILES IDX 3 1 2 2 1 3 5 7 6 8 7 9 4 10
REMARK H PARENT 1 4 1 5 1 6 4 11
REMARK Flexibility Score: inf
ROOT
ATOM      1  C   UNL     1     162.392 162.564 178.038  1.00  0.00     0.227 C 
ENDROOT
BRANCH   1   2
ATOM      2  C   UNL     1     161.490 163.031 176.880  1.00  0.00     0.253 C 
BRANCH   2   3
ATOM      3  N   UNL     1     160.192 163.511 177.370  1.00  0.00    -0.348 N 
ATOM      4  H   UNL     1     159.445 163.379 176.650  1.00  0.00     0.345 HD
ATOM      5  H   UNL     1     160.260 164.528 177.605  1.00  0.00     0.345 HD
ATOM      6  H   UNL     1     159.927 162.991 178.237  1.00  0.00     0.345 HD
ENDBRANCH   2   3
BRANCH   2   7
ATOM      7  C   UNL     1     161.313 161.936 175.862  1.00  0.00     0.102 C 
ATOM      8  O   UNL     1     161.945 161.964 174.772  1.00  0.00    -0.544 OA
ATOM      9  O   UNL     1     160.418 160.902 176.106  1.00  0.00    -0.544 OA
ENDBRANCH   2   7
ENDBRANCH   1   2
BRANCH   1  10
ATOM     10  O   UNL     1     162.144 161.224 178.372  1.00  0.00    -0.390 OA
ATOM     11  H   UNL     1     162.910 160.694 178.029  1.00  0.00     0.210 HD
ENDBRANCH   1  10
TORSDOF 4
ENDMDL
MODEL 8
REMARK VINA RESULT:    -2.784     15.825     16.378
REMARK INTER + INTRA:          -3.521
REMARK INTER:                  -3.273
REMARK INTRA:                  -0.248
REMARK UNBOUND:                -0.249
REMARK SMILES [NH3+][C@@H](CO)C(=O)[O-]
REMARK SMILES IDX 3 1 2 2 1 3 5 7 6 8 7 9 4 10
REMARK H PARENT 1 4 1 5 1 6 4 11
REMARK Flexibility Score: inf
ROOT
ATOM      1  C   UNL     1     178.016 164.534 178.956  1.00  0.00     0.227 C 
ENDROOT
BRANCH   1   2
ATOM      2  C   UNL     1     177.667 163.697 180.201  1.00  0.00     0.253 C 
BRANCH   2   3
ATOM      3  N   UNL     1     178.604 162.582 180.380  1.00  0.00    -0.348 N 
ATOM      4  H   UNL     1     178.750 162.369 181.393  1.00  0.00     0.345 HD
ATOM      5  H   UNL     1     179.527 162.827 179.950  1.00  0.00     0.345 HD
ATOM      6  H   UNL     1     178.235 161.729 179.901  1.00  0.00     0.345 HD
ENDBRANCH   2   3
BRANCH   2   7
ATOM      7  C   UNL     1     176.246 163.204 180.135  1.00  0.00     0.102 C 
ATOM      8  O   UNL     1     175.956 162.167 179.480  1.00  0.00    -0.544 OA
ATOM      9  O   UNL     1     175.235 163.917 180.768  1.00  0.00    -0.544 OA
ENDBRANCH   2   7
ENDBRANCH   1   2
BRANCH   1  10
ATOM     10  O   UNL     1     177.441 163.991 177.797  1.00  0.00    -0.390 OA
ATOM     11  H   UNL     1     176.496 163.782 178.013  1.00  0.00     0.210 HD
ENDBRANCH   1  10
TORSDOF 4
ENDMDL
MODEL 9
REMARK VINA RESULT:    -2.714      4.135      4.731
REMARK INTER + INTRA:          -3.439
REMARK INTER:                  -3.212
REMARK INTRA:                  -0.226
REMARK UNBOUND:                -0.249
REMARK SMILES [NH3+][C@@H](CO)C(=O)[O-]
REMARK SMILES IDX 3 1 2 2 1 3 5 7 6 8 7 9 4 10
REMARK H PARENT 1 4 1 5 1 6 4 11
REMARK Flexibility Score: inf
ROOT
ATOM      1  C   UNL     1     161.816 163.755 178.195  1.00  0.00     0.227 C 
ENDROOT
BRANCH   1   2
ATOM      2  C   UNL     1     162.489 162.555 178.888  1.00  0.00     0.253 C 
BRANCH   2   3
ATOM      3  N   UNL     1     162.116 161.287 178.250  1.00  0.00    -0.348 N 
ATOM      4  H   UNL     1     161.574 160.680 178.906  1.00  0.00     0.345 HD
ATOM      5  H   UNL     1     162.980 160.777 177.952  1.00  0.00     0.345 HD
ATOM      6  H   UNL     1     161.536 161.475 177.400  1.00  0.00     0.345 HD
ENDBRANCH   2   3
BRANCH   2   7
ATOM      7  C   UNL     1     162.169 162.536 180.359  1.00  0.00     0.102 C 
ATOM      8  O   UNL     1     160.974 162.478 180.755  1.00  0.00    -0.544 OA
ATOM      9  O   UNL     1     163.193 162.622 181.293  1.00  0.00    -0.544 OA
ENDBRANCH   2   7
ENDBRANCH   1   2
BRANCH   1  10
ATOM     10  O   UNL     1     160.434 163.556 178.055  1.00  0.00    -0.390 OA
ATOM     11  H   UNL     1     160.298 162.592 177.863  1.00  0.00     0.210 HD
ENDBRANCH   1  10
TORSDOF 4
ENDMDL
