MODEL 1
REMARK VINA RESULT:    -5.124      0.000      0.000
REMARK INTER + INTRA:          -6.146
REMARK INTER:                  -6.023
REMARK INTRA:                  -0.123
REMARK UNBOUND:                -0.123
REMARK SMILES O=C([O-])C=Cc1ccc(O)c(O)c1
REMARK SMILES IDX 6 1 13 2 7 3 11 4 8 5 9 6 5 7 4 8 2 9 1 10 3 11 12 12 10 14
REMARK H PARENT 12 13 10 15
REMARK Flexibility Score: inf
ROOT
ATOM      1  C   UNL     1      20.790  -0.618 -19.490  1.00  0.00    -0.022 A 
ATOM      2  C   UNL     1      20.708  -1.275 -20.735  1.00  0.00     0.058 A 
ATOM      3  C   UNL     1      21.458   0.615 -19.417  1.00  0.00     0.012 A 
ATOM      4  C   UNL     1      21.262  -0.692 -21.886  1.00  0.00     0.157 A 
ATOM      5  C   UNL     1      22.008   1.195 -20.562  1.00  0.00     0.051 A 
ATOM      6  C   UNL     1      21.910   0.550 -21.798  1.00  0.00     0.157 A 
ENDROOT
BRANCH   1   7
ATOM      7  C   UNL     1      20.232  -1.198 -18.244  1.00  0.00     0.010 C 
ATOM      8  C   UNL     1      18.946  -1.089 -17.883  1.00  0.00     0.025 C 
BRANCH   8   9
ATOM      9  C   UNL     1      18.438  -1.670 -16.630  1.00  0.00     0.064 C 
ATOM     10  O   UNL     1      17.915  -0.920 -15.764  1.00  0.00    -0.545 OA
ATOM     11  O   UNL     1      18.522  -3.036 -16.387  1.00  0.00    -0.545 OA
ENDBRANCH   8   9
ENDBRANCH   1   7
BRANCH   4  12
ATOM     12  O   UNL     1      21.172  -1.347 -23.113  1.00  0.00    -0.504 OA
ATOM     13  H   UNL     1      21.250  -0.847 -23.990  1.00  0.00     0.293 HD
ENDBRANCH   4  12
BRANCH   6  14
ATOM     14  O   UNL     1      22.467   1.155 -22.924  1.00  0.00    -0.504 OA
ATOM     15  H   UNL     1      22.347   0.772 -23.855  1.00  0.00     0.293 HD
ENDBRANCH   6  14
TORSDOF 4
ENDMDL
MODEL 2
REMARK VINA RESULT:    -5.102     15.513     18.826
REMARK INTER + INTRA:          -6.120
REMARK INTER:                  -5.995
REMARK INTRA:                  -0.125
REMARK UNBOUND:                -0.123
REMARK SMILES O=C([O-])C=Cc1ccc(O)c(O)c1
REMARK SMILES IDX 6 1 13 2 7 3 11 4 8 5 9 6 5 7 4 8 2 9 1 10 3 11 12 12 10 14
REMARK H PARENT 12 13 10 15
REMARK Flexibility Score: inf
ROOT
ATOM      1  C   UNL     1       8.106  -5.989  -7.711  1.00  0.00    -0.022 A 
ATOM      2  C   UNL     1       8.132  -4.901  -6.813  1.00  0.00     0.058 A 
ATOM      3  C   UNL     1       7.965  -7.288  -7.197  1.00  0.00     0.012 A 
ATOM      4  C   UNL     1       7.994  -5.113  -5.433  1.00  0.00     0.157 A 
ATOM      5  C   UNL     1       7.826  -7.498  -5.823  1.00  0.00     0.051 A 
ATOM      6  C   UNL     1       7.836  -6.418  -4.938  1.00  0.00     0.157 A 
ENDROOT
BRANCH   1   7
ATOM      7  C   UNL     1       8.260  -5.817  -9.177  1.00  0.00     0.010 C 
ATOM      8  C   UNL     1       7.925  -4.700  -9.835  1.00  0.00     0.025 C 
BRANCH   8   9
ATOM      9  C   UNL     1       8.083  -4.578 -11.293  1.00  0.00     0.064 C 
ATOM     10  O   UNL     1       8.786  -5.417 -11.914  1.00  0.00    -0.545 OA
ATOM     11  O   UNL     1       7.466  -3.550 -11.997  1.00  0.00    -0.545 OA
ENDBRANCH   8   9
ENDBRANCH   1   7
BRANCH   4  12
ATOM     12  O   UNL     1       8.017  -4.031  -4.554  1.00  0.00    -0.504 OA
ATOM     13  H   UNL     1       8.881  -3.697  -4.144  1.00  0.00     0.293 HD
ENDBRANCH   4  12
BRANCH   6  14
ATOM     14  O   UNL     1       7.693  -6.659  -3.572  1.00  0.00    -0.504 OA
ATOM     15  H   UNL     1       7.415  -7.564  -3.212  1.00  0.00     0.293 HD
ENDBRANCH   6  14
TORSDOF 4
ENDMDL
MODEL 3
REMARK VINA RESULT:    -4.985      1.661      2.603
REMARK INTER + INTRA:          -5.983
REMARK INTER:                  -5.853
REMARK INTRA:                  -0.129
REMARK UNBOUND:                -0.123
REMARK SMILES O=C([O-])C=Cc1ccc(O)c(O)c1
REMARK SMILES IDX 6 1 13 2 7 3 11 4 8 5 9 6 5 7 4 8 2 9 1 10 3 11 12 12 10 14
REMARK H PARENT 12 13 10 15
REMARK Flexibility Score: inf
ROOT
ATOM      1  C   UNL     1      19.734  -0.889 -18.403  1.00  0.00    -0.022 A 
ATOM      2  C   UNL     1      20.941  -0.217 -18.120  1.00  0.00     0.058 A 
ATOM      3  C   UNL     1      19.281  -0.939 -19.731  1.00  0.00     0.012 A 
ATOM      4  C   UNL     1      21.690   0.368 -19.153  1.00  0.00     0.157 A 
ATOM      5  C   UNL     1      20.027  -0.358 -20.759  1.00  0.00     0.051 A 
ATOM      6  C   UNL     1      21.231   0.292 -20.478  1.00  0.00     0.157 A 
ENDROOT
BRANCH   1   7
ATOM      7  C   UNL     1      18.901  -1.512 -17.345  1.00  0.00     0.010 C 
ATOM      8  C   UNL     1      18.160  -0.815 -16.473  1.00  0.00     0.025 C 
BRANCH   8   9
ATOM      9  C   UNL     1      17.358  -1.474 -15.431  1.00  0.00     0.064 C 
ATOM     10  O   UNL     1      17.481  -2.712 -15.241  1.00  0.00    -0.545 OA
ATOM     11  O   UNL     1      16.466  -0.750 -14.647  1.00  0.00    -0.545 OA
ENDBRANCH   8   9
ENDBRANCH   1   7
BRANCH   4  12
ATOM     12  O   UNL     1      22.885   1.026 -18.865  1.00  0.00    -0.504 OA
ATOM     13  H   UNL     1      22.906   1.866 -18.300  1.00  0.00     0.293 HD
ENDBRANCH   4  12
BRANCH   6  14
ATOM     14  O   UNL     1      21.955   0.861 -21.526  1.00  0.00    -0.504 OA
ATOM     15  H   UNL     1      22.735   1.487 -21.363  1.00  0.00     0.293 HD
ENDBRANCH   6  14
TORSDOF 4
ENDMDL
MODEL 4
REMARK VINA RESULT:    -4.968     14.583     17.589
REMARK INTER + INTRA:          -5.963
REMARK INTER:                  -5.841
REMARK INTRA:                  -0.122
REMARK UNBOUND:                -0.123
REMARK SMILES O=C([O-])C=Cc1ccc(O)c(O)c1
REMARK SMILES IDX 6 1 13 2 7 3 11 4 8 5 9 6 5 7 4 8 2 9 1 10 3 11 12 12 10 14
REMARK H PARENT 12 13 10 15
REMARK Flexibility Score: inf
ROOT
ATOM      1  C   UNL     1       9.338  -6.548  -8.110  1.00  0.00    -0.022 A 
ATOM      2  C   UNL     1      10.203  -5.797  -7.287  1.00  0.00     0.058 A 
ATOM      3  C   UNL     1       7.963  -6.552  -7.821  1.00  0.00     0.012 A 
ATOM      4  C   UNL     1       9.694  -5.048  -6.215  1.00  0.00     0.157 A 
ATOM      5  C   UNL     1       7.458  -5.805  -6.756  1.00  0.00     0.051 A 
ATOM      6  C   UNL     1       8.315  -5.049  -5.952  1.00  0.00     0.157 A 
ENDROOT
BRANCH   1   7
ATOM      7  C   UNL     1       9.828  -7.365  -9.247  1.00  0.00     0.010 C 
ATOM      8  C   UNL     1      10.990  -7.145  -9.876  1.00  0.00     0.025 C 
BRANCH   8   9
ATOM      9  C   UNL     1      11.431  -7.974 -11.008  1.00  0.00     0.064 C 
ATOM     10  O   UNL     1      11.126  -7.637 -12.182  1.00  0.00    -0.545 OA
ATOM     11  O   UNL     1      12.184  -9.125 -10.804  1.00  0.00    -0.545 OA
ENDBRANCH   8   9
ENDBRANCH   1   7
BRANCH   4  12
ATOM     12  O   UNL     1      10.558  -4.306  -5.409  1.00  0.00    -0.504 OA
ATOM     13  H   UNL     1      10.959  -3.431  -5.724  1.00  0.00     0.293 HD
ENDBRANCH   4  12
BRANCH   6  14
ATOM     14  O   UNL     1       7.781  -4.312  -4.896  1.00  0.00    -0.504 OA
ATOM     15  H   UNL     1       6.943  -3.752  -5.001  1.00  0.00     0.293 HD
ENDBRANCH   6  14
TORSDOF 4
ENDMDL
MODEL 5
REMARK VINA RESULT:    -4.873      1.349      5.808
REMARK INTER + INTRA:          -5.850
REMARK INTER:                  -5.700
REMARK INTRA:                  -0.150
REMARK UNBOUND:                -0.123
REMARK SMILES O=C([O-])C=Cc1ccc(O)c(O)c1
REMARK SMILES IDX 6 1 13 2 7 3 11 4 8 5 9 6 5 7 4 8 2 9 1 10 3 11 12 12 10 14
REMARK H PARENT 12 13 10 15
REMARK Flexibility Score: inf
ROOT
ATOM      1  C   UNL     1      20.236  -1.404 -19.912  1.00  0.00    -0.022 A 
ATOM      2  C   UNL     1      19.939  -2.773 -19.748  1.00  0.00     0.058 A 
ATOM      3  C   UNL     1      19.845  -0.501 -18.909  1.00  0.00     0.012 A 
ATOM      4  C   UNL     1      19.287  -3.227 -18.591  1.00  0.00     0.157 A 
ATOM      5  C   UNL     1      19.199  -0.954 -17.757  1.00  0.00     0.051 A 
ATOM      6  C   UNL     1      18.920  -2.312 -17.591  1.00  0.00     0.157 A 
ENDROOT
BRANCH   1   7
ATOM      7  C   UNL     1      20.912  -0.873 -21.122  1.00  0.00     0.010 C 
ATOM      8  C   UNL     1      21.578   0.288 -21.153  1.00  0.00     0.025 C 
BRANCH   8   9
ATOM      9  C   UNL     1      22.223   0.783 -22.379  1.00  0.00     0.064 C 
ATOM     10  O   UNL     1      22.841  -0.021 -23.125  1.00  0.00    -0.545 OA
ATOM     11  O   UNL     1      22.159   2.127 -22.731  1.00  0.00    -0.545 OA
ENDBRANCH   8   9
ENDBRANCH   1   7
BRANCH   4  12
ATOM     12  O   UNL     1      19.001  -4.582 -18.436  1.00  0.00    -0.504 OA
ATOM     13  H   UNL     1      18.436  -5.087 -19.108  1.00  0.00     0.293 HD
ENDBRANCH   4  12
BRANCH   6  14
ATOM     14  O   UNL     1      18.275  -2.735 -16.428  1.00  0.00    -0.504 OA
ATOM     15  H   UNL     1      17.343  -2.420 -16.186  1.00  0.00     0.293 HD
ENDBRANCH   6  14
TORSDOF 4
ENDMDL
MODEL 6
REMARK VINA RESULT:    -4.845     14.770     16.422
REMARK INTER + INTRA:          -5.817
REMARK INTER:                  -5.689
REMARK INTRA:                  -0.129
REMARK UNBOUND:                -0.123
REMARK SMILES O=C([O-])C=Cc1ccc(O)c(O)c1
REMARK SMILES IDX 6 1 13 2 7 3 11 4 8 5 9 6 5 7 4 8 2 9 1 10 3 11 12 12 10 14
REMARK H PARENT 12 13 10 15
REMARK Flexibility Score: inf
ROOT
ATOM      1  C   UNL     1       8.694  -5.018 -10.469  1.00  0.00    -0.022 A 
ATOM      2  C   UNL     1       8.023  -4.670  -9.279  1.00  0.00     0.058 A 
ATOM      3  C   UNL     1       9.978  -5.581 -10.383  1.00  0.00     0.012 A 
ATOM      4  C   UNL     1       8.617  -4.908  -8.030  1.00  0.00     0.157 A 
ATOM      5  C   UNL     1      10.567  -5.820  -9.140  1.00  0.00     0.051 A 
ATOM      6  C   UNL     1       9.893  -5.489  -7.962  1.00  0.00     0.157 A 
ENDROOT
BRANCH   1   7
ATOM      7  C   UNL     1       8.114  -4.775 -11.813  1.00  0.00     0.010 C 
ATOM      8  C   UNL     1       8.086  -3.574 -12.406  1.00  0.00     0.025 C 
BRANCH   8   9
ATOM      9  C   UNL     1       7.488  -3.376 -13.736  1.00  0.00     0.064 C 
ATOM     10  O   UNL     1       7.403  -4.348 -14.531  1.00  0.00    -0.545 OA
ATOM     11  O   UNL     1       7.012  -2.130 -14.129  1.00  0.00    -0.545 OA
ENDBRANCH   8   9
ENDBRANCH   1   7
BRANCH   4  12
ATOM     12  O   UNL     1       7.943  -4.565  -6.859  1.00  0.00    -0.504 OA
ATOM     13  H   UNL     1       8.254  -3.801  -6.271  1.00  0.00     0.293 HD
ENDBRANCH   4  12
BRANCH   6  14
ATOM     14  O   UNL     1      10.507  -5.741  -6.736  1.00  0.00    -0.504 OA
ATOM     15  H   UNL     1      11.185  -5.105  -6.333  1.00  0.00     0.293 HD
ENDBRANCH   6  14
TORSDOF 4
ENDMDL
MODEL 7
REMARK VINA RESULT:    -4.817     15.195     16.340
REMARK INTER + INTRA:          -5.784
REMARK INTER:                  -5.661
REMARK INTRA:                  -0.124
REMARK UNBOUND:                -0.123
REMARK SMILES O=C([O-])C=Cc1ccc(O)c(O)c1
REMARK SMILES IDX 6 1 13 2 7 3 11 4 8 5 9 6 5 7 4 8 2 9 1 10 3 11 12 12 10 14
REMARK H PARENT 12 13 10 15
REMARK Flexibility Score: inf
ROOT
ATOM      1  C   UNL     1       8.477  -5.495 -10.252  1.00  0.00    -0.022 A 
ATOM      2  C   UNL     1       8.062  -4.251 -10.772  1.00  0.00     0.058 A 
ATOM      3  C   UNL     1       8.531  -6.604 -11.111  1.00  0.00     0.012 A 
ATOM      4  C   UNL     1       7.735  -4.121 -12.131  1.00  0.00     0.157 A 
ATOM      5  C   UNL     1       8.208  -6.473 -12.463  1.00  0.00     0.051 A 
ATOM      6  C   UNL     1       7.813  -5.237 -12.979  1.00  0.00     0.157 A 
ENDROOT
BRANCH   1   7
ATOM      7  C   UNL     1       8.821  -5.686  -8.821  1.00  0.00     0.010 C 
ATOM      8  C   UNL     1       8.247  -5.006  -7.820  1.00  0.00     0.025 C 
BRANCH   8   9
ATOM      9  C   UNL     1       8.628  -5.219  -6.415  1.00  0.00     0.064 C 
ATOM     10  O   UNL     1       7.780  -5.669  -5.602  1.00  0.00    -0.545 OA
ATOM     11  O   UNL     1       9.914  -4.933  -5.970  1.00  0.00    -0.545 OA
ENDBRANCH   8   9
ENDBRANCH   1   7
BRANCH   4  12
ATOM     12  O   UNL     1       7.331  -2.886 -12.637  1.00  0.00    -0.504 OA
ATOM     13  H   UNL     1       7.714  -2.512 -13.496  1.00  0.00     0.293 HD
ENDBRANCH   4  12
BRANCH   6  14
ATOM     14  O   UNL     1       7.498  -5.137 -14.334  1.00  0.00    -0.504 OA
ATOM     15  H   UNL     1       8.192  -5.274 -15.059  1.00  0.00     0.293 HD
ENDBRANCH   6  14
TORSDOF 4
ENDMDL
MODEL 8
REMARK VINA RESULT:    -4.736     15.216     16.519
REMARK INTER + INTRA:          -5.689
REMARK INTER:                  -5.560
REMARK INTRA:                  -0.129
REMARK UNBOUND:                -0.123
REMARK SMILES O=C([O-])C=Cc1ccc(O)c(O)c1
REMARK SMILES IDX 6 1 13 2 7 3 11 4 8 5 9 6 5 7 4 8 2 9 1 10 3 11 12 12 10 14
REMARK H PARENT 12 13 10 15
REMARK Flexibility Score: inf
ROOT
ATOM      1  C   UNL     1       8.422  -5.436 -10.051  1.00  0.00    -0.022 A 
ATOM      2  C   UNL     1       8.532  -6.563 -10.893  1.00  0.00     0.058 A 
ATOM      3  C   UNL     1       8.052  -4.204 -10.615  1.00  0.00     0.012 A 
ATOM      4  C   UNL     1       8.252  -6.459 -12.263  1.00  0.00     0.157 A 
ATOM      5  C   UNL     1       7.770  -4.102 -11.979  1.00  0.00     0.051 A 
ATOM      6  C   UNL     1       7.865  -5.223 -12.806  1.00  0.00     0.157 A 
ENDROOT
BRANCH   1   7
ATOM      7  C   UNL     1       8.720  -5.492  -8.599  1.00  0.00     0.010 C 
ATOM      8  C   UNL     1       7.783  -5.624  -7.651  1.00  0.00     0.025 C 
BRANCH   8   9
ATOM      9  C   UNL     1       8.122  -5.662  -6.220  1.00  0.00     0.064 C 
ATOM     10  O   UNL     1       7.636  -6.564  -5.489  1.00  0.00    -0.545 OA
ATOM     11  O   UNL     1       8.976  -4.718  -5.660  1.00  0.00    -0.545 OA
ENDBRANCH   8   9
ENDBRANCH   1   7
BRANCH   4  12
ATOM     12  O   UNL     1       8.360  -7.579 -13.086  1.00  0.00    -0.504 OA
ATOM     13  H   UNL     1       7.612  -8.258 -13.161  1.00  0.00     0.293 HD
ENDBRANCH   4  12
BRANCH   6  14
ATOM     14  O   UNL     1       7.576  -5.090 -14.164  1.00  0.00    -0.504 OA
ATOM     15  H   UNL     1       8.080  -4.445 -14.761  1.00  0.00     0.293 HD
ENDBRANCH   6  14
TORSDOF 4
ENDMDL
MODEL 9
REMARK VINA RESULT:    -2.890      1.111      2.187
REMARK INTER + INTRA:          -3.520
REMARK INTER:                  -3.393
REMARK INTRA:                  -0.127
REMARK UNBOUND:                -0.123
REMARK SMILES O=C([O-])C=Cc1ccc(O)c(O)c1
REMARK SMILES IDX 6 1 13 2 7 3 11 4 8 5 9 6 5 7 4 8 2 9 1 10 3 11 12 12 10 14
REMARK H PARENT 12 13 10 15
REMARK Flexibility Score: inf
ROOT
ATOM      1  C   UNL     1      20.909  -0.769 -20.037  1.00  0.00    -0.022 A 
ATOM      2  C   UNL     1      21.327   0.550 -19.766  1.00  0.00     0.058 A 
ATOM      3  C   UNL     1      21.008  -1.254 -21.352  1.00  0.00     0.012 A 
ATOM      4  C   UNL     1      21.857   1.354 -20.787  1.00  0.00     0.157 A 
ATOM      5  C   UNL     1      21.538  -0.454 -22.366  1.00  0.00     0.051 A 
ATOM      6  C   UNL     1      21.967   0.846 -22.091  1.00  0.00     0.157 A 
ENDROOT
BRANCH   1   7
ATOM      7  C   UNL     1      20.330  -1.654 -18.996  1.00  0.00     0.010 C 
ATOM      8  C   UNL     1      19.355  -1.278 -18.159  1.00  0.00     0.025 C 
BRANCH   8   9
ATOM      9  C   UNL     1      18.819  -2.185 -17.131  1.00  0.00     0.064 C 
ATOM     10  O   UNL     1      18.802  -3.425 -17.343  1.00  0.00    -0.545 OA
ATOM     11  O   UNL     1      18.331  -1.693 -15.925  1.00  0.00    -0.545 OA
ENDBRANCH   8   9
ENDBRANCH   1   7
BRANCH   4  12
ATOM     12  O   UNL     1      22.272   2.655 -20.507  1.00  0.00    -0.504 OA
ATOM     13  H   UNL     1      21.665   3.451 -20.660  1.00  0.00     0.293 HD
ENDBRANCH   4  12
BRANCH   6  14
ATOM     14  O   UNL     1      22.493   1.620 -23.125  1.00  0.00    -0.504 OA
ATOM     15  H   UNL     1      22.049   1.677 -24.034  1.00  0.00     0.293 HD
ENDBRANCH   6  14
TORSDOF 4
ENDMDL
