MODEL 1
REMARK VINA RESULT:    -5.131      0.000      0.000
REMARK INTER + INTRA:          -6.305
REMARK INTER:                  -6.031
REMARK INTRA:                  -0.274
REMARK UNBOUND:                -0.274
REMARK SMILES O=c1cc(-c2ccc(O)c(O)c2)oc2cc(O)cc(O)c12
REMARK SMILES IDX 4 1 3 2 2 3 1 4 21 5 19 6 18 7 16 8 15 9 14 10 13 11 5 12
REMARK SMILES IDX 6 13 7 14 8 15 12 16 10 17 9 18 11 20 20 22 17 24
REMARK H PARENT 9 19 11 21 20 23 17 25
REMARK Flexibility Score: inf
ROOT
ATOM      1  C   UNL     1     173.923 177.398 154.385  1.00  0.00     0.138 A 
ATOM      2  C   UNL     1     172.920 177.736 155.304  1.00  0.00     0.100 A 
ATOM      3  C   UNL     1     172.751 179.070 155.680  1.00  0.00     0.197 A 
ATOM      4  O   UNL     1     171.884 179.335 156.553  1.00  0.00    -0.289 OA
ATOM      5  C   UNL     1     173.569 180.072 155.105  1.00  0.00     0.107 A 
ATOM      6  C   UNL     1     173.460 181.468 155.381  1.00  0.00     0.134 A 
ATOM      7  C   UNL     1     174.401 182.353 154.844  1.00  0.00     0.093 A 
ATOM      8  C   UNL     1     175.410 181.904 153.992  1.00  0.00     0.123 A 
ATOM      9  C   UNL     1     175.494 180.548 153.673  1.00  0.00     0.094 A 
ATOM     10  C   UNL     1     174.591 179.634 154.221  1.00  0.00     0.146 A 
ATOM     11  O   UNL     1     174.714 178.350 153.903  1.00  0.00    -0.456 OA
ENDROOT
BRANCH   1  12
ATOM     12  C   UNL     1     174.146 175.994 153.951  1.00  0.00     0.021 A 
ATOM     13  C   UNL     1     175.441 175.452 154.005  1.00  0.00     0.016 A 
ATOM     14  C   UNL     1     175.680 174.138 153.596  1.00  0.00     0.051 A 
ATOM     15  C   UNL     1     174.629 173.346 153.115  1.00  0.00     0.157 A 
ATOM     16  C   UNL     1     173.097 175.197 153.454  1.00  0.00     0.062 A 
ATOM     17  C   UNL     1     173.333 173.881 153.040  1.00  0.00     0.158 A 
BRANCH  15  18
ATOM     18  O   UNL     1     174.870 172.035 152.708  1.00  0.00    -0.504 OA
ATOM     19  H   UNL     1     175.312 171.827 151.820  1.00  0.00     0.293 HD
ENDBRANCH  15  18
BRANCH  17  20
ATOM     20  O   UNL     1     172.268 173.122 152.556  1.00  0.00    -0.504 OA
ATOM     21  H   UNL     1     171.911 172.316 153.055  1.00  0.00     0.293 HD
ENDBRANCH  17  20
ENDBRANCH   1  12
BRANCH   6  22
ATOM     22  O   UNL     1     172.438 182.034 156.151  1.00  0.00    -0.507 OA
ATOM     23  H   UNL     1     172.312 181.885 157.141  1.00  0.00     0.293 HD
ENDBRANCH   6  22
BRANCH   8  24
ATOM     24  O   UNL     1     176.320 182.817 153.464  1.00  0.00    -0.508 OA
ATOM     25  H   UNL     1     176.890 183.404 154.062  1.00  0.00     0.293 HD
ENDBRANCH   8  24
TORSDOF 5
ENDMDL
MODEL 2
REMARK VINA RESULT:    -5.127      4.587      7.339
REMARK INTER + INTRA:          -6.300
REMARK INTER:                  -6.025
REMARK INTRA:                  -0.275
REMARK UNBOUND:                -0.274
REMARK SMILES O=c1cc(-c2ccc(O)c(O)c2)oc2cc(O)cc(O)c12
REMARK SMILES IDX 4 1 3 2 2 3 1 4 21 5 19 6 18 7 16 8 15 9 14 10 13 11 5 12
REMARK SMILES IDX 6 13 7 14 8 15 12 16 10 17 9 18 11 20 20 22 17 24
REMARK H PARENT 9 19 11 21 20 23 17 25
REMARK Flexibility Score: inf
ROOT
ATOM      1  C   UNL     1     170.792 173.935 154.370  1.00  0.00     0.138 A 
ATOM      2  C   UNL     1     170.447 172.925 155.279  1.00  0.00     0.100 A 
ATOM      3  C   UNL     1     169.113 172.763 155.655  1.00  0.00     0.197 A 
ATOM      4  O   UNL     1     168.842 171.889 156.520  1.00  0.00    -0.289 OA
ATOM      5  C   UNL     1     168.117 173.596 155.093  1.00  0.00     0.107 A 
ATOM      6  C   UNL     1     166.720 173.496 155.371  1.00  0.00     0.134 A 
ATOM      7  C   UNL     1     165.841 174.450 154.846  1.00  0.00     0.093 A 
ATOM      8  C   UNL     1     166.298 175.465 154.004  1.00  0.00     0.123 A 
ATOM      9  C   UNL     1     167.653 175.541 153.682  1.00  0.00     0.094 A 
ATOM     10  C   UNL     1     168.561 174.624 154.218  1.00  0.00     0.146 A 
ATOM     11  O   UNL     1     169.845 174.740 153.899  1.00  0.00    -0.456 OA
ENDROOT
BRANCH   1  12
ATOM     12  C   UNL     1     172.196 174.151 153.935  1.00  0.00     0.021 A 
ATOM     13  C   UNL     1     172.741 175.446 153.977  1.00  0.00     0.016 A 
ATOM     14  C   UNL     1     174.055 175.677 153.567  1.00  0.00     0.051 A 
ATOM     15  C   UNL     1     174.846 174.620 153.096  1.00  0.00     0.157 A 
ATOM     16  C   UNL     1     172.991 173.096 153.448  1.00  0.00     0.062 A 
ATOM     17  C   UNL     1     174.308 173.325 153.033  1.00  0.00     0.158 A 
BRANCH  15  18
ATOM     18  O   UNL     1     176.158 174.855 152.688  1.00  0.00    -0.504 OA
ATOM     19  H   UNL     1     176.372 175.198 151.759  1.00  0.00     0.293 HD
ENDBRANCH  15  18
BRANCH  17  20
ATOM     20  O   UNL     1     175.065 172.254 152.560  1.00  0.00    -0.504 OA
ATOM     21  H   UNL     1     176.068 172.203 152.693  1.00  0.00     0.293 HD
ENDBRANCH  17  20
ENDBRANCH   1  12
BRANCH   6  22
ATOM     22  O   UNL     1     166.147 172.471 156.131  1.00  0.00    -0.507 OA
ATOM     23  H   UNL     1     165.196 172.463 156.465  1.00  0.00     0.293 HD
ENDBRANCH   6  22
BRANCH   8  24
ATOM     24  O   UNL     1     165.391 176.388 153.488  1.00  0.00    -0.508 OA
ATOM     25  H   UNL     1     165.659 177.046 152.764  1.00  0.00     0.293 HD
ENDBRANCH   8  24
TORSDOF 5
ENDMDL
MODEL 3
REMARK VINA RESULT:    -5.118      4.573      7.220
REMARK INTER + INTRA:          -6.290
REMARK INTER:                  -6.018
REMARK INTRA:                  -0.272
REMARK UNBOUND:                -0.274
REMARK SMILES O=c1cc(-c2ccc(O)c(O)c2)oc2cc(O)cc(O)c12
REMARK SMILES IDX 4 1 3 2 2 3 1 4 21 5 19 6 18 7 16 8 15 9 14 10 13 11 5 12
REMARK SMILES IDX 6 13 7 14 8 15 12 16 10 17 9 18 11 20 20 22 17 24
REMARK H PARENT 9 19 11 21 20 23 17 25
REMARK Flexibility Score: inf
ROOT
ATOM      1  C   UNL     1     177.395 174.361 154.480  1.00  0.00     0.138 A 
ATOM      2  C   UNL     1     177.674 175.312 155.471  1.00  0.00     0.100 A 
ATOM      3  C   UNL     1     178.993 175.522 155.874  1.00  0.00     0.197 A 
ATOM      4  O   UNL     1     179.206 176.337 156.809  1.00  0.00    -0.289 OA
ATOM      5  C   UNL     1     180.041 174.798 155.256  1.00  0.00     0.107 A 
ATOM      6  C   UNL     1     181.428 174.959 155.557  1.00  0.00     0.134 A 
ATOM      7  C   UNL     1     182.365 174.104 154.966  1.00  0.00     0.093 A 
ATOM      8  C   UNL     1     181.975 173.136 154.040  1.00  0.00     0.123 A 
ATOM      9  C   UNL     1     180.629 173.006 153.698  1.00  0.00     0.094 A 
ATOM     10  C   UNL     1     179.665 173.820 154.297  1.00  0.00     0.146 A 
ATOM     11  O   UNL     1     178.391 173.655 153.955  1.00  0.00    -0.456 OA
ENDROOT
BRANCH   1  12
ATOM     12  C   UNL     1     176.010 174.098 154.014  1.00  0.00     0.021 A 
ATOM     13  C   UNL     1     175.507 172.786 154.046  1.00  0.00     0.016 A 
ATOM     14  C   UNL     1     174.210 172.511 153.606  1.00  0.00     0.051 A 
ATOM     15  C   UNL     1     173.396 173.540 153.116  1.00  0.00     0.157 A 
ATOM     16  C   UNL     1     175.191 175.126 153.507  1.00  0.00     0.062 A 
ATOM     17  C   UNL     1     173.892 174.853 153.064  1.00  0.00     0.158 A 
BRANCH  15  18
ATOM     18  O   UNL     1     172.102 173.262 152.679  1.00  0.00    -0.504 OA
ATOM     19  H   UNL     1     171.314 173.270 153.315  1.00  0.00     0.293 HD
ENDBRANCH  15  18
BRANCH  17  20
ATOM     20  O   UNL     1     173.110 175.898 152.572  1.00  0.00    -0.504 OA
ATOM     21  H   UNL     1     173.382 176.437 151.759  1.00  0.00     0.293 HD
ENDBRANCH  17  20
ENDBRANCH   1  12
BRANCH   6  22
ATOM     22  O   UNL     1     181.933 175.950 156.403  1.00  0.00    -0.507 OA
ATOM     23  H   UNL     1     182.805 175.889 156.907  1.00  0.00     0.293 HD
ENDBRANCH   6  22
BRANCH   8  24
ATOM     24  O   UNL     1     182.939 172.313 153.460  1.00  0.00    -0.508 OA
ATOM     25  H   UNL     1     183.832 172.680 153.151  1.00  0.00     0.293 HD
ENDBRANCH   8  24
TORSDOF 5
ENDMDL
MODEL 4
REMARK VINA RESULT:    -5.095      4.711     10.341
REMARK INTER + INTRA:          -6.262
REMARK INTER:                  -5.991
REMARK INTRA:                  -0.271
REMARK UNBOUND:                -0.274
REMARK SMILES O=c1cc(-c2ccc(O)c(O)c2)oc2cc(O)cc(O)c12
REMARK SMILES IDX 4 1 3 2 2 3 1 4 21 5 19 6 18 7 16 8 15 9 14 10 13 11 5 12
REMARK SMILES IDX 6 13 7 14 8 15 12 16 10 17 9 18 11 20 20 22 17 24
REMARK H PARENT 9 19 11 21 20 23 17 25
REMARK Flexibility Score: inf
ROOT
ATOM      1  C   UNL     1     174.343 170.864 154.502  1.00  0.00     0.138 A 
ATOM      2  C   UNL     1     175.283 170.589 155.504  1.00  0.00     0.100 A 
ATOM      3  C   UNL     1     175.482 169.271 155.920  1.00  0.00     0.197 A 
ATOM      4  O   UNL     1     176.288 169.062 156.864  1.00  0.00    -0.289 OA
ATOM      5  C   UNL     1     174.757 168.222 155.304  1.00  0.00     0.107 A 
ATOM      6  C   UNL     1     174.907 166.838 155.618  1.00  0.00     0.134 A 
ATOM      7  C   UNL     1     174.052 165.900 155.027  1.00  0.00     0.093 A 
ATOM      8  C   UNL     1     173.094 166.288 154.090  1.00  0.00     0.123 A 
ATOM      9  C   UNL     1     172.975 167.632 153.736  1.00  0.00     0.094 A 
ATOM     10  C   UNL     1     173.790 168.597 154.334  1.00  0.00     0.146 A 
ATOM     11  O   UNL     1     173.635 169.868 153.980  1.00  0.00    -0.456 OA
ENDROOT
BRANCH   1  12
ATOM     12  C   UNL     1     174.092 172.248 154.023  1.00  0.00     0.021 A 
ATOM     13  C   UNL     1     172.783 172.760 154.044  1.00  0.00     0.016 A 
ATOM     14  C   UNL     1     172.520 174.054 153.591  1.00  0.00     0.051 A 
ATOM     15  C   UNL     1     173.557 174.857 153.099  1.00  0.00     0.157 A 
ATOM     16  C   UNL     1     175.128 173.054 153.514  1.00  0.00     0.062 A 
ATOM     17  C   UNL     1     174.866 174.351 153.057  1.00  0.00     0.158 A 
BRANCH  15  18
ATOM     18  O   UNL     1     173.291 176.149 152.649  1.00  0.00    -0.504 OA
ATOM     19  H   UNL     1     172.622 176.747 153.119  1.00  0.00     0.293 HD
ENDBRANCH  15  18
BRANCH  17  20
ATOM     20  O   UNL     1     175.919 175.121 152.563  1.00  0.00    -0.504 OA
ATOM     21  H   UNL     1     175.972 176.121 152.715  1.00  0.00     0.293 HD
ENDBRANCH  17  20
ENDBRANCH   1  12
BRANCH   6  22
ATOM     22  O   UNL     1     175.888 166.333 156.477  1.00  0.00    -0.507 OA
ATOM     23  H   UNL     1     175.923 166.497 157.472  1.00  0.00     0.293 HD
ENDBRANCH   6  22
BRANCH   8  24
ATOM     24  O   UNL     1     172.271 165.325 153.511  1.00  0.00    -0.508 OA
ATOM     25  H   UNL     1     172.538 164.840 152.661  1.00  0.00     0.293 HD
ENDBRANCH   8  24
TORSDOF 5
ENDMDL
MODEL 5
REMARK VINA RESULT:    -4.734      4.727      9.979
REMARK INTER + INTRA:          -5.838
REMARK INTER:                  -5.547
REMARK INTRA:                  -0.291
REMARK UNBOUND:                -0.274
REMARK SMILES O=c1cc(-c2ccc(O)c(O)c2)oc2cc(O)cc(O)c12
REMARK SMILES IDX 4 1 3 2 2 3 1 4 21 5 19 6 18 7 16 8 15 9 14 10 13 11 5 12
REMARK SMILES IDX 6 13 7 14 8 15 12 16 10 17 9 18 11 20 20 22 17 24
REMARK H PARENT 9 19 11 21 20 23 17 25
REMARK Flexibility Score: inf
ROOT
ATOM      1  C   UNL     1     174.385 170.821 154.426  1.00  0.00     0.138 A 
ATOM      2  C   UNL     1     173.576 169.749 154.026  1.00  0.00     0.100 A 
ATOM      3  C   UNL     1     173.862 168.462 154.482  1.00  0.00     0.197 A 
ATOM      4  O   UNL     1     173.156 167.511 154.056  1.00  0.00    -0.289 OA
ATOM      5  C   UNL     1     174.944 168.254 155.370  1.00  0.00     0.107 A 
ATOM      6  C   UNL     1     175.304 166.992 155.932  1.00  0.00     0.134 A 
ATOM      7  C   UNL     1     176.466 166.887 156.706  1.00  0.00     0.093 A 
ATOM      8  C   UNL     1     177.247 168.008 156.989  1.00  0.00     0.123 A 
ATOM      9  C   UNL     1     176.875 169.256 156.489  1.00  0.00     0.094 A 
ATOM     10  C   UNL     1     175.741 169.388 155.684  1.00  0.00     0.146 A 
ATOM     11  O   UNL     1     175.429 170.591 155.216  1.00  0.00    -0.456 OA
ENDROOT
BRANCH   1  12
ATOM     12  C   UNL     1     174.126 172.211 153.971  1.00  0.00     0.021 A 
ATOM     13  C   UNL     1     172.814 172.715 154.000  1.00  0.00     0.016 A 
ATOM     14  C   UNL     1     172.543 174.015 153.570  1.00  0.00     0.051 A 
ATOM     15  C   UNL     1     173.576 174.833 153.093  1.00  0.00     0.157 A 
ATOM     16  C   UNL     1     175.158 173.034 153.478  1.00  0.00     0.062 A 
ATOM     17  C   UNL     1     174.888 174.336 153.044  1.00  0.00     0.158 A 
BRANCH  15  18
ATOM     18  O   UNL     1     173.301 176.131 152.666  1.00  0.00    -0.504 OA
ATOM     19  H   UNL     1     173.988 176.872 152.744  1.00  0.00     0.293 HD
ENDBRANCH  15  18
BRANCH  17  20
ATOM     20  O   UNL     1     175.936 175.122 152.565  1.00  0.00    -0.504 OA
ATOM     21  H   UNL     1     176.898 174.963 152.841  1.00  0.00     0.293 HD
ENDBRANCH  17  20
ENDBRANCH   1  12
BRANCH   6  22
ATOM     22  O   UNL     1     174.547 165.826 155.782  1.00  0.00    -0.507 OA
ATOM     23  H   UNL     1     174.837 165.013 155.260  1.00  0.00     0.293 HD
ENDBRANCH   6  22
BRANCH   8  24
ATOM     24  O   UNL     1     178.388 167.868 157.776  1.00  0.00    -0.508 OA
ATOM     25  H   UNL     1     179.068 167.136 157.599  1.00  0.00     0.293 HD
ENDBRANCH   8  24
TORSDOF 5
ENDMDL
MODEL 6
REMARK VINA RESULT:    -4.721      4.530      6.632
REMARK INTER + INTRA:          -5.823
REMARK INTER:                  -5.531
REMARK INTRA:                  -0.292
REMARK UNBOUND:                -0.274
REMARK SMILES O=c1cc(-c2ccc(O)c(O)c2)oc2cc(O)cc(O)c12
REMARK SMILES IDX 4 1 3 2 2 3 1 4 21 5 19 6 18 7 16 8 15 9 14 10 13 11 5 12
REMARK SMILES IDX 6 13 7 14 8 15 12 16 10 17 9 18 11 20 20 22 17 24
REMARK H PARENT 9 19 11 21 20 23 17 25
REMARK Flexibility Score: inf
ROOT
ATOM      1  C   UNL     1     177.439 174.371 154.386  1.00  0.00     0.138 A 
ATOM      2  C   UNL     1     178.504 173.556 153.979  1.00  0.00     0.100 A 
ATOM      3  C   UNL     1     179.799 173.847 154.413  1.00  0.00     0.197 A 
ATOM      4  O   UNL     1     180.743 173.136 153.982  1.00  0.00    -0.289 OA
ATOM      5  C   UNL     1     180.020 174.941 155.284  1.00  0.00     0.107 A 
ATOM      6  C   UNL     1     181.290 175.307 155.823  1.00  0.00     0.134 A 
ATOM      7  C   UNL     1     181.407 176.479 156.579  1.00  0.00     0.093 A 
ATOM      8  C   UNL     1     180.291 177.264 156.869  1.00  0.00     0.123 A 
ATOM      9  C   UNL     1     179.035 176.887 156.392  1.00  0.00     0.094 A 
ATOM     10  C   UNL     1     178.891 175.742 155.605  1.00  0.00     0.146 A 
ATOM     11  O   UNL     1     177.681 175.425 155.158  1.00  0.00    -0.456 OA
ENDROOT
BRANCH   1  12
ATOM     12  C   UNL     1     176.042 174.106 153.954  1.00  0.00     0.021 A 
ATOM     13  C   UNL     1     175.542 172.794 153.998  1.00  0.00     0.016 A 
ATOM     14  C   UNL     1     174.235 172.517 153.591  1.00  0.00     0.051 A 
ATOM     15  C   UNL     1     173.408 173.546 153.122  1.00  0.00     0.157 A 
ATOM     16  C   UNL     1     175.210 175.134 153.469  1.00  0.00     0.062 A 
ATOM     17  C   UNL     1     173.901 174.859 153.058  1.00  0.00     0.158 A 
BRANCH  15  18
ATOM     18  O   UNL     1     172.104 173.267 152.717  1.00  0.00    -0.504 OA
ATOM     19  H   UNL     1     171.851 173.217 151.737  1.00  0.00     0.293 HD
ENDBRANCH  15  18
BRANCH  17  20
ATOM     20  O   UNL     1     173.105 175.903 152.586  1.00  0.00    -0.504 OA
ATOM     21  H   UNL     1     172.890 176.715 153.153  1.00  0.00     0.293 HD
ENDBRANCH  17  20
ENDBRANCH   1  12
BRANCH   6  22
ATOM     22  O   UNL     1     182.454 174.548 155.665  1.00  0.00    -0.507 OA
ATOM     23  H   UNL     1     183.131 174.373 156.391  1.00  0.00     0.293 HD
ENDBRANCH   6  22
BRANCH   8  24
ATOM     24  O   UNL     1     180.442 178.415 157.639  1.00  0.00    -0.508 OA
ATOM     25  H   UNL     1     180.383 179.340 157.227  1.00  0.00     0.293 HD
ENDBRANCH   8  24
TORSDOF 5
ENDMDL
MODEL 7
REMARK VINA RESULT:    -4.715      4.650      8.011
REMARK INTER + INTRA:          -5.816
REMARK INTER:                  -5.523
REMARK INTRA:                  -0.292
REMARK UNBOUND:                -0.274
REMARK SMILES O=c1cc(-c2ccc(O)c(O)c2)oc2cc(O)cc(O)c12
REMARK SMILES IDX 4 1 3 2 2 3 1 4 21 5 19 6 18 7 16 8 15 9 14 10 13 11 5 12
REMARK SMILES IDX 6 13 7 14 8 15 12 16 10 17 9 18 11 20 20 22 17 24
REMARK H PARENT 9 19 11 21 20 23 17 25
REMARK Flexibility Score: inf
ROOT
ATOM      1  C   UNL     1     170.846 173.835 154.422  1.00  0.00     0.138 A 
ATOM      2  C   UNL     1     169.787 174.664 154.025  1.00  0.00     0.100 A 
ATOM      3  C   UNL     1     168.494 174.394 154.476  1.00  0.00     0.197 A 
ATOM      4  O   UNL     1     167.555 175.118 154.054  1.00  0.00    -0.289 OA
ATOM      5  C   UNL     1     168.268 173.308 155.355  1.00  0.00     0.107 A 
ATOM      6  C   UNL     1     166.999 172.963 155.911  1.00  0.00     0.134 A 
ATOM      7  C   UNL     1     166.875 171.797 156.675  1.00  0.00     0.093 A 
ATOM      8  C   UNL     1     167.983 170.996 156.954  1.00  0.00     0.123 A 
ATOM      9  C   UNL     1     169.238 171.353 156.460  1.00  0.00     0.094 A 
ATOM     10  C   UNL     1     169.389 172.492 155.665  1.00  0.00     0.146 A 
ATOM     11  O   UNL     1     170.598 172.789 155.202  1.00  0.00    -0.456 OA
ENDROOT
BRANCH   1  12
ATOM     12  C   UNL     1     172.241 174.077 153.972  1.00  0.00     0.021 A 
ATOM     13  C   UNL     1     172.763 175.381 154.008  1.00  0.00     0.016 A 
ATOM     14  C   UNL     1     174.068 175.637 153.583  1.00  0.00     0.051 A 
ATOM     15  C   UNL     1     174.873 174.594 153.104  1.00  0.00     0.157 A 
ATOM     16  C   UNL     1     173.050 173.036 153.477  1.00  0.00     0.062 A 
ATOM     17  C   UNL     1     174.358 173.289 153.048  1.00  0.00     0.158 A 
BRANCH  15  18
ATOM     18  O   UNL     1     176.176 174.852 152.682  1.00  0.00    -0.504 OA
ATOM     19  H   UNL     1     176.748 174.133 152.257  1.00  0.00     0.293 HD
ENDBRANCH  15  18
BRANCH  17  20
ATOM     20  O   UNL     1     175.130 172.232 152.567  1.00  0.00    -0.504 OA
ATOM     21  H   UNL     1     175.395 171.449 153.152  1.00  0.00     0.293 HD
ENDBRANCH  17  20
ENDBRANCH   1  12
BRANCH   6  22
ATOM     22  O   UNL     1     165.845 173.739 155.764  1.00  0.00    -0.507 OA
ATOM     23  H   UNL     1     164.916 173.445 156.022  1.00  0.00     0.293 HD
ENDBRANCH   6  22
BRANCH   8  24
ATOM     24  O   UNL     1     167.824 169.851 157.731  1.00  0.00    -0.508 OA
ATOM     25  H   UNL     1     166.918 169.412 157.850  1.00  0.00     0.293 HD
ENDBRANCH   8  24
TORSDOF 5
ENDMDL
MODEL 8
REMARK VINA RESULT:    -4.675      1.764      6.944
REMARK INTER + INTRA:          -5.769
REMARK INTER:                  -5.469
REMARK INTRA:                  -0.299
REMARK UNBOUND:                -0.274
REMARK SMILES O=c1cc(-c2ccc(O)c(O)c2)oc2cc(O)cc(O)c12
REMARK SMILES IDX 4 1 3 2 2 3 1 4 21 5 19 6 18 7 16 8 15 9 14 10 13 11 5 12
REMARK SMILES IDX 6 13 7 14 8 15 12 16 10 17 9 18 11 20 20 22 17 24
REMARK H PARENT 9 19 11 21 20 23 17 25
REMARK Flexibility Score: inf
ROOT
ATOM      1  C   UNL     1     173.561 177.397 154.753  1.00  0.00     0.138 A 
ATOM      2  C   UNL     1     172.626 177.002 155.719  1.00  0.00     0.100 A 
ATOM      3  C   UNL     1     172.346 175.645 155.893  1.00  0.00     0.197 A 
ATOM      4  O   UNL     1     171.457 175.325 156.725  1.00  0.00    -0.289 OA
ATOM      5  C   UNL     1     173.032 174.680 155.117  1.00  0.00     0.107 A 
ATOM      6  C   UNL     1     172.859 173.268 155.237  1.00  0.00     0.134 A 
ATOM      7  C   UNL     1     173.504 172.415 154.335  1.00  0.00     0.093 A 
ATOM      8  C   UNL     1     174.364 172.916 153.358  1.00  0.00     0.123 A 
ATOM      9  C   UNL     1     174.583 174.291 153.266  1.00  0.00     0.094 A 
ATOM     10  C   UNL     1     173.926 175.172 154.129  1.00  0.00     0.146 A 
ATOM     11  O   UNL     1     174.150 176.475 153.999  1.00  0.00    -0.456 OA
ENDROOT
BRANCH   1  12
ATOM     12  C   UNL     1     173.896 178.826 154.527  1.00  0.00     0.021 A 
ATOM     13  C   UNL     1     172.880 179.795 154.599  1.00  0.00     0.016 A 
ATOM     14  C   UNL     1     173.167 181.144 154.382  1.00  0.00     0.051 A 
ATOM     15  C   UNL     1     174.474 181.549 154.079  1.00  0.00     0.157 A 
ATOM     16  C   UNL     1     175.205 179.239 154.208  1.00  0.00     0.062 A 
ATOM     17  C   UNL     1     175.495 180.590 153.988  1.00  0.00     0.158 A 
BRANCH  15  18
ATOM     18  O   UNL     1     174.757 182.897 153.864  1.00  0.00    -0.504 OA
ATOM     19  H   UNL     1     175.708 183.228 153.751  1.00  0.00     0.293 HD
ENDBRANCH  15  18
BRANCH  17  20
ATOM     20  O   UNL     1     176.803 180.960 153.677  1.00  0.00    -0.504 OA
ATOM     21  H   UNL     1     177.070 181.269 152.750  1.00  0.00     0.293 HD
ENDBRANCH  17  20
ENDBRANCH   1  12
BRANCH   6  22
ATOM     22  O   UNL     1     172.089 172.658 156.232  1.00  0.00    -0.507 OA
ATOM     23  H   UNL     1     171.090 172.527 156.189  1.00  0.00     0.293 HD
ENDBRANCH   6  22
BRANCH   8  24
ATOM     24  O   UNL     1     175.002 172.035 152.487  1.00  0.00    -0.508 OA
ATOM     25  H   UNL     1     175.394 172.351 151.607  1.00  0.00     0.293 HD
ENDBRANCH   8  24
TORSDOF 5
ENDMDL
MODEL 9
REMARK VINA RESULT:    -4.646      4.893      7.353
REMARK INTER + INTRA:          -5.735
REMARK INTER:                  -5.436
REMARK INTRA:                  -0.298
REMARK UNBOUND:                -0.274
REMARK SMILES O=c1cc(-c2ccc(O)c(O)c2)oc2cc(O)cc(O)c12
REMARK SMILES IDX 4 1 3 2 2 3 1 4 21 5 19 6 18 7 16 8 15 9 14 10 13 11 5 12
REMARK SMILES IDX 6 13 7 14 8 15 12 16 10 17 9 18 11 20 20 22 17 24
REMARK H PARENT 9 19 11 21 20 23 17 25
REMARK Flexibility Score: inf
ROOT
ATOM      1  C   UNL     1     170.597 173.707 154.636  1.00  0.00     0.138 A 
ATOM      2  C   UNL     1     170.947 172.712 155.559  1.00  0.00     0.100 A 
ATOM      3  C   UNL     1     172.290 172.372 155.730  1.00  0.00     0.197 A 
ATOM      4  O   UNL     1     172.569 171.433 156.520  1.00  0.00    -0.289 OA
ATOM      5  C   UNL     1     173.288 173.055 154.995  1.00  0.00     0.107 A 
ATOM      6  C   UNL     1     174.691 172.822 155.117  1.00  0.00     0.134 A 
ATOM      7  C   UNL     1     175.577 173.476 154.253  1.00  0.00     0.093 A 
ATOM      8  C   UNL     1     175.119 174.399 153.314  1.00  0.00     0.123 A 
ATOM      9  C   UNL     1     173.754 174.675 153.222  1.00  0.00     0.094 A 
ATOM     10  C   UNL     1     172.841 174.014 154.046  1.00  0.00     0.146 A 
ATOM     11  O   UNL     1     171.548 174.294 153.918  1.00  0.00    -0.456 OA
ENDROOT
BRANCH   1  12
ATOM     12  C   UNL     1     169.184 174.108 154.415  1.00  0.00     0.021 A 
ATOM     13  C   UNL     1     168.179 173.125 154.415  1.00  0.00     0.016 A 
ATOM     14  C   UNL     1     166.844 173.475 154.202  1.00  0.00     0.051 A 
ATOM     15  C   UNL     1     166.490 174.811 153.974  1.00  0.00     0.157 A 
ATOM     16  C   UNL     1     168.823 175.447 154.172  1.00  0.00     0.062 A 
ATOM     17  C   UNL     1     167.487 175.800 153.955  1.00  0.00     0.158 A 
BRANCH  15  18
ATOM     18  O   UNL     1     165.156 175.157 153.762  1.00  0.00    -0.504 OA
ATOM     19  H   UNL     1     164.697 174.982 152.877  1.00  0.00     0.293 HD
ENDBRANCH  15  18
BRANCH  17  20
ATOM     20  O   UNL     1     167.168 177.137 153.721  1.00  0.00    -0.504 OA
ATOM     21  H   UNL     1     167.760 177.895 154.038  1.00  0.00     0.293 HD
ENDBRANCH  17  20
ENDBRANCH   1  12
BRANCH   6  22
ATOM     22  O   UNL     1     175.262 171.982 156.079  1.00  0.00    -0.507 OA
ATOM     23  H   UNL     1     176.137 171.493 155.971  1.00  0.00     0.293 HD
ENDBRANCH   6  22
BRANCH   8  24
ATOM     24  O   UNL     1     176.032 175.043 152.481  1.00  0.00    -0.508 OA
ATOM     25  H   UNL     1     177.009 175.131 152.735  1.00  0.00     0.293 HD
ENDBRANCH   8  24
TORSDOF 5
ENDMDL
