MODEL 1
REMARK VINA RESULT:    -4.015      0.000      0.000
REMARK INTER + INTRA:          -9.016
REMARK INTER:                  -6.831
REMARK INTRA:                  -2.185
REMARK UNBOUND:                -2.185
REMARK SMILES CC(=O)CCC[C@@H](C)CCC[C@H](C)CCCC(C)C
REMARK SMILES IDX 10 1 11 2 12 3 13 4 14 5 15 6 16 7 17 8 18 9 19 10 9 11 7 12
REMARK SMILES IDX 8 13 6 14 5 15 4 16 2 17 3 18 1 19
REMARK H PARENT
REMARK Flexibility Score: inf
ROOT
ATOM      1  C   UNL     1     105.644 107.023 101.875  1.00  0.00     0.001 C 
ENDROOT
BRANCH   1   2
ATOM      2  C   UNL     1     104.375 106.400 102.480  1.00  0.00     0.003 C 
BRANCH   2   3
ATOM      3  C   UNL     1     104.200 104.903 102.120  1.00  0.00    -0.014 C 
ATOM      4  C   UNL     1     102.870 104.353 102.669  1.00  0.00     0.007 C 
BRANCH   3   5
ATOM      5  C   UNL     1     105.411 104.103 102.665  1.00  0.00     0.003 C 
BRANCH   5   6
ATOM      6  C   UNL     1     105.663 104.215 104.182  1.00  0.00     0.001 C 
BRANCH   6   7
ATOM      7  C   UNL     1     106.971 103.537 104.629  1.00  0.00     0.003 C 
BRANCH   7   8
ATOM      8  C   UNL     1     107.152 103.544 106.164  1.00  0.00    -0.017 C 
ATOM      9  C   UNL     1     107.501 102.150 106.710  1.00  0.00     0.007 C 
ATOM     10  C   UNL     1     105.874 104.058 106.842  1.00  0.00     0.007 C 
ENDBRANCH   7   8
ENDBRANCH   6   7
ENDBRANCH   5   6
ENDBRANCH   3   5
ENDBRANCH   2   3
ENDBRANCH   1   2
BRANCH   1  11
ATOM     11  C   UNL     1     106.398 107.858 102.922  1.00  0.00     0.003 C 
BRANCH  11  12
ATOM     12  C   UNL     1     107.888 107.453 103.054  1.00  0.00    -0.014 C 
ATOM     13  C   UNL     1     108.229 106.295 102.102  1.00  0.00     0.007 C 
BRANCH  12  14
ATOM     14  C   UNL     1     108.248 107.041 104.505  1.00  0.00     0.004 C 
BRANCH  14  15
ATOM     15  C   UNL     1     107.117 107.180 105.545  1.00  0.00     0.008 C 
BRANCH  15  16
ATOM     16  C   UNL     1     107.573 107.730 106.912  1.00  0.00     0.075 C 
BRANCH  16  17
ATOM     17  C   UNL     1     108.786 107.017 107.457  1.00  0.00     0.129 C 
ATOM     18  O   UNL     1     108.663 105.910 107.957  1.00  0.00    -0.300 OA
ATOM     19  C   UNL     1     110.141 107.660 107.432  1.00  0.00     0.087 C 
ENDBRANCH  16  17
ENDBRANCH  15  16
ENDBRANCH  14  15
ENDBRANCH  12  14
ENDBRANCH  11  12
ENDBRANCH   1  11
TORSDOF 12
ENDMDL
MODEL 2
REMARK VINA RESULT:    -3.999      2.379      3.547
REMARK INTER + INTRA:          -8.988
REMARK INTER:                  -6.728
REMARK INTRA:                  -2.261
REMARK UNBOUND:                -2.185
REMARK SMILES CC(=O)CCC[C@@H](C)CCC[C@H](C)CCCC(C)C
REMARK SMILES IDX 10 1 11 2 12 3 13 4 14 5 15 6 16 7 17 8 18 9 19 10 9 11 7 12
REMARK SMILES IDX 8 13 6 14 5 15 4 16 2 17 3 18 1 19
REMARK H PARENT
REMARK Flexibility Score: inf
ROOT
ATOM      1  C   UNL     1     108.211 106.486 102.662  1.00  0.00     0.001 C 
ENDROOT
BRANCH   1   2
ATOM      2  C   UNL     1     107.383 105.318 102.098  1.00  0.00     0.003 C 
BRANCH   2   3
ATOM      3  C   UNL     1     107.359 104.082 103.032  1.00  0.00    -0.014 C 
ATOM      4  C   UNL     1     107.636 102.788 102.244  1.00  0.00     0.007 C 
BRANCH   3   5
ATOM      5  C   UNL     1     105.992 104.019 103.760  1.00  0.00     0.003 C 
BRANCH   5   6
ATOM      6  C   UNL     1     106.025 104.295 105.277  1.00  0.00     0.001 C 
BRANCH   6   7
ATOM      7  C   UNL     1     107.441 104.580 105.808  1.00  0.00     0.003 C 
BRANCH   7   8
ATOM      8  C   UNL     1     107.445 105.580 106.987  1.00  0.00    -0.017 C 
ATOM      9  C   UNL     1     108.151 106.897 106.623  1.00  0.00     0.007 C 
ATOM     10  C   UNL     1     108.128 104.950 108.210  1.00  0.00     0.007 C 
ENDBRANCH   7   8
ENDBRANCH   6   7
ENDBRANCH   5   6
ENDBRANCH   3   5
ENDBRANCH   2   3
ENDBRANCH   1   2
BRANCH   1  11
ATOM     11  C   UNL     1     107.304 107.520 103.348  1.00  0.00     0.003 C 
BRANCH  11  12
ATOM     12  C   UNL     1     105.847 107.483 102.823  1.00  0.00    -0.014 C 
ATOM     13  C   UNL     1     105.572 108.666 101.879  1.00  0.00     0.007 C 
BRANCH  12  14
ATOM     14  C   UNL     1     104.816 107.505 103.980  1.00  0.00     0.004 C 
BRANCH  14  15
ATOM     15  C   UNL     1     104.951 108.671 104.982  1.00  0.00     0.008 C 
BRANCH  15  16
ATOM     16  C   UNL     1     104.826 108.258 106.462  1.00  0.00     0.075 C 
BRANCH  16  17
ATOM     17  C   UNL     1     104.551 109.427 107.376  1.00  0.00     0.129 C 
ATOM     18  O   UNL     1     104.603 109.274 108.587  1.00  0.00    -0.300 OA
ATOM     19  C   UNL     1     104.173 110.770 106.826  1.00  0.00     0.087 C 
ENDBRANCH  16  17
ENDBRANCH  15  16
ENDBRANCH  14  15
ENDBRANCH  12  14
ENDBRANCH  11  12
ENDBRANCH   1  11
TORSDOF 12
ENDMDL
MODEL 3
REMARK VINA RESULT:    -3.884      1.730      2.533
REMARK INTER + INTRA:          -8.794
REMARK INTER:                  -6.953
REMARK INTRA:                  -1.841
REMARK UNBOUND:                -2.185
REMARK SMILES CC(=O)CCC[C@@H](C)CCC[C@H](C)CCCC(C)C
REMARK SMILES IDX 10 1 11 2 12 3 13 4 14 5 15 6 16 7 17 8 18 9 19 10 9 11 7 12
REMARK SMILES IDX 8 13 6 14 5 15 4 16 2 17 3 18 1 19
REMARK H PARENT
REMARK Flexibility Score: inf
ROOT
ATOM      1  C   UNL     1     107.198 104.748 102.670  1.00  0.00     0.001 C 
ENDROOT
BRANCH   1   2
ATOM      2  C   UNL     1     105.973 104.212 101.908  1.00  0.00     0.003 C 
BRANCH   2   3
ATOM      3  C   UNL     1     104.626 104.649 102.538  1.00  0.00    -0.014 C 
ATOM      4  C   UNL     1     104.234 106.066 102.077  1.00  0.00     0.007 C 
BRANCH   3   5
ATOM      5  C   UNL     1     104.735 104.567 104.083  1.00  0.00     0.003 C 
BRANCH   5   6
ATOM      6  C   UNL     1     103.714 105.409 104.874  1.00  0.00     0.001 C 
BRANCH   6   7
ATOM      7  C   UNL     1     103.551 104.946 106.333  1.00  0.00     0.003 C 
BRANCH   7   8
ATOM      8  C   UNL     1     104.123 105.961 107.348  1.00  0.00    -0.017 C 
ATOM      9  C   UNL     1     104.542 107.278 106.673  1.00  0.00     0.007 C 
ATOM     10  C   UNL     1     105.327 105.352 108.081  1.00  0.00     0.007 C 
ENDBRANCH   7   8
ENDBRANCH   6   7
ENDBRANCH   5   6
ENDBRANCH   3   5
ENDBRANCH   2   3
ENDBRANCH   1   2
BRANCH   1  11
ATOM     11  C   UNL     1     107.891 105.866 101.875  1.00  0.00     0.003 C 
BRANCH  11  12
ATOM     12  C   UNL     1     107.909 107.218 102.632  1.00  0.00    -0.014 C 
ATOM     13  C   UNL     1     109.308 107.856 102.586  1.00  0.00     0.007 C 
BRANCH  12  14
ATOM     14  C   UNL     1     107.472 107.058 104.110  1.00  0.00     0.004 C 
BRANCH  14  15
ATOM     15  C   UNL     1     108.611 107.007 105.149  1.00  0.00     0.008 C 
BRANCH  15  16
ATOM     16  C   UNL     1     108.166 107.289 106.598  1.00  0.00     0.075 C 
BRANCH  16  17
ATOM     17  C   UNL     1     109.321 107.612 107.514  1.00  0.00     0.129 C 
ATOM     18  O   UNL     1     109.125 107.744 108.712  1.00  0.00    -0.300 OA
ATOM     19  C   UNL     1     110.707 107.815 106.975  1.00  0.00     0.087 C 
ENDBRANCH  16  17
ENDBRANCH  15  16
ENDBRANCH  14  15
ENDBRANCH  12  14
ENDBRANCH  11  12
ENDBRANCH   1  11
TORSDOF 12
ENDMDL
MODEL 4
REMARK VINA RESULT:    -3.871      1.909      4.294
REMARK INTER + INTRA:          -8.771
REMARK INTER:                  -6.214
REMARK INTRA:                  -2.557
REMARK UNBOUND:                -2.185
REMARK SMILES CC(=O)CCC[C@@H](C)CCC[C@H](C)CCCC(C)C
REMARK SMILES IDX 10 1 11 2 12 3 13 4 14 5 15 6 16 7 17 8 18 9 19 10 9 11 7 12
REMARK SMILES IDX 8 13 6 14 5 15 4 16 2 17 3 18 1 19
REMARK H PARENT
REMARK Flexibility Score: inf
ROOT
ATOM      1  C   UNL     1     107.124 103.939 104.216  1.00  0.00     0.001 C 
ENDROOT
BRANCH   1   2
ATOM      2  C   UNL     1     106.016 103.885 103.150  1.00  0.00     0.003 C 
BRANCH   2   3
ATOM      3  C   UNL     1     105.121 105.150 103.137  1.00  0.00    -0.014 C 
ATOM      4  C   UNL     1     103.629 104.773 103.189  1.00  0.00     0.007 C 
BRANCH   3   5
ATOM      5  C   UNL     1     105.448 105.993 101.878  1.00  0.00     0.003 C 
BRANCH   5   6
ATOM      6  C   UNL     1     106.076 107.376 102.139  1.00  0.00     0.001 C 
BRANCH   6   7
ATOM      7  C   UNL     1     106.695 107.503 103.543  1.00  0.00     0.003 C 
BRANCH   7   8
ATOM      8  C   UNL     1     108.163 107.023 103.594  1.00  0.00    -0.017 C 
ATOM      9  C   UNL     1     108.750 107.113 105.012  1.00  0.00     0.007 C 
ATOM     10  C   UNL     1     109.022 107.851 102.627  1.00  0.00     0.007 C 
ENDBRANCH   7   8
ENDBRANCH   6   7
ENDBRANCH   5   6
ENDBRANCH   3   5
ENDBRANCH   2   3
ENDBRANCH   1   2
BRANCH   1  11
ATOM     11  C   UNL     1     106.589 103.490 105.585  1.00  0.00     0.003 C 
BRANCH  11  12
ATOM     12  C   UNL     1     106.499 104.654 106.605  1.00  0.00    -0.014 C 
ATOM     13  C   UNL     1     107.688 104.622 107.581  1.00  0.00     0.007 C 
BRANCH  12  14
ATOM     14  C   UNL     1     105.177 104.612 107.413  1.00  0.00     0.004 C 
BRANCH  14  15
ATOM     15  C   UNL     1     104.042 105.520 106.897  1.00  0.00     0.008 C 
BRANCH  15  16
ATOM     16  C   UNL     1     104.519 106.858 106.297  1.00  0.00     0.075 C 
BRANCH  16  17
ATOM     17  C   UNL     1     104.758 107.918 107.344  1.00  0.00     0.129 C 
ATOM     18  O   UNL     1     103.827 108.608 107.731  1.00  0.00    -0.300 OA
ATOM     19  C   UNL     1     106.130 108.170 107.895  1.00  0.00     0.087 C 
ENDBRANCH  16  17
ENDBRANCH  15  16
ENDBRANCH  14  15
ENDBRANCH  12  14
ENDBRANCH  11  12
ENDBRANCH   1  11
TORSDOF 12
ENDMDL
MODEL 5
REMARK VINA RESULT:    -3.868      2.614      3.687
REMARK INTER + INTRA:          -8.767
REMARK INTER:                  -6.611
REMARK INTRA:                  -2.156
REMARK UNBOUND:                -2.185
REMARK SMILES CC(=O)CCC[C@@H](C)CCC[C@H](C)CCCC(C)C
REMARK SMILES IDX 10 1 11 2 12 3 13 4 14 5 15 6 16 7 17 8 18 9 19 10 9 11 7 12
REMARK SMILES IDX 8 13 6 14 5 15 4 16 2 17 3 18 1 19
REMARK H PARENT
REMARK Flexibility Score: inf
ROOT
ATOM      1  C   UNL     1     107.604 106.992 102.713  1.00  0.00     0.001 C 
ENDROOT
BRANCH   1   2
ATOM      2  C   UNL     1     107.837 105.640 102.017  1.00  0.00     0.003 C 
BRANCH   2   3
ATOM      3  C   UNL     1     107.282 104.437 102.822  1.00  0.00    -0.014 C 
ATOM      4  C   UNL     1     105.938 103.957 102.244  1.00  0.00     0.007 C 
BRANCH   3   5
ATOM      5  C   UNL     1     107.145 104.841 104.313  1.00  0.00     0.003 C 
BRANCH   5   6
ATOM      6  C   UNL     1     105.853 104.383 105.017  1.00  0.00     0.001 C 
BRANCH   6   7
ATOM      7  C   UNL     1     105.914 104.529 106.548  1.00  0.00     0.003 C 
BRANCH   7   8
ATOM      8  C   UNL     1     104.543 104.302 107.224  1.00  0.00    -0.017 C 
ATOM      9  C   UNL     1     103.381 104.811 106.356  1.00  0.00     0.007 C 
ATOM     10  C   UNL     1     104.508 105.000 108.592  1.00  0.00     0.007 C 
ENDBRANCH   7   8
ENDBRANCH   6   7
ENDBRANCH   5   6
ENDBRANCH   3   5
ENDBRANCH   2   3
ENDBRANCH   1   2
BRANCH   1  11
ATOM     11  C   UNL     1     106.425 107.742 102.073  1.00  0.00     0.003 C 
BRANCH  11  12
ATOM     12  C   UNL     1     105.228 107.918 103.041  1.00  0.00    -0.014 C 
ATOM     13  C   UNL     1     104.289 109.037 102.558  1.00  0.00     0.007 C 
BRANCH  12  14
ATOM     14  C   UNL     1     105.695 108.234 104.485  1.00  0.00     0.004 C 
BRANCH  14  15
ATOM     15  C   UNL     1     104.693 107.895 105.607  1.00  0.00     0.008 C 
BRANCH  15  16
ATOM     16  C   UNL     1     105.151 108.313 107.019  1.00  0.00     0.075 C 
BRANCH  16  17
ATOM     17  C   UNL     1     104.157 109.208 107.717  1.00  0.00     0.129 C 
ATOM     18  O   UNL     1     104.129 110.401 107.456  1.00  0.00    -0.300 OA
ATOM     19  C   UNL     1     103.223 108.668 108.759  1.00  0.00     0.087 C 
ENDBRANCH  16  17
ENDBRANCH  15  16
ENDBRANCH  14  15
ENDBRANCH  12  14
ENDBRANCH  11  12
ENDBRANCH   1  11
TORSDOF 12
ENDMDL
MODEL 6
REMARK VINA RESULT:    -3.858      1.946      3.599
REMARK INTER + INTRA:          -8.750
REMARK INTER:                  -6.301
REMARK INTRA:                  -2.449
REMARK UNBOUND:                -2.185
REMARK SMILES CC(=O)CCC[C@@H](C)CCC[C@H](C)CCCC(C)C
REMARK SMILES IDX 10 1 11 2 12 3 13 4 14 5 15 6 16 7 17 8 18 9 19 10 9 11 7 12
REMARK SMILES IDX 8 13 6 14 5 15 4 16 2 17 3 18 1 19
REMARK H PARENT
REMARK Flexibility Score: inf
ROOT
ATOM      1  C   UNL     1     104.154 105.555 102.529  1.00  0.00     0.001 C 
ENDROOT
BRANCH   1   2
ATOM      2  C   UNL     1     104.866 106.814 102.003  1.00  0.00     0.003 C 
BRANCH   2   3
ATOM      3  C   UNL     1     104.586 108.074 102.859  1.00  0.00    -0.014 C 
ATOM      4  C   UNL     1     104.659 109.352 102.004  1.00  0.00     0.007 C 
BRANCH   3   5
ATOM      5  C   UNL     1     105.593 108.125 104.038  1.00  0.00     0.003 C 
BRANCH   5   6
ATOM      6  C   UNL     1     104.976 108.279 105.442  1.00  0.00     0.001 C 
BRANCH   6   7
ATOM      7  C   UNL     1     104.428 106.958 106.011  1.00  0.00     0.003 C 
BRANCH   7   8
ATOM      8  C   UNL     1     104.097 107.049 107.518  1.00  0.00    -0.017 C 
ATOM      9  C   UNL     1     104.836 108.212 108.201  1.00  0.00     0.007 C 
ATOM     10  C   UNL     1     104.455 105.730 108.216  1.00  0.00     0.007 C 
ENDBRANCH   7   8
ENDBRANCH   6   7
ENDBRANCH   5   6
ENDBRANCH   3   5
ENDBRANCH   2   3
ENDBRANCH   1   2
BRANCH   1  11
ATOM     11  C   UNL     1     105.095 104.340 102.501  1.00  0.00     0.003 C 
BRANCH  11  12
ATOM     12  C   UNL     1     106.470 104.631 103.156  1.00  0.00    -0.014 C 
ATOM     13  C   UNL     1     107.612 104.448 102.142  1.00  0.00     0.007 C 
BRANCH  12  14
ATOM     14  C   UNL     1     106.728 103.719 104.382  1.00  0.00     0.004 C 
BRANCH  14  15
ATOM     15  C   UNL     1     107.066 104.443 105.702  1.00  0.00     0.008 C 
BRANCH  15  16
ATOM     16  C   UNL     1     107.862 105.752 105.525  1.00  0.00     0.075 C 
BRANCH  16  17
ATOM     17  C   UNL     1     108.071 106.491 106.824  1.00  0.00     0.129 C 
ATOM     18  O   UNL     1     108.077 107.712 106.832  1.00  0.00    -0.300 OA
ATOM     19  C   UNL     1     108.313 105.753 108.107  1.00  0.00     0.087 C 
ENDBRANCH  16  17
ENDBRANCH  15  16
ENDBRANCH  14  15
ENDBRANCH  12  14
ENDBRANCH  11  12
ENDBRANCH   1  11
TORSDOF 12
ENDMDL
MODEL 7
REMARK VINA RESULT:    -3.848      2.118      4.129
REMARK INTER + INTRA:          -8.733
REMARK INTER:                  -6.302
REMARK INTRA:                  -2.430
REMARK UNBOUND:                -2.185
REMARK SMILES CC(=O)CCC[C@@H](C)CCC[C@H](C)CCCC(C)C
REMARK SMILES IDX 10 1 11 2 12 3 13 4 14 5 15 6 16 7 17 8 18 9 19 10 9 11 7 12
REMARK SMILES IDX 8 13 6 14 5 15 4 16 2 17 3 18 1 19
REMARK H PARENT
REMARK Flexibility Score: inf
ROOT
ATOM      1  C   UNL     1     106.305 106.381 101.945  1.00  0.00     0.001 C 
ENDROOT
BRANCH   1   2
ATOM      2  C   UNL     1     106.341 107.709 102.721  1.00  0.00     0.003 C 
BRANCH   2   3
ATOM      3  C   UNL     1     104.931 108.249 103.068  1.00  0.00    -0.014 C 
ATOM      4  C   UNL     1     104.534 109.404 102.131  1.00  0.00     0.007 C 
BRANCH   3   5
ATOM      5  C   UNL     1     104.906 108.692 104.554  1.00  0.00     0.003 C 
BRANCH   5   6
ATOM      6  C   UNL     1     105.391 107.645 105.576  1.00  0.00     0.001 C 
BRANCH   6   7
ATOM      7  C   UNL     1     105.521 108.208 107.003  1.00  0.00     0.003 C 
BRANCH   7   8
ATOM      8  C   UNL     1     104.594 107.495 108.013  1.00  0.00    -0.017 C 
ATOM      9  C   UNL     1     103.992 106.205 107.431  1.00  0.00     0.007 C 
ATOM     10  C   UNL     1     103.464 108.439 108.449  1.00  0.00     0.007 C 
ENDBRANCH   7   8
ENDBRANCH   6   7
ENDBRANCH   5   6
ENDBRANCH   3   5
ENDBRANCH   2   3
ENDBRANCH   1   2
BRANCH   1  11
ATOM     11  C   UNL     1     104.877 105.817 101.889  1.00  0.00     0.003 C 
BRANCH  11  12
ATOM     12  C   UNL     1     104.685 104.575 102.796  1.00  0.00    -0.014 C 
ATOM     13  C   UNL     1     103.621 104.840 103.874  1.00  0.00     0.007 C 
BRANCH  12  14
ATOM     14  C   UNL     1     106.009 104.152 103.481  1.00  0.00     0.004 C 
BRANCH  14  15
ATOM     15  C   UNL     1     106.004 104.163 105.024  1.00  0.00     0.008 C 
BRANCH  15  16
ATOM     16  C   UNL     1     107.324 104.639 105.663  1.00  0.00     0.075 C 
BRANCH  16  17
ATOM     17  C   UNL     1     107.553 104.060 107.037  1.00  0.00     0.129 C 
ATOM     18  O   UNL     1     107.811 102.872 107.159  1.00  0.00    -0.300 OA
ATOM     19  C   UNL     1     107.431 104.909 108.268  1.00  0.00     0.087 C 
ENDBRANCH  16  17
ENDBRANCH  15  16
ENDBRANCH  14  15
ENDBRANCH  12  14
ENDBRANCH  11  12
ENDBRANCH   1  11
TORSDOF 12
ENDMDL
MODEL 8
REMARK VINA RESULT:    -3.807      1.291      3.793
REMARK INTER + INTRA:          -8.663
REMARK INTER:                  -6.758
REMARK INTRA:                  -1.905
REMARK UNBOUND:                -2.185
REMARK SMILES CC(=O)CCC[C@@H](C)CCC[C@H](C)CCCC(C)C
REMARK SMILES IDX 10 1 11 2 12 3 13 4 14 5 15 6 16 7 17 8 18 9 19 10 9 11 7 12
REMARK SMILES IDX 8 13 6 14 5 15 4 16 2 17 3 18 1 19
REMARK H PARENT
REMARK Flexibility Score: inf
ROOT
ATOM      1  C   UNL     1     106.653 103.756 103.845  1.00  0.00     0.001 C 
ENDROOT
BRANCH   1   2
ATOM      2  C   UNL     1     105.662 103.942 102.683  1.00  0.00     0.003 C 
BRANCH   2   3
ATOM      3  C   UNL     1     104.511 104.924 103.017  1.00  0.00    -0.014 C 
ATOM      4  C   UNL     1     103.140 104.298 102.701  1.00  0.00     0.007 C 
BRANCH   3   5
ATOM      5  C   UNL     1     104.723 106.245 102.232  1.00  0.00     0.003 C 
BRANCH   5   6
ATOM      6  C   UNL     1     105.345 107.408 103.029  1.00  0.00     0.001 C 
BRANCH   6   7
ATOM      7  C   UNL     1     106.690 107.886 102.452  1.00  0.00     0.003 C 
BRANCH   7   8
ATOM      8  C   UNL     1     107.860 106.940 102.804  1.00  0.00    -0.017 C 
ATOM      9  C   UNL     1     108.302 107.090 104.269  1.00  0.00     0.007 C 
ATOM     10  C   UNL     1     109.053 107.209 101.876  1.00  0.00     0.007 C 
ENDBRANCH   7   8
ENDBRANCH   6   7
ENDBRANCH   5   6
ENDBRANCH   3   5
ENDBRANCH   2   3
ENDBRANCH   1   2
BRANCH   1  11
ATOM     11  C   UNL     1     106.069 104.305 105.157  1.00  0.00     0.003 C 
BRANCH  11  12
ATOM     12  C   UNL     1     107.149 104.534 106.245  1.00  0.00    -0.014 C 
ATOM     13  C   UNL     1     107.548 103.207 106.912  1.00  0.00     0.007 C 
BRANCH  12  14
ATOM     14  C   UNL     1     106.668 105.526 107.335  1.00  0.00     0.004 C 
BRANCH  14  15
ATOM     15  C   UNL     1     107.767 106.113 108.244  1.00  0.00     0.008 C 
BRANCH  15  16
ATOM     16  C   UNL     1     107.721 107.647 108.391  1.00  0.00     0.075 C 
BRANCH  16  17
ATOM     17  C   UNL     1     109.064 108.299 108.169  1.00  0.00     0.129 C 
ATOM     18  O   UNL     1     109.233 109.464 108.495  1.00  0.00    -0.300 OA
ATOM     19  C   UNL     1     110.191 107.553 107.518  1.00  0.00     0.087 C 
ENDBRANCH  16  17
ENDBRANCH  15  16
ENDBRANCH  14  15
ENDBRANCH  12  14
ENDBRANCH  11  12
ENDBRANCH   1  11
TORSDOF 12
ENDMDL
MODEL 9
REMARK VINA RESULT:    -3.747      2.099      4.857
REMARK INTER + INTRA:          -8.560
REMARK INTER:                  -6.054
REMARK INTRA:                  -2.507
REMARK UNBOUND:                -2.185
REMARK SMILES CC(=O)CCC[C@@H](C)CCC[C@H](C)CCCC(C)C
REMARK SMILES IDX 10 1 11 2 12 3 13 4 14 5 15 6 16 7 17 8 18 9 19 10 9 11 7 12
REMARK SMILES IDX 8 13 6 14 5 15 4 16 2 17 3 18 1 19
REMARK H PARENT
REMARK Flexibility Score: inf
ROOT
ATOM      1  C   UNL     1     107.469 105.467 105.162  1.00  0.00     0.001 C 
ENDROOT
BRANCH   1   2
ATOM      2  C   UNL     1     108.090 106.631 104.371  1.00  0.00     0.003 C 
BRANCH   2   3
ATOM      3  C   UNL     1     107.394 106.883 103.011  1.00  0.00    -0.014 C 
ATOM      4  C   UNL     1     108.400 107.382 101.958  1.00  0.00     0.007 C 
BRANCH   3   5
ATOM      5  C   UNL     1     106.235 107.895 103.211  1.00  0.00     0.003 C 
BRANCH   5   6
ATOM      6  C   UNL     1     104.811 107.311 103.128  1.00  0.00     0.001 C 
BRANCH   6   7
ATOM      7  C   UNL     1     104.634 106.311 101.972  1.00  0.00     0.003 C 
BRANCH   7   8
ATOM      8  C   UNL     1     104.338 104.875 102.464  1.00  0.00    -0.017 C 
ATOM      9  C   UNL     1     103.932 104.847 103.947  1.00  0.00     0.007 C 
ATOM     10  C   UNL     1     105.567 103.981 102.249  1.00  0.00     0.007 C 
ENDBRANCH   7   8
ENDBRANCH   6   7
ENDBRANCH   5   6
ENDBRANCH   3   5
ENDBRANCH   2   3
ENDBRANCH   1   2
BRANCH   1  11
ATOM     11  C   UNL     1     107.151 105.892 106.605  1.00  0.00     0.003 C 
BRANCH  11  12
ATOM     12  C   UNL     1     107.132 107.431 106.787  1.00  0.00    -0.014 C 
ATOM     13  C   UNL     1     108.152 107.871 107.851  1.00  0.00     0.007 C 
BRANCH  12  14
ATOM     14  C   UNL     1     105.727 107.947 107.186  1.00  0.00     0.004 C 
BRANCH  14  15
ATOM     15  C   UNL     1     104.538 107.052 106.777  1.00  0.00     0.008 C 
BRANCH  15  16
ATOM     16  C   UNL     1     103.798 106.396 107.960  1.00  0.00     0.075 C 
BRANCH  16  17
ATOM     17  C   UNL     1     103.420 104.960 107.691  1.00  0.00     0.129 C 
ATOM     18  O   UNL     1     104.289 104.145 107.424  1.00  0.00    -0.300 OA
ATOM     19  C   UNL     1     101.986 104.519 107.708  1.00  0.00     0.087 C 
ENDBRANCH  16  17
ENDBRANCH  15  16
ENDBRANCH  14  15
ENDBRANCH  12  14
ENDBRANCH  11  12
ENDBRANCH   1  11
TORSDOF 12
ENDMDL
