MODEL 1
REMARK VINA RESULT:    -4.060      0.000      0.000
REMARK INTER + INTRA:         -13.302
REMARK INTER:                 -10.231
REMARK INTRA:                  -3.071
REMARK UNBOUND:                -3.071
REMARK SMILES CCCCCCCCCCCCCCCCCCCCCCCCCCCC(=O)[O-]
REMARK SMILES IDX 15 1 16 2 17 3 18 4 19 5 20 6 21 7 22 8 23 9 24 10 25 11
REMARK SMILES IDX 26 12 27 13 28 14 29 15 30 16 14 17 13 18 12 19 11 20 10 21
REMARK SMILES IDX 9 22 8 23 7 24 6 25 5 26 4 27 3 28 2 29 1 30
REMARK H PARENT
REMARK Flexibility Score: inf
ROOT
ATOM      1  C   UNL     1       3.601   4.072   7.823  1.00  0.00     0.000 C 
ENDROOT
BRANCH   1   2
ATOM      2  C   UNL     1       5.085   3.888   7.457  1.00  0.00     0.000 C 
BRANCH   2   3
ATOM      3  C   UNL     1       5.399   3.899   5.946  1.00  0.00     0.000 C 
BRANCH   3   4
ATOM      4  C   UNL     1       6.895   3.858   5.584  1.00  0.00     0.000 C 
BRANCH   4   5
ATOM      5  C   UNL     1       7.775   3.378   6.749  1.00  0.00     0.000 C 
BRANCH   5   6
ATOM      6  C   UNL     1       8.260   1.926   6.582  1.00  0.00     0.000 C 
BRANCH   6   7
ATOM      7  C   UNL     1       8.242   1.066   7.860  1.00  0.00     0.000 C 
BRANCH   7   8
ATOM      8  C   UNL     1       7.165   1.501   8.867  1.00  0.00     0.000 C 
BRANCH   8   9
ATOM      9  C   UNL     1       6.134   0.395   9.149  1.00  0.00     0.000 C 
BRANCH   9  10
ATOM     10  C   UNL     1       5.626  -0.317   7.877  1.00  0.00     0.000 C 
BRANCH  10  11
ATOM     11  C   UNL     1       5.561  -1.842   8.048  1.00  0.00     0.000 C 
BRANCH  11  12
ATOM     12  C   UNL     1       6.969  -2.433   8.223  1.00  0.00     0.006 C 
BRANCH  12  13
ATOM     13  C   UNL     1       7.761  -2.456   6.910  1.00  0.00     0.053 C 
BRANCH  13  14
ATOM     14  C   UNL     1       6.940  -2.974   5.768  1.00  0.00     0.041 C 
ATOM     15  O   UNL     1       6.515  -2.186   4.881  1.00  0.00    -0.550 OA
ATOM     16  O   UNL     1       6.627  -4.327   5.695  1.00  0.00    -0.550 OA
ENDBRANCH  13  14
ENDBRANCH  12  13
ENDBRANCH  11  12
ENDBRANCH  10  11
ENDBRANCH   9  10
ENDBRANCH   8   9
ENDBRANCH   7   8
ENDBRANCH   6   7
ENDBRANCH   5   6
ENDBRANCH   4   5
ENDBRANCH   3   4
ENDBRANCH   2   3
ENDBRANCH   1   2
BRANCH   1  17
ATOM     17  C   UNL     1       3.328   5.393   8.564  1.00  0.00     0.000 C 
BRANCH  17  18
ATOM     18  C   UNL     1       4.392   5.713   9.630  1.00  0.00     0.000 C 
BRANCH  18  19
ATOM     19  C   UNL     1       4.715   7.211   9.799  1.00  0.00     0.000 C 
BRANCH  19  20
ATOM     20  C   UNL     1       4.189   8.071   8.641  1.00  0.00     0.000 C 
BRANCH  20  21
ATOM     21  C   UNL     1       3.788   9.470   9.134  1.00  0.00     0.000 C 
BRANCH  21  22
ATOM     22  C   UNL     1       4.797  10.553   8.721  1.00  0.00    -0.000 C 
BRANCH  22  23
ATOM     23  C   UNL     1       5.463  10.251   7.371  1.00  0.00    -0.000 C 
BRANCH  23  24
ATOM     24  C   UNL     1       4.861  11.116   6.254  1.00  0.00    -0.000 C 
BRANCH  24  25
ATOM     25  C   UNL     1       4.053  12.306   6.810  1.00  0.00    -0.000 C 
BRANCH  25  26
ATOM     26  C   UNL     1       4.657  13.687   6.474  1.00  0.00    -0.000 C 
BRANCH  26  27
ATOM     27  C   UNL     1       5.301  14.433   7.661  1.00  0.00    -0.000 C 
BRANCH  27  28
ATOM     28  C   UNL     1       6.787  14.807   7.450  1.00  0.00    -0.000 C 
BRANCH  28  29
ATOM     29  C   UNL     1       7.746  13.604   7.511  1.00  0.00    -0.003 C 
ATOM     30  C   UNL     1       7.699  12.870   8.851  1.00  0.00     0.004 C 
ENDBRANCH  28  29
ENDBRANCH  27  28
ENDBRANCH  26  27
ENDBRANCH  25  26
ENDBRANCH  24  25
ENDBRANCH  23  24
ENDBRANCH  22  23
ENDBRANCH  21  22
ENDBRANCH  20  21
ENDBRANCH  19  20
ENDBRANCH  18  19
ENDBRANCH  17  18
ENDBRANCH   1  17
TORSDOF 26
ENDMDL
MODEL 2
REMARK VINA RESULT:    -4.033      4.489     11.819
REMARK INTER + INTRA:         -13.235
REMARK INTER:                 -10.300
REMARK INTRA:                  -2.935
REMARK UNBOUND:                -3.071
REMARK SMILES CCCCCCCCCCCCCCCCCCCCCCCCCCCC(=O)[O-]
REMARK SMILES IDX 15 1 16 2 17 3 18 4 19 5 20 6 21 7 22 8 23 9 24 10 25 11
REMARK SMILES IDX 26 12 27 13 28 14 29 15 30 16 14 17 13 18 12 19 11 20 10 21
REMARK SMILES IDX 9 22 8 23 7 24 6 25 5 26 4 27 3 28 2 29 1 30
REMARK H PARENT
REMARK Flexibility Score: inf
ROOT
ATOM      1  C   UNL     1       3.888   4.077   7.449  1.00  0.00     0.000 C 
ENDROOT
BRANCH   1   2
ATOM      2  C   UNL     1       2.977   5.007   8.270  1.00  0.00     0.000 C 
BRANCH   2   3
ATOM      3  C   UNL     1       3.426   5.255   9.725  1.00  0.00     0.000 C 
BRANCH   3   4
ATOM      4  C   UNL     1       4.487   6.355   9.909  1.00  0.00     0.000 C 
BRANCH   4   5
ATOM      5  C   UNL     1       4.324   7.511   8.908  1.00  0.00     0.000 C 
BRANCH   5   6
ATOM      6  C   UNL     1       3.827   8.812   9.565  1.00  0.00     0.000 C 
BRANCH   6   7
ATOM      7  C   UNL     1       4.295  10.117   8.893  1.00  0.00     0.000 C 
BRANCH   7   8
ATOM      8  C   UNL     1       5.234   9.880   7.698  1.00  0.00     0.000 C 
BRANCH   8   9
ATOM      9  C   UNL     1       4.923  10.802   6.507  1.00  0.00     0.000 C 
BRANCH   9  10
ATOM     10  C   UNL     1       4.002  11.989   6.865  1.00  0.00     0.000 C 
BRANCH  10  11
ATOM     11  C   UNL     1       4.541  13.326   6.336  1.00  0.00     0.000 C 
BRANCH  11  12
ATOM     12  C   UNL     1       5.088  14.188   7.483  1.00  0.00     0.006 C 
BRANCH  12  13
ATOM     13  C   UNL     1       6.585  13.956   7.725  1.00  0.00     0.053 C 
BRANCH  13  14
ATOM     14  C   UNL     1       6.893  13.743   9.177  1.00  0.00     0.041 C 
ATOM     15  O   UNL     1       7.791  14.423   9.742  1.00  0.00    -0.550 OA
ATOM     16  O   UNL     1       6.202  12.777   9.900  1.00  0.00    -0.550 OA
ENDBRANCH  13  14
ENDBRANCH  12  13
ENDBRANCH  11  12
ENDBRANCH  10  11
ENDBRANCH   9  10
ENDBRANCH   8   9
ENDBRANCH   7   8
ENDBRANCH   6   7
ENDBRANCH   5   6
ENDBRANCH   4   5
ENDBRANCH   3   4
ENDBRANCH   2   3
ENDBRANCH   1   2
BRANCH   1  17
ATOM     17  C   UNL     1       4.221   2.766   8.184  1.00  0.00     0.000 C 
BRANCH  17  18
ATOM     18  C   UNL     1       5.730   2.461   8.210  1.00  0.00     0.000 C 
BRANCH  18  19
ATOM     19  C   UNL     1       6.642   3.696   8.354  1.00  0.00     0.000 C 
BRANCH  19  20
ATOM     20  C   UNL     1       7.676   3.810   7.225  1.00  0.00     0.000 C 
BRANCH  20  21
ATOM     21  C   UNL     1       7.141   3.190   5.924  1.00  0.00     0.000 C 
BRANCH  21  22
ATOM     22  C   UNL     1       8.146   2.228   5.272  1.00  0.00    -0.000 C 
BRANCH  22  23
ATOM     23  C   UNL     1       8.403   0.979   6.128  1.00  0.00    -0.000 C 
BRANCH  23  24
ATOM     24  C   UNL     1       7.554  -0.205   5.643  1.00  0.00    -0.000 C 
BRANCH  24  25
ATOM     25  C   UNL     1       7.642  -1.415   6.596  1.00  0.00    -0.000 C 
BRANCH  25  26
ATOM     26  C   UNL     1       6.484  -1.500   7.613  1.00  0.00    -0.000 C 
BRANCH  26  27
ATOM     27  C   UNL     1       5.067  -1.375   7.015  1.00  0.00    -0.000 C 
BRANCH  27  28
ATOM     28  C   UNL     1       3.937  -1.884   7.939  1.00  0.00    -0.000 C 
BRANCH  28  29
ATOM     29  C   UNL     1       3.269  -0.775   8.772  1.00  0.00    -0.003 C 
ATOM     30  C   UNL     1       1.822  -1.099   9.148  1.00  0.00     0.004 C 
ENDBRANCH  28  29
ENDBRANCH  27  28
ENDBRANCH  26  27
ENDBRANCH  25  26
ENDBRANCH  24  25
ENDBRANCH  23  24
ENDBRANCH  22  23
ENDBRANCH  21  22
ENDBRANCH  20  21
ENDBRANCH  19  20
ENDBRANCH  18  19
ENDBRANCH  17  18
ENDBRANCH   1  17
TORSDOF 26
ENDMDL
MODEL 3
REMARK VINA RESULT:    -3.981     13.900     15.890
REMARK INTER + INTRA:         -13.102
REMARK INTER:                  -8.812
REMARK INTRA:                  -4.290
REMARK UNBOUND:                -3.071
REMARK SMILES CCCCCCCCCCCCCCCCCCCCCCCCCCCC(=O)[O-]
REMARK SMILES IDX 15 1 16 2 17 3 18 4 19 5 20 6 21 7 22 8 23 9 24 10 25 11
REMARK SMILES IDX 26 12 27 13 28 14 29 15 30 16 14 17 13 18 12 19 11 20 10 21
REMARK SMILES IDX 9 22 8 23 7 24 6 25 5 26 4 27 3 28 2 29 1 30
REMARK H PARENT
REMARK Flexibility Score: inf
ROOT
ATOM      1  C   UNL     1       4.425   9.623  -8.435  1.00  0.00     0.000 C 
ENDROOT
BRANCH   1   2
ATOM      2  C   UNL     1       3.648   8.363  -8.017  1.00  0.00     0.000 C 
BRANCH   2   3
ATOM      3  C   UNL     1       2.401   8.043  -8.867  1.00  0.00     0.000 C 
BRANCH   3   4
ATOM      4  C   UNL     1       2.591   6.943  -9.928  1.00  0.00     0.000 C 
BRANCH   4   5
ATOM      5  C   UNL     1       2.306   5.535  -9.381  1.00  0.00     0.000 C 
BRANCH   5   6
ATOM      6  C   UNL     1       3.506   4.579  -9.518  1.00  0.00     0.000 C 
BRANCH   6   7
ATOM      7  C   UNL     1       4.882   5.255  -9.666  1.00  0.00     0.000 C 
BRANCH   7   8
ATOM      8  C   UNL     1       5.643   5.380  -8.336  1.00  0.00     0.000 C 
BRANCH   8   9
ATOM      9  C   UNL     1       6.934   4.546  -8.310  1.00  0.00     0.000 C 
BRANCH   9  10
ATOM     10  C   UNL     1       6.891   3.307  -9.231  1.00  0.00     0.000 C 
BRANCH  10  11
ATOM     11  C   UNL     1       6.850   1.992  -8.439  1.00  0.00     0.000 C 
BRANCH  11  12
ATOM     12  C   UNL     1       5.429   1.409  -8.418  1.00  0.00     0.006 C 
BRANCH  12  13
ATOM     13  C   UNL     1       4.598   1.938  -7.243  1.00  0.00     0.053 C 
BRANCH  13  14
ATOM     14  C   UNL     1       4.528   0.952  -6.116  1.00  0.00     0.041 C 
ATOM     15  O   UNL     1       5.404   0.959  -5.211  1.00  0.00    -0.550 OA
ATOM     16  O   UNL     1       3.504   0.012  -6.077  1.00  0.00    -0.550 OA
ENDBRANCH  13  14
ENDBRANCH  12  13
ENDBRANCH  11  12
ENDBRANCH  10  11
ENDBRANCH   9  10
ENDBRANCH   8   9
ENDBRANCH   7   8
ENDBRANCH   6   7
ENDBRANCH   5   6
ENDBRANCH   4   5
ENDBRANCH   3   4
ENDBRANCH   2   3
ENDBRANCH   1   2
BRANCH   1  17
ATOM     17  C   UNL     1       5.518   9.333  -9.479  1.00  0.00     0.000 C 
BRANCH  17  18
ATOM     18  C   UNL     1       6.702  10.313  -9.396  1.00  0.00     0.000 C 
BRANCH  18  19
ATOM     19  C   UNL     1       7.916   9.803  -8.594  1.00  0.00     0.000 C 
BRANCH  19  20
ATOM     20  C   UNL     1       7.882   8.287  -8.357  1.00  0.00     0.000 C 
BRANCH  20  21
ATOM     21  C   UNL     1       7.968   7.961  -6.858  1.00  0.00     0.000 C 
BRANCH  21  22
ATOM     22  C   UNL     1       7.425   9.096  -5.976  1.00  0.00    -0.000 C 
BRANCH  22  23
ATOM     23  C   UNL     1       7.944   9.019  -4.533  1.00  0.00    -0.000 C 
BRANCH  23  24
ATOM     24  C   UNL     1       8.652  10.321  -4.132  1.00  0.00    -0.000 C 
BRANCH  24  25
ATOM     25  C   UNL     1       9.488  10.910  -5.286  1.00  0.00    -0.000 C 
BRANCH  25  26
ATOM     26  C   UNL     1       9.083  12.345  -5.687  1.00  0.00    -0.000 C 
BRANCH  26  27
ATOM     27  C   UNL     1       7.587  12.681  -5.521  1.00  0.00    -0.000 C 
BRANCH  27  28
ATOM     28  C   UNL     1       6.830  12.901  -6.852  1.00  0.00    -0.000 C 
BRANCH  28  29
ATOM     29  C   UNL     1       5.298  12.848  -6.712  1.00  0.00    -0.003 C 
ATOM     30  C   UNL     1       4.596  14.030  -7.381  1.00  0.00     0.004 C 
ENDBRANCH  28  29
ENDBRANCH  27  28
ENDBRANCH  26  27
ENDBRANCH  25  26
ENDBRANCH  24  25
ENDBRANCH  23  24
ENDBRANCH  22  23
ENDBRANCH  21  22
ENDBRANCH  20  21
ENDBRANCH  19  20
ENDBRANCH  18  19
ENDBRANCH  17  18
ENDBRANCH   1  17
TORSDOF 26
ENDMDL
MODEL 4
REMARK VINA RESULT:    -3.891     13.409     15.354
REMARK INTER + INTRA:         -12.876
REMARK INTER:                  -8.570
REMARK INTRA:                  -4.306
REMARK UNBOUND:                -3.071
REMARK SMILES CCCCCCCCCCCCCCCCCCCCCCCCCCCC(=O)[O-]
REMARK SMILES IDX 15 1 16 2 17 3 18 4 19 5 20 6 21 7 22 8 23 9 24 10 25 11
REMARK SMILES IDX 26 12 27 13 28 14 29 15 30 16 14 17 13 18 12 19 11 20 10 21
REMARK SMILES IDX 9 22 8 23 7 24 6 25 5 26 4 27 3 28 2 29 1 30
REMARK H PARENT
REMARK Flexibility Score: inf
ROOT
ATOM      1  C   UNL     1       4.034   8.937  -7.674  1.00  0.00     0.000 C 
ENDROOT
BRANCH   1   2
ATOM      2  C   UNL     1       3.336   7.991  -8.667  1.00  0.00     0.000 C 
BRANCH   2   3
ATOM      3  C   UNL     1       4.087   6.677  -8.967  1.00  0.00     0.000 C 
BRANCH   3   4
ATOM      4  C   UNL     1       5.513   6.588  -8.394  1.00  0.00     0.000 C 
BRANCH   4   5
ATOM      5  C   UNL     1       6.596   6.665  -9.482  1.00  0.00     0.000 C 
BRANCH   5   6
ATOM      6  C   UNL     1       7.992   6.258  -8.975  1.00  0.00     0.000 C 
BRANCH   6   7
ATOM      7  C   UNL     1       8.025   5.066  -8.000  1.00  0.00     0.000 C 
BRANCH   7   8
ATOM      8  C   UNL     1       8.599   3.785  -8.628  1.00  0.00     0.000 C 
BRANCH   8   9
ATOM      9  C   UNL     1       7.575   2.638  -8.679  1.00  0.00     0.000 C 
BRANCH   9  10
ATOM     10  C   UNL     1       6.660   2.678  -9.922  1.00  0.00     0.000 C 
BRANCH  10  11
ATOM     11  C   UNL     1       5.172   2.587  -9.554  1.00  0.00     0.000 C 
BRANCH  11  12
ATOM     12  C   UNL     1       4.943   3.005  -8.093  1.00  0.00     0.006 C 
BRANCH  12  13
ATOM     13  C   UNL     1       4.443   1.844  -7.225  1.00  0.00     0.053 C 
BRANCH  13  14
ATOM     14  C   UNL     1       5.243   1.700  -5.965  1.00  0.00     0.041 C 
ATOM     15  O   UNL     1       5.230   0.615  -5.325  1.00  0.00    -0.550 OA
ATOM     16  O   UNL     1       5.986   2.774  -5.487  1.00  0.00    -0.550 OA
ENDBRANCH  13  14
ENDBRANCH  12  13
ENDBRANCH  11  12
ENDBRANCH  10  11
ENDBRANCH   9  10
ENDBRANCH   8   9
ENDBRANCH   7   8
ENDBRANCH   6   7
ENDBRANCH   5   6
ENDBRANCH   4   5
ENDBRANCH   3   4
ENDBRANCH   2   3
ENDBRANCH   1   2
BRANCH   1  17
ATOM     17  C   UNL     1       4.562  10.220  -8.342  1.00  0.00     0.000 C 
BRANCH  17  18
ATOM     18  C   UNL     1       6.098  10.321  -8.314  1.00  0.00     0.000 C 
BRANCH  18  19
ATOM     19  C   UNL     1       6.745  10.040  -6.943  1.00  0.00     0.000 C 
BRANCH  19  20
ATOM     20  C   UNL     1       8.062   9.259  -7.053  1.00  0.00     0.000 C 
BRANCH  20  21
ATOM     21  C   UNL     1       8.345   8.473  -5.763  1.00  0.00     0.000 C 
BRANCH  21  22
ATOM     22  C   UNL     1       8.187   9.335  -4.501  1.00  0.00    -0.000 C 
BRANCH  22  23
ATOM     23  C   UNL     1       9.528   9.882  -3.991  1.00  0.00    -0.000 C 
BRANCH  23  24
ATOM     24  C   UNL     1       9.362  11.293  -3.407  1.00  0.00    -0.000 C 
BRANCH  24  25
ATOM     25  C   UNL     1       8.211  12.070  -4.078  1.00  0.00    -0.000 C 
BRANCH  25  26
ATOM     26  C   UNL     1       8.615  12.788  -5.384  1.00  0.00    -0.000 C 
BRANCH  26  27
ATOM     27  C   UNL     1       7.766  14.023  -5.750  1.00  0.00    -0.000 C 
BRANCH  27  28
ATOM     28  C   UNL     1       6.753  13.784  -6.894  1.00  0.00    -0.000 C 
BRANCH  28  29
ATOM     29  C   UNL     1       5.340  13.413  -6.407  1.00  0.00    -0.003 C 
ATOM     30  C   UNL     1       4.629  14.568  -5.701  1.00  0.00     0.004 C 
ENDBRANCH  28  29
ENDBRANCH  27  28
ENDBRANCH  26  27
ENDBRANCH  25  26
ENDBRANCH  24  25
ENDBRANCH  23  24
ENDBRANCH  22  23
ENDBRANCH  21  22
ENDBRANCH  20  21
ENDBRANCH  19  20
ENDBRANCH  18  19
ENDBRANCH  17  18
ENDBRANCH   1  17
TORSDOF 26
ENDMDL
MODEL 5
REMARK VINA RESULT:    -3.866     13.739     15.822
REMARK INTER + INTRA:         -12.814
REMARK INTER:                  -8.632
REMARK INTRA:                  -4.182
REMARK UNBOUND:                -3.071
REMARK SMILES CCCCCCCCCCCCCCCCCCCCCCCCCCCC(=O)[O-]
REMARK SMILES IDX 15 1 16 2 17 3 18 4 19 5 20 6 21 7 22 8 23 9 24 10 25 11
REMARK SMILES IDX 26 12 27 13 28 14 29 15 30 16 14 17 13 18 12 19 11 20 10 21
REMARK SMILES IDX 9 22 8 23 7 24 6 25 5 26 4 27 3 28 2 29 1 30
REMARK H PARENT
REMARK Flexibility Score: inf
ROOT
ATOM      1  C   UNL     1       8.778   9.256  -8.003  1.00  0.00     0.000 C 
ENDROOT
BRANCH   1   2
ATOM      2  C   UNL     1       8.456   8.262  -9.134  1.00  0.00     0.000 C 
BRANCH   2   3
ATOM      3  C   UNL     1       6.959   7.950  -9.332  1.00  0.00     0.000 C 
BRANCH   3   4
ATOM      4  C   UNL     1       6.407   6.795  -8.476  1.00  0.00     0.000 C 
BRANCH   4   5
ATOM      5  C   UNL     1       5.277   7.242  -7.535  1.00  0.00     0.000 C 
BRANCH   5   6
ATOM      6  C   UNL     1       4.463   8.426  -8.089  1.00  0.00     0.000 C 
BRANCH   6   7
ATOM      7  C   UNL     1       3.033   8.091  -8.556  1.00  0.00     0.000 C 
BRANCH   7   8
ATOM      8  C   UNL     1       2.992   7.011  -9.650  1.00  0.00     0.000 C 
BRANCH   8   9
ATOM      9  C   UNL     1       1.980   5.894  -9.343  1.00  0.00     0.000 C 
BRANCH   9  10
ATOM     10  C   UNL     1       2.417   4.504  -9.854  1.00  0.00     0.000 C 
BRANCH  10  11
ATOM     11  C   UNL     1       3.930   4.282  -9.718  1.00  0.00     0.000 C 
BRANCH  11  12
ATOM     12  C   UNL     1       4.263   3.568  -8.400  1.00  0.00     0.006 C 
BRANCH  12  13
ATOM     13  C   UNL     1       5.734   3.139  -8.322  1.00  0.00     0.053 C 
BRANCH  13  14
ATOM     14  C   UNL     1       6.265   3.205  -6.922  1.00  0.00     0.041 C 
ATOM     15  O   UNL     1       7.200   3.998  -6.634  1.00  0.00    -0.550 OA
ATOM     16  O   UNL     1       5.739   2.372  -5.940  1.00  0.00    -0.550 OA
ENDBRANCH  13  14
ENDBRANCH  12  13
ENDBRANCH  11  12
ENDBRANCH  10  11
ENDBRANCH   9  10
ENDBRANCH   8   9
ENDBRANCH   7   8
ENDBRANCH   6   7
ENDBRANCH   5   6
ENDBRANCH   4   5
ENDBRANCH   3   4
ENDBRANCH   2   3
ENDBRANCH   1   2
BRANCH   1  17
ATOM     17  C   UNL     1       8.864   8.583  -6.622  1.00  0.00     0.000 C 
BRANCH  17  18
ATOM     18  C   UNL     1       7.995   9.281  -5.560  1.00  0.00     0.000 C 
BRANCH  18  19
ATOM     19  C   UNL     1       8.543   9.213  -4.121  1.00  0.00     0.000 C 
BRANCH  19  20
ATOM     20  C   UNL     1       9.216  10.519  -3.675  1.00  0.00     0.000 C 
BRANCH  20  21
ATOM     21  C   UNL     1       8.555  11.734  -4.344  1.00  0.00     0.000 C 
BRANCH  21  22
ATOM     22  C   UNL     1       9.576  12.668  -5.013  1.00  0.00    -0.000 C 
BRANCH  22  23
ATOM     23  C   UNL     1       9.620  12.494  -6.538  1.00  0.00    -0.000 C 
BRANCH  23  24
ATOM     24  C   UNL     1       8.638  13.451  -7.230  1.00  0.00    -0.000 C 
BRANCH  24  25
ATOM     25  C   UNL     1       7.527  12.698  -7.989  1.00  0.00    -0.000 C 
BRANCH  25  26
ATOM     26  C   UNL     1       6.380  12.193  -7.087  1.00  0.00    -0.000 C 
BRANCH  26  27
ATOM     27  C   UNL     1       4.995  12.812  -7.367  1.00  0.00    -0.000 C 
BRANCH  27  28
ATOM     28  C   UNL     1       4.491  13.774  -6.266  1.00  0.00    -0.000 C 
BRANCH  28  29
ATOM     29  C   UNL     1       5.527  14.831  -5.842  1.00  0.00    -0.003 C 
ATOM     30  C   UNL     1       5.865  14.773  -4.352  1.00  0.00     0.004 C 
ENDBRANCH  28  29
ENDBRANCH  27  28
ENDBRANCH  26  27
ENDBRANCH  25  26
ENDBRANCH  24  25
ENDBRANCH  23  24
ENDBRANCH  22  23
ENDBRANCH  21  22
ENDBRANCH  20  21
ENDBRANCH  19  20
ENDBRANCH  18  19
ENDBRANCH  17  18
ENDBRANCH   1  17
TORSDOF 26
ENDMDL
MODEL 6
REMARK VINA RESULT:    -3.863      4.168     11.382
REMARK INTER + INTRA:         -12.807
REMARK INTER:                  -9.972
REMARK INTRA:                  -2.835
REMARK UNBOUND:                -3.071
REMARK SMILES CCCCCCCCCCCCCCCCCCCCCCCCCCCC(=O)[O-]
REMARK SMILES IDX 15 1 16 2 17 3 18 4 19 5 20 6 21 7 22 8 23 9 24 10 25 11
REMARK SMILES IDX 26 12 27 13 28 14 29 15 30 16 14 17 13 18 12 19 11 20 10 21
REMARK SMILES IDX 9 22 8 23 7 24 6 25 5 26 4 27 3 28 2 29 1 30
REMARK H PARENT
REMARK Flexibility Score: inf
ROOT
ATOM      1  C   UNL     1       4.139   2.938   9.031  1.00  0.00     0.000 C 
ENDROOT
BRANCH   1   2
ATOM      2  C   UNL     1       4.054   3.976   7.897  1.00  0.00     0.000 C 
BRANCH   2   3
ATOM      3  C   UNL     1       3.487   5.352   8.302  1.00  0.00     0.000 C 
BRANCH   3   4
ATOM      4  C   UNL     1       3.668   5.729   9.784  1.00  0.00     0.000 C 
BRANCH   4   5
ATOM      5  C   UNL     1       4.105   7.191   9.974  1.00  0.00     0.000 C 
BRANCH   5   6
ATOM      6  C   UNL     1       4.140   7.988   8.657  1.00  0.00     0.000 C 
BRANCH   6   7
ATOM      7  C   UNL     1       4.127   9.521   8.805  1.00  0.00     0.000 C 
BRANCH   7   8
ATOM      8  C   UNL     1       4.756  10.251   7.607  1.00  0.00     0.000 C 
BRANCH   8   9
ATOM      9  C   UNL     1       3.983  11.520   7.212  1.00  0.00     0.000 C 
BRANCH   9  10
ATOM     10  C   UNL     1       4.589  12.264   6.002  1.00  0.00     0.000 C 
BRANCH  10  11
ATOM     11  C   UNL     1       4.700  13.777   6.243  1.00  0.00     0.000 C 
BRANCH  11  12
ATOM     12  C   UNL     1       5.320  14.068   7.618  1.00  0.00     0.006 C 
BRANCH  12  13
ATOM     13  C   UNL     1       6.851  14.139   7.565  1.00  0.00     0.053 C 
BRANCH  13  14
ATOM     14  C   UNL     1       7.489  12.857   8.012  1.00  0.00     0.041 C 
ATOM     15  O   UNL     1       8.256  12.226   7.238  1.00  0.00    -0.550 OA
ATOM     16  O   UNL     1       7.217  12.351   9.278  1.00  0.00    -0.550 OA
ENDBRANCH  13  14
ENDBRANCH  12  13
ENDBRANCH  11  12
ENDBRANCH  10  11
ENDBRANCH   9  10
ENDBRANCH   8   9
ENDBRANCH   7   8
ENDBRANCH   6   7
ENDBRANCH   5   6
ENDBRANCH   4   5
ENDBRANCH   3   4
ENDBRANCH   2   3
ENDBRANCH   1   2
BRANCH   1  17
ATOM     17  C   UNL     1       3.470   1.600   8.668  1.00  0.00     0.000 C 
BRANCH  17  18
ATOM     18  C   UNL     1       4.480   0.449   8.512  1.00  0.00     0.000 C 
BRANCH  18  19
ATOM     19  C   UNL     1       3.875  -0.966   8.601  1.00  0.00     0.000 C 
BRANCH  19  20
ATOM     20  C   UNL     1       4.634  -1.996   7.752  1.00  0.00     0.000 C 
BRANCH  20  21
ATOM     21  C   UNL     1       5.261  -1.333   6.515  1.00  0.00     0.000 C 
BRANCH  21  22
ATOM     22  C   UNL     1       6.631  -1.930   6.157  1.00  0.00    -0.000 C 
BRANCH  22  23
ATOM     23  C   UNL     1       7.418  -2.378   7.397  1.00  0.00    -0.000 C 
BRANCH  23  24
ATOM     24  C   UNL     1       8.549  -1.388   7.718  1.00  0.00    -0.000 C 
BRANCH  24  25
ATOM     25  C   UNL     1       8.073  -0.234   8.625  1.00  0.00    -0.000 C 
BRANCH  25  26
ATOM     26  C   UNL     1       8.413   1.171   8.084  1.00  0.00    -0.000 C 
BRANCH  26  27
ATOM     27  C   UNL     1       7.613   1.614   6.842  1.00  0.00    -0.000 C 
BRANCH  27  28
ATOM     28  C   UNL     1       7.409   3.142   6.725  1.00  0.00    -0.000 C 
BRANCH  28  29
ATOM     29  C   UNL     1       7.287   3.645   5.274  1.00  0.00    -0.003 C 
ATOM     30  C   UNL     1       8.586   3.502   4.481  1.00  0.00     0.004 C 
ENDBRANCH  28  29
ENDBRANCH  27  28
ENDBRANCH  26  27
ENDBRANCH  25  26
ENDBRANCH  24  25
ENDBRANCH  23  24
ENDBRANCH  22  23
ENDBRANCH  21  22
ENDBRANCH  20  21
ENDBRANCH  19  20
ENDBRANCH  18  19
ENDBRANCH  17  18
ENDBRANCH   1  17
TORSDOF 26
ENDMDL
MODEL 7
REMARK VINA RESULT:    -3.811     13.891     16.004
REMARK INTER + INTRA:         -12.674
REMARK INTER:                  -8.169
REMARK INTRA:                  -4.505
REMARK UNBOUND:                -3.071
REMARK SMILES CCCCCCCCCCCCCCCCCCCCCCCCCCCC(=O)[O-]
REMARK SMILES IDX 15 1 16 2 17 3 18 4 19 5 20 6 21 7 22 8 23 9 24 10 25 11
REMARK SMILES IDX 26 12 27 13 28 14 29 15 30 16 14 17 13 18 12 19 11 20 10 21
REMARK SMILES IDX 9 22 8 23 7 24 6 25 5 26 4 27 3 28 2 29 1 30
REMARK H PARENT
REMARK Flexibility Score: inf
ROOT
ATOM      1  C   UNL     1       7.455   9.037  -5.482  1.00  0.00     0.000 C 
ENDROOT
BRANCH   1   2
ATOM      2  C   UNL     1       8.315   8.951  -6.756  1.00  0.00     0.000 C 
BRANCH   2   3
ATOM      3  C   UNL     1       7.968   7.791  -7.711  1.00  0.00     0.000 C 
BRANCH   3   4
ATOM      4  C   UNL     1       6.554   7.204  -7.548  1.00  0.00     0.000 C 
BRANCH   4   5
ATOM      5  C   UNL     1       5.564   7.743  -8.594  1.00  0.00     0.000 C 
BRANCH   5   6
ATOM      6  C   UNL     1       4.279   8.318  -7.968  1.00  0.00     0.000 C 
BRANCH   6   7
ATOM      7  C   UNL     1       2.964   7.926  -8.670  1.00  0.00     0.000 C 
BRANCH   7   8
ATOM      8  C   UNL     1       3.126   6.748  -9.645  1.00  0.00     0.000 C 
BRANCH   8   9
ATOM      9  C   UNL     1       2.127   5.611  -9.374  1.00  0.00     0.000 C 
BRANCH   9  10
ATOM     10  C   UNL     1       2.775   4.209  -9.345  1.00  0.00     0.000 C 
BRANCH  10  11
ATOM     11  C   UNL     1       4.298   4.268  -9.523  1.00  0.00     0.000 C 
BRANCH  11  12
ATOM     12  C   UNL     1       5.016   3.671  -8.302  1.00  0.00     0.006 C 
BRANCH  12  13
ATOM     13  C   UNL     1       4.891   2.143  -8.241  1.00  0.00     0.053 C 
BRANCH  13  14
ATOM     14  C   UNL     1       5.039   1.623  -6.843  1.00  0.00     0.041 C 
ATOM     15  O   UNL     1       4.498   0.535  -6.510  1.00  0.00    -0.550 OA
ATOM     16  O   UNL     1       5.757   2.353  -5.902  1.00  0.00    -0.550 OA
ENDBRANCH  13  14
ENDBRANCH  12  13
ENDBRANCH  11  12
ENDBRANCH  10  11
ENDBRANCH   9  10
ENDBRANCH   8   9
ENDBRANCH   7   8
ENDBRANCH   6   7
ENDBRANCH   5   6
ENDBRANCH   4   5
ENDBRANCH   3   4
ENDBRANCH   2   3
ENDBRANCH   1   2
BRANCH   1  17
ATOM     17  C   UNL     1       8.299   9.118  -4.197  1.00  0.00     0.000 C 
BRANCH  17  18
ATOM     18  C   UNL     1       9.441  10.145  -4.294  1.00  0.00     0.000 C 
BRANCH  18  19
ATOM     19  C   UNL     1       9.104  11.549  -3.755  1.00  0.00     0.000 C 
BRANCH  19  20
ATOM     20  C   UNL     1       8.899  12.585  -4.870  1.00  0.00     0.000 C 
BRANCH  20  21
ATOM     21  C   UNL     1       7.447  13.087  -4.894  1.00  0.00     0.000 C 
BRANCH  21  22
ATOM     22  C   UNL     1       7.286  14.388  -5.695  1.00  0.00    -0.000 C 
BRANCH  22  23
ATOM     23  C   UNL     1       8.510  14.693  -6.571  1.00  0.00    -0.000 C 
BRANCH  23  24
ATOM     24  C   UNL     1       8.122  14.760  -8.056  1.00  0.00    -0.000 C 
BRANCH  24  25
ATOM     25  C   UNL     1       8.887  13.725  -8.905  1.00  0.00    -0.000 C 
BRANCH  25  26
ATOM     26  C   UNL     1       8.597  12.258  -8.520  1.00  0.00    -0.000 C 
BRANCH  26  27
ATOM     27  C   UNL     1       7.846  11.431  -9.584  1.00  0.00    -0.000 C 
BRANCH  27  28
ATOM     28  C   UNL     1       6.368  11.138  -9.239  1.00  0.00    -0.000 C 
BRANCH  28  29
ATOM     29  C   UNL     1       5.973  11.538  -7.805  1.00  0.00    -0.003 C 
ATOM     30  C   UNL     1       4.828  12.550  -7.761  1.00  0.00     0.004 C 
ENDBRANCH  28  29
ENDBRANCH  27  28
ENDBRANCH  26  27
ENDBRANCH  25  26
ENDBRANCH  24  25
ENDBRANCH  23  24
ENDBRANCH  22  23
ENDBRANCH  21  22
ENDBRANCH  20  21
ENDBRANCH  19  20
ENDBRANCH  18  19
ENDBRANCH  17  18
ENDBRANCH   1  17
TORSDOF 26
ENDMDL
MODEL 8
REMARK VINA RESULT:    -3.744     13.883     18.190
REMARK INTER + INTRA:         -12.507
REMARK INTER:                  -8.716
REMARK INTRA:                  -3.791
REMARK UNBOUND:                -3.071
REMARK SMILES CCCCCCCCCCCCCCCCCCCCCCCCCCCC(=O)[O-]
REMARK SMILES IDX 15 1 16 2 17 3 18 4 19 5 20 6 21 7 22 8 23 9 24 10 25 11
REMARK SMILES IDX 26 12 27 13 28 14 29 15 30 16 14 17 13 18 12 19 11 20 10 21
REMARK SMILES IDX 9 22 8 23 7 24 6 25 5 26 4 27 3 28 2 29 1 30
REMARK H PARENT
REMARK Flexibility Score: inf
ROOT
ATOM      1  C   UNL     1       4.514   9.425  -9.059  1.00  0.00     0.000 C 
ENDROOT
BRANCH   1   2
ATOM      2  C   UNL     1       5.952   9.642  -8.554  1.00  0.00     0.000 C 
BRANCH   2   3
ATOM      3  C   UNL     1       6.303  11.092  -8.161  1.00  0.00     0.000 C 
BRANCH   3   4
ATOM      4  C   UNL     1       5.677  12.185  -9.047  1.00  0.00     0.000 C 
BRANCH   4   5
ATOM      5  C   UNL     1       4.752  13.129  -8.262  1.00  0.00     0.000 C 
BRANCH   5   6
ATOM      6  C   UNL     1       4.873  12.960  -6.735  1.00  0.00     0.000 C 
BRANCH   6   7
ATOM      7  C   UNL     1       5.019  14.266  -5.931  1.00  0.00     0.000 C 
BRANCH   7   8
ATOM      8  C   UNL     1       6.323  14.335  -5.119  1.00  0.00     0.000 C 
BRANCH   8   9
ATOM      9  C   UNL     1       7.578  14.216  -6.000  1.00  0.00     0.000 C 
BRANCH   9  10
ATOM     10  C   UNL     1       8.630  13.229  -5.449  1.00  0.00     0.000 C 
BRANCH  10  11
ATOM     11  C   UNL     1       7.993  11.951  -4.886  1.00  0.00     0.000 C 
BRANCH  11  12
ATOM     12  C   UNL     1       9.070  10.986  -4.366  1.00  0.00     0.006 C 
BRANCH  12  13
ATOM     13  C   UNL     1       8.535   9.560  -4.179  1.00  0.00     0.053 C 
BRANCH  13  14
ATOM     14  C   UNL     1       8.090   8.953  -5.475  1.00  0.00     0.041 C 
ATOM     15  O   UNL     1       7.001   8.323  -5.541  1.00  0.00    -0.550 OA
ATOM     16  O   UNL     1       8.891   9.065  -6.607  1.00  0.00    -0.550 OA
ENDBRANCH  13  14
ENDBRANCH  12  13
ENDBRANCH  11  12
ENDBRANCH  10  11
ENDBRANCH   9  10
ENDBRANCH   8   9
ENDBRANCH   7   8
ENDBRANCH   6   7
ENDBRANCH   5   6
ENDBRANCH   4   5
ENDBRANCH   3   4
ENDBRANCH   2   3
ENDBRANCH   1   2
BRANCH   1  17
ATOM     17  C   UNL     1       3.611   8.744  -8.014  1.00  0.00     0.000 C 
BRANCH  17  18
ATOM     18  C   UNL     1       2.570   7.802  -8.646  1.00  0.00     0.000 C 
BRANCH  18  19
ATOM     19  C   UNL     1       3.111   6.884  -9.760  1.00  0.00     0.000 C 
BRANCH  19  20
ATOM     20  C   UNL     1       3.830   5.642  -9.213  1.00  0.00     0.000 C 
BRANCH  20  21
ATOM     21  C   UNL     1       5.352   5.767  -9.387  1.00  0.00     0.000 C 
BRANCH  21  22
ATOM     22  C   UNL     1       6.084   5.959  -8.049  1.00  0.00    -0.000 C 
BRANCH  22  23
ATOM     23  C   UNL     1       7.170   4.899  -7.817  1.00  0.00    -0.000 C 
BRANCH  23  24
ATOM     24  C   UNL     1       7.428   4.085  -9.095  1.00  0.00    -0.000 C 
BRANCH  24  25
ATOM     25  C   UNL     1       7.231   2.572  -8.872  1.00  0.00    -0.000 C 
BRANCH  25  26
ATOM     26  C   UNL     1       5.862   2.040  -9.348  1.00  0.00    -0.000 C 
BRANCH  26  27
ATOM     27  C   UNL     1       4.718   2.138  -8.318  1.00  0.00    -0.000 C 
BRANCH  27  28
ATOM     28  C   UNL     1       5.168   1.973  -6.847  1.00  0.00    -0.000 C 
BRANCH  28  29
ATOM     29  C   UNL     1       4.090   1.363  -5.932  1.00  0.00    -0.003 C 
ATOM     30  C   UNL     1       4.105  -0.166  -5.928  1.00  0.00     0.004 C 
ENDBRANCH  28  29
ENDBRANCH  27  28
ENDBRANCH  26  27
ENDBRANCH  25  26
ENDBRANCH  24  25
ENDBRANCH  23  24
ENDBRANCH  22  23
ENDBRANCH  21  22
ENDBRANCH  20  21
ENDBRANCH  19  20
ENDBRANCH  18  19
ENDBRANCH  17  18
ENDBRANCH   1  17
TORSDOF 26
ENDMDL
MODEL 9
REMARK VINA RESULT:    -3.724     14.073     16.124
REMARK INTER + INTRA:         -12.456
REMARK INTER:                  -8.097
REMARK INTRA:                  -4.360
REMARK UNBOUND:                -3.071
REMARK SMILES CCCCCCCCCCCCCCCCCCCCCCCCCCCC(=O)[O-]
REMARK SMILES IDX 15 1 16 2 17 3 18 4 19 5 20 6 21 7 22 8 23 9 24 10 25 11
REMARK SMILES IDX 26 12 27 13 28 14 29 15 30 16 14 17 13 18 12 19 11 20 10 21
REMARK SMILES IDX 9 22 8 23 7 24 6 25 5 26 4 27 3 28 2 29 1 30
REMARK H PARENT
REMARK Flexibility Score: inf
ROOT
ATOM      1  C   UNL     1       8.005   9.851  -7.885  1.00  0.00     0.000 C 
ENDROOT
BRANCH   1   2
ATOM      2  C   UNL     1       8.031   9.091  -9.223  1.00  0.00     0.000 C 
BRANCH   2   3
ATOM      3  C   UNL     1       6.705   8.411  -9.622  1.00  0.00     0.000 C 
BRANCH   3   4
ATOM      4  C   UNL     1       6.451   7.035  -8.979  1.00  0.00     0.000 C 
BRANCH   4   5
ATOM      5  C   UNL     1       5.415   7.093  -7.844  1.00  0.00     0.000 C 
BRANCH   5   6
ATOM      6  C   UNL     1       4.642   8.424  -7.800  1.00  0.00     0.000 C 
BRANCH   6   7
ATOM      7  C   UNL     1       3.155   8.344  -8.195  1.00  0.00     0.000 C 
BRANCH   7   8
ATOM      8  C   UNL     1       2.925   7.661  -9.553  1.00  0.00     0.000 C 
BRANCH   8   9
ATOM      9  C   UNL     1       2.050   6.401  -9.443  1.00  0.00     0.000 C 
BRANCH   9  10
ATOM     10  C   UNL     1       2.705   5.136 -10.039  1.00  0.00     0.000 C 
BRANCH  10  11
ATOM     11  C   UNL     1       3.046   4.094  -8.965  1.00  0.00     0.000 C 
BRANCH  11  12
ATOM     12  C   UNL     1       4.455   3.521  -9.185  1.00  0.00     0.006 C 
BRANCH  12  13
ATOM     13  C   UNL     1       4.967   2.745  -7.965  1.00  0.00     0.053 C 
BRANCH  13  14
ATOM     14  C   UNL     1       5.505   1.397  -8.342  1.00  0.00     0.041 C 
ATOM     15  O   UNL     1       6.391   0.847  -7.636  1.00  0.00    -0.550 OA
ATOM     16  O   UNL     1       5.041   0.760  -9.488  1.00  0.00    -0.550 OA
ENDBRANCH  13  14
ENDBRANCH  12  13
ENDBRANCH  11  12
ENDBRANCH  10  11
ENDBRANCH   9  10
ENDBRANCH   8   9
ENDBRANCH   7   8
ENDBRANCH   6   7
ENDBRANCH   5   6
ENDBRANCH   4   5
ENDBRANCH   3   4
ENDBRANCH   2   3
ENDBRANCH   1   2
BRANCH   1  17
ATOM     17  C   UNL     1       8.615   9.042  -6.727  1.00  0.00     0.000 C 
BRANCH  17  18
ATOM     18  C   UNL     1       7.814   9.174  -5.418  1.00  0.00     0.000 C 
BRANCH  18  19
ATOM     19  C   UNL     1       8.600   8.835  -4.136  1.00  0.00     0.000 C 
BRANCH  19  20
ATOM     20  C   UNL     1       9.684   9.872  -3.808  1.00  0.00     0.000 C 
BRANCH  20  21
ATOM     21  C   UNL     1       9.058  11.230  -3.456  1.00  0.00     0.000 C 
BRANCH  21  22
ATOM     22  C   UNL     1       9.758  12.403  -4.161  1.00  0.00    -0.000 C 
BRANCH  22  23
ATOM     23  C   UNL     1       9.271  12.595  -5.604  1.00  0.00    -0.000 C 
BRANCH  23  24
ATOM     24  C   UNL     1       8.028  13.497  -5.650  1.00  0.00    -0.000 C 
BRANCH  24  25
ATOM     25  C   UNL     1       6.760  12.721  -6.058  1.00  0.00    -0.000 C 
BRANCH  25  26
ATOM     26  C   UNL     1       5.514  13.612  -6.256  1.00  0.00    -0.000 C 
BRANCH  26  27
ATOM     27  C   UNL     1       5.045  13.778  -7.716  1.00  0.00    -0.000 C 
BRANCH  27  28
ATOM     28  C   UNL     1       5.954  13.090  -8.761  1.00  0.00    -0.000 C 
BRANCH  28  29
ATOM     29  C   UNL     1       5.299  11.881  -9.455  1.00  0.00    -0.003 C 
ATOM     30  C   UNL     1       3.774  11.884  -9.349  1.00  0.00     0.004 C 
ENDBRANCH  28  29
ENDBRANCH  27  28
ENDBRANCH  26  27
ENDBRANCH  25  26
ENDBRANCH  24  25
ENDBRANCH  23  24
ENDBRANCH  22  23
ENDBRANCH  21  22
ENDBRANCH  20  21
ENDBRANCH  19  20
ENDBRANCH  18  19
ENDBRANCH  17  18
ENDBRANCH   1  17
TORSDOF 26
ENDMDL
