MODEL 1
REMARK VINA RESULT:    -5.513      0.000      0.000
REMARK INTER + INTRA:          -7.166
REMARK INTER:                  -6.802
REMARK INTRA:                  -0.364
REMARK UNBOUND:                -0.364
REMARK SMILES COc1cc(-c2oc3cc(O)cc(O)c3c(=O)c2O)ccc1O
REMARK SMILES IDX 6 1 18 2 16 3 17 4 15 5 13 6 12 7 10 8 9 9 8 10 7 11 5 12
REMARK SMILES IDX 3 13 22 14 4 15 21 16 20 17 2 18 1 19 23 20 19 22 14 24
REMARK SMILES IDX 11 26
REMARK H PARENT 23 21 19 23 14 25 11 27
REMARK Flexibility Score: inf
ROOT
ATOM      1  C   UNL     1      18.886  21.950  15.335  1.00  0.00     0.180 A 
ATOM      2  C   UNL     1      17.552  21.544  15.531  1.00  0.00     0.208 A 
ATOM      3  C   UNL     1      17.143  21.159  16.818  1.00  0.00     0.238 A 
ATOM      4  O   UNL     1      15.953  20.783  17.003  1.00  0.00    -0.285 OA
ATOM      5  C   UNL     1      18.062  21.205  17.886  1.00  0.00     0.111 A 
ATOM      6  C   UNL     1      17.728  20.838  19.212  1.00  0.00     0.134 A 
ATOM      7  C   UNL     1      18.698  20.920  20.222  1.00  0.00     0.093 A 
ATOM      8  C   UNL     1      19.994  21.363  19.930  1.00  0.00     0.123 A 
ATOM      9  C   UNL     1      20.327  21.726  18.625  1.00  0.00     0.094 A 
ATOM     10  C   UNL     1      19.375  21.650  17.604  1.00  0.00     0.146 A 
ATOM     11  O   UNL     1      19.721  21.995  16.369  1.00  0.00    -0.452 OA
ENDROOT
BRANCH   1  12
ATOM     12  C   UNL     1      19.399  22.352  14.006  1.00  0.00     0.025 A 
ATOM     13  C   UNL     1      20.236  21.793  11.776  1.00  0.00     0.161 A 
ATOM     14  C   UNL     1      20.419  23.163  11.513  1.00  0.00     0.157 A 
ATOM     15  C   UNL     1      19.731  21.395  13.031  1.00  0.00     0.062 A 
ATOM     16  C   UNL     1      20.109  24.111  12.492  1.00  0.00     0.051 A 
ATOM     17  C   UNL     1      19.610  23.711  13.731  1.00  0.00     0.016 A 
BRANCH  13  18
ATOM     18  O   UNL     1      20.567  20.863  10.778  1.00  0.00    -0.493 OA
ATOM     19  C   UNL     1      19.790  19.713  10.455  1.00  0.00     0.278 C 
ENDBRANCH  13  18
BRANCH  14  20
ATOM     20  O   UNL     1      20.913  23.601  10.284  1.00  0.00    -0.504 OA
ATOM     21  H   UNL     1      20.312  23.995   9.569  1.00  0.00     0.293 HD
ENDBRANCH  14  20
ENDBRANCH   1  12
BRANCH   2  22
ATOM     22  O   UNL     1      16.647  21.554  14.467  1.00  0.00    -0.502 OA
ATOM     23  H   UNL     1      16.472  20.736  13.895  1.00  0.00     0.293 HD
ENDBRANCH   2  22
BRANCH   6  24
ATOM     24  O   UNL     1      16.445  20.394  19.532  1.00  0.00    -0.507 OA
ATOM     25  H   UNL     1      16.271  19.802  20.336  1.00  0.00     0.293 HD
ENDBRANCH   6  24
BRANCH   8  26
ATOM     26  O   UNL     1      20.958  21.447  20.933  1.00  0.00    -0.508 OA
ATOM     27  H   UNL     1      20.881  22.120  21.687  1.00  0.00     0.293 HD
ENDBRANCH   8  26
TORSDOF 6
ENDMDL
MODEL 2
REMARK VINA RESULT:    -5.255      8.477     10.968
REMARK INTER + INTRA:          -6.848
REMARK INTER:                  -6.688
REMARK INTRA:                  -0.161
REMARK UNBOUND:                -0.364
REMARK SMILES COc1cc(-c2oc3cc(O)cc(O)c3c(=O)c2O)ccc1O
REMARK SMILES IDX 6 1 18 2 16 3 17 4 15 5 13 6 12 7 10 8 9 9 8 10 7 11 5 12
REMARK SMILES IDX 3 13 22 14 4 15 21 16 20 17 2 18 1 19 23 20 19 22 14 24
REMARK SMILES IDX 11 26
REMARK H PARENT 23 21 19 23 14 25 11 27
REMARK Flexibility Score: inf
ROOT
ATOM      1  C   UNL     1      16.436  19.244   6.347  1.00  0.00     0.180 A 
ATOM      2  C   UNL     1      16.917  19.551   7.635  1.00  0.00     0.208 A 
ATOM      3  C   UNL     1      17.367  18.507   8.457  1.00  0.00     0.238 A 
ATOM      4  O   UNL     1      17.789  18.769   9.616  1.00  0.00    -0.285 OA
ATOM      5  C   UNL     1      17.348  17.182   7.975  1.00  0.00     0.111 A 
ATOM      6  C   UNL     1      17.787  16.074   8.739  1.00  0.00     0.134 A 
ATOM      7  C   UNL     1      17.745  14.786   8.185  1.00  0.00     0.093 A 
ATOM      8  C   UNL     1      17.274  14.586   6.882  1.00  0.00     0.123 A 
ATOM      9  C   UNL     1      16.840  15.676   6.126  1.00  0.00     0.094 A 
ATOM     10  C   UNL     1      16.872  16.967   6.661  1.00  0.00     0.146 A 
ATOM     11  O   UNL     1      16.447  17.985   5.921  1.00  0.00    -0.452 OA
ENDROOT
BRANCH   1  12
ATOM     12  C   UNL     1      15.927  20.288   5.428  1.00  0.00     0.025 A 
ATOM     13  C   UNL     1      14.158  21.222   4.020  1.00  0.00     0.161 A 
ATOM     14  C   UNL     1      15.023  22.265   3.643  1.00  0.00     0.157 A 
ATOM     15  C   UNL     1      14.621  20.231   4.910  1.00  0.00     0.062 A 
ATOM     16  C   UNL     1      16.328  22.307   4.142  1.00  0.00     0.051 A 
ATOM     17  C   UNL     1      16.781  21.323   5.021  1.00  0.00     0.016 A 
BRANCH  13  18
ATOM     18  O   UNL     1      12.856  21.200   3.494  1.00  0.00    -0.493 OA
ATOM     19  C   UNL     1      12.456  20.435   2.360  1.00  0.00     0.278 C 
ENDBRANCH  13  18
BRANCH  14  20
ATOM     20  O   UNL     1      14.605  23.268   2.768  1.00  0.00    -0.504 OA
ATOM     21  H   UNL     1      14.178  24.127   3.096  1.00  0.00     0.293 HD
ENDBRANCH  14  20
ENDBRANCH   1  12
BRANCH   2  22
ATOM     22  O   UNL     1      16.972  20.878   8.070  1.00  0.00    -0.502 OA
ATOM     23  H   UNL     1      17.539  21.168   8.857  1.00  0.00     0.293 HD
ENDBRANCH   2  22
BRANCH   6  24
ATOM     24  O   UNL     1      18.263  16.242  10.040  1.00  0.00    -0.507 OA
ATOM     25  H   UNL     1      17.716  15.966  10.847  1.00  0.00     0.293 HD
ENDBRANCH   6  24
BRANCH   8  26
ATOM     26  O   UNL     1      17.233  13.308   6.330  1.00  0.00    -0.508 OA
ATOM     27  H   UNL     1      17.961  12.976   5.708  1.00  0.00     0.293 HD
ENDBRANCH   8  26
TORSDOF 6
ENDMDL
MODEL 3
REMARK VINA RESULT:    -4.790      1.526      7.241
REMARK INTER + INTRA:          -6.274
REMARK INTER:                  -6.222
REMARK INTRA:                  -0.052
REMARK UNBOUND:                -0.364
REMARK SMILES COc1cc(-c2oc3cc(O)cc(O)c3c(=O)c2O)ccc1O
REMARK SMILES IDX 6 1 18 2 16 3 17 4 15 5 13 6 12 7 10 8 9 9 8 10 7 11 5 12
REMARK SMILES IDX 3 13 22 14 4 15 21 16 20 17 2 18 1 19 23 20 19 22 14 24
REMARK SMILES IDX 11 26
REMARK H PARENT 23 21 19 23 14 25 11 27
REMARK Flexibility Score: inf
ROOT
ATOM      1  C   UNL     1      19.728  22.202  15.442  1.00  0.00     0.180 A 
ATOM      2  C   UNL     1      20.193  23.499  15.148  1.00  0.00     0.208 A 
ATOM      3  C   UNL     1      20.490  23.828  13.817  1.00  0.00     0.238 A 
ATOM      4  O   UNL     1      20.918  24.982  13.544  1.00  0.00    -0.285 OA
ATOM      5  C   UNL     1      20.300  22.867  12.802  1.00  0.00     0.111 A 
ATOM      6  C   UNL     1      20.573  23.120  11.436  1.00  0.00     0.134 A 
ATOM      7  C   UNL     1      20.349  22.114  10.484  1.00  0.00     0.093 A 
ATOM      8  C   UNL     1      19.858  20.862  10.873  1.00  0.00     0.123 A 
ATOM      9  C   UNL     1      19.588  20.609  12.219  1.00  0.00     0.094 A 
ATOM     10  C   UNL     1      19.806  21.598  13.182  1.00  0.00     0.146 A 
ATOM     11  O   UNL     1      19.547  21.327  14.457  1.00  0.00    -0.452 OA
ENDROOT
BRANCH   1  12
ATOM     12  C   UNL     1      19.411  21.774  16.823  1.00  0.00     0.025 A 
ATOM     13  C   UNL     1      17.873  20.819  18.469  1.00  0.00     0.161 A 
ATOM     14  C   UNL     1      18.837  21.025  19.473  1.00  0.00     0.157 A 
ATOM     15  C   UNL     1      18.167  21.204  17.145  1.00  0.00     0.062 A 
ATOM     16  C   UNL     1      20.064  21.613  19.155  1.00  0.00     0.051 A 
ATOM     17  C   UNL     1      20.349  21.992  17.843  1.00  0.00     0.016 A 
BRANCH  13  18
ATOM     18  O   UNL     1      16.645  20.237  18.820  1.00  0.00    -0.493 OA
ATOM     19  C   UNL     1      15.910  19.341  17.991  1.00  0.00     0.278 C 
ENDBRANCH  13  18
BRANCH  14  20
ATOM     20  O   UNL     1      18.590  20.656  20.796  1.00  0.00    -0.504 OA
ATOM     21  H   UNL     1      18.732  21.295  21.570  1.00  0.00     0.293 HD
ENDBRANCH  14  20
ENDBRANCH   1  12
BRANCH   2  22
ATOM     22  O   UNL     1      20.325  24.448  16.165  1.00  0.00    -0.502 OA
ATOM     23  H   UNL     1      20.891  24.285  16.990  1.00  0.00     0.293 HD
ENDBRANCH   2  22
BRANCH   6  24
ATOM     24  O   UNL     1      21.062  24.358  11.018  1.00  0.00    -0.507 OA
ATOM     25  H   UNL     1      21.078  24.622  10.040  1.00  0.00     0.293 HD
ENDBRANCH   6  24
BRANCH   8  26
ATOM     26  O   UNL     1      19.634  19.863   9.928  1.00  0.00    -0.508 OA
ATOM     27  H   UNL     1      18.705  19.498   9.753  1.00  0.00     0.293 HD
ENDBRANCH   8  26
TORSDOF 6
ENDMDL
MODEL 4
REMARK VINA RESULT:    -4.760      1.337      2.739
REMARK INTER + INTRA:          -6.238
REMARK INTER:                  -6.107
REMARK INTRA:                  -0.130
REMARK UNBOUND:                -0.364
REMARK SMILES COc1cc(-c2oc3cc(O)cc(O)c3c(=O)c2O)ccc1O
REMARK SMILES IDX 6 1 18 2 16 3 17 4 15 5 13 6 12 7 10 8 9 9 8 10 7 11 5 12
REMARK SMILES IDX 3 13 22 14 4 15 21 16 20 17 2 18 1 19 23 20 19 22 14 24
REMARK SMILES IDX 11 26
REMARK H PARENT 23 21 19 23 14 25 11 27
REMARK Flexibility Score: inf
ROOT
ATOM      1  C   UNL     1      19.384  22.571  15.433  1.00  0.00     0.180 A 
ATOM      2  C   UNL     1      20.058  23.174  16.514  1.00  0.00     0.208 A 
ATOM      3  C   UNL     1      19.676  22.838  17.822  1.00  0.00     0.238 A 
ATOM      4  O   UNL     1      20.265  23.380  18.797  1.00  0.00    -0.285 OA
ATOM      5  C   UNL     1      18.647  21.897  18.029  1.00  0.00     0.111 A 
ATOM      6  C   UNL     1      18.206  21.502  19.315  1.00  0.00     0.134 A 
ATOM      7  C   UNL     1      17.182  20.552  19.438  1.00  0.00     0.093 A 
ATOM      8  C   UNL     1      16.592  19.989  18.300  1.00  0.00     0.123 A 
ATOM      9  C   UNL     1      17.023  20.375  17.031  1.00  0.00     0.094 A 
ATOM     10  C   UNL     1      18.041  21.322  16.887  1.00  0.00     0.146 A 
ATOM     11  O   UNL     1      18.428  21.677  15.667  1.00  0.00    -0.452 OA
ENDROOT
BRANCH   1  12
ATOM     12  C   UNL     1      19.715  22.888  14.025  1.00  0.00     0.025 A 
ATOM     13  C   UNL     1      20.465  22.208  11.798  1.00  0.00     0.161 A 
ATOM     14  C   UNL     1      20.385  23.547  11.374  1.00  0.00     0.157 A 
ATOM     15  C   UNL     1      20.134  21.887  13.130  1.00  0.00     0.062 A 
ATOM     16  C   UNL     1      19.991  24.543  12.271  1.00  0.00     0.051 A 
ATOM     17  C   UNL     1      19.665  24.219  13.588  1.00  0.00     0.016 A 
BRANCH  13  18
ATOM     18  O   UNL     1      20.876  21.230  10.878  1.00  0.00    -0.493 OA
ATOM     19  C   UNL     1      20.523  19.852  10.952  1.00  0.00     0.278 C 
ENDBRANCH  13  18
BRANCH  14  20
ATOM     20  O   UNL     1      20.700  23.908  10.063  1.00  0.00    -0.504 OA
ATOM     21  H   UNL     1      21.619  23.753   9.667  1.00  0.00     0.293 HD
ENDBRANCH  14  20
ENDBRANCH   1  12
BRANCH   2  22
ATOM     22  O   UNL     1      21.107  24.066  16.282  1.00  0.00    -0.502 OA
ATOM     23  H   UNL     1      20.951  25.033  16.024  1.00  0.00     0.293 HD
ENDBRANCH   2  22
BRANCH   6  24
ATOM     24  O   UNL     1      18.776  22.044  20.467  1.00  0.00    -0.507 OA
ATOM     25  H   UNL     1      18.399  21.853  21.389  1.00  0.00     0.293 HD
ENDBRANCH   6  24
BRANCH   8  26
ATOM     26  O   UNL     1      15.575  19.044  18.421  1.00  0.00    -0.508 OA
ATOM     27  H   UNL     1      15.605  18.166  17.916  1.00  0.00     0.293 HD
ENDBRANCH   8  26
TORSDOF 6
ENDMDL
MODEL 5
REMARK VINA RESULT:    -4.706      1.596      7.195
REMARK INTER + INTRA:          -6.171
REMARK INTER:                  -5.822
REMARK INTRA:                  -0.349
REMARK UNBOUND:                -0.364
REMARK SMILES COc1cc(-c2oc3cc(O)cc(O)c3c(=O)c2O)ccc1O
REMARK SMILES IDX 6 1 18 2 16 3 17 4 15 5 13 6 12 7 10 8 9 9 8 10 7 11 5 12
REMARK SMILES IDX 3 13 22 14 4 15 21 16 20 17 2 18 1 19 23 20 19 22 14 24
REMARK SMILES IDX 11 26
REMARK H PARENT 23 21 19 23 14 25 11 27
REMARK Flexibility Score: inf
ROOT
ATOM      1  C   UNL     1      20.013  21.858  14.944  1.00  0.00     0.180 A 
ATOM      2  C   UNL     1      20.491  20.795  14.153  1.00  0.00     0.208 A 
ATOM      3  C   UNL     1      20.708  21.012  12.784  1.00  0.00     0.238 A 
ATOM      4  O   UNL     1      21.125  20.064  12.065  1.00  0.00    -0.285 OA
ATOM      5  C   UNL     1      20.464  22.287  12.232  1.00  0.00     0.111 A 
ATOM      6  C   UNL     1      20.661  22.589  10.863  1.00  0.00     0.134 A 
ATOM      7  C   UNL     1      20.404  23.885  10.392  1.00  0.00     0.093 A 
ATOM      8  C   UNL     1      19.955  24.883  11.265  1.00  0.00     0.123 A 
ATOM      9  C   UNL     1      19.760  24.590  12.615  1.00  0.00     0.094 A 
ATOM     10  C   UNL     1      20.009  23.304  13.103  1.00  0.00     0.146 A 
ATOM     11  O   UNL     1      19.808  23.051  14.392  1.00  0.00    -0.452 OA
ENDROOT
BRANCH   1  12
ATOM     12  C   UNL     1      19.742  21.703  16.391  1.00  0.00     0.025 A 
ATOM     13  C   UNL     1      18.332  20.926  18.233  1.00  0.00     0.161 A 
ATOM     14  C   UNL     1      19.244  21.479  19.150  1.00  0.00     0.157 A 
ATOM     15  C   UNL     1      18.586  21.048  16.851  1.00  0.00     0.062 A 
ATOM     16  C   UNL     1      20.380  22.149  18.689  1.00  0.00     0.051 A 
ATOM     17  C   UNL     1      20.626  22.268  17.321  1.00  0.00     0.016 A 
BRANCH  13  18
ATOM     18  O   UNL     1      17.193  20.269  18.725  1.00  0.00    -0.493 OA
ATOM     19  C   UNL     1      16.178  19.692  17.908  1.00  0.00     0.278 C 
ENDBRANCH  13  18
BRANCH  14  20
ATOM     20  O   UNL     1      19.034  21.378  20.526  1.00  0.00    -0.504 OA
ATOM     21  H   UNL     1      18.594  20.568  20.947  1.00  0.00     0.293 HD
ENDBRANCH  14  20
ENDBRANCH   1  12
BRANCH   2  22
ATOM     22  O   UNL     1      20.772  19.555  14.733  1.00  0.00    -0.502 OA
ATOM     23  H   UNL     1      20.723  19.400  15.733  1.00  0.00     0.293 HD
ENDBRANCH   2  22
BRANCH   6  24
ATOM     24  O   UNL     1      21.108  21.614   9.970  1.00  0.00    -0.507 OA
ATOM     25  H   UNL     1      20.747  20.667   9.990  1.00  0.00     0.293 HD
ENDBRANCH   6  24
BRANCH   8  26
ATOM     26  O   UNL     1      19.701  26.172  10.799  1.00  0.00    -0.508 OA
ATOM     27  H   UNL     1      20.175  26.543   9.983  1.00  0.00     0.293 HD
ENDBRANCH   8  26
TORSDOF 6
ENDMDL
MODEL 6
REMARK VINA RESULT:    -4.626      8.568     10.869
REMARK INTER + INTRA:          -6.072
REMARK INTER:                  -5.766
REMARK INTRA:                  -0.306
REMARK UNBOUND:                -0.364
REMARK SMILES COc1cc(-c2oc3cc(O)cc(O)c3c(=O)c2O)ccc1O
REMARK SMILES IDX 6 1 18 2 16 3 17 4 15 5 13 6 12 7 10 8 9 9 8 10 7 11 5 12
REMARK SMILES IDX 3 13 22 14 4 15 21 16 20 17 2 18 1 19 23 20 19 22 14 24
REMARK SMILES IDX 11 26
REMARK H PARENT 23 21 19 23 14 25 11 27
REMARK Flexibility Score: inf
ROOT
ATOM      1  C   UNL     1      16.618  18.919   6.263  1.00  0.00     0.180 A 
ATOM      2  C   UNL     1      17.030  19.273   7.563  1.00  0.00     0.208 A 
ATOM      3  C   UNL     1      17.501  18.269   8.422  1.00  0.00     0.238 A 
ATOM      4  O   UNL     1      17.862  18.573   9.592  1.00  0.00    -0.285 OA
ATOM      5  C   UNL     1      17.571  16.936   7.966  1.00  0.00     0.111 A 
ATOM      6  C   UNL     1      18.037  15.867   8.768  1.00  0.00     0.134 A 
ATOM      7  C   UNL     1      18.084  14.569   8.238  1.00  0.00     0.093 A 
ATOM      8  C   UNL     1      17.676  14.322   6.922  1.00  0.00     0.123 A 
ATOM      9  C   UNL     1      17.216  15.373   6.128  1.00  0.00     0.094 A 
ATOM     10  C   UNL     1      17.159  16.673   6.639  1.00  0.00     0.146 A 
ATOM     11  O   UNL     1      16.711  17.654   5.863  1.00  0.00    -0.452 OA
ENDROOT
BRANCH   1  12
ATOM     12  C   UNL     1      16.092  19.917   5.305  1.00  0.00     0.025 A 
ATOM     13  C   UNL     1      16.420  21.807   3.786  1.00  0.00     0.161 A 
ATOM     14  C   UNL     1      15.037  21.830   3.532  1.00  0.00     0.157 A 
ATOM     15  C   UNL     1      16.939  20.850   4.682  1.00  0.00     0.062 A 
ATOM     16  C   UNL     1      14.193  20.917   4.171  1.00  0.00     0.051 A 
ATOM     17  C   UNL     1      14.712  19.972   5.056  1.00  0.00     0.016 A 
BRANCH  13  18
ATOM     18  O   UNL     1      17.242  22.744   3.140  1.00  0.00    -0.493 OA
ATOM     19  C   UNL     1      18.666  22.714   3.153  1.00  0.00     0.278 C 
ENDBRANCH  13  18
BRANCH  14  20
ATOM     20  O   UNL     1      14.481  22.758   2.651  1.00  0.00    -0.504 OA
ATOM     21  H   UNL     1      13.488  22.961   2.637  1.00  0.00     0.293 HD
ENDBRANCH  14  20
ENDBRANCH   1  12
BRANCH   2  22
ATOM     22  O   UNL     1      16.998  20.608   7.974  1.00  0.00    -0.502 OA
ATOM     23  H   UNL     1      17.101  20.880   8.944  1.00  0.00     0.293 HD
ENDBRANCH   2  22
BRANCH   6  24
ATOM     24  O   UNL     1      18.451  16.083  10.083  1.00  0.00    -0.507 OA
ATOM     25  H   UNL     1      17.786  16.208  10.837  1.00  0.00     0.293 HD
ENDBRANCH   6  24
BRANCH   8  26
ATOM     26  O   UNL     1      17.725  13.033   6.394  1.00  0.00    -0.508 OA
ATOM     27  H   UNL     1      18.192  12.837   5.516  1.00  0.00     0.293 HD
ENDBRANCH   8  26
TORSDOF 6
ENDMDL
MODEL 7
REMARK VINA RESULT:    -4.579      9.114     11.675
REMARK INTER + INTRA:          -6.014
REMARK INTER:                  -6.219
REMARK INTRA:                   0.205
REMARK UNBOUND:                -0.364
REMARK SMILES COc1cc(-c2oc3cc(O)cc(O)c3c(=O)c2O)ccc1O
REMARK SMILES IDX 6 1 18 2 16 3 17 4 15 5 13 6 12 7 10 8 9 9 8 10 7 11 5 12
REMARK SMILES IDX 3 13 22 14 4 15 21 16 20 17 2 18 1 19 23 20 19 22 14 24
REMARK SMILES IDX 11 26
REMARK H PARENT 23 21 19 23 14 25 11 27
REMARK Flexibility Score: inf
ROOT
ATOM      1  C   UNL     1      15.851  18.195   5.391  1.00  0.00     0.180 A 
ATOM      2  C   UNL     1      15.511  16.968   4.789  1.00  0.00     0.208 A 
ATOM      3  C   UNL     1      15.952  15.776   5.384  1.00  0.00     0.238 A 
ATOM      4  O   UNL     1      15.663  14.672   4.847  1.00  0.00    -0.285 OA
ATOM      5  C   UNL     1      16.706  15.827   6.575  1.00  0.00     0.111 A 
ATOM      6  C   UNL     1      17.185  14.672   7.238  1.00  0.00     0.134 A 
ATOM      7  C   UNL     1      17.921  14.806   8.425  1.00  0.00     0.093 A 
ATOM      8  C   UNL     1      18.185  16.073   8.960  1.00  0.00     0.123 A 
ATOM      9  C   UNL     1      17.714  17.214   8.309  1.00  0.00     0.094 A 
ATOM     10  C   UNL     1      16.981  17.101   7.124  1.00  0.00     0.146 A 
ATOM     11  O   UNL     1      16.550  18.204   6.522  1.00  0.00    -0.452 OA
ENDROOT
BRANCH   1  12
ATOM     12  C   UNL     1      15.439  19.495   4.815  1.00  0.00     0.025 A 
ATOM     13  C   UNL     1      13.870  20.868   3.535  1.00  0.00     0.161 A 
ATOM     14  C   UNL     1      14.725  21.974   3.693  1.00  0.00     0.157 A 
ATOM     15  C   UNL     1      14.238  19.628   4.095  1.00  0.00     0.062 A 
ATOM     16  C   UNL     1      15.928  21.834   4.389  1.00  0.00     0.051 A 
ATOM     17  C   UNL     1      16.288  20.604   4.941  1.00  0.00     0.016 A 
BRANCH  13  18
ATOM     18  O   UNL     1      12.673  21.035   2.820  1.00  0.00    -0.493 OA
ATOM     19  C   UNL     1      12.056  20.023   2.029  1.00  0.00     0.278 C 
ENDBRANCH  13  18
BRANCH  14  20
ATOM     20  O   UNL     1      14.398  23.220   3.158  1.00  0.00    -0.504 OA
ATOM     21  H   UNL     1      14.165  23.344   2.180  1.00  0.00     0.293 HD
ENDBRANCH  14  20
ENDBRANCH   1  12
BRANCH   2  22
ATOM     22  O   UNL     1      14.721  16.942   3.637  1.00  0.00    -0.502 OA
ATOM     23  H   UNL     1      13.729  17.145   3.654  1.00  0.00     0.293 HD
ENDBRANCH   2  22
BRANCH   6  24
ATOM     24  O   UNL     1      16.937  13.397   6.729  1.00  0.00    -0.507 OA
ATOM     25  H   UNL     1      16.794  12.599   7.338  1.00  0.00     0.293 HD
ENDBRANCH   6  24
BRANCH   8  26
ATOM     26  O   UNL     1      18.914  16.207  10.139  1.00  0.00    -0.508 OA
ATOM     27  H   UNL     1      18.564  15.853  11.022  1.00  0.00     0.293 HD
ENDBRANCH   8  26
TORSDOF 6
ENDMDL
MODEL 8
REMARK VINA RESULT:    -4.524      9.987     12.251
REMARK INTER + INTRA:          -5.947
REMARK INTER:                  -5.656
REMARK INTRA:                  -0.290
REMARK UNBOUND:                -0.364
REMARK SMILES COc1cc(-c2oc3cc(O)cc(O)c3c(=O)c2O)ccc1O
REMARK SMILES IDX 6 1 18 2 16 3 17 4 15 5 13 6 12 7 10 8 9 9 8 10 7 11 5 12
REMARK SMILES IDX 3 13 22 14 4 15 21 16 20 17 2 18 1 19 23 20 19 22 14 24
REMARK SMILES IDX 11 26
REMARK H PARENT 23 21 19 23 14 25 11 27
REMARK Flexibility Score: inf
ROOT
ATOM      1  C   UNL     1      15.181  18.744   4.581  1.00  0.00     0.180 A 
ATOM      2  C   UNL     1      14.690  17.626   3.879  1.00  0.00     0.208 A 
ATOM      3  C   UNL     1      14.980  16.341   4.363  1.00  0.00     0.238 A 
ATOM      4  O   UNL     1      14.555  15.333   3.736  1.00  0.00    -0.285 OA
ATOM      5  C   UNL     1      15.735  16.194   5.545  1.00  0.00     0.111 A 
ATOM      6  C   UNL     1      16.066  14.935   6.101  1.00  0.00     0.134 A 
ATOM      7  C   UNL     1      16.814  14.873   7.286  1.00  0.00     0.093 A 
ATOM      8  C   UNL     1      17.234  16.045   7.925  1.00  0.00     0.123 A 
ATOM      9  C   UNL     1      16.909  17.288   7.381  1.00  0.00     0.094 A 
ATOM     10  C   UNL     1      16.167  17.371   6.200  1.00  0.00     0.146 A 
ATOM     11  O   UNL     1      15.877  18.568   5.700  1.00  0.00    -0.452 OA
ENDROOT
BRANCH   1  12
ATOM     12  C   UNL     1      14.935  20.130   4.123  1.00  0.00     0.025 A 
ATOM     13  C   UNL     1      15.724  22.248   3.185  1.00  0.00     0.161 A 
ATOM     14  C   UNL     1      14.427  22.777   3.316  1.00  0.00     0.157 A 
ATOM     15  C   UNL     1      15.971  20.923   3.599  1.00  0.00     0.062 A 
ATOM     16  C   UNL     1      13.404  21.996   3.859  1.00  0.00     0.051 A 
ATOM     17  C   UNL     1      13.654  20.685   4.267  1.00  0.00     0.016 A 
BRANCH  13  18
ATOM     18  O   UNL     1      16.735  23.060   2.648  1.00  0.00    -0.493 OA
ATOM     19  C   UNL     1      18.032  22.599   2.281  1.00  0.00     0.278 C 
ENDBRANCH  13  18
BRANCH  14  20
ATOM     20  O   UNL     1      14.138  24.082   2.917  1.00  0.00    -0.504 OA
ATOM     21  H   UNL     1      14.664  24.880   3.255  1.00  0.00     0.293 HD
ENDBRANCH  14  20
ENDBRANCH   1  12
BRANCH   2  22
ATOM     22  O   UNL     1      13.903  17.799   2.737  1.00  0.00    -0.502 OA
ATOM     23  H   UNL     1      13.373  17.042   2.324  1.00  0.00     0.293 HD
ENDBRANCH   2  22
BRANCH   6  24
ATOM     24  O   UNL     1      15.661  13.750   5.487  1.00  0.00    -0.507 OA
ATOM     25  H   UNL     1      15.102  13.752   4.641  1.00  0.00     0.293 HD
ENDBRANCH   6  24
BRANCH   8  26
ATOM     26  O   UNL     1      17.975  15.985   9.104  1.00  0.00    -0.508 OA
ATOM     27  H   UNL     1      17.584  15.601   9.957  1.00  0.00     0.293 HD
ENDBRANCH   8  26
TORSDOF 6
ENDMDL
MODEL 9
REMARK VINA RESULT:    -4.499     11.273     13.301
REMARK INTER + INTRA:          -5.915
REMARK INTER:                  -5.530
REMARK INTRA:                  -0.386
REMARK UNBOUND:                -0.364
REMARK SMILES COc1cc(-c2oc3cc(O)cc(O)c3c(=O)c2O)ccc1O
REMARK SMILES IDX 6 1 18 2 16 3 17 4 15 5 13 6 12 7 10 8 9 9 8 10 7 11 5 12
REMARK SMILES IDX 3 13 22 14 4 15 21 16 20 17 2 18 1 19 23 20 19 22 14 24
REMARK SMILES IDX 11 26
REMARK H PARENT 23 21 19 23 14 25 11 27
REMARK Flexibility Score: inf
ROOT
ATOM      1  C   UNL     1      14.991  18.741   4.450  1.00  0.00     0.180 A 
ATOM      2  C   UNL     1      15.310  18.386   5.775  1.00  0.00     0.208 A 
ATOM      3  C   UNL     1      15.479  17.030   6.092  1.00  0.00     0.238 A 
ATOM      4  O   UNL     1      15.753  16.700   7.278  1.00  0.00    -0.285 OA
ATOM      5  C   UNL     1      15.347  16.055   5.081  1.00  0.00     0.111 A 
ATOM      6  C   UNL     1      15.505  14.668   5.317  1.00  0.00     0.134 A 
ATOM      7  C   UNL     1      15.367  13.762   4.256  1.00  0.00     0.093 A 
ATOM      8  C   UNL     1      15.074  14.216   2.964  1.00  0.00     0.123 A 
ATOM      9  C   UNL     1      14.917  15.582   2.727  1.00  0.00     0.094 A 
ATOM     10  C   UNL     1      15.049  16.501   3.772  1.00  0.00     0.146 A 
ATOM     11  O   UNL     1      14.889  17.796   3.520  1.00  0.00    -0.452 OA
ENDROOT
BRANCH   1  12
ATOM     12  C   UNL     1      14.778  20.148   4.041  1.00  0.00     0.025 A 
ATOM     13  C   UNL     1      15.632  22.299   3.247  1.00  0.00     0.161 A 
ATOM     14  C   UNL     1      14.332  22.832   3.326  1.00  0.00     0.157 A 
ATOM     15  C   UNL     1      15.847  20.955   3.615  1.00  0.00     0.062 A 
ATOM     16  C   UNL     1      13.275  22.034   3.772  1.00  0.00     0.051 A 
ATOM     17  C   UNL     1      13.494  20.705   4.134  1.00  0.00     0.016 A 
BRANCH  13  18
ATOM     18  O   UNL     1      16.677  23.127   2.807  1.00  0.00    -0.493 OA
ATOM     19  C   UNL     1      17.939  22.657   2.343  1.00  0.00     0.278 C 
ENDBRANCH  13  18
BRANCH  14  20
ATOM     20  O   UNL     1      14.073  24.155   2.969  1.00  0.00    -0.504 OA
ATOM     21  H   UNL     1      14.563  24.617   2.212  1.00  0.00     0.293 HD
ENDBRANCH  14  20
ENDBRANCH   1  12
BRANCH   2  22
ATOM     22  O   UNL     1      15.484  19.374   6.748  1.00  0.00    -0.502 OA
ATOM     23  H   UNL     1      16.145  20.134   6.637  1.00  0.00     0.293 HD
ENDBRANCH   2  22
BRANCH   6  24
ATOM     24  O   UNL     1      15.798  14.186   6.593  1.00  0.00    -0.507 OA
ATOM     25  H   UNL     1      16.465  13.437   6.740  1.00  0.00     0.293 HD
ENDBRANCH   6  24
BRANCH   8  26
ATOM     26  O   UNL     1      14.938  13.316   1.909  1.00  0.00    -0.508 OA
ATOM     27  H   UNL     1      15.690  13.158   1.248  1.00  0.00     0.293 HD
ENDBRANCH   8  26
TORSDOF 6
ENDMDL
