MODEL 1
REMARK VINA RESULT:    -1.139      0.000      0.000
REMARK INTER + INTRA:          -4.304
REMARK INTER:                  -1.938
REMARK INTRA:                  -2.367
REMARK UNBOUND:                -2.367
REMARK SMILES CCCCCCCCCCCCCC(=O)[O-]
REMARK SMILES IDX 8 1 9 2 10 3 11 4 12 5 13 6 14 7 15 8 16 9 7 10 6 11 5 12
REMARK SMILES IDX 4 13 3 14 2 15 1 16
REMARK H PARENT
REMARK Flexibility Score: inf
ROOT
ATOM      1  C   UNL     1     175.346 179.073 191.473  1.00  0.00     0.000 C 
ENDROOT
BRANCH   1   2
ATOM      2  C   UNL     1     175.615 180.428 192.140  1.00  0.00     0.000 C 
BRANCH   2   3
ATOM      3  C   UNL     1     175.105 180.439 193.589  1.00  0.00     0.000 C 
BRANCH   3   4
ATOM      4  C   UNL     1     173.850 181.310 193.777  1.00  0.00     0.000 C 
BRANCH   4   5
ATOM      5  C   UNL     1     172.750 180.684 194.653  1.00  0.00     0.006 C 
BRANCH   5   6
ATOM      6  C   UNL     1     173.186 179.369 195.312  1.00  0.00     0.053 C 
BRANCH   6   7
ATOM      7  C   UNL     1     173.257 179.528 196.798  1.00  0.00     0.041 C 
ATOM      8  O   UNL     1     172.950 178.568 197.553  1.00  0.00    -0.550 OA
ATOM      9  O   UNL     1     173.615 180.750 197.349  1.00  0.00    -0.550 OA
ENDBRANCH   6   7
ENDBRANCH   5   6
ENDBRANCH   4   5
ENDBRANCH   3   4
ENDBRANCH   2   3
ENDBRANCH   1   2
BRANCH   1  10
ATOM     10  C   UNL     1     175.384 177.936 192.502  1.00  0.00     0.000 C 
BRANCH  10  11
ATOM     11  C   UNL     1     174.078 177.127 192.476  1.00  0.00    -0.000 C 
BRANCH  11  12
ATOM     12  C   UNL     1     173.043 177.711 191.501  1.00  0.00    -0.000 C 
BRANCH  12  13
ATOM     13  C   UNL     1     171.713 178.062 192.191  1.00  0.00    -0.000 C 
BRANCH  13  14
ATOM     14  C   UNL     1     171.132 179.399 191.687  1.00  0.00    -0.000 C 
BRANCH  14  15
ATOM     15  C   UNL     1     171.968 180.053 190.573  1.00  0.00    -0.003 C 
ATOM     16  C   UNL     1     171.951 181.579 190.630  1.00  0.00     0.004 C 
ENDBRANCH  14  15
ENDBRANCH  13  14
ENDBRANCH  12  13
ENDBRANCH  11  12
ENDBRANCH  10  11
ENDBRANCH   1  10
TORSDOF 12
ENDMDL
MODEL 2
REMARK VINA RESULT:    -1.129      1.539      2.791
REMARK INTER + INTRA:          -4.289
REMARK INTER:                  -2.559
REMARK INTRA:                  -1.730
REMARK UNBOUND:                -2.367
REMARK SMILES CCCCCCCCCCCCCC(=O)[O-]
REMARK SMILES IDX 8 1 9 2 10 3 11 4 12 5 13 6 14 7 15 8 16 9 7 10 6 11 5 12
REMARK SMILES IDX 4 13 3 14 2 15 1 16
REMARK H PARENT
REMARK Flexibility Score: inf
ROOT
ATOM      1  C   UNL     1     172.611 177.391 193.655  1.00  0.00     0.000 C 
ENDROOT
BRANCH   1   2
ATOM      2  C   UNL     1     173.930 178.092 193.306  1.00  0.00     0.000 C 
BRANCH   2   3
ATOM      3  C   UNL     1     174.358 179.050 194.427  1.00  0.00     0.000 C 
BRANCH   3   4
ATOM      4  C   UNL     1     173.164 179.673 195.173  1.00  0.00     0.000 C 
BRANCH   4   5
ATOM      5  C   UNL     1     173.298 179.700 196.706  1.00  0.00     0.006 C 
BRANCH   5   6
ATOM      6  C   UNL     1     173.102 178.320 197.348  1.00  0.00     0.053 C 
BRANCH   6   7
ATOM      7  C   UNL     1     172.612 178.464 198.755  1.00  0.00     0.041 C 
ATOM      8  O   UNL     1     172.485 177.447 199.487  1.00  0.00    -0.550 OA
ATOM      9  O   UNL     1     172.250 179.713 199.240  1.00  0.00    -0.550 OA
ENDBRANCH   6   7
ENDBRANCH   5   6
ENDBRANCH   4   5
ENDBRANCH   3   4
ENDBRANCH   2   3
ENDBRANCH   1   2
BRANCH   1  10
ATOM     10  C   UNL     1     171.619 177.471 192.489  1.00  0.00     0.000 C 
BRANCH  10  11
ATOM     11  C   UNL     1     171.954 178.649 191.561  1.00  0.00    -0.000 C 
BRANCH  11  12
ATOM     12  C   UNL     1     170.875 179.743 191.585  1.00  0.00    -0.000 C 
BRANCH  12  13
ATOM     13  C   UNL     1     171.292 180.968 192.417  1.00  0.00    -0.000 C 
BRANCH  13  14
ATOM     14  C   UNL     1     172.260 181.891 191.647  1.00  0.00    -0.000 C 
BRANCH  14  15
ATOM     15  C   UNL     1     173.703 181.850 192.178  1.00  0.00    -0.003 C 
ATOM     16  C   UNL     1     174.708 181.351 191.141  1.00  0.00     0.004 C 
ENDBRANCH  14  15
ENDBRANCH  13  14
ENDBRANCH  12  13
ENDBRANCH  11  12
ENDBRANCH  10  11
ENDBRANCH   1  10
TORSDOF 12
ENDMDL
MODEL 3
REMARK VINA RESULT:    -1.109      2.818      5.844
REMARK INTER + INTRA:          -4.255
REMARK INTER:                  -2.949
REMARK INTRA:                  -1.305
REMARK UNBOUND:                -2.367
REMARK SMILES CCCCCCCCCCCCCC(=O)[O-]
REMARK SMILES IDX 8 1 9 2 10 3 11 4 12 5 13 6 14 7 15 8 16 9 7 10 6 11 5 12
REMARK SMILES IDX 4 13 3 14 2 15 1 16
REMARK H PARENT
REMARK Flexibility Score: inf
ROOT
ATOM      1  C   UNL     1     173.312 178.631 195.518  1.00  0.00     0.000 C 
ENDROOT
BRANCH   1   2
ATOM      2  C   UNL     1     173.426 177.648 194.346  1.00  0.00     0.000 C 
BRANCH   2   3
ATOM      3  C   UNL     1     172.115 176.875 194.146  1.00  0.00     0.000 C 
BRANCH   3   4
ATOM      4  C   UNL     1     171.619 176.901 192.689  1.00  0.00     0.000 C 
BRANCH   4   5
ATOM      5  C   UNL     1     172.197 178.036 191.825  1.00  0.00     0.006 C 
BRANCH   5   6
ATOM      6  C   UNL     1     171.267 179.253 191.736  1.00  0.00     0.053 C 
BRANCH   6   7
ATOM      7  C   UNL     1     171.903 180.446 192.377  1.00  0.00     0.041 C 
ATOM      8  O   UNL     1     171.191 181.315 192.944  1.00  0.00    -0.550 OA
ATOM      9  O   UNL     1     173.278 180.622 192.305  1.00  0.00    -0.550 OA
ENDBRANCH   6   7
ENDBRANCH   5   6
ENDBRANCH   4   5
ENDBRANCH   3   4
ENDBRANCH   2   3
ENDBRANCH   1   2
BRANCH   1  10
ATOM     10  C   UNL     1     174.546 178.552 196.425  1.00  0.00     0.000 C 
BRANCH  10  11
ATOM     11  C   UNL     1     174.375 177.460 197.493  1.00  0.00    -0.000 C 
BRANCH  11  12
ATOM     12  C   UNL     1     172.919 177.324 197.967  1.00  0.00    -0.000 C 
BRANCH  12  13
ATOM     13  C   UNL     1     172.752 177.642 199.463  1.00  0.00    -0.000 C 
BRANCH  13  14
ATOM     14  C   UNL     1     173.098 179.110 199.788  1.00  0.00    -0.000 C 
BRANCH  14  15
ATOM     15  C   UNL     1     172.300 180.129 198.956  1.00  0.00    -0.003 C 
ATOM     16  C   UNL     1     172.874 181.543 199.030  1.00  0.00     0.004 C 
ENDBRANCH  14  15
ENDBRANCH  13  14
ENDBRANCH  12  13
ENDBRANCH  11  12
ENDBRANCH  10  11
ENDBRANCH   1  10
TORSDOF 12
ENDMDL
MODEL 4
REMARK VINA RESULT:    -1.102      2.975      6.050
REMARK INTER + INTRA:          -4.242
REMARK INTER:                  -2.206
REMARK INTRA:                  -2.036
REMARK UNBOUND:                -2.367
REMARK SMILES CCCCCCCCCCCCCC(=O)[O-]
REMARK SMILES IDX 8 1 9 2 10 3 11 4 12 5 13 6 14 7 15 8 16 9 7 10 6 11 5 12
REMARK SMILES IDX 4 13 3 14 2 15 1 16
REMARK H PARENT
REMARK Flexibility Score: inf
ROOT
ATOM      1  C   UNL     1     173.058 177.152 197.857  1.00  0.00     0.000 C 
ENDROOT
BRANCH   1   2
ATOM      2  C   UNL     1     174.481 177.397 197.337  1.00  0.00     0.000 C 
BRANCH   2   3
ATOM      3  C   UNL     1     174.455 177.923 195.894  1.00  0.00     0.000 C 
BRANCH   3   4
ATOM      4  C   UNL     1     173.049 178.344 195.433  1.00  0.00     0.000 C 
BRANCH   4   5
ATOM      5  C   UNL     1     173.006 179.594 194.535  1.00  0.00     0.006 C 
BRANCH   5   6
ATOM      6  C   UNL     1     173.629 179.360 193.153  1.00  0.00     0.053 C 
BRANCH   6   7
ATOM      7  C   UNL     1     172.890 178.285 192.421  1.00  0.00     0.041 C 
ATOM      8  O   UNL     1     173.505 177.275 191.988  1.00  0.00    -0.550 OA
ATOM      9  O   UNL     1     171.530 178.421 192.175  1.00  0.00    -0.550 OA
ENDBRANCH   6   7
ENDBRANCH   5   6
ENDBRANCH   4   5
ENDBRANCH   3   4
ENDBRANCH   2   3
ENDBRANCH   1   2
BRANCH   1  10
ATOM     10  C   UNL     1     172.910 177.640 199.303  1.00  0.00     0.000 C 
BRANCH  10  11
ATOM     11  C   UNL     1     173.398 179.090 199.448  1.00  0.00    -0.000 C 
BRANCH  11  12
ATOM     12  C   UNL     1     172.397 180.108 198.881  1.00  0.00    -0.000 C 
BRANCH  12  13
ATOM     13  C   UNL     1     173.069 181.164 197.987  1.00  0.00    -0.000 C 
BRANCH  13  14
ATOM     14  C   UNL     1     174.608 181.063 198.024  1.00  0.00    -0.000 C 
BRANCH  14  15
ATOM     15  C   UNL     1     175.283 181.461 196.700  1.00  0.00    -0.003 C 
ATOM     16  C   UNL     1     176.807 181.365 196.753  1.00  0.00     0.004 C 
ENDBRANCH  14  15
ENDBRANCH  13  14
ENDBRANCH  12  13
ENDBRANCH  11  12
ENDBRANCH  10  11
ENDBRANCH   1  10
TORSDOF 12
ENDMDL
MODEL 5
REMARK VINA RESULT:    -1.084      1.127      2.888
REMARK INTER + INTRA:          -4.212
REMARK INTER:                  -2.082
REMARK INTRA:                  -2.129
REMARK UNBOUND:                -2.367
REMARK SMILES CCCCCCCCCCCCCC(=O)[O-]
REMARK SMILES IDX 8 1 9 2 10 3 11 4 12 5 13 6 14 7 15 8 16 9 7 10 6 11 5 12
REMARK SMILES IDX 4 13 3 14 2 15 1 16
REMARK H PARENT
REMARK Flexibility Score: inf
ROOT
ATOM      1  C   UNL     1     173.086 181.507 191.850  1.00  0.00     0.000 C 
ENDROOT
BRANCH   1   2
ATOM      2  C   UNL     1     171.989 181.748 192.895  1.00  0.00     0.000 C 
BRANCH   2   3
ATOM      3  C   UNL     1     172.384 181.151 194.254  1.00  0.00     0.000 C 
BRANCH   3   4
ATOM      4  C   UNL     1     173.829 180.621 194.280  1.00  0.00     0.000 C 
BRANCH   4   5
ATOM      5  C   UNL     1     174.249 179.944 195.597  1.00  0.00     0.006 C 
BRANCH   5   6
ATOM      6  C   UNL     1     173.366 178.744 195.962  1.00  0.00     0.053 C 
BRANCH   6   7
ATOM      7  C   UNL     1     173.055 178.750 197.425  1.00  0.00     0.041 C 
ATOM      8  O   UNL     1     172.929 177.664 198.050  1.00  0.00    -0.550 OA
ATOM      9  O   UNL     1     172.856 179.953 198.088  1.00  0.00    -0.550 OA
ENDBRANCH   6   7
ENDBRANCH   5   6
ENDBRANCH   4   5
ENDBRANCH   3   4
ENDBRANCH   2   3
ENDBRANCH   1   2
BRANCH   1  10
ATOM     10  C   UNL     1     172.497 180.931 190.557  1.00  0.00     0.000 C 
BRANCH  10  11
ATOM     11  C   UNL     1     171.300 180.016 190.858  1.00  0.00    -0.000 C 
BRANCH  11  12
ATOM     12  C   UNL     1     171.682 178.528 190.862  1.00  0.00    -0.000 C 
BRANCH  12  13
ATOM     13  C   UNL     1     171.819 177.955 192.283  1.00  0.00    -0.000 C 
BRANCH  13  14
ATOM     14  C   UNL     1     173.232 177.399 192.553  1.00  0.00    -0.000 C 
BRANCH  14  15
ATOM     15  C   UNL     1     174.271 177.821 191.499  1.00  0.00    -0.003 C 
ATOM     16  C   UNL     1     175.591 178.284 192.112  1.00  0.00     0.004 C 
ENDBRANCH  14  15
ENDBRANCH  13  14
ENDBRANCH  12  13
ENDBRANCH  11  12
ENDBRANCH  10  11
ENDBRANCH   1  10
TORSDOF 12
ENDMDL
MODEL 6
REMARK VINA RESULT:    -1.076      2.621      4.413
REMARK INTER + INTRA:          -4.198
REMARK INTER:                  -2.462
REMARK INTRA:                  -1.736
REMARK UNBOUND:                -2.367
REMARK SMILES CCCCCCCCCCCCCC(=O)[O-]
REMARK SMILES IDX 8 1 9 2 10 3 11 4 12 5 13 6 14 7 15 8 16 9 7 10 6 11 5 12
REMARK SMILES IDX 4 13 3 14 2 15 1 16
REMARK H PARENT
REMARK Flexibility Score: inf
ROOT
ATOM      1  C   UNL     1     176.462 179.273 196.610  1.00  0.00     0.000 C 
ENDROOT
BRANCH   1   2
ATOM      2  C   UNL     1     176.475 177.739 196.564  1.00  0.00     0.000 C 
BRANCH   2   3
ATOM      3  C   UNL     1     175.294 177.155 197.353  1.00  0.00     0.000 C 
BRANCH   3   4
ATOM      4  C   UNL     1     174.905 178.011 198.573  1.00  0.00     0.000 C 
BRANCH   4   5
ATOM      5  C   UNL     1     173.391 178.144 198.816  1.00  0.00     0.006 C 
BRANCH   5   6
ATOM      6  C   UNL     1     172.978 179.556 199.252  1.00  0.00     0.053 C 
BRANCH   6   7
ATOM      7  C   UNL     1     171.621 179.532 199.882  1.00  0.00     0.041 C 
ATOM      8  O   UNL     1     171.077 178.434 200.172  1.00  0.00    -0.550 OA
ATOM      9  O   UNL     1     170.937 180.719 200.104  1.00  0.00    -0.550 OA
ENDBRANCH   6   7
ENDBRANCH   5   6
ENDBRANCH   4   5
ENDBRANCH   3   4
ENDBRANCH   2   3
ENDBRANCH   1   2
BRANCH   1  10
ATOM     10  C   UNL     1     175.766 179.855 195.375  1.00  0.00     0.000 C 
BRANCH  10  11
ATOM     11  C   UNL     1     174.568 180.728 195.780  1.00  0.00    -0.000 C 
BRANCH  11  12
ATOM     12  C   UNL     1     173.225 180.003 195.604  1.00  0.00    -0.000 C 
BRANCH  12  13
ATOM     13  C   UNL     1     173.223 179.043 194.402  1.00  0.00    -0.000 C 
BRANCH  13  14
ATOM     14  C   UNL     1     172.747 177.627 194.789  1.00  0.00    -0.000 C 
BRANCH  14  15
ATOM     15  C   UNL     1     172.055 176.875 193.639  1.00  0.00    -0.003 C 
ATOM     16  C   UNL     1     171.660 177.787 192.479  1.00  0.00     0.004 C 
ENDBRANCH  14  15
ENDBRANCH  13  14
ENDBRANCH  12  13
ENDBRANCH  11  12
ENDBRANCH  10  11
ENDBRANCH   1  10
TORSDOF 12
ENDMDL
MODEL 7
REMARK VINA RESULT:    -1.074      2.795      4.589
REMARK INTER + INTRA:          -4.195
REMARK INTER:                  -2.113
REMARK INTRA:                  -2.082
REMARK UNBOUND:                -2.367
REMARK SMILES CCCCCCCCCCCCCC(=O)[O-]
REMARK SMILES IDX 8 1 9 2 10 3 11 4 12 5 13 6 14 7 15 8 16 9 7 10 6 11 5 12
REMARK SMILES IDX 4 13 3 14 2 15 1 16
REMARK H PARENT
REMARK Flexibility Score: inf
ROOT
ATOM      1  C   UNL     1     176.697 180.255 196.120  1.00  0.00     0.000 C 
ENDROOT
BRANCH   1   2
ATOM      2  C   UNL     1     176.135 180.830 197.426  1.00  0.00     0.000 C 
BRANCH   2   3
ATOM      3  C   UNL     1     174.980 179.967 197.956  1.00  0.00     0.000 C 
BRANCH   3   4
ATOM      4  C   UNL     1     173.766 180.799 198.406  1.00  0.00     0.000 C 
BRANCH   4   5
ATOM      5  C   UNL     1     172.467 179.998 198.608  1.00  0.00     0.006 C 
BRANCH   5   6
ATOM      6  C   UNL     1     172.437 179.231 199.936  1.00  0.00     0.053 C 
BRANCH   6   7
ATOM      7  C   UNL     1     172.293 177.763 199.688  1.00  0.00     0.041 C 
ATOM      8  O   UNL     1     171.239 177.164 200.029  1.00  0.00    -0.550 OA
ATOM      9  O   UNL     1     173.341 177.047 199.126  1.00  0.00    -0.550 OA
ENDBRANCH   6   7
ENDBRANCH   5   6
ENDBRANCH   4   5
ENDBRANCH   3   4
ENDBRANCH   2   3
ENDBRANCH   1   2
BRANCH   1  10
ATOM     10  C   UNL     1     176.425 181.198 194.942  1.00  0.00     0.000 C 
BRANCH  10  11
ATOM     11  C   UNL     1     175.234 180.704 194.105  1.00  0.00    -0.000 C 
BRANCH  11  12
ATOM     12  C   UNL     1     173.927 181.432 194.454  1.00  0.00    -0.000 C 
BRANCH  12  13
ATOM     13  C   UNL     1     172.810 180.468 194.888  1.00  0.00    -0.000 C 
BRANCH  13  14
ATOM     14  C   UNL     1     173.076 179.021 194.421  1.00  0.00    -0.000 C 
BRANCH  14  15
ATOM     15  C   UNL     1     173.041 177.990 195.562  1.00  0.00    -0.003 C 
ATOM     16  C   UNL     1     174.323 177.166 195.664  1.00  0.00     0.004 C 
ENDBRANCH  14  15
ENDBRANCH  13  14
ENDBRANCH  12  13
ENDBRANCH  11  12
ENDBRANCH  10  11
ENDBRANCH   1  10
TORSDOF 12
ENDMDL
MODEL 8
REMARK VINA RESULT:    -1.035      3.250      6.413
REMARK INTER + INTRA:          -4.128
REMARK INTER:                  -2.248
REMARK INTRA:                  -1.881
REMARK UNBOUND:                -2.367
REMARK SMILES CCCCCCCCCCCCCC(=O)[O-]
REMARK SMILES IDX 8 1 9 2 10 3 11 4 12 5 13 6 14 7 15 8 16 9 7 10 6 11 5 12
REMARK SMILES IDX 4 13 3 14 2 15 1 16
REMARK H PARENT
REMARK Flexibility Score: inf
ROOT
ATOM      1  C   UNL     1     173.232 177.943 197.761  1.00  0.00     0.000 C 
ENDROOT
BRANCH   1   2
ATOM      2  C   UNL     1     174.582 178.629 197.516  1.00  0.00     0.000 C 
BRANCH   2   3
ATOM      3  C   UNL     1     174.559 179.440 196.212  1.00  0.00     0.000 C 
BRANCH   3   4
ATOM      4  C   UNL     1     173.143 179.893 195.812  1.00  0.00     0.000 C 
BRANCH   4   5
ATOM      5  C   UNL     1     173.006 181.391 195.490  1.00  0.00     0.006 C 
BRANCH   5   6
ATOM      6  C   UNL     1     172.037 181.669 194.334  1.00  0.00     0.053 C 
BRANCH   6   7
ATOM      7  C   UNL     1     172.494 180.975 193.090  1.00  0.00     0.041 C 
ATOM      8  O   UNL     1     173.611 181.258 192.582  1.00  0.00    -0.550 OA
ATOM      9  O   UNL     1     171.667 180.053 192.465  1.00  0.00    -0.550 OA
ENDBRANCH   6   7
ENDBRANCH   5   6
ENDBRANCH   4   5
ENDBRANCH   3   4
ENDBRANCH   2   3
ENDBRANCH   1   2
BRANCH   1  10
ATOM     10  C   UNL     1     173.167 177.344 199.171  1.00  0.00     0.000 C 
BRANCH  10  11
ATOM     11  C   UNL     1     171.889 177.788 199.898  1.00  0.00    -0.000 C 
BRANCH  11  12
ATOM     12  C   UNL     1     172.034 179.170 200.554  1.00  0.00    -0.000 C 
BRANCH  12  13
ATOM     13  C   UNL     1     171.205 180.253 199.843  1.00  0.00    -0.000 C 
BRANCH  13  14
ATOM     14  C   UNL     1     172.094 181.287 199.121  1.00  0.00    -0.000 C 
BRANCH  14  15
ATOM     15  C   UNL     1     173.537 181.332 199.650  1.00  0.00    -0.003 C 
ATOM     16  C   UNL     1     174.445 182.250 198.833  1.00  0.00     0.004 C 
ENDBRANCH  14  15
ENDBRANCH  13  14
ENDBRANCH  12  13
ENDBRANCH  11  12
ENDBRANCH  10  11
ENDBRANCH   1  10
TORSDOF 12
ENDMDL
MODEL 9
REMARK VINA RESULT:    -0.972      2.613      4.383
REMARK INTER + INTRA:          -4.021
REMARK INTER:                  -1.913
REMARK INTRA:                  -2.108
REMARK UNBOUND:                -2.367
REMARK SMILES CCCCCCCCCCCCCC(=O)[O-]
REMARK SMILES IDX 8 1 9 2 10 3 11 4 12 5 13 6 14 7 15 8 16 9 7 10 6 11 5 12
REMARK SMILES IDX 4 13 3 14 2 15 1 16
REMARK H PARENT
REMARK Flexibility Score: inf
ROOT
ATOM      1  C   UNL     1     172.764 178.120 194.247  1.00  0.00     0.000 C 
ENDROOT
BRANCH   1   2
ATOM      2  C   UNL     1     172.373 176.876 195.054  1.00  0.00     0.000 C 
BRANCH   2   3
ATOM      3  C   UNL     1     172.767 177.031 196.530  1.00  0.00     0.000 C 
BRANCH   3   4
ATOM      4  C   UNL     1     173.129 178.480 196.906  1.00  0.00     0.000 C 
BRANCH   4   5
ATOM      5  C   UNL     1     174.462 178.643 197.657  1.00  0.00     0.006 C 
BRANCH   5   6
ATOM      6  C   UNL     1     175.088 177.303 198.065  1.00  0.00     0.053 C 
BRANCH   6   7
ATOM      7  C   UNL     1     174.948 177.088 199.539  1.00  0.00     0.041 C 
ATOM      8  O   UNL     1     175.968 176.875 200.246  1.00  0.00    -0.550 OA
ATOM      9  O   UNL     1     173.689 177.075 200.123  1.00  0.00    -0.550 OA
ENDBRANCH   6   7
ENDBRANCH   5   6
ENDBRANCH   4   5
ENDBRANCH   3   4
ENDBRANCH   2   3
ENDBRANCH   1   2
BRANCH   1  10
ATOM     10  C   UNL     1     173.754 177.764 193.132  1.00  0.00     0.000 C 
BRANCH  10  11
ATOM     11  C   UNL     1     174.892 176.880 193.668  1.00  0.00    -0.000 C 
BRANCH  11  12
ATOM     12  C   UNL     1     175.974 177.692 194.396  1.00  0.00    -0.000 C 
BRANCH  12  13
ATOM     13  C   UNL     1     176.314 179.008 193.674  1.00  0.00    -0.000 C 
BRANCH  13  14
ATOM     14  C   UNL     1     176.114 180.238 194.583  1.00  0.00    -0.000 C 
BRANCH  14  15
ATOM     15  C   UNL     1     175.012 181.193 194.093  1.00  0.00    -0.003 C 
ATOM     16  C   UNL     1     173.981 181.521 195.171  1.00  0.00     0.004 C 
ENDBRANCH  14  15
ENDBRANCH  13  14
ENDBRANCH  12  13
ENDBRANCH  11  12
ENDBRANCH  10  11
ENDBRANCH   1  10
TORSDOF 12
ENDMDL
