MODEL 1
REMARK VINA RESULT:    -4.187      0.000      0.000
REMARK INTER + INTRA:          -6.479
REMARK INTER:                  -5.779
REMARK INTRA:                  -0.701
REMARK UNBOUND:                -0.701
REMARK SMILES OC[C@H](O)C(O)[C@@H](O)CO
REMARK SMILES IDX 5 1 7 2 9 3 10 4 8 6 3 8 2 9 1 10 4 12 6 14
REMARK H PARENT 10 5 8 7 1 11 4 13 6 15
REMARK Flexibility Score: inf
ROOT
ATOM      1  C   UNL     1      -3.554  -7.138   5.604  1.00  0.00     0.176 C 
ENDROOT
BRANCH   1   2
ATOM      2  C   UNL     1      -2.831  -8.506   5.762  1.00  0.00     0.171 C 
BRANCH   2   3
ATOM      3  C   UNL     1      -1.488  -8.403   6.511  1.00  0.00     0.190 C 
BRANCH   3   4
ATOM      4  O   UNL     1      -0.464  -7.976   5.653  1.00  0.00    -0.394 OA
ATOM      5  H   UNL     1      -0.013  -7.212   6.100  1.00  0.00     0.210 HD
ENDBRANCH   3   4
ENDBRANCH   2   3
BRANCH   2   6
ATOM      6  O   UNL     1      -2.606  -9.042   4.483  1.00  0.00    -0.388 OA
ATOM      7  H   UNL     1      -1.750  -9.545   4.525  1.00  0.00     0.211 HD
ENDBRANCH   2   6
ENDBRANCH   1   2
BRANCH   1   8
ATOM      8  C   UNL     1      -4.671  -7.081   4.525  1.00  0.00     0.171 C 
BRANCH   8   9
ATOM      9  C   UNL     1      -5.673  -5.922   4.704  1.00  0.00     0.190 C 
BRANCH   9  10
ATOM     10  O   UNL     1      -5.060  -4.692   4.433  1.00  0.00    -0.394 OA
ATOM     11  H   UNL     1      -5.533  -4.018   4.986  1.00  0.00     0.210 HD
ENDBRANCH   9  10
ENDBRANCH   8   9
BRANCH   8  12
ATOM     12  O   UNL     1      -5.372  -8.299   4.559  1.00  0.00    -0.388 OA
ATOM     13  H   UNL     1      -5.564  -8.553   3.618  1.00  0.00     0.211 HD
ENDBRANCH   8  12
ENDBRANCH   1   8
BRANCH   1  14
ATOM     14  O   UNL     1      -2.623  -6.100   5.404  1.00  0.00    -0.388 OA
ATOM     15  H   UNL     1      -1.881  -6.451   4.848  1.00  0.00     0.211 HD
ENDBRANCH   1  14
TORSDOF 9
ENDMDL
MODEL 2
REMARK VINA RESULT:    -4.076      1.127      3.937
REMARK INTER + INTRA:          -6.325
REMARK INTER:                  -6.192
REMARK INTRA:                  -0.133
REMARK UNBOUND:                -0.701
REMARK SMILES OC[C@H](O)C(O)[C@@H](O)CO
REMARK SMILES IDX 5 1 7 2 9 3 10 4 8 6 3 8 2 9 1 10 4 12 6 14
REMARK H PARENT 10 5 8 7 1 11 4 13 6 15
REMARK Flexibility Score: inf
ROOT
ATOM      1  C   UNL     1      -4.085  -7.599   5.168  1.00  0.00     0.176 C 
ENDROOT
BRANCH   1   2
ATOM      2  C   UNL     1      -3.658  -6.119   4.954  1.00  0.00     0.171 C 
BRANCH   2   3
ATOM      3  C   UNL     1      -4.372  -5.135   5.901  1.00  0.00     0.190 C 
BRANCH   3   4
ATOM      4  O   UNL     1      -4.880  -4.034   5.195  1.00  0.00    -0.394 OA
ATOM      5  H   UNL     1      -4.426  -3.227   5.552  1.00  0.00     0.210 HD
ENDBRANCH   3   4
ENDBRANCH   2   3
BRANCH   2   6
ATOM      6  O   UNL     1      -3.935  -5.762   3.624  1.00  0.00    -0.388 OA
ATOM      7  H   UNL     1      -4.377  -4.871   3.648  1.00  0.00     0.211 HD
ENDBRANCH   2   6
ENDBRANCH   1   2
BRANCH   1   8
ATOM      8  C   UNL     1      -2.958  -8.575   5.606  1.00  0.00     0.171 C 
BRANCH   8   9
ATOM      9  C   UNL     1      -1.816  -7.914   6.405  1.00  0.00     0.190 C 
BRANCH   9  10
ATOM     10  O   UNL     1      -0.632  -7.902   5.655  1.00  0.00    -0.394 OA
ATOM     11  H   UNL     1       0.106  -7.773   6.306  1.00  0.00     0.210 HD
ENDBRANCH   9  10
ENDBRANCH   8   9
BRANCH   8  12
ATOM     12  O   UNL     1      -2.421  -9.168   4.449  1.00  0.00    -0.388 OA
ATOM     13  H   UNL     1      -2.150 -10.092   4.692  1.00  0.00     0.211 HD
ENDBRANCH   8  12
ENDBRANCH   1   8
BRANCH   1  14
ATOM     14  O   UNL     1      -4.753  -8.096   4.031  1.00  0.00    -0.388 OA
ATOM     15  H   UNL     1      -4.193  -8.810   3.631  1.00  0.00     0.211 HD
ENDBRANCH   1  14
TORSDOF 9
ENDMDL
MODEL 3
REMARK VINA RESULT:    -4.062      1.367      2.012
REMARK INTER + INTRA:          -6.306
REMARK INTER:                  -5.978
REMARK INTRA:                  -0.327
REMARK UNBOUND:                -0.701
REMARK SMILES OC[C@H](O)C(O)[C@@H](O)CO
REMARK SMILES IDX 5 1 7 2 9 3 10 4 8 6 3 8 2 9 1 10 4 12 6 14
REMARK H PARENT 10 5 8 7 1 11 4 13 6 15
REMARK Flexibility Score: inf
ROOT
ATOM      1  C   UNL     1      -3.679  -6.145   5.082  1.00  0.00     0.176 C 
ENDROOT
BRANCH   1   2
ATOM      2  C   UNL     1      -3.471  -7.621   5.524  1.00  0.00     0.171 C 
BRANCH   2   3
ATOM      3  C   UNL     1      -2.126  -7.861   6.238  1.00  0.00     0.190 C 
BRANCH   3   4
ATOM      4  O   UNL     1      -1.260  -8.624   5.440  1.00  0.00    -0.394 OA
ATOM      5  H   UNL     1      -1.736  -8.805   4.588  1.00  0.00     0.210 HD
ENDBRANCH   3   4
ENDBRANCH   2   3
BRANCH   2   6
ATOM      6  O   UNL     1      -3.541  -8.442   4.386  1.00  0.00    -0.388 OA
ATOM      7  H   UNL     1      -4.076  -9.242   4.638  1.00  0.00     0.211 HD
ENDBRANCH   2   6
ENDBRANCH   1   2
BRANCH   1   8
ATOM      8  C   UNL     1      -4.761  -5.348   5.863  1.00  0.00     0.171 C 
BRANCH   8   9
ATOM      9  C   UNL     1      -6.123  -6.063   5.977  1.00  0.00     0.190 C 
BRANCH   9  10
ATOM     10  O   UNL     1      -6.592  -6.435   4.711  1.00  0.00    -0.394 OA
ATOM     11  H   UNL     1      -7.443  -5.943   4.575  1.00  0.00     0.210 HD
ENDBRANCH   9  10
ENDBRANCH   8   9
BRANCH   8  12
ATOM     12  O   UNL     1      -4.946  -4.114   5.214  1.00  0.00    -0.388 OA
ATOM     13  H   UNL     1      -4.799  -3.403   5.891  1.00  0.00     0.211 HD
ENDBRANCH   8  12
ENDBRANCH   1   8
BRANCH   1  14
ATOM     14  O   UNL     1      -3.915  -6.066   3.695  1.00  0.00    -0.388 OA
ATOM     15  H   UNL     1      -4.509  -5.291   3.526  1.00  0.00     0.211 HD
ENDBRANCH   1  14
TORSDOF 9
ENDMDL
MODEL 4
REMARK VINA RESULT:    -3.931     16.331     16.847
REMARK INTER + INTRA:          -6.126
REMARK INTER:                  -5.613
REMARK INTRA:                  -0.513
REMARK UNBOUND:                -0.701
REMARK SMILES OC[C@H](O)C(O)[C@@H](O)CO
REMARK SMILES IDX 5 1 7 2 9 3 10 4 8 6 3 8 2 9 1 10 4 12 6 14
REMARK H PARENT 10 5 8 7 1 11 4 13 6 15
REMARK Flexibility Score: inf
ROOT
ATOM      1  C   UNL     1       5.169  -3.317  -8.731  1.00  0.00     0.176 C 
ENDROOT
BRANCH   1   2
ATOM      2  C   UNL     1       4.919  -4.818  -9.051  1.00  0.00     0.171 C 
BRANCH   2   3
ATOM      3  C   UNL     1       4.148  -5.559  -7.941  1.00  0.00     0.190 C 
BRANCH   3   4
ATOM      4  O   UNL     1       2.765  -5.371  -8.076  1.00  0.00    -0.394 OA
ATOM      5  H   UNL     1       2.323  -6.081  -7.541  1.00  0.00     0.210 HD
ENDBRANCH   3   4
ENDBRANCH   2   3
BRANCH   2   6
ATOM      6  O   UNL     1       6.160  -5.446  -9.248  1.00  0.00    -0.388 OA
ATOM      7  H   UNL     1       5.997  -6.427  -9.224  1.00  0.00     0.211 HD
ENDBRANCH   2   6
ENDBRANCH   1   2
BRANCH   1   8
ATOM      8  C   UNL     1       6.656  -2.898  -8.560  1.00  0.00     0.171 C 
BRANCH   8   9
ATOM      9  C   UNL     1       7.144  -2.859  -7.097  1.00  0.00     0.190 C 
BRANCH   9  10
ATOM     10  O   UNL     1       7.011  -1.569  -6.567  1.00  0.00    -0.394 OA
ATOM     11  H   UNL     1       7.577  -0.979  -7.130  1.00  0.00     0.210 HD
ENDBRANCH   9  10
ENDBRANCH   8   9
BRANCH   8  12
ATOM     12  O   UNL     1       6.818  -1.623  -9.129  1.00  0.00    -0.388 OA
ATOM     13  H   UNL     1       7.512  -1.151  -8.599  1.00  0.00     0.211 HD
ENDBRANCH   8  12
ENDBRANCH   1   8
BRANCH   1  14
ATOM     14  O   UNL     1       4.411  -2.910  -7.616  1.00  0.00    -0.388 OA
ATOM     15  H   UNL     1       3.541  -3.383  -7.643  1.00  0.00     0.211 HD
ENDBRANCH   1  14
TORSDOF 9
ENDMDL
MODEL 5
REMARK VINA RESULT:    -3.871      1.466      4.035
REMARK INTER + INTRA:          -6.043
REMARK INTER:                  -5.889
REMARK INTRA:                  -0.154
REMARK UNBOUND:                -0.701
REMARK SMILES OC[C@H](O)C(O)[C@@H](O)CO
REMARK SMILES IDX 5 1 7 2 9 3 10 4 8 6 3 8 2 9 1 10 4 12 6 14
REMARK H PARENT 10 5 8 7 1 11 4 13 6 15
REMARK Flexibility Score: inf
ROOT
ATOM      1  C   UNL     1      -3.555  -7.662   5.466  1.00  0.00     0.176 C 
ENDROOT
BRANCH   1   2
ATOM      2  C   UNL     1      -4.102  -6.261   5.073  1.00  0.00     0.171 C 
BRANCH   2   3
ATOM      3  C   UNL     1      -5.534  -6.000   5.581  1.00  0.00     0.190 C 
BRANCH   3   4
ATOM      4  O   UNL     1      -6.487  -6.448   4.655  1.00  0.00    -0.394 OA
ATOM      5  H   UNL     1      -7.079  -5.677   4.454  1.00  0.00     0.210 HD
ENDBRANCH   3   4
ENDBRANCH   2   3
BRANCH   2   6
ATOM      6  O   UNL     1      -4.083  -6.151   3.672  1.00  0.00    -0.388 OA
ATOM      7  H   UNL     1      -3.339  -6.724   3.345  1.00  0.00     0.211 HD
ENDBRANCH   2   6
ENDBRANCH   1   2
BRANCH   1   8
ATOM      8  C   UNL     1      -2.178  -7.675   6.188  1.00  0.00     0.171 C 
BRANCH   8   9
ATOM      9  C   UNL     1      -1.519  -6.288   6.331  1.00  0.00     0.190 C 
BRANCH   9  10
ATOM     10  O   UNL     1      -0.269  -6.268   5.700  1.00  0.00    -0.394 OA
ATOM     11  H   UNL     1      -0.007  -7.217   5.573  1.00  0.00     0.210 HD
ENDBRANCH   9  10
ENDBRANCH   8   9
BRANCH   8  12
ATOM     12  O   UNL     1      -1.315  -8.518   5.465  1.00  0.00    -0.388 OA
ATOM     13  H   UNL     1      -1.455  -8.322   4.502  1.00  0.00     0.211 HD
ENDBRANCH   8  12
ENDBRANCH   1   8
BRANCH   1  14
ATOM     14  O   UNL     1      -3.534  -8.523   4.352  1.00  0.00    -0.388 OA
ATOM     15  H   UNL     1      -3.918  -9.394   4.625  1.00  0.00     0.211 HD
ENDBRANCH   1  14
TORSDOF 9
ENDMDL
MODEL 6
REMARK VINA RESULT:    -3.870     15.622     16.220
REMARK INTER + INTRA:          -6.041
REMARK INTER:                  -5.368
REMARK INTRA:                  -0.673
REMARK UNBOUND:                -0.701
REMARK SMILES OC[C@H](O)C(O)[C@@H](O)CO
REMARK SMILES IDX 5 1 7 2 9 3 10 4 8 6 3 8 2 9 1 10 4 12 6 14
REMARK H PARENT 10 5 8 7 1 11 4 13 6 15
REMARK Flexibility Score: inf
ROOT
ATOM      1  C   UNL     1       5.534  -4.061  -8.178  1.00  0.00     0.176 C 
ENDROOT
BRANCH   1   2
ATOM      2  C   UNL     1       4.909  -5.428  -8.576  1.00  0.00     0.171 C 
BRANCH   2   3
ATOM      3  C   UNL     1       3.441  -5.317  -9.035  1.00  0.00     0.190 C 
BRANCH   3   4
ATOM      4  O   UNL     1       2.565  -5.376  -7.941  1.00  0.00    -0.394 OA
ATOM      5  H   UNL     1       1.670  -5.101  -8.273  1.00  0.00     0.210 HD
ENDBRANCH   3   4
ENDBRANCH   2   3
BRANCH   2   6
ATOM      6  O   UNL     1       4.982  -6.292  -7.470  1.00  0.00    -0.388 OA
ATOM      7  H   UNL     1       4.264  -6.017  -6.838  1.00  0.00     0.211 HD
ENDBRANCH   2   6
ENDBRANCH   1   2
BRANCH   1   8
ATOM      8  C   UNL     1       6.700  -4.121  -7.151  1.00  0.00     0.171 C 
BRANCH   8   9
ATOM      9  C   UNL     1       7.233  -2.743  -6.709  1.00  0.00     0.190 C 
BRANCH   9  10
ATOM     10  O   UNL     1       6.476  -2.240  -5.643  1.00  0.00    -0.394 OA
ATOM     11  H   UNL     1       5.950  -3.004  -5.292  1.00  0.00     0.210 HD
ENDBRANCH   9  10
ENDBRANCH   8   9
BRANCH   8  12
ATOM     12  O   UNL     1       7.751  -4.854  -7.729  1.00  0.00    -0.388 OA
ATOM     13  H   UNL     1       8.029  -5.540  -7.066  1.00  0.00     0.211 HD
ENDBRANCH   8  12
ENDBRANCH   1   8
BRANCH   1  14
ATOM     14  O   UNL     1       4.540  -3.163  -7.743  1.00  0.00    -0.388 OA
ATOM     15  H   UNL     1       4.348  -3.352  -6.789  1.00  0.00     0.211 HD
ENDBRANCH   1  14
TORSDOF 9
ENDMDL
MODEL 7
REMARK VINA RESULT:    -3.832      1.438      2.320
REMARK INTER + INTRA:          -5.989
REMARK INTER:                  -5.837
REMARK INTRA:                  -0.151
REMARK UNBOUND:                -0.701
REMARK SMILES OC[C@H](O)C(O)[C@@H](O)CO
REMARK SMILES IDX 5 1 7 2 9 3 10 4 8 6 3 8 2 9 1 10 4 12 6 14
REMARK H PARENT 10 5 8 7 1 11 4 13 6 15
REMARK Flexibility Score: inf
ROOT
ATOM      1  C   UNL     1      -4.066  -7.594   4.787  1.00  0.00     0.176 C 
ENDROOT
BRANCH   1   2
ATOM      2  C   UNL     1      -4.307  -8.941   5.526  1.00  0.00     0.171 C 
BRANCH   2   3
ATOM      3  C   UNL     1      -3.154  -9.948   5.352  1.00  0.00     0.190 C 
BRANCH   3   4
ATOM      4  O   UNL     1      -2.116  -9.399   4.583  1.00  0.00    -0.394 OA
ATOM      5  H   UNL     1      -2.160  -8.414   4.699  1.00  0.00     0.210 HD
ENDBRANCH   3   4
ENDBRANCH   2   3
BRANCH   2   6
ATOM      6  O   UNL     1      -5.494  -9.511   5.037  1.00  0.00    -0.388 OA
ATOM      7  H   UNL     1      -5.609  -9.190   4.103  1.00  0.00     0.211 HD
ENDBRANCH   2   6
ENDBRANCH   1   2
BRANCH   1   8
ATOM      8  C   UNL     1      -3.955  -6.334   5.691  1.00  0.00     0.171 C 
BRANCH   8   9
ATOM      9  C   UNL     1      -5.196  -5.419   5.667  1.00  0.00     0.190 C 
BRANCH   9  10
ATOM     10  O   UNL     1      -4.881  -4.174   5.109  1.00  0.00    -0.394 OA
ATOM     11  H   UNL     1      -4.298  -3.715   5.768  1.00  0.00     0.210 HD
ENDBRANCH   9  10
ENDBRANCH   8   9
BRANCH   8  12
ATOM     12  O   UNL     1      -2.835  -5.594   5.271  1.00  0.00    -0.388 OA
ATOM     13  H   UNL     1      -2.699  -4.867   5.934  1.00  0.00     0.211 HD
ENDBRANCH   8  12
ENDBRANCH   1   8
BRANCH   1  14
ATOM     14  O   UNL     1      -5.031  -7.394   3.781  1.00  0.00    -0.388 OA
ATOM     15  H   UNL     1      -5.079  -6.424   3.585  1.00  0.00     0.211 HD
ENDBRANCH   1  14
TORSDOF 9
ENDMDL
MODEL 8
REMARK VINA RESULT:    -3.771     16.204     16.599
REMARK INTER + INTRA:          -5.905
REMARK INTER:                  -5.381
REMARK INTRA:                  -0.524
REMARK UNBOUND:                -0.701
REMARK SMILES OC[C@H](O)C(O)[C@@H](O)CO
REMARK SMILES IDX 5 1 7 2 9 3 10 4 8 6 3 8 2 9 1 10 4 12 6 14
REMARK H PARENT 10 5 8 7 1 11 4 13 6 15
REMARK Flexibility Score: inf
ROOT
ATOM      1  C   UNL     1       5.283  -3.751  -7.982  1.00  0.00     0.176 C 
ENDROOT
BRANCH   1   2
ATOM      2  C   UNL     1       6.675  -3.059  -7.968  1.00  0.00     0.171 C 
BRANCH   2   3
ATOM      3  C   UNL     1       7.258  -2.888  -6.552  1.00  0.00     0.190 C 
BRANCH   3   4
ATOM      4  O   UNL     1       6.366  -2.199  -5.718  1.00  0.00    -0.394 OA
ATOM      5  H   UNL     1       6.703  -1.269  -5.639  1.00  0.00     0.210 HD
ENDBRANCH   3   4
ENDBRANCH   2   3
BRANCH   2   6
ATOM      6  O   UNL     1       6.552  -1.795  -8.571  1.00  0.00    -0.388 OA
ATOM      7  H   UNL     1       5.875  -1.883  -9.294  1.00  0.00     0.211 HD
ENDBRANCH   2   6
ENDBRANCH   1   2
BRANCH   1   8
ATOM      8  C   UNL     1       4.924  -4.530  -9.278  1.00  0.00     0.171 C 
BRANCH   8   9
ATOM      9  C   UNL     1       3.903  -5.668  -9.078  1.00  0.00     0.190 C 
BRANCH   9  10
ATOM     10  O   UNL     1       2.675  -5.157  -8.638  1.00  0.00    -0.394 OA
ATOM     11  H   UNL     1       2.609  -5.385  -7.674  1.00  0.00     0.210 HD
ENDBRANCH   9  10
ENDBRANCH   8   9
BRANCH   8  12
ATOM     12  O   UNL     1       6.111  -5.069  -9.804  1.00  0.00    -0.388 OA
ATOM     13  H   UNL     1       5.884  -5.955 -10.192  1.00  0.00     0.211 HD
ENDBRANCH   8  12
ENDBRANCH   1   8
BRANCH   1  14
ATOM     14  O   UNL     1       4.264  -2.832  -7.661  1.00  0.00    -0.388 OA
ATOM     15  H   UNL     1       3.402  -3.200  -7.983  1.00  0.00     0.211 HD
ENDBRANCH   1  14
TORSDOF 9
ENDMDL
MODEL 9
REMARK VINA RESULT:    -3.754      1.768      3.235
REMARK INTER + INTRA:          -5.881
REMARK INTER:                  -5.032
REMARK INTRA:                  -0.848
REMARK UNBOUND:                -0.701
REMARK SMILES OC[C@H](O)C(O)[C@@H](O)CO
REMARK SMILES IDX 5 1 7 2 9 3 10 4 8 6 3 8 2 9 1 10 4 12 6 14
REMARK H PARENT 10 5 8 7 1 11 4 13 6 15
REMARK Flexibility Score: inf
ROOT
ATOM      1  C   UNL     1      -3.487  -6.883   6.321  1.00  0.00     0.176 C 
ENDROOT
BRANCH   1   2
ATOM      2  C   UNL     1      -4.090  -7.797   5.217  1.00  0.00     0.171 C 
BRANCH   2   3
ATOM      3  C   UNL     1      -3.391  -9.166   5.109  1.00  0.00     0.190 C 
BRANCH   3   4
ATOM      4  O   UNL     1      -2.063  -9.022   4.681  1.00  0.00    -0.394 OA
ATOM      5  H   UNL     1      -1.890  -8.048   4.599  1.00  0.00     0.210 HD
ENDBRANCH   3   4
ENDBRANCH   2   3
BRANCH   2   6
ATOM      6  O   UNL     1      -3.994  -7.131   3.984  1.00  0.00    -0.388 OA
ATOM      7  H   UNL     1      -3.033  -6.916   3.844  1.00  0.00     0.211 HD
ENDBRANCH   2   6
ENDBRANCH   1   2
BRANCH   1   8
ATOM      8  C   UNL     1      -2.636  -5.683   5.818  1.00  0.00     0.171 C 
BRANCH   8   9
ATOM      9  C   UNL     1      -1.186  -5.663   6.345  1.00  0.00     0.190 C 
BRANCH   9  10
ATOM     10  O   UNL     1      -0.416  -6.644   5.707  1.00  0.00    -0.394 OA
ATOM     11  H   UNL     1       0.347  -6.168   5.287  1.00  0.00     0.210 HD
ENDBRANCH   9  10
ENDBRANCH   8   9
BRANCH   8  12
ATOM     12  O   UNL     1      -3.280  -4.497   6.212  1.00  0.00    -0.388 OA
ATOM     13  H   UNL     1      -4.140  -4.758   6.635  1.00  0.00     0.211 HD
ENDBRANCH   8  12
ENDBRANCH   1   8
BRANCH   1  14
ATOM     14  O   UNL     1      -2.760  -7.643   7.259  1.00  0.00    -0.388 OA
ATOM     15  H   UNL     1      -2.601  -7.079   8.058  1.00  0.00     0.211 HD
ENDBRANCH   1  14
TORSDOF 9
ENDMDL
