MODEL 1
REMARK VINA RESULT:    -6.262      0.000      0.000
REMARK INTER + INTRA:          -8.842
REMARK INTER:                  -7.910
REMARK INTRA:                  -0.932
REMARK UNBOUND:                -0.932
REMARK SMILES O=C(C=Cc1ccc(O)cc1)c1ccc(O)cc1O
REMARK SMILES IDX 4 1 3 2 5 3 6 4 7 5 8 6 11 7 10 8 9 9 2 11 1 12 12 13 18 14
REMARK SMILES IDX 13 15 17 16 14 17 15 18 19 19 16 21
REMARK H PARENT 9 10 19 20 16 22
REMARK Flexibility Score: inf
ROOT
ATOM      1  C   UNL     1      60.599  -8.868  -2.986  1.00  0.00     0.012 C 
ATOM      2  C   UNL     1      61.444  -9.516  -3.803  1.00  0.00     0.053 C 
ENDROOT
BRANCH   1   3
ATOM      3  C   UNL     1      60.933  -7.671  -2.187  1.00  0.00    -0.025 A 
ATOM      4  C   UNL     1      60.460  -6.416  -2.598  1.00  0.00     0.012 A 
ATOM      5  C   UNL     1      60.727  -5.277  -1.832  1.00  0.00     0.047 A 
ATOM      6  C   UNL     1      61.450  -5.385  -0.637  1.00  0.00     0.115 A 
ATOM      7  C   UNL     1      61.632  -7.779  -0.973  1.00  0.00     0.012 A 
ATOM      8  C   UNL     1      61.899  -6.639  -0.208  1.00  0.00     0.047 A 
BRANCH   6   9
ATOM      9  O   UNL     1      61.724  -4.257   0.133  1.00  0.00    -0.508 OA
ATOM     10  H   UNL     1      62.676  -3.966   0.326  1.00  0.00     0.293 HD
ENDBRANCH   6   9
ENDBRANCH   1   3
BRANCH   2  11
ATOM     11  C   UNL     1      62.796  -9.044  -4.191  1.00  0.00     0.189 C 
ATOM     12  O   UNL     1      63.749  -9.092  -3.370  1.00  0.00    -0.289 OA
BRANCH  11  13
ATOM     13  C   UNL     1      63.023  -8.439  -5.521  1.00  0.00     0.064 A 
ATOM     14  C   UNL     1      63.278  -7.054  -5.670  1.00  0.00     0.130 A 
ATOM     15  C   UNL     1      62.945  -9.247  -6.669  1.00  0.00     0.020 A 
ATOM     16  C   UNL     1      63.427  -6.510  -6.952  1.00  0.00     0.093 A 
ATOM     17  C   UNL     1      63.108  -8.693  -7.941  1.00  0.00     0.047 A 
ATOM     18  C   UNL     1      63.345  -7.325  -8.086  1.00  0.00     0.119 A 
BRANCH  14  19
ATOM     19  O   UNL     1      63.412  -6.199  -4.574  1.00  0.00    -0.507 OA
ATOM     20  H   UNL     1      64.286  -6.061  -4.082  1.00  0.00     0.293 HD
ENDBRANCH  14  19
BRANCH  18  21
ATOM     21  O   UNL     1      63.500  -6.786  -9.362  1.00  0.00    -0.508 OA
ATOM     22  H   UNL     1      63.862  -5.850  -9.501  1.00  0.00     0.293 HD
ENDBRANCH  18  21
ENDBRANCH  11  13
ENDBRANCH   2  11
TORSDOF 6
ENDMDL
MODEL 2
REMARK VINA RESULT:    -6.078      1.552      6.061
REMARK INTER + INTRA:          -8.608
REMARK INTER:                  -7.493
REMARK INTRA:                  -1.115
REMARK UNBOUND:                -0.932
REMARK SMILES O=C(C=Cc1ccc(O)cc1)c1ccc(O)cc1O
REMARK SMILES IDX 4 1 3 2 5 3 6 4 7 5 8 6 11 7 10 8 9 9 2 11 1 12 12 13 18 14
REMARK SMILES IDX 13 15 17 16 14 17 15 18 19 19 16 21
REMARK H PARENT 9 10 19 20 16 22
REMARK Flexibility Score: inf
ROOT
ATOM      1  C   UNL     1      64.125  -9.076  -2.826  1.00  0.00     0.012 C 
ATOM      2  C   UNL     1      63.318  -9.172  -1.757  1.00  0.00     0.053 C 
ENDROOT
BRANCH   1   3
ATOM      3  C   UNL     1      63.692  -8.721  -4.193  1.00  0.00    -0.025 A 
ATOM      4  C   UNL     1      63.269  -9.735  -5.065  1.00  0.00     0.012 A 
ATOM      5  C   UNL     1      62.813  -9.417  -6.348  1.00  0.00     0.047 A 
ATOM      6  C   UNL     1      62.754  -8.079  -6.763  1.00  0.00     0.115 A 
ATOM      7  C   UNL     1      63.603  -7.380  -4.602  1.00  0.00     0.012 A 
ATOM      8  C   UNL     1      63.148  -7.063  -5.886  1.00  0.00     0.047 A 
BRANCH   6   9
ATOM      9  O   UNL     1      62.303  -7.750  -8.039  1.00  0.00    -0.508 OA
ATOM     10  H   UNL     1      61.774  -6.903  -8.210  1.00  0.00     0.293 HD
ENDBRANCH   6   9
ENDBRANCH   1   3
BRANCH   2  11
ATOM     11  C   UNL     1      61.893  -8.762  -1.716  1.00  0.00     0.189 C 
ATOM     12  O   UNL     1      60.993  -9.533  -2.144  1.00  0.00    -0.289 OA
BRANCH  11  13
ATOM     13  C   UNL     1      61.517  -7.412  -1.247  1.00  0.00     0.064 A 
ATOM     14  C   UNL     1      60.858  -6.489  -2.096  1.00  0.00     0.130 A 
ATOM     15  C   UNL     1      61.855  -7.016   0.060  1.00  0.00     0.020 A 
ATOM     16  C   UNL     1      60.574  -5.199  -1.632  1.00  0.00     0.093 A 
ATOM     17  C   UNL     1      61.555  -5.730   0.514  1.00  0.00     0.047 A 
ATOM     18  C   UNL     1      60.919  -4.818  -0.330  1.00  0.00     0.119 A 
BRANCH  14  19
ATOM     19  O   UNL     1      60.453  -6.825  -3.390  1.00  0.00    -0.507 OA
ATOM     20  H   UNL     1      60.064  -7.727  -3.632  1.00  0.00     0.293 HD
ENDBRANCH  14  19
BRANCH  18  21
ATOM     21  O   UNL     1      60.631  -3.536   0.136  1.00  0.00    -0.508 OA
ATOM     22  H   UNL     1      60.570  -2.745  -0.494  1.00  0.00     0.293 HD
ENDBRANCH  18  21
ENDBRANCH  11  13
ENDBRANCH   2  11
TORSDOF 6
ENDMDL
MODEL 3
REMARK VINA RESULT:    -5.905      1.407      6.189
REMARK INTER + INTRA:          -8.391
REMARK INTER:                  -8.086
REMARK INTRA:                  -0.305
REMARK UNBOUND:                -0.932
REMARK SMILES O=C(C=Cc1ccc(O)cc1)c1ccc(O)cc1O
REMARK SMILES IDX 4 1 3 2 5 3 6 4 7 5 8 6 11 7 10 8 9 9 2 11 1 12 12 13 18 14
REMARK SMILES IDX 13 15 17 16 14 17 15 18 19 19 16 21
REMARK H PARENT 9 10 19 20 16 22
REMARK Flexibility Score: inf
ROOT
ATOM      1  C   UNL     1      63.444  -9.224  -3.923  1.00  0.00     0.012 C 
ATOM      2  C   UNL     1      62.561  -9.205  -2.912  1.00  0.00     0.053 C 
ENDROOT
BRANCH   1   3
ATOM      3  C   UNL     1      63.225  -8.632  -5.258  1.00  0.00    -0.025 A 
ATOM      4  C   UNL     1      63.357  -7.246  -5.425  1.00  0.00     0.012 A 
ATOM      5  C   UNL     1      63.199  -6.669  -6.690  1.00  0.00     0.047 A 
ATOM      6  C   UNL     1      62.930  -7.477  -7.803  1.00  0.00     0.115 A 
ATOM      7  C   UNL     1      62.986  -9.440  -6.383  1.00  0.00     0.012 A 
ATOM      8  C   UNL     1      62.827  -8.863  -7.646  1.00  0.00     0.047 A 
BRANCH   6   9
ATOM      9  O   UNL     1      62.769  -6.914  -9.067  1.00  0.00    -0.508 OA
ATOM     10  H   UNL     1      63.544  -6.842  -9.717  1.00  0.00     0.293 HD
ENDBRANCH   6   9
ENDBRANCH   1   3
BRANCH   2  11
ATOM     11  C   UNL     1      61.295  -8.433  -2.891  1.00  0.00     0.189 C 
ATOM     12  O   UNL     1      60.324  -8.776  -3.618  1.00  0.00    -0.289 OA
BRANCH  11  13
ATOM     13  C   UNL     1      61.182  -7.204  -2.077  1.00  0.00     0.064 A 
ATOM     14  C   UNL     1      61.662  -7.152  -0.745  1.00  0.00     0.130 A 
ATOM     15  C   UNL     1      60.548  -6.072  -2.620  1.00  0.00     0.020 A 
ATOM     16  C   UNL     1      61.480  -5.989   0.013  1.00  0.00     0.093 A 
ATOM     17  C   UNL     1      60.385  -4.914  -1.856  1.00  0.00     0.047 A 
ATOM     18  C   UNL     1      60.846  -4.870  -0.539  1.00  0.00     0.119 A 
BRANCH  14  19
ATOM     19  O   UNL     1      62.339  -8.221  -0.155  1.00  0.00    -0.507 OA
ATOM     20  H   UNL     1      62.103  -9.190  -0.328  1.00  0.00     0.293 HD
ENDBRANCH  14  19
BRANCH  18  21
ATOM     21  O   UNL     1      60.671  -3.709   0.212  1.00  0.00    -0.508 OA
ATOM     22  H   UNL     1      60.485  -3.745   1.207  1.00  0.00     0.293 HD
ENDBRANCH  18  21
ENDBRANCH  11  13
ENDBRANCH   2  11
TORSDOF 6
ENDMDL
MODEL 4
REMARK VINA RESULT:    -5.232      2.061      6.151
REMARK INTER + INTRA:          -7.540
REMARK INTER:                  -6.471
REMARK INTRA:                  -1.070
REMARK UNBOUND:                -0.932
REMARK SMILES O=C(C=Cc1ccc(O)cc1)c1ccc(O)cc1O
REMARK SMILES IDX 4 1 3 2 5 3 6 4 7 5 8 6 11 7 10 8 9 9 2 11 1 12 12 13 18 14
REMARK SMILES IDX 13 15 17 16 14 17 15 18 19 19 16 21
REMARK H PARENT 9 10 19 20 16 22
REMARK Flexibility Score: inf
ROOT
ATOM      1  C   UNL     1      63.374  -9.198  -7.133  1.00  0.00     0.012 C 
ATOM      2  C   UNL     1      62.716  -9.649  -6.054  1.00  0.00     0.053 C 
ENDROOT
BRANCH   1   3
ATOM      3  C   UNL     1      62.997  -8.012  -7.928  1.00  0.00    -0.025 A 
ATOM      4  C   UNL     1      61.979  -8.122  -8.887  1.00  0.00     0.012 A 
ATOM      5  C   UNL     1      61.576  -7.002  -9.620  1.00  0.00     0.047 A 
ATOM      6  C   UNL     1      62.171  -5.755  -9.385  1.00  0.00     0.115 A 
ATOM      7  C   UNL     1      63.570  -6.754  -7.675  1.00  0.00     0.012 A 
ATOM      8  C   UNL     1      63.167  -5.634  -8.409  1.00  0.00     0.047 A 
BRANCH   6   9
ATOM      9  O   UNL     1      61.779  -4.632 -10.109  1.00  0.00    -0.508 OA
ATOM     10  H   UNL     1      61.005  -4.052  -9.808  1.00  0.00     0.293 HD
ENDBRANCH   6   9
ENDBRANCH   1   3
BRANCH   2  11
ATOM     11  C   UNL     1      61.612  -8.940  -5.361  1.00  0.00     0.189 C 
ATOM     12  O   UNL     1      60.437  -8.990  -5.813  1.00  0.00    -0.289 OA
BRANCH  11  13
ATOM     13  C   UNL     1      61.890  -8.099  -4.178  1.00  0.00     0.064 A 
ATOM     14  C   UNL     1      61.008  -8.068  -3.068  1.00  0.00     0.130 A 
ATOM     15  C   UNL     1      63.032  -7.280  -4.165  1.00  0.00     0.020 A 
ATOM     16  C   UNL     1      61.277  -7.213  -1.993  1.00  0.00     0.093 A 
ATOM     17  C   UNL     1      63.294  -6.440  -3.080  1.00  0.00     0.047 A 
ATOM     18  C   UNL     1      62.417  -6.401  -1.995  1.00  0.00     0.119 A 
BRANCH  14  19
ATOM     19  O   UNL     1      59.879  -8.885  -2.991  1.00  0.00    -0.507 OA
ATOM     20  H   UNL     1      58.933  -8.532  -3.071  1.00  0.00     0.293 HD
ENDBRANCH  14  19
BRANCH  18  21
ATOM     21  O   UNL     1      62.689  -5.554  -0.922  1.00  0.00    -0.508 OA
ATOM     22  H   UNL     1      63.622  -5.199  -0.750  1.00  0.00     0.293 HD
ENDBRANCH  18  21
ENDBRANCH  11  13
ENDBRANCH   2  11
TORSDOF 6
ENDMDL
MODEL 5
REMARK VINA RESULT:    -5.201      1.790      2.443
REMARK INTER + INTRA:          -7.502
REMARK INTER:                  -6.414
REMARK INTRA:                  -1.088
REMARK UNBOUND:                -0.932
REMARK SMILES O=C(C=Cc1ccc(O)cc1)c1ccc(O)cc1O
REMARK SMILES IDX 4 1 3 2 5 3 6 4 7 5 8 6 11 7 10 8 9 9 2 11 1 12 12 13 18 14
REMARK SMILES IDX 13 15 17 16 14 17 15 18 19 19 16 21
REMARK H PARENT 9 10 19 20 16 22
REMARK Flexibility Score: inf
ROOT
ATOM      1  C   UNL     1      62.793  -9.232  -3.377  1.00  0.00     0.012 C 
ATOM      2  C   UNL     1      62.511  -9.725  -4.594  1.00  0.00     0.053 C 
ENDROOT
BRANCH   1   3
ATOM      3  C   UNL     1      62.446  -7.877  -2.904  1.00  0.00    -0.025 A 
ATOM      4  C   UNL     1      61.131  -7.607  -2.496  1.00  0.00     0.012 A 
ATOM      5  C   UNL     1      60.791  -6.343  -2.002  1.00  0.00     0.047 A 
ATOM      6  C   UNL     1      61.768  -5.345  -1.891  1.00  0.00     0.115 A 
ATOM      7  C   UNL     1      63.428  -6.882  -2.762  1.00  0.00     0.012 A 
ATOM      8  C   UNL     1      63.087  -5.618  -2.269  1.00  0.00     0.047 A 
BRANCH   6   9
ATOM      9  O   UNL     1      61.442  -4.082  -1.402  1.00  0.00    -0.508 OA
ATOM     10  H   UNL     1      61.445  -3.882  -0.409  1.00  0.00     0.293 HD
ENDBRANCH   6   9
ENDBRANCH   1   3
BRANCH   2  11
ATOM     11  C   UNL     1      61.647  -9.071  -5.607  1.00  0.00     0.189 C 
ATOM     12  O   UNL     1      60.397  -9.226  -5.576  1.00  0.00    -0.289 OA
BRANCH  11  13
ATOM     13  C   UNL     1      62.246  -8.295  -6.713  1.00  0.00     0.064 A 
ATOM     14  C   UNL     1      62.112  -8.703  -8.063  1.00  0.00     0.130 A 
ATOM     15  C   UNL     1      63.002  -7.146  -6.419  1.00  0.00     0.020 A 
ATOM     16  C   UNL     1      62.747  -7.973  -9.075  1.00  0.00     0.093 A 
ATOM     17  C   UNL     1      63.620  -6.420  -7.440  1.00  0.00     0.047 A 
ATOM     18  C   UNL     1      63.498  -6.833  -8.768  1.00  0.00     0.119 A 
BRANCH  14  19
ATOM     19  O   UNL     1      61.342  -9.808  -8.434  1.00  0.00    -0.507 OA
ATOM     20  H   UNL     1      61.140 -10.577  -7.809  1.00  0.00     0.293 HD
ENDBRANCH  14  19
BRANCH  18  21
ATOM     21  O   UNL     1      64.125  -6.102  -9.775  1.00  0.00    -0.508 OA
ATOM     22  H   UNL     1      64.913  -6.476 -10.289  1.00  0.00     0.293 HD
ENDBRANCH  18  21
ENDBRANCH  11  13
ENDBRANCH   2  11
TORSDOF 6
ENDMDL
MODEL 6
REMARK VINA RESULT:    -5.031      3.822      7.826
REMARK INTER + INTRA:          -7.287
REMARK INTER:                  -6.787
REMARK INTRA:                  -0.500
REMARK UNBOUND:                -0.932
REMARK SMILES O=C(C=Cc1ccc(O)cc1)c1ccc(O)cc1O
REMARK SMILES IDX 4 1 3 2 5 3 6 4 7 5 8 6 11 7 10 8 9 9 2 11 1 12 12 13 18 14
REMARK SMILES IDX 13 15 17 16 14 17 15 18 19 19 16 21
REMARK H PARENT 9 10 19 20 16 22
REMARK Flexibility Score: inf
ROOT
ATOM      1  C   UNL     1      63.752  -7.275  -0.616  1.00  0.00     0.012 C 
ATOM      2  C   UNL     1      63.838  -8.224   0.330  1.00  0.00     0.053 C 
ENDROOT
BRANCH   1   3
ATOM      3  C   UNL     1      62.497  -6.783  -1.220  1.00  0.00    -0.025 A 
ATOM      4  C   UNL     1      61.952  -5.569  -0.778  1.00  0.00     0.012 A 
ATOM      5  C   UNL     1      60.789  -5.062  -1.368  1.00  0.00     0.047 A 
ATOM      6  C   UNL     1      60.173  -5.754  -2.419  1.00  0.00     0.115 A 
ATOM      7  C   UNL     1      61.893  -7.458  -2.294  1.00  0.00     0.012 A 
ATOM      8  C   UNL     1      60.730  -6.951  -2.882  1.00  0.00     0.047 A 
BRANCH   6   9
ATOM      9  O   UNL     1      59.014  -5.261  -3.013  1.00  0.00    -0.508 OA
ATOM     10  H   UNL     1      58.217  -4.973  -2.457  1.00  0.00     0.293 HD
ENDBRANCH   6   9
ENDBRANCH   1   3
BRANCH   2  11
ATOM     11  C   UNL     1      62.691  -8.811   1.065  1.00  0.00     0.189 C 
ATOM     12  O   UNL     1      61.794  -9.446   0.450  1.00  0.00    -0.289 OA
BRANCH  11  13
ATOM     13  C   UNL     1      62.544  -8.591   2.520  1.00  0.00     0.064 A 
ATOM     14  C   UNL     1      61.947  -7.414   3.034  1.00  0.00     0.130 A 
ATOM     15  C   UNL     1      63.044  -9.552   3.417  1.00  0.00     0.020 A 
ATOM     16  C   UNL     1      61.882  -7.217   4.419  1.00  0.00     0.093 A 
ATOM     17  C   UNL     1      62.962  -9.347   4.796  1.00  0.00     0.047 A 
ATOM     18  C   UNL     1      62.386  -8.180   5.301  1.00  0.00     0.119 A 
BRANCH  14  19
ATOM     19  O   UNL     1      61.390  -6.438   2.206  1.00  0.00    -0.507 OA
ATOM     20  H   UNL     1      60.611  -5.854   2.483  1.00  0.00     0.293 HD
ENDBRANCH  14  19
BRANCH  18  21
ATOM     21  O   UNL     1      62.316  -7.988   6.679  1.00  0.00    -0.508 OA
ATOM     22  H   UNL     1      61.482  -8.220   7.205  1.00  0.00     0.293 HD
ENDBRANCH  18  21
ENDBRANCH  11  13
ENDBRANCH   2  11
TORSDOF 6
ENDMDL
MODEL 7
REMARK VINA RESULT:    -4.958      3.851      6.112
REMARK INTER + INTRA:          -7.194
REMARK INTER:                  -6.073
REMARK INTRA:                  -1.121
REMARK UNBOUND:                -0.932
REMARK SMILES O=C(C=Cc1ccc(O)cc1)c1ccc(O)cc1O
REMARK SMILES IDX 4 1 3 2 5 3 6 4 7 5 8 6 11 7 10 8 9 9 2 11 1 12 12 13 18 14
REMARK SMILES IDX 13 15 17 16 14 17 15 18 19 19 16 21
REMARK H PARENT 9 10 19 20 16 22
REMARK Flexibility Score: inf
ROOT
ATOM      1  C   UNL     1      63.691  -8.636   1.740  1.00  0.00     0.012 C 
ATOM      2  C   UNL     1      63.494  -8.483   0.421  1.00  0.00     0.053 C 
ENDROOT
BRANCH   1   3
ATOM      3  C   UNL     1      62.624  -8.741   2.756  1.00  0.00    -0.025 A 
ATOM      4  C   UNL     1      62.257 -10.006   3.239  1.00  0.00     0.012 A 
ATOM      5  C   UNL     1      61.281 -10.125   4.234  1.00  0.00     0.047 A 
ATOM      6  C   UNL     1      60.680  -8.979   4.771  1.00  0.00     0.115 A 
ATOM      7  C   UNL     1      62.040  -7.594   3.319  1.00  0.00     0.012 A 
ATOM      8  C   UNL     1      61.064  -7.714   4.313  1.00  0.00     0.047 A 
BRANCH   6   9
ATOM      9  O   UNL     1      59.705  -9.085   5.761  1.00  0.00    -0.508 OA
ATOM     10  H   UNL     1      58.824  -8.588   5.691  1.00  0.00     0.293 HD
ENDBRANCH   6   9
ENDBRANCH   1   3
BRANCH   2  11
ATOM     11  C   UNL     1      62.184  -8.579  -0.269  1.00  0.00     0.189 C 
ATOM     12  O   UNL     1      61.651  -9.702  -0.476  1.00  0.00    -0.289 OA
BRANCH  11  13
ATOM     13  C   UNL     1      61.524  -7.365  -0.792  1.00  0.00     0.064 A 
ATOM     14  C   UNL     1      60.946  -7.335  -2.085  1.00  0.00     0.130 A 
ATOM     15  C   UNL     1      61.503  -6.198  -0.008  1.00  0.00     0.020 A 
ATOM     16  C   UNL     1      60.384  -6.146  -2.567  1.00  0.00     0.093 A 
ATOM     17  C   UNL     1      60.929  -5.022  -0.497  1.00  0.00     0.047 A 
ATOM     18  C   UNL     1      60.373  -4.991  -1.776  1.00  0.00     0.119 A 
BRANCH  14  19
ATOM     19  O   UNL     1      60.891  -8.465  -2.903  1.00  0.00    -0.507 OA
ATOM     20  H   UNL     1      61.705  -8.864  -3.353  1.00  0.00     0.293 HD
ENDBRANCH  14  19
BRANCH  18  21
ATOM     21  O   UNL     1      59.808  -3.809  -2.252  1.00  0.00    -0.508 OA
ATOM     22  H   UNL     1      58.844  -3.769  -2.560  1.00  0.00     0.293 HD
ENDBRANCH  18  21
ENDBRANCH  11  13
ENDBRANCH   2  11
TORSDOF 6
ENDMDL
MODEL 8
REMARK VINA RESULT:    -4.883      2.449      5.159
REMARK INTER + INTRA:          -7.099
REMARK INTER:                  -5.798
REMARK INTRA:                  -1.301
REMARK UNBOUND:                -0.932
REMARK SMILES O=C(C=Cc1ccc(O)cc1)c1ccc(O)cc1O
REMARK SMILES IDX 4 1 3 2 5 3 6 4 7 5 8 6 11 7 10 8 9 9 2 11 1 12 12 13 18 14
REMARK SMILES IDX 13 15 17 16 14 17 15 18 19 19 16 21
REMARK H PARENT 9 10 19 20 16 22
REMARK Flexibility Score: inf
ROOT
ATOM      1  C   UNL     1      61.430  -9.301  -3.159  1.00  0.00     0.012 C 
ATOM      2  C   UNL     1      61.514  -8.308  -4.059  1.00  0.00     0.053 C 
ENDROOT
BRANCH   1   3
ATOM      3  C   UNL     1      62.156  -9.351  -1.874  1.00  0.00    -0.025 A 
ATOM      4  C   UNL     1      61.497  -8.967  -0.696  1.00  0.00     0.012 A 
ATOM      5  C   UNL     1      62.151  -9.049   0.537  1.00  0.00     0.047 A 
ATOM      6  C   UNL     1      63.463  -9.538   0.607  1.00  0.00     0.115 A 
ATOM      7  C   UNL     1      63.460  -9.868  -1.794  1.00  0.00     0.012 A 
ATOM      8  C   UNL     1      64.114  -9.949  -0.561  1.00  0.00     0.047 A 
BRANCH   6   9
ATOM      9  O   UNL     1      64.125  -9.623   1.830  1.00  0.00    -0.508 OA
ATOM     10  H   UNL     1      64.105  -8.860   2.496  1.00  0.00     0.293 HD
ENDBRANCH   6   9
ENDBRANCH   1   3
BRANCH   2  11
ATOM     11  C   UNL     1      62.197  -7.009  -3.844  1.00  0.00     0.189 C 
ATOM     12  O   UNL     1      63.172  -6.673  -4.567  1.00  0.00    -0.289 OA
BRANCH  11  13
ATOM     13  C   UNL     1      61.792  -6.126  -2.729  1.00  0.00     0.064 A 
ATOM     14  C   UNL     1      62.712  -5.732  -1.726  1.00  0.00     0.130 A 
ATOM     15  C   UNL     1      60.456  -5.700  -2.637  1.00  0.00     0.020 A 
ATOM     16  C   UNL     1      62.273  -4.945  -0.654  1.00  0.00     0.093 A 
ATOM     17  C   UNL     1      60.035  -4.905  -1.568  1.00  0.00     0.047 A 
ATOM     18  C   UNL     1      60.939  -4.529  -0.573  1.00  0.00     0.119 A 
BRANCH  14  19
ATOM     19  O   UNL     1      64.063  -6.081  -1.775  1.00  0.00    -0.507 OA
ATOM     20  H   UNL     1      64.385  -7.033  -1.895  1.00  0.00     0.293 HD
ENDBRANCH  14  19
BRANCH  18  21
ATOM     21  O   UNL     1      60.504  -3.741   0.490  1.00  0.00    -0.508 OA
ATOM     22  H   UNL     1      60.006  -2.872   0.336  1.00  0.00     0.293 HD
ENDBRANCH  18  21
ENDBRANCH  11  13
ENDBRANCH   2  11
TORSDOF 6
ENDMDL
MODEL 9
REMARK VINA RESULT:    -4.598     14.323     16.310
REMARK INTER + INTRA:          -6.739
REMARK INTER:                  -5.385
REMARK INTRA:                  -1.354
REMARK UNBOUND:                -0.932
REMARK SMILES O=C(C=Cc1ccc(O)cc1)c1ccc(O)cc1O
REMARK SMILES IDX 4 1 3 2 5 3 6 4 7 5 8 6 11 7 10 8 9 9 2 11 1 12 12 13 18 14
REMARK SMILES IDX 13 15 17 16 14 17 15 18 19 19 16 21
REMARK H PARENT 9 10 19 20 16 22
REMARK Flexibility Score: inf
ROOT
ATOM      1  C   UNL     1      44.722  -9.675  -5.159  1.00  0.00     0.012 C 
ATOM      2  C   UNL     1      44.335  -9.073  -4.023  1.00  0.00     0.053 C 
ENDROOT
BRANCH   1   3
ATOM      3  C   UNL     1      45.948  -9.357  -5.919  1.00  0.00    -0.025 A 
ATOM      4  C   UNL     1      45.946  -8.267  -6.801  1.00  0.00     0.012 A 
ATOM      5  C   UNL     1      47.109  -7.921  -7.497  1.00  0.00     0.047 A 
ATOM      6  C   UNL     1      48.291  -8.648  -7.299  1.00  0.00     0.115 A 
ATOM      7  C   UNL     1      47.143 -10.064  -5.701  1.00  0.00     0.012 A 
ATOM      8  C   UNL     1      48.304  -9.718  -6.397  1.00  0.00     0.047 A 
BRANCH   6   9
ATOM      9  O   UNL     1      49.455  -8.314  -7.987  1.00  0.00    -0.508 OA
ATOM     10  H   UNL     1      49.506  -7.486  -8.569  1.00  0.00     0.293 HD
ENDBRANCH   6   9
ENDBRANCH   1   3
BRANCH   2  11
ATOM     11  C   UNL     1      45.153  -8.119  -3.234  1.00  0.00     0.189 C 
ATOM     12  O   UNL     1      44.896  -6.887  -3.255  1.00  0.00    -0.289 OA
BRANCH  11  13
ATOM     13  C   UNL     1      46.329  -8.594  -2.475  1.00  0.00     0.064 A 
ATOM     14  C   UNL     1      47.636  -8.135  -2.771  1.00  0.00     0.130 A 
ATOM     15  C   UNL     1      46.156  -9.553  -1.462  1.00  0.00     0.020 A 
ATOM     16  C   UNL     1      48.731  -8.655  -2.069  1.00  0.00     0.093 A 
ATOM     17  C   UNL     1      47.255 -10.055  -0.761  1.00  0.00     0.047 A 
ATOM     18  C   UNL     1      48.543  -9.611  -1.064  1.00  0.00     0.119 A 
BRANCH  14  19
ATOM     19  O   UNL     1      47.880  -7.153  -3.734  1.00  0.00    -0.507 OA
ATOM     20  H   UNL     1      47.962  -6.168  -3.513  1.00  0.00     0.293 HD
ENDBRANCH  14  19
BRANCH  18  21
ATOM     21  O   UNL     1      49.631 -10.125  -0.360  1.00  0.00    -0.508 OA
ATOM     22  H   UNL     1      50.235 -10.832  -0.762  1.00  0.00     0.293 HD
ENDBRANCH  18  21
ENDBRANCH  11  13
ENDBRANCH   2  11
TORSDOF 6
ENDMDL
