MODEL 1
REMARK VINA RESULT:    -5.188      0.000      0.000
REMARK INTER + INTRA:          -5.736
REMARK INTER:                  -5.795
REMARK INTRA:                   0.058
REMARK UNBOUND:                 0.058
REMARK SMILES COc1cc2ccc(=O)oc2c(O)c1O
REMARK SMILES IDX 3 1 14 2 12 3 11 4 5 5 4 6 6 7 7 8 8 9 9 10 10 11 2 12 1 13
REMARK SMILES IDX 15 14 13 16
REMARK H PARENT 15 15 13 17
REMARK Flexibility Score: inf
ROOT
ATOM      1  C   UNL     1      12.377 -18.071   6.790  1.00  0.00     0.165 A 
ATOM      2  C   UNL     1      12.474 -16.692   7.026  1.00  0.00     0.204 A 
ATOM      3  C   UNL     1      11.364 -15.970   7.502  1.00  0.00     0.205 A 
ATOM      4  C   UNL     1      10.151 -16.635   7.746  1.00  0.00     0.184 A 
ATOM      5  C   UNL     1      10.052 -18.023   7.510  1.00  0.00     0.025 A 
ATOM      6  C   UNL     1      11.160 -18.735   7.035  1.00  0.00     0.062 A 
ATOM      7  C   UNL     1       8.831 -18.659   7.760  1.00  0.00     0.020 A 
ATOM      8  C   UNL     1       7.753 -17.912   8.232  1.00  0.00     0.094 A 
ATOM      9  C   UNL     1       7.922 -16.541   8.444  1.00  0.00     0.336 A 
ATOM     10  O   UNL     1       6.962 -15.847   8.870  1.00  0.00    -0.246 OA
ATOM     11  O   UNL     1       9.094 -15.961   8.197  1.00  0.00    -0.419 OA
ENDROOT
BRANCH   1  12
ATOM     12  O   UNL     1      13.512 -18.748   6.314  1.00  0.00    -0.493 OA
ATOM     13  C   UNL     1      14.624 -19.125   7.120  1.00  0.00     0.278 C 
ENDBRANCH   1  12
BRANCH   2  14
ATOM     14  O   UNL     1      13.688 -16.048   6.778  1.00  0.00    -0.502 OA
ATOM     15  H   UNL     1      14.004 -15.260   7.329  1.00  0.00     0.293 HD
ENDBRANCH   2  14
BRANCH   3  16
ATOM     16  O   UNL     1      11.480 -14.598   7.730  1.00  0.00    -0.502 OA
ATOM     17  H   UNL     1      11.085 -14.151   8.549  1.00  0.00     0.293 HD
ENDBRANCH   3  16
TORSDOF 3
ENDMDL
MODEL 2
REMARK VINA RESULT:    -5.170      1.640      2.798
REMARK INTER + INTRA:          -5.717
REMARK INTER:                  -5.652
REMARK INTRA:                  -0.065
REMARK UNBOUND:                 0.058
REMARK SMILES COc1cc2ccc(=O)oc2c(O)c1O
REMARK SMILES IDX 3 1 14 2 12 3 11 4 5 5 4 6 6 7 7 8 8 9 9 10 10 11 2 12 1 13
REMARK SMILES IDX 15 14 13 16
REMARK H PARENT 15 15 13 17
REMARK Flexibility Score: inf
ROOT
ATOM      1  C   UNL     1      12.631 -16.220   7.777  1.00  0.00     0.165 A 
ATOM      2  C   UNL     1      12.673 -17.325   6.913  1.00  0.00     0.204 A 
ATOM      3  C   UNL     1      11.496 -18.029   6.599  1.00  0.00     0.205 A 
ATOM      4  C   UNL     1      10.270 -17.622   7.154  1.00  0.00     0.184 A 
ATOM      5  C   UNL     1      10.227 -16.511   8.022  1.00  0.00     0.025 A 
ATOM      6  C   UNL     1      11.402 -15.815   8.331  1.00  0.00     0.062 A 
ATOM      7  C   UNL     1       8.992 -16.130   8.560  1.00  0.00     0.020 A 
ATOM      8  C   UNL     1       7.847 -16.851   8.226  1.00  0.00     0.094 A 
ATOM      9  C   UNL     1       7.964 -17.941   7.359  1.00  0.00     0.336 A 
ATOM     10  O   UNL     1       6.942 -18.606   7.045  1.00  0.00    -0.246 OA
ATOM     11  O   UNL     1       9.150 -18.282   6.863  1.00  0.00    -0.419 OA
ENDROOT
BRANCH   1  12
ATOM     12  O   UNL     1      13.832 -15.550   8.060  1.00  0.00    -0.493 OA
ATOM     13  C   UNL     1      14.262 -14.355   7.415  1.00  0.00     0.278 C 
ENDBRANCH   1  12
BRANCH   2  14
ATOM     14  O   UNL     1      13.900 -17.713   6.373  1.00  0.00    -0.502 OA
ATOM     15  H   UNL     1      14.156 -17.511   5.414  1.00  0.00     0.293 HD
ENDBRANCH   2  14
BRANCH   3  16
ATOM     16  O   UNL     1      11.557 -19.125   5.738  1.00  0.00    -0.502 OA
ATOM     17  H   UNL     1      11.614 -19.020   4.732  1.00  0.00     0.293 HD
ENDBRANCH   3  16
TORSDOF 3
ENDMDL
MODEL 3
REMARK VINA RESULT:    -4.772      1.713      5.288
REMARK INTER + INTRA:          -5.271
REMARK INTER:                  -5.408
REMARK INTRA:                   0.136
REMARK UNBOUND:                 0.058
REMARK SMILES COc1cc2ccc(=O)oc2c(O)c1O
REMARK SMILES IDX 3 1 14 2 12 3 11 4 5 5 4 6 6 7 7 8 8 9 9 10 10 11 2 12 1 13
REMARK SMILES IDX 15 14 13 16
REMARK H PARENT 15 15 13 17
REMARK Flexibility Score: inf
ROOT
ATOM      1  C   UNL     1       8.674 -16.614   7.969  1.00  0.00     0.165 A 
ATOM      2  C   UNL     1       8.783 -17.614   6.991  1.00  0.00     0.204 A 
ATOM      3  C   UNL     1      10.043 -18.128   6.634  1.00  0.00     0.205 A 
ATOM      4  C   UNL     1      11.201 -17.638   7.262  1.00  0.00     0.184 A 
ATOM      5  C   UNL     1      11.093 -16.633   8.247  1.00  0.00     0.025 A 
ATOM      6  C   UNL     1       9.835 -16.126   8.597  1.00  0.00     0.062 A 
ATOM      7  C   UNL     1      12.262 -16.163   8.855  1.00  0.00     0.020 A 
ATOM      8  C   UNL     1      13.493 -16.696   8.476  1.00  0.00     0.094 A 
ATOM      9  C   UNL     1      13.526 -17.690   7.494  1.00  0.00     0.336 A 
ATOM     10  O   UNL     1      14.627 -18.185   7.137  1.00  0.00    -0.246 OA
ATOM     11  O   UNL     1      12.399 -18.118   6.931  1.00  0.00    -0.419 OA
ENDROOT
BRANCH   1  12
ATOM     12  O   UNL     1       7.394 -16.134   8.291  1.00  0.00    -0.493 OA
ATOM     13  C   UNL     1       6.405 -16.878   8.994  1.00  0.00     0.278 C 
ENDBRANCH   1  12
BRANCH   2  14
ATOM     14  O   UNL     1       7.622 -18.088   6.378  1.00  0.00    -0.502 OA
ATOM     15  H   UNL     1       6.700 -17.907   6.755  1.00  0.00     0.293 HD
ENDBRANCH   2  14
BRANCH   3  16
ATOM     16  O   UNL     1      10.131 -19.122   5.659  1.00  0.00    -0.502 OA
ATOM     17  H   UNL     1      10.235 -20.102   5.893  1.00  0.00     0.293 HD
ENDBRANCH   3  16
TORSDOF 3
ENDMDL
MODEL 4
REMARK VINA RESULT:    -4.471      1.537      4.667
REMARK INTER + INTRA:          -4.936
REMARK INTER:                  -5.126
REMARK INTRA:                   0.190
REMARK UNBOUND:                 0.058
REMARK SMILES COc1cc2ccc(=O)oc2c(O)c1O
REMARK SMILES IDX 3 1 14 2 12 3 11 4 5 5 4 6 6 7 7 8 8 9 9 10 10 11 2 12 1 13
REMARK SMILES IDX 15 14 13 16
REMARK H PARENT 15 15 13 17
REMARK Flexibility Score: inf
ROOT
ATOM      1  C   UNL     1       9.105 -18.304   6.755  1.00  0.00     0.165 A 
ATOM      2  C   UNL     1       9.132 -16.964   7.169  1.00  0.00     0.204 A 
ATOM      3  C   UNL     1      10.349 -16.346   7.506  1.00  0.00     0.205 A 
ATOM      4  C   UNL     1      11.548 -17.075   7.428  1.00  0.00     0.184 A 
ATOM      5  C   UNL     1      11.523 -18.423   7.012  1.00  0.00     0.025 A 
ATOM      6  C   UNL     1      10.308 -19.032   6.678  1.00  0.00     0.062 A 
ATOM      7  C   UNL     1      12.732 -19.125   6.944  1.00  0.00     0.020 A 
ATOM      8  C   UNL     1      13.919 -18.480   7.286  1.00  0.00     0.094 A 
ATOM      9  C   UNL     1      13.870 -17.142   7.689  1.00  0.00     0.336 A 
ATOM     10  O   UNL     1      14.930 -16.540   8.002  1.00  0.00    -0.246 OA
ATOM     11  O   UNL     1      12.706 -16.499   7.746  1.00  0.00    -0.419 OA
ENDROOT
BRANCH   1  12
ATOM     12  O   UNL     1       7.865 -18.877   6.429  1.00  0.00    -0.493 OA
ATOM     13  C   UNL     1       6.815 -19.114   7.360  1.00  0.00     0.278 C 
ENDBRANCH   1  12
BRANCH   2  14
ATOM     14  O   UNL     1       7.931 -16.256   7.240  1.00  0.00    -0.502 OA
ATOM     15  H   UNL     1       7.041 -16.675   6.999  1.00  0.00     0.293 HD
ENDBRANCH   2  14
BRANCH   3  16
ATOM     16  O   UNL     1      10.355 -15.011   7.915  1.00  0.00    -0.502 OA
ATOM     17  H   UNL     1      11.072 -14.359   7.621  1.00  0.00     0.293 HD
ENDBRANCH   3  16
TORSDOF 3
ENDMDL
MODEL 5
REMARK VINA RESULT:    -4.015      1.642      1.820
REMARK INTER + INTRA:          -4.426
REMARK INTER:                  -4.375
REMARK INTRA:                  -0.052
REMARK UNBOUND:                 0.058
REMARK SMILES COc1cc2ccc(=O)oc2c(O)c1O
REMARK SMILES IDX 3 1 14 2 12 3 11 4 5 5 4 6 6 7 7 8 8 9 9 10 10 11 2 12 1 13
REMARK SMILES IDX 15 14 13 16
REMARK H PARENT 15 15 13 17
REMARK Flexibility Score: inf
ROOT
ATOM      1  C   UNL     1      12.485 -18.081   7.317  1.00  0.00     0.165 A 
ATOM      2  C   UNL     1      12.122 -17.385   8.480  1.00  0.00     0.204 A 
ATOM      3  C   UNL     1      10.769 -17.263   8.846  1.00  0.00     0.205 A 
ATOM      4  C   UNL     1       9.773 -17.841   8.041  1.00  0.00     0.184 A 
ATOM      5  C   UNL     1      10.136 -18.542   6.871  1.00  0.00     0.025 A 
ATOM      6  C   UNL     1      11.484 -18.660   6.513  1.00  0.00     0.062 A 
ATOM      7  C   UNL     1       9.123 -19.107   6.088  1.00  0.00     0.020 A 
ATOM      8  C   UNL     1       7.794 -18.965   6.481  1.00  0.00     0.094 A 
ATOM      9  C   UNL     1       7.507 -18.259   7.653  1.00  0.00     0.336 A 
ATOM     10  O   UNL     1       6.313 -18.119   8.026  1.00  0.00    -0.246 OA
ATOM     11  O   UNL     1       8.489 -17.731   8.378  1.00  0.00    -0.419 OA
ENDROOT
BRANCH   1  12
ATOM     12  O   UNL     1      13.848 -18.176   6.995  1.00  0.00    -0.493 OA
ATOM     13  C   UNL     1      14.400 -19.125   6.088  1.00  0.00     0.278 C 
ENDBRANCH   1  12
BRANCH   2  14
ATOM     14  O   UNL     1      13.126 -16.817   9.267  1.00  0.00    -0.502 OA
ATOM     15  H   UNL     1      13.822 -16.189   8.884  1.00  0.00     0.293 HD
ENDBRANCH   2  14
BRANCH   3  16
ATOM     16  O   UNL     1      10.429 -16.567  10.006  1.00  0.00    -0.502 OA
ATOM     17  H   UNL     1      11.090 -15.975  10.496  1.00  0.00     0.293 HD
ENDBRANCH   3  16
TORSDOF 3
ENDMDL
MODEL 6
REMARK VINA RESULT:    -3.899      2.229      3.072
REMARK INTER + INTRA:          -4.297
REMARK INTER:                  -4.240
REMARK INTRA:                  -0.057
REMARK UNBOUND:                 0.058
REMARK SMILES COc1cc2ccc(=O)oc2c(O)c1O
REMARK SMILES IDX 3 1 14 2 12 3 11 4 5 5 4 6 6 7 7 8 8 9 9 10 10 11 2 12 1 13
REMARK SMILES IDX 15 14 13 16
REMARK H PARENT 15 15 13 17
REMARK Flexibility Score: inf
ROOT
ATOM      1  C   UNL     1      11.195 -17.688   7.806  1.00  0.00     0.165 A 
ATOM      2  C   UNL     1      10.976 -18.211   6.522  1.00  0.00     0.204 A 
ATOM      3  C   UNL     1       9.687 -18.607   6.124  1.00  0.00     0.205 A 
ATOM      4  C   UNL     1       8.609 -18.478   7.016  1.00  0.00     0.184 A 
ATOM      5  C   UNL     1       8.827 -17.951   8.307  1.00  0.00     0.025 A 
ATOM      6  C   UNL     1      10.113 -17.560   8.698  1.00  0.00     0.062 A 
ATOM      7  C   UNL     1       7.735 -17.835   9.175  1.00  0.00     0.020 A 
ATOM      8  C   UNL     1       6.472 -18.238   8.746  1.00  0.00     0.094 A 
ATOM      9  C   UNL     1       6.329 -18.749   7.453  1.00  0.00     0.336 A 
ATOM     10  O   UNL     1       5.197 -19.119   7.044  1.00  0.00    -0.246 OA
ATOM     11  O   UNL     1       7.384 -18.850   6.649  1.00  0.00    -0.419 OA
ENDROOT
BRANCH   1  12
ATOM     12  O   UNL     1      12.500 -17.307   8.157  1.00  0.00    -0.493 OA
ATOM     13  C   UNL     1      12.830 -16.117   8.866  1.00  0.00     0.278 C 
ENDBRANCH   1  12
BRANCH   2  14
ATOM     14  O   UNL     1      12.059 -18.332   5.650  1.00  0.00    -0.502 OA
ATOM     15  H   UNL     1      11.954 -18.260   4.645  1.00  0.00     0.293 HD
ENDBRANCH   2  14
BRANCH   3  16
ATOM     16  O   UNL     1       9.490 -19.125   4.843  1.00  0.00    -0.502 OA
ATOM     17  H   UNL     1       8.908 -19.937   4.671  1.00  0.00     0.293 HD
ENDBRANCH   3  16
TORSDOF 3
ENDMDL
MODEL 7
REMARK VINA RESULT:    -3.898      2.013      2.299
REMARK INTER + INTRA:          -4.296
REMARK INTER:                  -4.239
REMARK INTRA:                  -0.057
REMARK UNBOUND:                 0.058
REMARK SMILES COc1cc2ccc(=O)oc2c(O)c1O
REMARK SMILES IDX 3 1 14 2 12 3 11 4 5 5 4 6 6 7 7 8 8 9 9 10 10 11 2 12 1 13
REMARK SMILES IDX 15 14 13 16
REMARK H PARENT 15 15 13 17
REMARK Flexibility Score: inf
ROOT
ATOM      1  C   UNL     1      12.036 -16.164   8.459  1.00  0.00     0.165 A 
ATOM      2  C   UNL     1      11.350 -15.413   7.492  1.00  0.00     0.204 A 
ATOM      3  C   UNL     1      10.054 -15.784   7.089  1.00  0.00     0.205 A 
ATOM      4  C   UNL     1       9.441 -16.913   7.659  1.00  0.00     0.184 A 
ATOM      5  C   UNL     1      10.130 -17.668   8.632  1.00  0.00     0.025 A 
ATOM      6  C   UNL     1      11.419 -17.294   9.028  1.00  0.00     0.062 A 
ATOM      7  C   UNL     1       9.496 -18.788   9.181  1.00  0.00     0.020 A 
ATOM      8  C   UNL     1       8.211 -19.125   8.758  1.00  0.00     0.094 A 
ATOM      9  C   UNL     1       7.588 -18.331   7.790  1.00  0.00     0.336 A 
ATOM     10  O   UNL     1       6.429 -18.618   7.394  1.00  0.00    -0.246 OA
ATOM     11  O   UNL     1       8.215 -17.272   7.284  1.00  0.00    -0.419 OA
ENDROOT
BRANCH   1  12
ATOM     12  O   UNL     1      13.327 -15.753   8.828  1.00  0.00    -0.493 OA
ATOM     13  C   UNL     1      14.530 -16.266   8.265  1.00  0.00     0.278 C 
ENDBRANCH   1  12
BRANCH   2  14
ATOM     14  O   UNL     1      11.975 -14.295   6.937  1.00  0.00    -0.502 OA
ATOM     15  H   UNL     1      12.017 -13.405   7.419  1.00  0.00     0.293 HD
ENDBRANCH   2  14
BRANCH   3  16
ATOM     16  O   UNL     1       9.388 -15.025   6.126  1.00  0.00    -0.502 OA
ATOM     17  H   UNL     1       8.496 -15.306   5.737  1.00  0.00     0.293 HD
ENDBRANCH   3  16
TORSDOF 3
ENDMDL
MODEL 8
REMARK VINA RESULT:    -3.787      2.402      5.461
REMARK INTER + INTRA:          -4.172
REMARK INTER:                  -4.156
REMARK INTRA:                  -0.016
REMARK UNBOUND:                 0.058
REMARK SMILES COc1cc2ccc(=O)oc2c(O)c1O
REMARK SMILES IDX 3 1 14 2 12 3 11 4 5 5 4 6 6 7 7 8 8 9 9 10 10 11 2 12 1 13
REMARK SMILES IDX 15 14 13 16
REMARK H PARENT 15 15 13 17
REMARK Flexibility Score: inf
ROOT
ATOM      1  C   UNL     1       8.319 -18.957   8.312  1.00  0.00     0.165 A 
ATOM      2  C   UNL     1       8.252 -19.032   6.913  1.00  0.00     0.204 A 
ATOM      3  C   UNL     1       9.428 -19.013   6.141  1.00  0.00     0.205 A 
ATOM      4  C   UNL     1      10.679 -18.920   6.775  1.00  0.00     0.184 A 
ATOM      5  C   UNL     1      10.748 -18.846   8.182  1.00  0.00     0.025 A 
ATOM      6  C   UNL     1       9.574 -18.864   8.945  1.00  0.00     0.062 A 
ATOM      7  C   UNL     1      12.006 -18.752   8.786  1.00  0.00     0.020 A 
ATOM      8  C   UNL     1      13.149 -18.737   7.989  1.00  0.00     0.094 A 
ATOM      9  C   UNL     1      13.007 -18.815   6.601  1.00  0.00     0.336 A 
ATOM     10  O   UNL     1      14.026 -18.802   5.862  1.00  0.00    -0.246 OA
ATOM     11  O   UNL     1      11.798 -18.901   6.053  1.00  0.00    -0.419 OA
ENDROOT
BRANCH   1  12
ATOM     12  O   UNL     1       7.118 -18.980   9.039  1.00  0.00    -0.493 OA
ATOM     13  C   UNL     1       6.330 -17.831   9.335  1.00  0.00     0.278 C 
ENDBRANCH   1  12
BRANCH   2  14
ATOM     14  O   UNL     1       7.001 -19.124   6.301  1.00  0.00    -0.502 OA
ATOM     15  H   UNL     1       6.289 -19.769   6.622  1.00  0.00     0.293 HD
ENDBRANCH   2  14
BRANCH   3  16
ATOM     16  O   UNL     1       9.340 -19.088   4.750  1.00  0.00    -0.502 OA
ATOM     17  H   UNL     1       8.567 -19.544   4.281  1.00  0.00     0.293 HD
ENDBRANCH   3  16
TORSDOF 3
ENDMDL
MODEL 9
REMARK VINA RESULT:    -2.922      1.936      5.272
REMARK INTER + INTRA:          -3.205
REMARK INTER:                  -3.140
REMARK INTRA:                  -0.066
REMARK UNBOUND:                 0.058
REMARK SMILES COc1cc2ccc(=O)oc2c(O)c1O
REMARK SMILES IDX 3 1 14 2 12 3 11 4 5 5 4 6 6 7 7 8 8 9 9 10 10 11 2 12 1 13
REMARK SMILES IDX 15 14 13 16
REMARK H PARENT 15 15 13 17
REMARK Flexibility Score: inf
ROOT
ATOM      1  C   UNL     1       8.959 -16.820   7.935  1.00  0.00     0.165 A 
ATOM      2  C   UNL     1       9.539 -17.939   8.552  1.00  0.00     0.204 A 
ATOM      3  C   UNL     1      10.931 -18.004   8.749  1.00  0.00     0.205 A 
ATOM      4  C   UNL     1      11.746 -16.940   8.325  1.00  0.00     0.184 A 
ATOM      5  C   UNL     1      11.165 -15.814   7.705  1.00  0.00     0.025 A 
ATOM      6  C   UNL     1       9.779 -15.757   7.512  1.00  0.00     0.062 A 
ATOM      7  C   UNL     1      12.001 -14.772   7.292  1.00  0.00     0.020 A 
ATOM      8  C   UNL     1      13.375 -14.870   7.504  1.00  0.00     0.094 A 
ATOM      9  C   UNL     1      13.883 -16.015   8.125  1.00  0.00     0.336 A 
ATOM     10  O   UNL     1      15.121 -16.125   8.326  1.00  0.00    -0.246 OA
ATOM     11  O   UNL     1      13.065 -16.992   8.506  1.00  0.00    -0.419 OA
ENDROOT
BRANCH   1  12
ATOM     12  O   UNL     1       7.566 -16.802   7.761  1.00  0.00    -0.493 OA
ATOM     13  C   UNL     1       6.653 -16.131   8.623  1.00  0.00     0.278 C 
ENDBRANCH   1  12
BRANCH   2  14
ATOM     14  O   UNL     1       8.713 -18.985   8.966  1.00  0.00    -0.502 OA
ATOM     15  H   UNL     1       8.790 -19.919   8.582  1.00  0.00     0.293 HD
ENDBRANCH   2  14
BRANCH   3  16
ATOM     16  O   UNL     1      11.488 -19.125   9.364  1.00  0.00    -0.502 OA
ATOM     17  H   UNL     1      12.487 -19.296   9.374  1.00  0.00     0.293 HD
ENDBRANCH   3  16
TORSDOF 3
ENDMDL
