MODEL 1
REMARK VINA RESULT:    -5.071      0.000      0.000
REMARK INTER + INTRA:          -5.497
REMARK INTER:                  -6.257
REMARK INTRA:                   0.759
REMARK UNBOUND:                 0.759
REMARK SMILES CC1=CC=CC(C)(C)CC1=O
REMARK SMILES IDX 1 1 2 2 3 3 10 4 11 5 9 6 4 8 5 9 6 10 7 11 8 12
REMARK H PARENT
REMARK Flexibility Score: 80.00
ROOT
ATOM      1  C   UNL     1      67.229  60.454  26.595  1.00  0.00     0.048 C 
ATOM      2  C   UNL     1      68.482  60.653  27.413  1.00  0.00    -0.008 C 
ATOM      3  C   UNL     1      68.358  61.275  28.606  1.00  0.00     0.007 C 
ENDROOT
BRANCH   2   4
ATOM      4  C   UNL     1      69.763  60.214  26.806  1.00  0.00     0.159 C 
ATOM      5  O   UNL     1      69.778  59.887  25.587  1.00  0.00    -0.295 OA
BRANCH   4   6
ATOM      6  C   UNL     1      71.051  60.122  27.566  1.00  0.00     0.091 CG0
ATOM      7  G   UNL     1      71.488  61.469  28.185  1.00  0.00     0.000 G0
ENDBRANCH   4   6
ENDBRANCH   2   4
BRANCH   3   8
ATOM      8  C   UNL     1      69.393  61.631  29.604  1.00  0.00    -0.003 C 
ATOM      9  C   UNL     1      70.720  61.732  29.447  1.00  0.00    -0.020 C 
BRANCH   9  10
ATOM     10  C   UNL     1      71.495  61.470  28.178  1.00  0.00    -0.010 CG0
ATOM     11  C   UNL     1      72.993  61.356  28.540  1.00  0.00     0.016 C 
ATOM     12  C   UNL     1      71.330  62.659  27.204  1.00  0.00     0.016 C 
ATOM     13  G   UNL     1      71.046  60.126  27.562  1.00  0.00     0.000 G0
ENDBRANCH   9  10
ENDBRANCH   3   8
TORSDOF 0
ENDMDL
MODEL 2
REMARK VINA RESULT:    -4.312      1.831      3.241
REMARK INTER + INTRA:          -4.561
REMARK INTER:                  -5.320
REMARK INTRA:                   0.759
REMARK UNBOUND:                 0.759
REMARK SMILES CC1=CC=CC(C)(C)CC1=O
REMARK SMILES IDX 1 1 2 2 3 3 10 4 11 5 9 6 4 8 5 9 6 10 7 11 8 12
REMARK H PARENT
REMARK Flexibility Score: 80.00
ROOT
ATOM      1  C   UNL     1      71.408  62.472  24.428  1.00  0.00     0.048 C 
ATOM      2  C   UNL     1      71.057  61.801  25.734  1.00  0.00    -0.008 C 
ATOM      3  C   UNL     1      70.620  60.523  25.684  1.00  0.00     0.007 C 
ENDROOT
BRANCH   2   4
ATOM      4  C   UNL     1      71.150  62.626  26.965  1.00  0.00     0.159 C 
ATOM      5  O   UNL     1      71.325  63.870  26.851  1.00  0.00    -0.295 OA
BRANCH   4   6
ATOM      6  C   UNL     1      71.062  62.059  28.349  1.00  0.00     0.091 CG0
ATOM      7  G   UNL     1      69.728  61.330  28.624  1.00  0.00     0.000 G0
ENDBRANCH   4   6
ENDBRANCH   2   4
BRANCH   3   8
ATOM      8  C   UNL     1      70.183  59.625  26.778  1.00  0.00    -0.003 C 
ATOM      9  C   UNL     1      69.790  59.935  28.020  1.00  0.00    -0.020 C 
BRANCH   9  10
ATOM     10  C   UNL     1      69.726  61.318  28.621  1.00  0.00    -0.010 CG0
ATOM     11  C   UNL     1      69.564  61.175  30.152  1.00  0.00     0.016 C 
ATOM     12  C   UNL     1      68.489  62.073  28.081  1.00  0.00     0.016 C 
ATOM     13  G   UNL     1      71.049  62.067  28.347  1.00  0.00     0.000 G0
ENDBRANCH   9  10
ENDBRANCH   3   8
TORSDOF 0
ENDMDL
MODEL 3
REMARK VINA RESULT:    -4.200      1.571      2.861
REMARK INTER + INTRA:          -4.423
REMARK INTER:                  -5.174
REMARK INTRA:                   0.752
REMARK UNBOUND:                 0.759
REMARK SMILES CC1=CC=CC(C)(C)CC1=O
REMARK SMILES IDX 1 1 2 2 3 3 10 4 11 5 9 6 4 8 5 9 6 10 7 11 8 12
REMARK H PARENT
REMARK Flexibility Score: 80.00
ROOT
ATOM      1  C   UNL     1      71.377  61.032  23.744  1.00  0.00     0.048 C 
ATOM      2  C   UNL     1      70.985  61.500  25.125  1.00  0.00    -0.008 C 
ATOM      3  C   UNL     1      71.547  62.640  25.583  1.00  0.00     0.007 C 
ENDROOT
BRANCH   2   4
ATOM      4  C   UNL     1      70.067  60.627  25.900  1.00  0.00     0.159 C 
ATOM      5  O   UNL     1      69.817  59.469  25.465  1.00  0.00    -0.295 OA
BRANCH   4   6
ATOM      6  C   UNL     1      69.402  61.050  27.174  1.00  0.00     0.091 CG0
ATOM      7  G   UNL     1      70.406  61.446  28.281  1.00  0.00     0.000 G0
ENDBRANCH   4   6
ENDBRANCH   2   4
BRANCH   3   8
ATOM      8  C   UNL     1      71.382  63.324  26.886  1.00  0.00    -0.003 C 
ATOM      9  C   UNL     1      70.912  62.838  28.043  1.00  0.00    -0.020 C 
BRANCH   9  10
ATOM     10  C   UNL     1      70.399  61.439  28.285  1.00  0.00    -0.010 CG0
ATOM     11  C   UNL     1      69.632  61.429  29.627  1.00  0.00     0.016 C 
ATOM     12  C   UNL     1      71.585  60.455  28.406  1.00  0.00     0.016 C 
ATOM     13  G   UNL     1      69.409  61.046  27.165  1.00  0.00     0.000 G0
ENDBRANCH   9  10
ENDBRANCH   3   8
TORSDOF 0
ENDMDL
MODEL 4
REMARK VINA RESULT:    -4.122      1.738      2.822
REMARK INTER + INTRA:          -4.327
REMARK INTER:                  -5.064
REMARK INTRA:                   0.737
REMARK UNBOUND:                 0.759
REMARK SMILES CC1=CC=CC(C)(C)CC1=O
REMARK SMILES IDX 1 1 2 2 3 3 10 4 11 5 9 6 4 8 5 9 6 10 7 11 8 12
REMARK H PARENT
REMARK Flexibility Score: 80.00
ROOT
ATOM      1  C   UNL     1      69.230  61.205  30.265  1.00  0.00     0.048 C 
ATOM      2  C   UNL     1      70.123  61.322  29.053  1.00  0.00    -0.008 C 
ATOM      3  C   UNL     1      71.458  61.305  29.255  1.00  0.00     0.007 C 
ENDROOT
BRANCH   2   4
ATOM      4  C   UNL     1      69.459  61.524  27.741  1.00  0.00     0.159 C 
ATOM      5  O   UNL     1      68.224  61.782  27.717  1.00  0.00    -0.295 OA
BRANCH   4   6
ATOM      6  C   UNL     1      70.173  61.423  26.428  1.00  0.00     0.091 CG0
ATOM      7  G   UNL     1      71.333  62.434  26.288  1.00  0.00     0.000 G0
ENDBRANCH   4   6
ENDBRANCH   2   4
BRANCH   3   8
ATOM      8  C   UNL     1      72.569  61.426  28.282  1.00  0.00    -0.003 C 
ATOM      9  C   UNL     1      72.548  61.904  27.031  1.00  0.00    -0.020 C 
BRANCH   9  10
ATOM     10  C   UNL     1      71.339  62.422  26.289  1.00  0.00    -0.010 CG0
ATOM     11  C   UNL     1      71.690  62.502  24.786  1.00  0.00     0.016 C 
ATOM     12  C   UNL     1      70.994  63.849  26.774  1.00  0.00     0.016 C 
ATOM     13  G   UNL     1      70.163  61.434  26.455  1.00  0.00     0.000 G0
ENDBRANCH   9  10
ENDBRANCH   3   8
TORSDOF 0
ENDMDL
MODEL 5
REMARK VINA RESULT:    -4.077      1.691      3.157
REMARK INTER + INTRA:          -4.271
REMARK INTER:                  -5.035
REMARK INTRA:                   0.764
REMARK UNBOUND:                 0.759
REMARK SMILES CC1=CC=CC(C)(C)CC1=O
REMARK SMILES IDX 1 1 2 2 3 3 10 4 11 5 9 6 4 8 5 9 6 10 7 11 8 12
REMARK H PARENT
REMARK Flexibility Score: 80.00
ROOT
ATOM      1  C   UNL     1      69.373  61.755  30.776  1.00  0.00     0.048 C 
ATOM      2  C   UNL     1      69.326  61.559  29.280  1.00  0.00    -0.008 C 
ATOM      3  C   UNL     1      68.141  61.214  28.731  1.00  0.00     0.007 C 
ENDROOT
BRANCH   2   4
ATOM      4  C   UNL     1      70.606  61.689  28.540  1.00  0.00     0.159 C 
ATOM      5  O   UNL     1      71.684  61.745  29.195  1.00  0.00    -0.295 OA
BRANCH   4   6
ATOM      6  C   UNL     1      70.695  61.773  27.047  1.00  0.00     0.091 CG0
ATOM      7  G   UNL     1      70.112  60.532  26.334  1.00  0.00     0.000 G0
ENDBRANCH   4   6
ENDBRANCH   2   4
BRANCH   3   8
ATOM      8  C   UNL     1      67.794  60.931  27.318  1.00  0.00    -0.003 C 
ATOM      9  C   UNL     1      68.603  60.628  26.294  1.00  0.00    -0.020 C 
BRANCH   9  10
ATOM     10  C   UNL     1      70.109  60.528  26.339  1.00  0.00    -0.010 CG0
ATOM     11  C   UNL     1      70.637  60.508  24.887  1.00  0.00     0.016 C 
ATOM     12  C   UNL     1      70.530  59.205  27.018  1.00  0.00     0.016 C 
ATOM     13  G   UNL     1      70.692  61.773  27.045  1.00  0.00     0.000 G0
ENDBRANCH   9  10
ENDBRANCH   3   8
TORSDOF 0
ENDMDL
MODEL 6
REMARK VINA RESULT:    -3.894      1.564      2.433
REMARK INTER + INTRA:          -4.046
REMARK INTER:                  -5.091
REMARK INTRA:                   1.045
REMARK UNBOUND:                 0.759
REMARK SMILES CC1=CC=CC(C)(C)CC1=O
REMARK SMILES IDX 1 1 2 2 3 3 10 4 11 5 9 6 4 8 5 9 6 10 7 11 8 12
REMARK H PARENT
REMARK Flexibility Score: 80.00
ROOT
ATOM      1  C   UNL     1      67.272  60.598  27.364  1.00  0.00     0.048 C 
ATOM      2  C   UNL     1      68.756  60.799  27.178  1.00  0.00    -0.008 C 
ATOM      3  C   UNL     1      69.230  60.830  25.914  1.00  0.00     0.007 C 
ENDROOT
BRANCH   2   4
ATOM      4  C   UNL     1      69.588  60.870  28.406  1.00  0.00     0.159 C 
ATOM      5  O   UNL     1      69.021  61.080  29.513  1.00  0.00    -0.295 OA
BRANCH   4   6
ATOM      6  C   UNL     1      71.079  60.722  28.405  1.00  0.00     0.091 CG0
ATOM      7  G   UNL     1      71.793  61.767  27.519  1.00  0.00     0.000 G0
ENDBRANCH   4   6
ENDBRANCH   2   4
BRANCH   3   8
ATOM      8  C   UNL     1      70.620  60.983  25.422  1.00  0.00    -0.003 C 
ATOM      9  C   UNL     1      71.715  61.369  26.090  1.00  0.00    -0.020 C 
BRANCH   9  10
ATOM     10  C   UNL     1      71.781  61.778  27.542  1.00  0.00    -0.010 CG0
ATOM     11  C   UNL     1      71.035  63.122  27.702  1.00  0.00     0.016 C 
ATOM     12  C   UNL     1      73.253  61.998  27.962  1.00  0.00     0.016 C 
ATOM     13  G   UNL     1      71.063  60.724  28.414  1.00  0.00     0.000 G0
ENDBRANCH   9  10
ENDBRANCH   3   8
TORSDOF 0
ENDMDL
MODEL 7
REMARK VINA RESULT:    -3.495      1.891      3.944
REMARK INTER + INTRA:          -3.553
REMARK INTER:                  -4.619
REMARK INTRA:                   1.066
REMARK UNBOUND:                 0.759
REMARK SMILES CC1=CC=CC(C)(C)CC1=O
REMARK SMILES IDX 1 1 2 2 3 3 10 4 11 5 9 6 4 8 5 9 6 10 7 11 8 12
REMARK H PARENT
REMARK Flexibility Score: 80.00
ROOT
ATOM      1  C   UNL     1      73.357  61.928  28.467  1.00  0.00     0.048 C 
ATOM      2  C   UNL     1      72.028  61.726  27.779  1.00  0.00    -0.008 C 
ATOM      3  C   UNL     1      72.038  61.548  26.440  1.00  0.00     0.007 C 
ENDROOT
BRANCH   2   4
ATOM      4  C   UNL     1      70.809  61.815  28.621  1.00  0.00     0.159 C 
ATOM      5  O   UNL     1      70.931  61.750  29.876  1.00  0.00    -0.295 OA
BRANCH   4   6
ATOM      6  C   UNL     1      69.427  61.965  28.063  1.00  0.00     0.091 CG0
ATOM      7  G   UNL     1      69.026  60.811  27.117  1.00  0.00     0.000 G0
ENDBRANCH   4   6
ENDBRANCH   2   4
BRANCH   3   8
ATOM      8  C   UNL     1      70.911  61.355  25.498  1.00  0.00    -0.003 C 
ATOM      9  C   UNL     1      69.632  61.056  25.761  1.00  0.00    -0.020 C 
BRANCH   9  10
ATOM     10  C   UNL     1      69.030  60.811  27.124  1.00  0.00    -0.010 CG0
ATOM     11  C   UNL     1      69.622  59.499  27.686  1.00  0.00     0.016 C 
ATOM     12  C   UNL     1      67.500  60.629  27.001  1.00  0.00     0.016 C 
ATOM     13  G   UNL     1      69.420  61.961  28.080  1.00  0.00     0.000 G0
ENDBRANCH   9  10
ENDBRANCH   3   8
TORSDOF 0
ENDMDL
MODEL 8
REMARK VINA RESULT:    -3.358      1.755      3.243
REMARK INTER + INTRA:          -3.385
REMARK INTER:                  -4.150
REMARK INTRA:                   0.765
REMARK UNBOUND:                 0.759
REMARK SMILES CC1=CC=CC(C)(C)CC1=O
REMARK SMILES IDX 1 1 2 2 3 3 10 4 11 5 9 6 4 8 5 9 6 10 7 11 8 12
REMARK H PARENT
REMARK Flexibility Score: 80.00
ROOT
ATOM      1  C   UNL     1      69.874  62.188  30.459  1.00  0.00     0.048 C 
ATOM      2  C   UNL     1      70.244  61.723  29.071  1.00  0.00    -0.008 C 
ATOM      3  C   UNL     1      70.693  62.652  28.199  1.00  0.00     0.007 C 
ENDROOT
BRANCH   2   4
ATOM      4  C   UNL     1      70.013  60.292  28.753  1.00  0.00     0.159 C 
ATOM      5  O   UNL     1      69.367  59.583  29.573  1.00  0.00    -0.295 OA
BRANCH   4   6
ATOM      6  C   UNL     1      70.520  59.629  27.509  1.00  0.00     0.091 CG0
ATOM      7  G   UNL     1      70.002  60.291  26.213  1.00  0.00     0.000 G0
ENDBRANCH   4   6
ENDBRANCH   2   4
BRANCH   3   8
ATOM      8  C   UNL     1      71.102  62.507  26.783  1.00  0.00    -0.003 C 
ATOM      9  C   UNL     1      70.820  61.524  25.918  1.00  0.00    -0.020 C 
BRANCH   9  10
ATOM     10  C   UNL     1      70.015  60.279  26.207  1.00  0.00    -0.010 CG0
ATOM     11  C   UNL     1      70.239  59.278  25.051  1.00  0.00     0.016 C 
ATOM     12  C   UNL     1      68.509  60.624  26.254  1.00  0.00     0.016 C 
ATOM     13  G   UNL     1      70.519  59.624  27.513  1.00  0.00     0.000 G0
ENDBRANCH   9  10
ENDBRANCH   3   8
TORSDOF 0
ENDMDL
MODEL 9
REMARK VINA RESULT:    -2.949      1.461      3.367
REMARK INTER + INTRA:          -2.879
REMARK INTER:                  -3.945
REMARK INTRA:                   1.066
REMARK UNBOUND:                 0.759
REMARK SMILES CC1=CC=CC(C)(C)CC1=O
REMARK SMILES IDX 1 1 2 2 3 3 10 4 11 5 9 6 4 8 5 9 6 10 7 11 8 12
REMARK H PARENT
REMARK Flexibility Score: 80.00
ROOT
ATOM      1  C   UNL     1      72.892  62.207  27.445  1.00  0.00     0.048 C 
ATOM      2  C   UNL     1      71.554  61.519  27.570  1.00  0.00    -0.008 C 
ATOM      3  C   UNL     1      71.113  61.229  28.814  1.00  0.00     0.007 C 
ENDROOT
BRANCH   2   4
ATOM      4  C   UNL     1      70.863  61.148  26.310  1.00  0.00     0.159 C 
ATOM      5  O   UNL     1      71.236  61.687  25.231  1.00  0.00    -0.295 OA
BRANCH   4   6
ATOM      6  C   UNL     1      69.727  60.174  26.244  1.00  0.00     0.091 CG0
ATOM      7  G   UNL     1      68.506  60.606  27.088  1.00  0.00     0.000 G0
ENDBRANCH   4   6
ENDBRANCH   2   4
BRANCH   3   8
ATOM      8  C   UNL     1      69.872  60.545  29.247  1.00  0.00    -0.003 C 
ATOM      9  C   UNL     1      68.770  60.266  28.540  1.00  0.00    -0.020 C 
BRANCH   9  10
ATOM     10  C   UNL     1      68.519  60.619  27.093  1.00  0.00    -0.010 CG0
ATOM     11  C   UNL     1      68.385  62.155  26.986  1.00  0.00     0.016 C 
ATOM     12  C   UNL     1      67.189  59.991  26.619  1.00  0.00     0.016 C 
ATOM     13  G   UNL     1      69.726  60.182  26.233  1.00  0.00     0.000 G0
ENDBRANCH   9  10
ENDBRANCH   3   8
TORSDOF 0
ENDMDL
