MODEL 1
REMARK VINA RESULT:    -7.179      0.000      0.000
REMARK INTER + INTRA:          -7.179
REMARK INTER:                  -7.179
REMARK INTRA:                   0.000
REMARK UNBOUND:                 0.000
REMARK SMILES C[NH+]1CCN(C2=[NH+]c3ccccc3Oc3ccc(Cl)cc32)CC1
REMARK SMILES IDX 7 1 6 2 21 3 5 4 8 5 9 6 13 7 10 8 12 9 14 10 11 11 15 12
REMARK SMILES IDX 16 13 17 14 18 15 20 16 19 17 4 18 22 19 3 20 23 21 2 22
REMARK SMILES IDX 1 23
REMARK H PARENT 7 24 2 25
REMARK Flexibility Score: inf
ROOT
ATOM      1  N   UNL     1     143.930 129.794 146.895  1.00  0.00    -0.237 N 
ATOM      2  C   UNL     1     143.186 129.370 147.884  1.00  0.00     0.286 C 
ATOM      3  C   UNL     1     143.711 128.582 149.030  1.00  0.00     0.108 A 
ATOM      4  N   UNL     1     141.769 129.635 147.849  1.00  0.00    -0.250 N 
ATOM      5  C   UNL     1     145.344 129.602 146.717  1.00  0.00     0.168 A 
ATOM      6  C   UNL     1     145.839 129.499 145.404  1.00  0.00     0.056 A 
ATOM      7  C   UNL     1     146.260 129.707 147.784  1.00  0.00     0.173 A 
ATOM      8  C   UNL     1     147.213 129.491 145.157  1.00  0.00     0.005 A 
ATOM      9  C   UNL     1     147.635 129.732 147.523  1.00  0.00     0.052 A 
ATOM     10  O   UNL     1     145.848 129.782 149.111  1.00  0.00    -0.452 OA
ATOM     11  C   UNL     1     148.111 129.615 146.216  1.00  0.00     0.004 A 
ATOM     12  C   UNL     1     144.936 128.883 149.657  1.00  0.00     0.143 A 
ATOM     13  C   UNL     1     145.276 128.261 150.864  1.00  0.00     0.049 A 
ATOM     14  C   UNL     1     144.436 127.299 151.428  1.00  0.00     0.024 A 
ATOM     15  C   UNL     1     143.242 126.961 150.793  1.00  0.00     0.042 A 
ATOM     16  C   UNL     1     142.878 127.602 149.606  1.00  0.00     0.041 A 
ATOM     17  Cl  UNL     1     142.184 125.753 151.498  1.00  0.00    -0.084 Cl
ATOM     18  C   UNL     1     141.151 130.423 148.916  1.00  0.00     0.298 C 
ATOM     19  C   UNL     1     140.990 129.373 146.638  1.00  0.00     0.298 C 
ATOM     20  C   UNL     1     139.754 129.872 149.236  1.00  0.00     0.308 C 
ATOM     21  C   UNL     1     139.598 128.845 147.014  1.00  0.00     0.308 C 
ATOM     22  N   UNL     1     138.920 129.688 148.026  1.00  0.00    -0.331 N 
ATOM     23  C   UNL     1     138.459 130.972 147.465  1.00  0.00     0.332 C 
ATOM     24  H   UNL     1     143.449 130.301 146.117  1.00  0.00     0.312 HD
ATOM     25  H   UNL     1     138.060 129.169 148.327  1.00  0.00     0.348 HD
ENDROOT
TORSDOF 0
ENDMDL
MODEL 2
REMARK VINA RESULT:    -7.013      3.453      6.051
REMARK INTER + INTRA:          -7.013
REMARK INTER:                  -7.013
REMARK INTRA:                   0.000
REMARK UNBOUND:                 0.000
REMARK SMILES C[NH+]1CCN(C2=[NH+]c3ccccc3Oc3ccc(Cl)cc32)CC1
REMARK SMILES IDX 7 1 6 2 21 3 5 4 8 5 9 6 13 7 10 8 12 9 14 10 11 11 15 12
REMARK SMILES IDX 16 13 17 14 18 15 20 16 19 17 4 18 22 19 3 20 23 21 2 22
REMARK SMILES IDX 1 23
REMARK H PARENT 7 24 2 25
REMARK Flexibility Score: inf
ROOT
ATOM      1  N   UNL     1     144.010 127.114 148.050  1.00  0.00    -0.237 N 
ATOM      2  C   UNL     1     144.793 127.551 147.098  1.00  0.00     0.286 C 
ATOM      3  C   UNL     1     145.661 128.751 147.232  1.00  0.00     0.108 A 
ATOM      4  N   UNL     1     144.788 126.869 145.828  1.00  0.00    -0.250 N 
ATOM      5  C   UNL     1     143.834 127.669 149.365  1.00  0.00     0.168 A 
ATOM      6  C   UNL     1     142.573 127.545 149.975  1.00  0.00     0.056 A 
ATOM      7  C   UNL     1     144.916 128.153 150.130  1.00  0.00     0.173 A 
ATOM      8  C   UNL     1     142.387 127.902 151.312  1.00  0.00     0.005 A 
ATOM      9  C   UNL     1     144.727 128.476 151.480  1.00  0.00     0.052 A 
ATOM     10  O   UNL     1     146.186 128.332 149.590  1.00  0.00    -0.452 OA
ATOM     11  C   UNL     1     143.466 128.360 152.066  1.00  0.00     0.004 A 
ATOM     12  C   UNL     1     146.396 129.026 148.402  1.00  0.00     0.143 A 
ATOM     13  C   UNL     1     147.365 130.035 148.398  1.00  0.00     0.049 A 
ATOM     14  C   UNL     1     147.577 130.813 147.258  1.00  0.00     0.024 A 
ATOM     15  C   UNL     1     146.824 130.579 146.108  1.00  0.00     0.042 A 
ATOM     16  C   UNL     1     145.878 129.550 146.092  1.00  0.00     0.041 A 
ATOM     17  Cl  UNL     1     147.085 131.554 144.674  1.00  0.00    -0.084 Cl
ATOM     18  C   UNL     1     146.021 126.263 145.324  1.00  0.00     0.298 C 
ATOM     19  C   UNL     1     143.526 126.530 145.167  1.00  0.00     0.298 C 
ATOM     20  C   UNL     1     146.104 126.429 143.800  1.00  0.00     0.308 C 
ATOM     21  C   UNL     1     143.671 126.692 143.648  1.00  0.00     0.308 C 
ATOM     22  N   UNL     1     144.866 126.003 143.109  1.00  0.00    -0.331 N 
ATOM     23  C   UNL     1     144.708 124.536 143.099  1.00  0.00     0.332 C 
ATOM     24  H   UNL     1     143.407 126.288 147.834  1.00  0.00     0.312 HD
ATOM     25  H   UNL     1     144.961 126.297 142.107  1.00  0.00     0.348 HD
ENDROOT
TORSDOF 0
ENDMDL
MODEL 3
REMARK VINA RESULT:    -6.761      2.949      5.109
REMARK INTER + INTRA:          -6.761
REMARK INTER:                  -6.761
REMARK INTRA:                   0.000
REMARK UNBOUND:                 0.000
REMARK SMILES C[NH+]1CCN(C2=[NH+]c3ccccc3Oc3ccc(Cl)cc32)CC1
REMARK SMILES IDX 7 1 6 2 21 3 5 4 8 5 9 6 13 7 10 8 12 9 14 10 11 11 15 12
REMARK SMILES IDX 16 13 17 14 18 15 20 16 19 17 4 18 22 19 3 20 23 21 2 22
REMARK SMILES IDX 1 23
REMARK H PARENT 7 24 2 25
REMARK Flexibility Score: inf
ROOT
ATOM      1  N   UNL     1     142.727 130.640 146.262  1.00  0.00    -0.237 N 
ATOM      2  C   UNL     1     143.006 129.675 147.101  1.00  0.00     0.286 C 
ATOM      3  C   UNL     1     142.807 129.779 148.570  1.00  0.00     0.108 A 
ATOM      4  N   UNL     1     143.583 128.458 146.589  1.00  0.00    -0.250 N 
ATOM      5  C   UNL     1     142.189 131.939 146.568  1.00  0.00     0.168 A 
ATOM      6  C   UNL     1     142.566 133.021 145.752  1.00  0.00     0.056 A 
ATOM      7  C   UNL     1     141.166 132.127 147.519  1.00  0.00     0.173 A 
ATOM      8  C   UNL     1     141.946 134.265 145.883  1.00  0.00     0.005 A 
ATOM      9  C   UNL     1     140.527 133.369 147.620  1.00  0.00     0.052 A 
ATOM     10  O   UNL     1     140.759 131.115 148.383  1.00  0.00    -0.452 OA
ATOM     11  C   UNL     1     140.921 134.437 146.813  1.00  0.00     0.004 A 
ATOM     12  C   UNL     1     141.665 130.376 149.139  1.00  0.00     0.143 A 
ATOM     13  C   UNL     1     141.418 130.248 150.511  1.00  0.00     0.049 A 
ATOM     14  C   UNL     1     142.322 129.578 151.336  1.00  0.00     0.024 A 
ATOM     15  C   UNL     1     143.479 129.022 150.792  1.00  0.00     0.042 A 
ATOM     16  C   UNL     1     143.716 129.114 149.417  1.00  0.00     0.041 A 
ATOM     17  Cl  UNL     1     144.619 128.179 151.824  1.00  0.00    -0.084 Cl
ATOM     18  C   UNL     1     142.878 127.187 146.771  1.00  0.00     0.298 C 
ATOM     19  C   UNL     1     144.710 128.499 145.657  1.00  0.00     0.298 C 
ATOM     20  C   UNL     1     143.886 126.060 147.033  1.00  0.00     0.308 C 
ATOM     21  C   UNL     1     145.674 127.341 145.948  1.00  0.00     0.308 C 
ATOM     22  N   UNL     1     144.986 126.033 146.041  1.00  0.00    -0.331 N 
ATOM     23  C   UNL     1     144.538 125.542 144.724  1.00  0.00     0.332 C 
ATOM     24  H   UNL     1     142.948 130.478 145.254  1.00  0.00     0.312 HD
ATOM     25  H   UNL     1     145.692 125.341 146.390  1.00  0.00     0.348 HD
ENDROOT
TORSDOF 0
ENDMDL
MODEL 4
REMARK VINA RESULT:    -6.711      9.816     12.171
REMARK INTER + INTRA:          -6.711
REMARK INTER:                  -6.711
REMARK INTRA:                   0.000
REMARK UNBOUND:                 0.000
REMARK SMILES C[NH+]1CCN(C2=[NH+]c3ccccc3Oc3ccc(Cl)cc32)CC1
REMARK SMILES IDX 7 1 6 2 21 3 5 4 8 5 9 6 13 7 10 8 12 9 14 10 11 11 15 12
REMARK SMILES IDX 16 13 17 14 18 15 20 16 19 17 4 18 22 19 3 20 23 21 2 22
REMARK SMILES IDX 1 23
REMARK H PARENT 7 24 2 25
REMARK Flexibility Score: inf
ROOT
ATOM      1  N   UNL     1     142.843 135.746 141.876  1.00  0.00    -0.237 N 
ATOM      2  C   UNL     1     143.970 136.172 141.367  1.00  0.00     0.286 C 
ATOM      3  C   UNL     1     144.305 137.611 141.199  1.00  0.00     0.108 A 
ATOM      4  N   UNL     1     144.928 135.204 140.895  1.00  0.00    -0.250 N 
ATOM      5  C   UNL     1     141.746 136.537 142.363  1.00  0.00     0.168 A 
ATOM      6  C   UNL     1     140.445 136.017 142.236  1.00  0.00     0.056 A 
ATOM      7  C   UNL     1     141.940 137.708 143.125  1.00  0.00     0.173 A 
ATOM      8  C   UNL     1     139.359 136.650 142.844  1.00  0.00     0.005 A 
ATOM      9  C   UNL     1     140.850 138.316 143.760  1.00  0.00     0.052 A 
ATOM     10  O   UNL     1     143.191 138.299 143.272  1.00  0.00    -0.452 OA
ATOM     11  C   UNL     1     139.563 137.796 143.613  1.00  0.00     0.004 A 
ATOM     12  C   UNL     1     144.014 138.575 142.184  1.00  0.00     0.143 A 
ATOM     13  C   UNL     1     144.547 139.865 142.080  1.00  0.00     0.049 A 
ATOM     14  C   UNL     1     145.324 140.226 140.978  1.00  0.00     0.024 A 
ATOM     15  C   UNL     1     145.582 139.293 139.975  1.00  0.00     0.042 A 
ATOM     16  C   UNL     1     145.083 137.992 140.087  1.00  0.00     0.041 A 
ATOM     17  Cl  UNL     1     146.557 139.741 138.587  1.00  0.00    -0.084 Cl
ATOM     18  C   UNL     1     146.265 135.154 141.491  1.00  0.00     0.298 C 
ATOM     19  C   UNL     1     144.510 134.096 140.035  1.00  0.00     0.298 C 
ATOM     20  C   UNL     1     147.309 134.833 140.413  1.00  0.00     0.308 C 
ATOM     21  C   UNL     1     145.597 133.803 138.992  1.00  0.00     0.308 C 
ATOM     22  N   UNL     1     146.942 133.656 139.592  1.00  0.00    -0.331 N 
ATOM     23  C   UNL     1     147.087 132.390 140.336  1.00  0.00     0.332 C 
ATOM     24  H   UNL     1     142.692 134.712 141.906  1.00  0.00     0.312 HD
ATOM     25  H   UNL     1     147.626 133.613 138.799  1.00  0.00     0.348 HD
ENDROOT
TORSDOF 0
ENDMDL
MODEL 5
REMARK VINA RESULT:    -6.694      7.211      9.099
REMARK INTER + INTRA:          -6.694
REMARK INTER:                  -6.694
REMARK INTRA:                   0.000
REMARK UNBOUND:                 0.000
REMARK SMILES C[NH+]1CCN(C2=[NH+]c3ccccc3Oc3ccc(Cl)cc32)CC1
REMARK SMILES IDX 7 1 6 2 21 3 5 4 8 5 9 6 13 7 10 8 12 9 14 10 11 11 15 12
REMARK SMILES IDX 16 13 17 14 18 15 20 16 19 17 4 18 22 19 3 20 23 21 2 22
REMARK SMILES IDX 1 23
REMARK H PARENT 7 24 2 25
REMARK Flexibility Score: inf
ROOT
ATOM      1  N   UNL     1     142.656 135.416 144.484  1.00  0.00    -0.237 N 
ATOM      2  C   UNL     1     141.405 135.074 144.652  1.00  0.00     0.286 C 
ATOM      3  C   UNL     1     140.257 135.908 144.208  1.00  0.00     0.108 A 
ATOM      4  N   UNL     1     141.109 133.847 145.348  1.00  0.00    -0.250 N 
ATOM      5  C   UNL     1     143.163 136.608 143.860  1.00  0.00     0.168 A 
ATOM      6  C   UNL     1     144.378 137.137 144.329  1.00  0.00     0.056 A 
ATOM      7  C   UNL     1     142.595 137.145 142.686  1.00  0.00     0.173 A 
ATOM      8  C   UNL     1     145.012 138.183 143.654  1.00  0.00     0.005 A 
ATOM      9  C   UNL     1     143.255 138.171 141.997  1.00  0.00     0.052 A 
ATOM     10  O   UNL     1     141.381 136.696 142.176  1.00  0.00    -0.452 OA
ATOM     11  C   UNL     1     144.453 138.695 142.484  1.00  0.00     0.004 A 
ATOM     12  C   UNL     1     140.242 136.576 142.968  1.00  0.00     0.143 A 
ATOM     13  C   UNL     1     139.058 137.158 142.500  1.00  0.00     0.049 A 
ATOM     14  C   UNL     1     137.899 137.131 143.277  1.00  0.00     0.024 A 
ATOM     15  C   UNL     1     137.914 136.512 144.526  1.00  0.00     0.042 A 
ATOM     16  C   UNL     1     139.082 135.898 144.986  1.00  0.00     0.041 A 
ATOM     17  Cl  UNL     1     136.460 136.477 145.507  1.00  0.00    -0.084 Cl
ATOM     18  C   UNL     1     140.362 132.787 144.666  1.00  0.00     0.298 C 
ATOM     19  C   UNL     1     141.772 133.526 146.612  1.00  0.00     0.298 C 
ATOM     20  C   UNL     1     139.416 132.092 145.654  1.00  0.00     0.308 C 
ATOM     21  C   UNL     1     140.789 132.814 147.553  1.00  0.00     0.308 C 
ATOM     22  N   UNL     1     140.094 131.679 146.904  1.00  0.00    -0.331 N 
ATOM     23  C   UNL     1     140.987 130.522 146.698  1.00  0.00     0.332 C 
ATOM     24  H   UNL     1     143.385 134.776 144.875  1.00  0.00     0.312 HD
ATOM     25  H   UNL     1     139.346 131.362 147.565  1.00  0.00     0.348 HD
ENDROOT
TORSDOF 0
ENDMDL
MODEL 6
REMARK VINA RESULT:    -6.561      7.369      8.499
REMARK INTER + INTRA:          -6.561
REMARK INTER:                  -6.561
REMARK INTRA:                   0.000
REMARK UNBOUND:                 0.000
REMARK SMILES C[NH+]1CCN(C2=[NH+]c3ccccc3Oc3ccc(Cl)cc32)CC1
REMARK SMILES IDX 7 1 6 2 21 3 5 4 8 5 9 6 13 7 10 8 12 9 14 10 11 11 15 12
REMARK SMILES IDX 16 13 17 14 18 15 20 16 19 17 4 18 22 19 3 20 23 21 2 22
REMARK SMILES IDX 1 23
REMARK H PARENT 7 24 2 25
REMARK Flexibility Score: inf
ROOT
ATOM      1  N   UNL     1     142.288 124.797 144.190  1.00  0.00    -0.237 N 
ATOM      2  C   UNL     1     141.729 123.973 143.343  1.00  0.00     0.286 C 
ATOM      3  C   UNL     1     142.446 123.364 142.191  1.00  0.00     0.108 A 
ATOM      4  N   UNL     1     140.328 123.666 143.495  1.00  0.00    -0.250 N 
ATOM      5  C   UNL     1     143.648 125.263 144.192  1.00  0.00     0.168 A 
ATOM      6  C   UNL     1     143.905 126.558 144.677  1.00  0.00     0.056 A 
ATOM      7  C   UNL     1     144.738 124.412 143.912  1.00  0.00     0.173 A 
ATOM      8  C   UNL     1     145.215 127.003 144.871  1.00  0.00     0.005 A 
ATOM      9  C   UNL     1     146.046 124.855 144.142  1.00  0.00     0.052 A 
ATOM     10  O   UNL     1     144.565 123.130 143.401  1.00  0.00    -0.452 OA
ATOM     11  C   UNL     1     146.285 126.148 144.610  1.00  0.00     0.004 A 
ATOM     12  C   UNL     1     143.762 122.873 142.294  1.00  0.00     0.143 A 
ATOM     13  C   UNL     1     144.308 122.111 141.254  1.00  0.00     0.049 A 
ATOM     14  C   UNL     1     143.578 121.876 140.088  1.00  0.00     0.024 A 
ATOM     15  C   UNL     1     142.291 122.394 139.957  1.00  0.00     0.042 A 
ATOM     16  C   UNL     1     141.725 123.127 141.004  1.00  0.00     0.041 A 
ATOM     17  Cl  UNL     1     141.371 122.102 138.492  1.00  0.00    -0.084 Cl
ATOM     18  C   UNL     1     139.908 122.283 143.725  1.00  0.00     0.298 C 
ATOM     19  C   UNL     1     139.348 124.733 143.701  1.00  0.00     0.298 C 
ATOM     20  C   UNL     1     138.589 122.005 142.991  1.00  0.00     0.308 C 
ATOM     21  C   UNL     1     138.044 124.396 142.966  1.00  0.00     0.308 C 
ATOM     22  N   UNL     1     137.555 123.030 143.264  1.00  0.00    -0.331 N 
ATOM     23  C   UNL     1     137.004 122.918 144.628  1.00  0.00     0.332 C 
ATOM     24  H   UNL     1     141.679 125.203 144.937  1.00  0.00     0.312 HD
ATOM     25  H   UNL     1     136.760 122.841 142.607  1.00  0.00     0.348 HD
ENDROOT
TORSDOF 0
ENDMDL
MODEL 7
REMARK VINA RESULT:    -6.542      3.525      4.902
REMARK INTER + INTRA:          -6.542
REMARK INTER:                  -6.542
REMARK INTRA:                   0.000
REMARK UNBOUND:                 0.000
REMARK SMILES C[NH+]1CCN(C2=[NH+]c3ccccc3Oc3ccc(Cl)cc32)CC1
REMARK SMILES IDX 7 1 6 2 21 3 5 4 8 5 9 6 13 7 10 8 12 9 14 10 11 11 15 12
REMARK SMILES IDX 16 13 17 14 18 15 20 16 19 17 4 18 22 19 3 20 23 21 2 22
REMARK SMILES IDX 1 23
REMARK H PARENT 7 24 2 25
REMARK Flexibility Score: inf
ROOT
ATOM      1  N   UNL     1     143.177 131.613 147.016  1.00  0.00    -0.237 N 
ATOM      2  C   UNL     1     141.901 131.899 146.974  1.00  0.00     0.286 C 
ATOM      3  C   UNL     1     140.844 131.034 147.561  1.00  0.00     0.108 A 
ATOM      4  N   UNL     1     141.480 133.091 146.281  1.00  0.00    -0.250 N 
ATOM      5  C   UNL     1     143.799 130.463 147.614  1.00  0.00     0.168 A 
ATOM      6  C   UNL     1     144.979 129.968 147.031  1.00  0.00     0.056 A 
ATOM      7  C   UNL     1     143.382 129.941 148.856  1.00  0.00     0.173 A 
ATOM      8  C   UNL     1     145.725 128.970 147.663  1.00  0.00     0.005 A 
ATOM      9  C   UNL     1     144.155 128.965 149.498  1.00  0.00     0.052 A 
ATOM     10  O   UNL     1     142.210 130.357 149.481  1.00  0.00    -0.452 OA
ATOM     11  C   UNL     1     145.316 128.474 148.900  1.00  0.00     0.004 A 
ATOM     12  C   UNL     1     140.990 130.406 148.813  1.00  0.00     0.143 A 
ATOM     13  C   UNL     1     139.889 129.792 149.421  1.00  0.00     0.049 A 
ATOM     14  C   UNL     1     138.653 129.748 148.773  1.00  0.00     0.024 A 
ATOM     15  C   UNL     1     138.509 130.326 147.513  1.00  0.00     0.042 A 
ATOM     16  C   UNL     1     139.594 130.972 146.913  1.00  0.00     0.041 A 
ATOM     17  Cl  UNL     1     136.959 130.272 146.693  1.00  0.00    -0.084 Cl
ATOM     18  C   UNL     1     140.765 134.140 147.009  1.00  0.00     0.298 C 
ATOM     19  C   UNL     1     141.991 133.398 144.944  1.00  0.00     0.298 C 
ATOM     20  C   UNL     1     139.690 134.766 146.110  1.00  0.00     0.308 C 
ATOM     21  C   UNL     1     140.884 134.039 144.095  1.00  0.00     0.308 C 
ATOM     22  N   UNL     1     140.214 135.166 144.784  1.00  0.00    -0.331 N 
ATOM     23  C   UNL     1     141.072 136.364 144.861  1.00  0.00     0.332 C 
ATOM     24  H   UNL     1     143.831 132.269 146.531  1.00  0.00     0.312 HD
ATOM     25  H   UNL     1     139.386 135.432 144.198  1.00  0.00     0.348 HD
ENDROOT
TORSDOF 0
ENDMDL
MODEL 8
REMARK VINA RESULT:    -6.524      3.186      5.469
REMARK INTER + INTRA:          -6.524
REMARK INTER:                  -6.524
REMARK INTRA:                   0.000
REMARK UNBOUND:                 0.000
REMARK SMILES C[NH+]1CCN(C2=[NH+]c3ccccc3Oc3ccc(Cl)cc32)CC1
REMARK SMILES IDX 7 1 6 2 21 3 5 4 8 5 9 6 13 7 10 8 12 9 14 10 11 11 15 12
REMARK SMILES IDX 16 13 17 14 18 15 20 16 19 17 4 18 22 19 3 20 23 21 2 22
REMARK SMILES IDX 1 23
REMARK H PARENT 7 24 2 25
REMARK Flexibility Score: inf
ROOT
ATOM      1  N   UNL     1     143.118 130.388 148.280  1.00  0.00    -0.237 N 
ATOM      2  C   UNL     1     142.097 130.673 147.514  1.00  0.00     0.286 C 
ATOM      3  C   UNL     1     140.737 130.107 147.712  1.00  0.00     0.108 A 
ATOM      4  N   UNL     1     142.300 131.545 146.384  1.00  0.00    -0.250 N 
ATOM      5  C   UNL     1     143.141 129.516 149.423  1.00  0.00     0.168 A 
ATOM      6  C   UNL     1     144.327 128.813 149.698  1.00  0.00     0.056 A 
ATOM      7  C   UNL     1     142.098 129.489 150.372  1.00  0.00     0.173 A 
ATOM      8  C   UNL     1     144.473 128.091 150.885  1.00  0.00     0.005 A 
ATOM      9  C   UNL     1     142.266 128.790 151.575  1.00  0.00     0.052 A 
ATOM     10  O   UNL     1     140.883 130.134 150.159  1.00  0.00    -0.452 OA
ATOM     11  C   UNL     1     143.445 128.086 151.826  1.00  0.00     0.004 A 
ATOM     12  C   UNL     1     140.152 129.970 148.986  1.00  0.00     0.143 A 
ATOM     13  C   UNL     1     138.795 129.646 149.103  1.00  0.00     0.049 A 
ATOM     14  C   UNL     1     138.023 129.403 147.966  1.00  0.00     0.024 A 
ATOM     15  C   UNL     1     138.602 129.491 146.701  1.00  0.00     0.042 A 
ATOM     16  C   UNL     1     139.948 129.848 146.573  1.00  0.00     0.041 A 
ATOM     17  Cl  UNL     1     137.636 129.186 145.269  1.00  0.00    -0.084 Cl
ATOM     18  C   UNL     1     141.560 132.805 146.297  1.00  0.00     0.298 C 
ATOM     19  C   UNL     1     143.423 131.335 145.470  1.00  0.00     0.298 C 
ATOM     20  C   UNL     1     141.179 133.091 144.838  1.00  0.00     0.308 C 
ATOM     21  C   UNL     1     142.995 131.655 144.031  1.00  0.00     0.308 C 
ATOM     22  N   UNL     1     142.328 132.971 143.912  1.00  0.00    -0.331 N 
ATOM     23  C   UNL     1     143.276 134.093 144.051  1.00  0.00     0.332 C 
ATOM     24  H   UNL     1     144.041 130.807 148.024  1.00  0.00     0.312 HD
ATOM     25  H   UNL     1     141.941 133.029 142.939  1.00  0.00     0.348 HD
ENDROOT
TORSDOF 0
ENDMDL
MODEL 9
REMARK VINA RESULT:    -4.490      3.712      5.147
REMARK INTER + INTRA:          -4.490
REMARK INTER:                  -4.490
REMARK INTRA:                   0.000
REMARK UNBOUND:                 0.000
REMARK SMILES C[NH+]1CCN(C2=[NH+]c3ccccc3Oc3ccc(Cl)cc32)CC1
REMARK SMILES IDX 7 1 6 2 21 3 5 4 8 5 9 6 13 7 10 8 12 9 14 10 11 11 15 12
REMARK SMILES IDX 16 13 17 14 18 15 20 16 19 17 4 18 22 19 3 20 23 21 2 22
REMARK SMILES IDX 1 23
REMARK H PARENT 7 24 2 25
REMARK Flexibility Score: inf
ROOT
ATOM      1  N   UNL     1     143.859 125.951 147.252  1.00  0.00    -0.237 N 
ATOM      2  C   UNL     1     144.251 127.109 147.718  1.00  0.00     0.286 C 
ATOM      3  C   UNL     1     145.411 127.864 147.174  1.00  0.00     0.108 A 
ATOM      4  N   UNL     1     143.560 127.672 148.850  1.00  0.00    -0.250 N 
ATOM      5  C   UNL     1     144.433 125.203 146.167  1.00  0.00     0.168 A 
ATOM      6  C   UNL     1     144.371 123.799 146.224  1.00  0.00     0.056 A 
ATOM      7  C   UNL     1     144.873 125.817 144.976  1.00  0.00     0.173 A 
ATOM      8  C   UNL     1     144.747 123.021 145.127  1.00  0.00     0.005 A 
ATOM      9  C   UNL     1     145.215 125.029 143.870  1.00  0.00     0.052 A 
ATOM     10  O   UNL     1     144.989 127.198 144.853  1.00  0.00    -0.452 OA
ATOM     11  C   UNL     1     145.162 123.637 143.947  1.00  0.00     0.004 A 
ATOM     12  C   UNL     1     145.663 127.973 145.793  1.00  0.00     0.143 A 
ATOM     13  C   UNL     1     146.627 128.874 145.325  1.00  0.00     0.049 A 
ATOM     14  C   UNL     1     147.384 129.631 146.220  1.00  0.00     0.024 A 
ATOM     15  C   UNL     1     147.175 129.499 147.592  1.00  0.00     0.042 A 
ATOM     16  C   UNL     1     146.191 128.627 148.067  1.00  0.00     0.041 A 
ATOM     17  Cl  UNL     1     148.125 130.447 148.722  1.00  0.00    -0.084 Cl
ATOM     18  C   UNL     1     142.894 128.970 148.723  1.00  0.00     0.298 C 
ATOM     19  C   UNL     1     143.273 126.857 150.032  1.00  0.00     0.298 C 
ATOM     20  C   UNL     1     143.043 129.767 150.026  1.00  0.00     0.308 C 
ATOM     21  C   UNL     1     143.416 127.706 151.302  1.00  0.00     0.308 C 
ATOM     22  N   UNL     1     142.668 128.983 151.225  1.00  0.00    -0.331 N 
ATOM     23  C   UNL     1     141.210 128.783 151.328  1.00  0.00     0.332 C 
ATOM     24  H   UNL     1     143.059 125.486 147.739  1.00  0.00     0.312 HD
ATOM     25  H   UNL     1     142.949 129.551 152.060  1.00  0.00     0.348 HD
ENDROOT
TORSDOF 0
ENDMDL
