MODEL 1
REMARK VINA RESULT:    -4.073      0.000      0.000
REMARK INTER + INTRA:          -9.308
REMARK INTER:                  -7.406
REMARK INTRA:                  -1.903
REMARK UNBOUND:                -1.903
REMARK SMILES CCCCCCCCCCCCCC[C@H](C)C(=O)[O-]
REMARK SMILES IDX 9 1 10 2 11 3 12 4 13 5 14 6 15 7 16 8 17 9 18 10 19 11 8 12
REMARK SMILES IDX 7 13 6 14 5 15 4 16 3 17 2 18 1 19
REMARK H PARENT
REMARK Flexibility Score: inf
ROOT
ATOM      1  C   UNL     1      22.931 -15.386  -2.212  1.00  0.00     0.000 C 
ENDROOT
BRANCH   1   2
ATOM      2  C   UNL     1      23.429 -14.203  -3.062  1.00  0.00     0.000 C 
BRANCH   2   3
ATOM      3  C   UNL     1      24.377 -13.270  -2.288  1.00  0.00     0.000 C 
BRANCH   3   4
ATOM      4  C   UNL     1      24.433 -13.506  -0.765  1.00  0.00     0.000 C 
BRANCH   4   5
ATOM      5  C   UNL     1      25.755 -13.108  -0.082  1.00  0.00     0.001 C 
BRANCH   5   6
ATOM      6  C   UNL     1      27.014 -13.843  -0.590  1.00  0.00     0.009 C 
BRANCH   6   7
ATOM      7  C   UNL     1      28.346 -13.206  -0.125  1.00  0.00     0.032 C 
ATOM      8  C   UNL     1      29.419 -13.341  -1.213  1.00  0.00     0.014 C 
BRANCH   7   9
ATOM      9  C   UNL     1      28.853 -13.822   1.150  1.00  0.00     0.044 C 
ATOM     10  O   UNL     1      29.017 -13.118   2.183  1.00  0.00    -0.550 OA
ATOM     11  O   UNL     1      29.107 -15.187   1.208  1.00  0.00    -0.550 OA
ENDBRANCH   7   9
ENDBRANCH   6   7
ENDBRANCH   5   6
ENDBRANCH   4   5
ENDBRANCH   3   4
ENDBRANCH   2   3
ENDBRANCH   1   2
BRANCH   1  12
ATOM     12  C   UNL     1      23.199 -16.745  -2.878  1.00  0.00     0.000 C 
BRANCH  12  13
ATOM     13  C   UNL     1      24.162 -16.636  -4.073  1.00  0.00    -0.000 C 
BRANCH  13  14
ATOM     14  C   UNL     1      25.580 -17.124  -3.737  1.00  0.00    -0.000 C 
BRANCH  14  15
ATOM     15  C   UNL     1      26.616 -15.991  -3.745  1.00  0.00    -0.000 C 
BRANCH  15  16
ATOM     16  C   UNL     1      27.853 -16.370  -2.918  1.00  0.00    -0.000 C 
BRANCH  16  17
ATOM     17  C   UNL     1      29.173 -16.089  -3.654  1.00  0.00    -0.000 C 
BRANCH  17  18
ATOM     18  C   UNL     1      30.402 -16.748  -2.992  1.00  0.00    -0.003 C 
ATOM     19  C   UNL     1      30.118 -17.199  -1.559  1.00  0.00     0.004 C 
ENDBRANCH  17  18
ENDBRANCH  16  17
ENDBRANCH  15  16
ENDBRANCH  14  15
ENDBRANCH  13  14
ENDBRANCH  12  13
ENDBRANCH   1  12
TORSDOF 14
ENDMDL
MODEL 2
REMARK VINA RESULT:    -3.983      1.738      4.226
REMARK INTER + INTRA:          -9.145
REMARK INTER:                  -7.272
REMARK INTRA:                  -1.873
REMARK UNBOUND:                -1.903
REMARK SMILES CCCCCCCCCCCCCC[C@H](C)C(=O)[O-]
REMARK SMILES IDX 9 1 10 2 11 3 12 4 13 5 14 6 15 7 16 8 17 9 18 10 19 11 8 12
REMARK SMILES IDX 7 13 6 14 5 15 4 16 3 17 2 18 1 19
REMARK H PARENT
REMARK Flexibility Score: inf
ROOT
ATOM      1  C   UNL     1      23.627 -16.257  -3.249  1.00  0.00     0.000 C 
ENDROOT
BRANCH   1   2
ATOM      2  C   UNL     1      24.804 -15.762  -4.108  1.00  0.00     0.000 C 
BRANCH   2   3
ATOM      3  C   UNL     1      26.142 -16.417  -3.721  1.00  0.00     0.000 C 
BRANCH   3   4
ATOM      4  C   UNL     1      27.383 -15.513  -3.870  1.00  0.00     0.000 C 
BRANCH   4   5
ATOM      5  C   UNL     1      28.685 -16.071  -3.263  1.00  0.00     0.001 C 
BRANCH   5   6
ATOM      6  C   UNL     1      28.548 -16.707  -1.864  1.00  0.00     0.009 C 
BRANCH   6   7
ATOM      7  C   UNL     1      29.762 -16.456  -0.936  1.00  0.00     0.032 C 
ATOM      8  C   UNL     1      30.742 -15.469  -1.583  1.00  0.00     0.014 C 
BRANCH   7   9
ATOM      9  C   UNL     1      30.489 -17.729  -0.599  1.00  0.00     0.044 C 
ATOM     10  O   UNL     1      30.804 -17.993   0.593  1.00  0.00    -0.550 OA
ATOM     11  O   UNL     1      30.785 -18.644  -1.601  1.00  0.00    -0.550 OA
ENDBRANCH   7   9
ENDBRANCH   6   7
ENDBRANCH   5   6
ENDBRANCH   4   5
ENDBRANCH   3   4
ENDBRANCH   2   3
ENDBRANCH   1   2
BRANCH   1  12
ATOM     12  C   UNL     1      23.247 -15.261  -2.140  1.00  0.00     0.000 C 
BRANCH  12  13
ATOM     13  C   UNL     1      23.961 -13.906  -2.294  1.00  0.00    -0.000 C 
BRANCH  13  14
ATOM     14  C   UNL     1      24.678 -13.466  -1.008  1.00  0.00    -0.000 C 
BRANCH  14  15
ATOM     15  C   UNL     1      26.207 -13.468  -1.149  1.00  0.00    -0.000 C 
BRANCH  15  16
ATOM     16  C   UNL     1      26.882 -13.857   0.173  1.00  0.00    -0.000 C 
BRANCH  16  17
ATOM     17  C   UNL     1      28.318 -13.322   0.293  1.00  0.00    -0.000 C 
BRANCH  17  18
ATOM     18  C   UNL     1      28.882 -13.380   1.728  1.00  0.00    -0.003 C 
ATOM     19  C   UNL     1      29.930 -12.295   1.985  1.00  0.00     0.004 C 
ENDBRANCH  17  18
ENDBRANCH  16  17
ENDBRANCH  15  16
ENDBRANCH  14  15
ENDBRANCH  13  14
ENDBRANCH  12  13
ENDBRANCH   1  12
TORSDOF 14
ENDMDL
MODEL 3
REMARK VINA RESULT:    -3.927      1.147      4.296
REMARK INTER + INTRA:          -9.043
REMARK INTER:                  -7.081
REMARK INTRA:                  -1.962
REMARK UNBOUND:                -1.903
REMARK SMILES CCCCCCCCCCCCCC[C@H](C)C(=O)[O-]
REMARK SMILES IDX 9 1 10 2 11 3 12 4 13 5 14 6 15 7 16 8 17 9 18 10 19 11 8 12
REMARK SMILES IDX 7 13 6 14 5 15 4 16 3 17 2 18 1 19
REMARK H PARENT
REMARK Flexibility Score: inf
ROOT
ATOM      1  C   UNL     1      27.679 -16.611  -2.617  1.00  0.00     0.000 C 
ENDROOT
BRANCH   1   2
ATOM      2  C   UNL     1      29.077 -15.970  -2.579  1.00  0.00     0.000 C 
BRANCH   2   3
ATOM      3  C   UNL     1      29.067 -14.491  -3.003  1.00  0.00     0.000 C 
BRANCH   3   4
ATOM      4  C   UNL     1      30.305 -13.677  -2.575  1.00  0.00     0.000 C 
BRANCH   4   5
ATOM      5  C   UNL     1      30.039 -12.555  -1.552  1.00  0.00     0.001 C 
BRANCH   5   6
ATOM      6  C   UNL     1      30.437 -12.875  -0.096  1.00  0.00     0.009 C 
BRANCH   6   7
ATOM      7  C   UNL     1      29.266 -13.388   0.779  1.00  0.00     0.032 C 
ATOM      8  C   UNL     1      29.364 -12.819   2.200  1.00  0.00     0.014 C 
BRANCH   7   9
ATOM      9  C   UNL     1      29.227 -14.890   0.847  1.00  0.00     0.044 C 
ATOM     10  O   UNL     1      28.128 -15.500   0.943  1.00  0.00    -0.550 OA
ATOM     11  O   UNL     1      30.407 -15.619   0.764  1.00  0.00    -0.550 OA
ENDBRANCH   7   9
ENDBRANCH   6   7
ENDBRANCH   5   6
ENDBRANCH   4   5
ENDBRANCH   3   4
ENDBRANCH   2   3
ENDBRANCH   1   2
BRANCH   1  12
ATOM     12  C   UNL     1      26.771 -15.982  -3.687  1.00  0.00     0.000 C 
BRANCH  12  13
ATOM     13  C   UNL     1      25.567 -16.874  -4.037  1.00  0.00    -0.000 C 
BRANCH  13  14
ATOM     14  C   UNL     1      24.239 -16.099  -4.044  1.00  0.00    -0.000 C 
BRANCH  14  15
ATOM     15  C   UNL     1      23.286 -16.542  -2.926  1.00  0.00    -0.000 C 
BRANCH  15  16
ATOM     16  C   UNL     1      23.034 -15.400  -1.932  1.00  0.00    -0.000 C 
BRANCH  16  17
ATOM     17  C   UNL     1      23.859 -14.141  -2.245  1.00  0.00    -0.000 C 
BRANCH  17  18
ATOM     18  C   UNL     1      24.490 -13.488  -0.997  1.00  0.00    -0.003 C 
ATOM     19  C   UNL     1      26.019 -13.488  -1.052  1.00  0.00     0.004 C 
ENDBRANCH  17  18
ENDBRANCH  16  17
ENDBRANCH  15  16
ENDBRANCH  14  15
ENDBRANCH  13  14
ENDBRANCH  12  13
ENDBRANCH   1  12
TORSDOF 14
ENDMDL
MODEL 4
REMARK VINA RESULT:    -3.859      1.266      3.977
REMARK INTER + INTRA:          -8.920
REMARK INTER:                  -6.986
REMARK INTRA:                  -1.934
REMARK UNBOUND:                -1.903
REMARK SMILES CCCCCCCCCCCCCC[C@H](C)C(=O)[O-]
REMARK SMILES IDX 9 1 10 2 11 3 12 4 13 5 14 6 15 7 16 8 17 9 18 10 19 11 8 12
REMARK SMILES IDX 7 13 6 14 5 15 4 16 3 17 2 18 1 19
REMARK H PARENT
REMARK Flexibility Score: inf
ROOT
ATOM      1  C   UNL     1      26.747 -16.613  -3.069  1.00  0.00     0.000 C 
ENDROOT
BRANCH   1   2
ATOM      2  C   UNL     1      27.665 -15.700  -3.902  1.00  0.00     0.000 C 
BRANCH   2   3
ATOM      3  C   UNL     1      28.993 -15.381  -3.193  1.00  0.00     0.000 C 
BRANCH   3   4
ATOM      4  C   UNL     1      29.267 -13.882  -2.957  1.00  0.00     0.000 C 
BRANCH   4   5
ATOM      5  C   UNL     1      30.491 -13.564  -2.075  1.00  0.00     0.001 C 
BRANCH   5   6
ATOM      6  C   UNL     1      30.243 -12.556  -0.933  1.00  0.00     0.009 C 
BRANCH   6   7
ATOM      7  C   UNL     1      30.647 -13.080   0.467  1.00  0.00     0.032 C 
ATOM      8  C   UNL     1      30.506 -14.606   0.536  1.00  0.00     0.014 C 
BRANCH   7   9
ATOM      9  C   UNL     1      29.827 -12.456   1.563  1.00  0.00     0.044 C 
ATOM     10  O   UNL     1      29.839 -11.209   1.743  1.00  0.00    -0.550 OA
ATOM     11  O   UNL     1      29.017 -13.254   2.362  1.00  0.00    -0.550 OA
ENDBRANCH   7   9
ENDBRANCH   6   7
ENDBRANCH   5   6
ENDBRANCH   4   5
ENDBRANCH   3   4
ENDBRANCH   2   3
ENDBRANCH   1   2
BRANCH   1  12
ATOM     12  C   UNL     1      25.606 -17.220  -3.901  1.00  0.00     0.000 C 
BRANCH  12  13
ATOM     13  C   UNL     1      24.361 -16.317  -3.942  1.00  0.00    -0.000 C 
BRANCH  13  14
ATOM     14  C   UNL     1      23.323 -16.692  -2.872  1.00  0.00    -0.000 C 
BRANCH  14  15
ATOM     15  C   UNL     1      22.940 -15.507  -1.974  1.00  0.00    -0.000 C 
BRANCH  15  16
ATOM     16  C   UNL     1      23.728 -14.247  -2.359  1.00  0.00    -0.000 C 
BRANCH  16  17
ATOM     17  C   UNL     1      24.452 -13.605  -1.164  1.00  0.00    -0.000 C 
BRANCH  17  18
ATOM     18  C   UNL     1      25.971 -13.436  -1.379  1.00  0.00    -0.003 C 
ATOM     19  C   UNL     1      26.775 -13.749  -0.115  1.00  0.00     0.004 C 
ENDBRANCH  17  18
ENDBRANCH  16  17
ENDBRANCH  15  16
ENDBRANCH  14  15
ENDBRANCH  13  14
ENDBRANCH  12  13
ENDBRANCH   1  12
TORSDOF 14
ENDMDL
MODEL 5
REMARK VINA RESULT:    -3.846      1.282      2.014
REMARK INTER + INTRA:          -8.897
REMARK INTER:                  -7.028
REMARK INTRA:                  -1.868
REMARK UNBOUND:                -1.903
REMARK SMILES CCCCCCCCCCCCCC[C@H](C)C(=O)[O-]
REMARK SMILES IDX 9 1 10 2 11 3 12 4 13 5 14 6 15 7 16 8 17 9 18 10 19 11 8 12
REMARK SMILES IDX 7 13 6 14 5 15 4 16 3 17 2 18 1 19
REMARK H PARENT
REMARK Flexibility Score: inf
ROOT
ATOM      1  C   UNL     1      24.323 -14.733  -3.206  1.00  0.00     0.000 C 
ENDROOT
BRANCH   1   2
ATOM      2  C   UNL     1      23.638 -14.359  -1.880  1.00  0.00     0.000 C 
BRANCH   2   3
ATOM      3  C   UNL     1      24.545 -13.531  -0.952  1.00  0.00     0.000 C 
BRANCH   3   4
ATOM      4  C   UNL     1      26.048 -13.573  -1.296  1.00  0.00     0.000 C 
BRANCH   4   5
ATOM      5  C   UNL     1      27.004 -13.558  -0.087  1.00  0.00     0.001 C 
BRANCH   5   6
ATOM      6  C   UNL     1      28.498 -13.367  -0.424  1.00  0.00     0.009 C 
BRANCH   6   7
ATOM      7  C   UNL     1      29.436 -13.447   0.806  1.00  0.00     0.032 C 
ATOM      8  C   UNL     1      28.797 -14.286   1.919  1.00  0.00     0.014 C 
BRANCH   7   9
ATOM      9  C   UNL     1      29.779 -12.085   1.345  1.00  0.00     0.044 C 
ATOM     10  O   UNL     1      29.596 -11.811   2.561  1.00  0.00    -0.550 OA
ATOM     11  O   UNL     1      30.339 -11.129   0.507  1.00  0.00    -0.550 OA
ENDBRANCH   7   9
ENDBRANCH   6   7
ENDBRANCH   5   6
ENDBRANCH   4   5
ENDBRANCH   3   4
ENDBRANCH   2   3
ENDBRANCH   1   2
BRANCH   1  12
ATOM     12  C   UNL     1      24.367 -16.252  -3.440  1.00  0.00     0.000 C 
BRANCH  12  13
ATOM     13  C   UNL     1      25.787 -16.761  -3.742  1.00  0.00    -0.000 C 
BRANCH  13  14
ATOM     14  C   UNL     1      26.805 -15.619  -3.892  1.00  0.00    -0.000 C 
BRANCH  14  15
ATOM     15  C   UNL     1      28.249 -16.071  -3.626  1.00  0.00    -0.000 C 
BRANCH  15  16
ATOM     16  C   UNL     1      28.419 -16.545  -2.176  1.00  0.00    -0.000 C 
BRANCH  16  17
ATOM     17  C   UNL     1      29.756 -17.266  -1.935  1.00  0.00    -0.000 C 
BRANCH  17  18
ATOM     18  C   UNL     1      30.675 -16.544  -0.928  1.00  0.00    -0.003 C 
ATOM     19  C   UNL     1      30.616 -17.171   0.466  1.00  0.00     0.004 C 
ENDBRANCH  17  18
ENDBRANCH  16  17
ENDBRANCH  15  16
ENDBRANCH  14  15
ENDBRANCH  13  14
ENDBRANCH  12  13
ENDBRANCH   1  12
TORSDOF 14
ENDMDL
MODEL 6
REMARK VINA RESULT:    -3.680      1.727      5.317
REMARK INTER + INTRA:          -8.595
REMARK INTER:                  -6.785
REMARK INTRA:                  -1.810
REMARK UNBOUND:                -1.903
REMARK SMILES CCCCCCCCCCCCCC[C@H](C)C(=O)[O-]
REMARK SMILES IDX 9 1 10 2 11 3 12 4 13 5 14 6 15 7 16 8 17 9 18 10 19 11 8 12
REMARK SMILES IDX 7 13 6 14 5 15 4 16 3 17 2 18 1 19
REMARK H PARENT
REMARK Flexibility Score: inf
ROOT
ATOM      1  C   UNL     1      28.304 -14.579   0.767  1.00  0.00     0.000 C 
ENDROOT
BRANCH   1   2
ATOM      2  C   UNL     1      29.737 -14.055   0.563  1.00  0.00     0.000 C 
BRANCH   2   3
ATOM      3  C   UNL     1      29.794 -12.809  -0.340  1.00  0.00     0.000 C 
BRANCH   3   4
ATOM      4  C   UNL     1      30.475 -13.020  -1.707  1.00  0.00     0.000 C 
BRANCH   4   5
ATOM      5  C   UNL     1      29.935 -14.199  -2.541  1.00  0.00     0.001 C 
BRANCH   5   6
ATOM      6  C   UNL     1      30.786 -15.487  -2.499  1.00  0.00     0.009 C 
BRANCH   6   7
ATOM      7  C   UNL     1      29.953 -16.792  -2.517  1.00  0.00     0.032 C 
ATOM      8  C   UNL     1      28.460 -16.484  -2.344  1.00  0.00     0.014 C 
BRANCH   7   9
ATOM      9  C   UNL     1      30.388 -17.756  -1.447  1.00  0.00     0.044 C 
ATOM     10  O   UNL     1      30.396 -17.409  -0.236  1.00  0.00    -0.550 OA
ATOM     11  O   UNL     1      30.747 -19.054  -1.788  1.00  0.00    -0.550 OA
ENDBRANCH   7   9
ENDBRANCH   6   7
ENDBRANCH   5   6
ENDBRANCH   4   5
ENDBRANCH   3   4
ENDBRANCH   2   3
ENDBRANCH   1   2
BRANCH   1  12
ATOM     12  C   UNL     1      27.238 -13.522   0.436  1.00  0.00     0.000 C 
BRANCH  12  13
ATOM     13  C   UNL     1      26.454 -13.856  -0.846  1.00  0.00    -0.000 C 
BRANCH  13  14
ATOM     14  C   UNL     1      25.042 -13.249  -0.851  1.00  0.00    -0.000 C 
BRANCH  14  15
ATOM     15  C   UNL     1      24.021 -14.127  -1.589  1.00  0.00    -0.000 C 
BRANCH  15  16
ATOM     16  C   UNL     1      23.645 -13.513  -2.944  1.00  0.00    -0.000 C 
BRANCH  16  17
ATOM     17  C   UNL     1      23.902 -14.464  -4.125  1.00  0.00    -0.000 C 
BRANCH  17  18
ATOM     18  C   UNL     1      25.182 -15.312  -3.968  1.00  0.00    -0.003 C 
ATOM     19  C   UNL     1      24.875 -16.797  -3.767  1.00  0.00     0.004 C 
ENDBRANCH  17  18
ENDBRANCH  16  17
ENDBRANCH  15  16
ENDBRANCH  14  15
ENDBRANCH  13  14
ENDBRANCH  12  13
ENDBRANCH   1  12
TORSDOF 14
ENDMDL
MODEL 7
REMARK VINA RESULT:    -3.663      2.742      5.950
REMARK INTER + INTRA:          -8.563
REMARK INTER:                  -6.811
REMARK INTRA:                  -1.753
REMARK UNBOUND:                -1.903
REMARK SMILES CCCCCCCCCCCCCC[C@H](C)C(=O)[O-]
REMARK SMILES IDX 9 1 10 2 11 3 12 4 13 5 14 6 15 7 16 8 17 9 18 10 19 11 8 12
REMARK SMILES IDX 7 13 6 14 5 15 4 16 3 17 2 18 1 19
REMARK H PARENT
REMARK Flexibility Score: inf
ROOT
ATOM      1  C   UNL     1      29.550 -16.083  -2.785  1.00  0.00     0.000 C 
ENDROOT
BRANCH   1   2
ATOM      2  C   UNL     1      28.172 -16.530  -2.267  1.00  0.00     0.000 C 
BRANCH   2   3
ATOM      3  C   UNL     1      27.018 -15.682  -2.834  1.00  0.00     0.000 C 
BRANCH   3   4
ATOM      4  C   UNL     1      26.908 -14.256  -2.259  1.00  0.00     0.000 C 
BRANCH   4   5
ATOM      5  C   UNL     1      25.844 -14.065  -1.160  1.00  0.00     0.001 C 
BRANCH   5   6
ATOM      6  C   UNL     1      24.473 -13.549  -1.645  1.00  0.00     0.009 C 
BRANCH   6   7
ATOM      7  C   UNL     1      24.029 -14.130  -3.010  1.00  0.00     0.032 C 
ATOM      8  C   UNL     1      23.031 -13.190  -3.699  1.00  0.00     0.014 C 
BRANCH   7   9
ATOM      9  C   UNL     1      23.411 -15.494  -2.871  1.00  0.00     0.044 C 
ATOM     10  O   UNL     1      23.614 -16.383  -3.740  1.00  0.00    -0.550 OA
ATOM     11  O   UNL     1      22.641 -15.795  -1.754  1.00  0.00    -0.550 OA
ENDBRANCH   7   9
ENDBRANCH   6   7
ENDBRANCH   5   6
ENDBRANCH   4   5
ENDBRANCH   3   4
ENDBRANCH   2   3
ENDBRANCH   1   2
BRANCH   1  12
ATOM     12  C   UNL     1      30.584 -15.934  -1.657  1.00  0.00     0.000 C 
BRANCH  12  13
ATOM     13  C   UNL     1      30.075 -16.489  -0.314  1.00  0.00    -0.000 C 
BRANCH  13  14
ATOM     14  C   UNL     1      30.010 -15.415   0.783  1.00  0.00    -0.000 C 
BRANCH  14  15
ATOM     15  C   UNL     1      28.571 -15.043   1.166  1.00  0.00    -0.000 C 
BRANCH  15  16
ATOM     16  C   UNL     1      28.341 -13.530   1.042  1.00  0.00    -0.000 C 
BRANCH  16  17
ATOM     17  C   UNL     1      29.502 -12.804   0.340  1.00  0.00    -0.000 C 
BRANCH  17  18
ATOM     18  C   UNL     1      30.050 -11.600   1.136  1.00  0.00    -0.003 C 
ATOM     19  C   UNL     1      30.063 -11.858   2.644  1.00  0.00     0.004 C 
ENDBRANCH  17  18
ENDBRANCH  16  17
ENDBRANCH  15  16
ENDBRANCH  14  15
ENDBRANCH  13  14
ENDBRANCH  12  13
ENDBRANCH   1  12
TORSDOF 14
ENDMDL
MODEL 8
REMARK VINA RESULT:    -3.432      1.925      5.170
REMARK INTER + INTRA:          -8.143
REMARK INTER:                  -6.390
REMARK INTRA:                  -1.753
REMARK UNBOUND:                -1.903
REMARK SMILES CCCCCCCCCCCCCC[C@H](C)C(=O)[O-]
REMARK SMILES IDX 9 1 10 2 11 3 12 4 13 5 14 6 15 7 16 8 17 9 18 10 19 11 8 12
REMARK SMILES IDX 7 13 6 14 5 15 4 16 3 17 2 18 1 19
REMARK H PARENT
REMARK Flexibility Score: inf
ROOT
ATOM      1  C   UNL     1      28.572 -16.024  -2.705  1.00  0.00     0.000 C 
ENDROOT
BRANCH   1   2
ATOM      2  C   UNL     1      27.285 -16.861  -2.816  1.00  0.00     0.000 C 
BRANCH   2   3
ATOM      3  C   UNL     1      26.256 -16.248  -3.782  1.00  0.00     0.000 C 
BRANCH   3   4
ATOM      4  C   UNL     1      24.885 -16.954  -3.816  1.00  0.00     0.000 C 
BRANCH   4   5
ATOM      5  C   UNL     1      23.663 -16.037  -3.611  1.00  0.00     0.001 C 
BRANCH   5   6
ATOM      6  C   UNL     1      23.460 -15.511  -2.175  1.00  0.00     0.009 C 
BRANCH   6   7
ATOM      7  C   UNL     1      23.582 -13.972  -2.044  1.00  0.00     0.032 C 
ATOM      8  C   UNL     1      23.606 -13.313  -3.429  1.00  0.00     0.014 C 
BRANCH   7   9
ATOM      9  C   UNL     1      24.812 -13.566  -1.280  1.00  0.00     0.044 C 
ATOM     10  O   UNL     1      25.961 -13.818  -1.731  1.00  0.00    -0.550 OA
ATOM     11  O   UNL     1      24.686 -12.869  -0.084  1.00  0.00    -0.550 OA
ENDBRANCH   7   9
ENDBRANCH   6   7
ENDBRANCH   5   6
ENDBRANCH   4   5
ENDBRANCH   3   4
ENDBRANCH   2   3
ENDBRANCH   1   2
BRANCH   1  12
ATOM     12  C   UNL     1      28.711 -15.003  -3.846  1.00  0.00     0.000 C 
BRANCH  12  13
ATOM     13  C   UNL     1      29.613 -13.816  -3.468  1.00  0.00    -0.000 C 
BRANCH  13  14
ATOM     14  C   UNL     1      30.445 -14.084  -2.203  1.00  0.00    -0.000 C 
BRANCH  14  15
ATOM     15  C   UNL     1      30.717 -12.811  -1.390  1.00  0.00    -0.000 C 
BRANCH  15  16
ATOM     16  C   UNL     1      30.211 -12.960   0.052  1.00  0.00    -0.000 C 
BRANCH  16  17
ATOM     17  C   UNL     1      28.678 -12.891   0.158  1.00  0.00    -0.000 C 
BRANCH  17  18
ATOM     18  C   UNL     1      28.084 -13.884   1.178  1.00  0.00    -0.003 C 
ATOM     19  C   UNL     1      28.314 -15.341   0.774  1.00  0.00     0.004 C 
ENDBRANCH  17  18
ENDBRANCH  16  17
ENDBRANCH  15  16
ENDBRANCH  14  15
ENDBRANCH  13  14
ENDBRANCH  12  13
ENDBRANCH   1  12
TORSDOF 14
ENDMDL
MODEL 9
REMARK VINA RESULT:    -3.420      1.914      3.587
REMARK INTER + INTRA:          -8.122
REMARK INTER:                  -6.508
REMARK INTRA:                  -1.614
REMARK UNBOUND:                -1.903
REMARK SMILES CCCCCCCCCCCCCC[C@H](C)C(=O)[O-]
REMARK SMILES IDX 9 1 10 2 11 3 12 4 13 5 14 6 15 7 16 8 17 9 18 10 19 11 8 12
REMARK SMILES IDX 7 13 6 14 5 15 4 16 3 17 2 18 1 19
REMARK H PARENT
REMARK Flexibility Score: inf
ROOT
ATOM      1  C   UNL     1      24.679 -12.972  -0.568  1.00  0.00     0.000 C 
ENDROOT
BRANCH   1   2
ATOM      2  C   UNL     1      25.848 -13.135   0.419  1.00  0.00     0.000 C 
BRANCH   2   3
ATOM      3  C   UNL     1      27.158 -13.553  -0.273  1.00  0.00     0.000 C 
BRANCH   3   4
ATOM      4  C   UNL     1      27.937 -14.687   0.425  1.00  0.00     0.000 C 
BRANCH   4   5
ATOM      5  C   UNL     1      29.062 -14.231   1.374  1.00  0.00     0.001 C 
BRANCH   5   6
ATOM      6  C   UNL     1      30.361 -13.759   0.686  1.00  0.00     0.009 C 
BRANCH   6   7
ATOM      7  C   UNL     1      30.756 -12.299   1.019  1.00  0.00     0.032 C 
ATOM      8  C   UNL     1      29.828 -11.721   2.096  1.00  0.00     0.014 C 
BRANCH   7   9
ATOM      9  C   UNL     1      30.720 -11.412  -0.195  1.00  0.00     0.044 C 
ATOM     10  O   UNL     1      30.763 -10.158  -0.076  1.00  0.00    -0.550 OA
ATOM     11  O   UNL     1      30.679 -11.976  -1.464  1.00  0.00    -0.550 OA
ENDBRANCH   7   9
ENDBRANCH   6   7
ENDBRANCH   5   6
ENDBRANCH   4   5
ENDBRANCH   3   4
ENDBRANCH   2   3
ENDBRANCH   1   2
BRANCH   1  12
ATOM     12  C   UNL     1      24.964 -13.619  -1.933  1.00  0.00     0.000 C 
BRANCH  12  13
ATOM     13  C   UNL     1      23.839 -13.368  -2.952  1.00  0.00    -0.000 C 
BRANCH  13  14
ATOM     14  C   UNL     1      23.541 -14.601  -3.820  1.00  0.00    -0.000 C 
BRANCH  14  15
ATOM     15  C   UNL     1      23.594 -15.914  -3.026  1.00  0.00    -0.000 C 
BRANCH  15  16
ATOM     16  C   UNL     1      24.609 -16.888  -3.639  1.00  0.00    -0.000 C 
BRANCH  16  17
ATOM     17  C   UNL     1      25.891 -16.190  -4.125  1.00  0.00    -0.000 C 
BRANCH  17  18
ATOM     18  C   UNL     1      27.094 -16.377  -3.176  1.00  0.00    -0.003 C 
ATOM     19  C   UNL     1      28.206 -15.360  -3.440  1.00  0.00     0.004 C 
ENDBRANCH  17  18
ENDBRANCH  16  17
ENDBRANCH  15  16
ENDBRANCH  14  15
ENDBRANCH  13  14
ENDBRANCH  12  13
ENDBRANCH   1  12
TORSDOF 14
ENDMDL
