MODEL 1
REMARK VINA RESULT:    -0.890      0.000      0.000
REMARK INTER + INTRA:          -1.717
REMARK INTER:                  -1.358
REMARK INTRA:                  -0.358
REMARK UNBOUND:                -0.358
REMARK SMILES CCCCCCCCCCC(=O)[O-]
REMARK SMILES IDX 7 1 8 2 9 3 10 4 11 5 12 6 13 7 6 8 5 9 4 10 3 11 2 12 1 13
REMARK H PARENT
REMARK Flexibility Score: inf
ROOT
ATOM      1  C   UNL     1       9.297  15.157  -0.820  1.00  0.00     0.000 C 
ENDROOT
BRANCH   1   2
ATOM      2  C   UNL     1      10.730  14.655  -1.056  1.00  0.00     0.000 C 
BRANCH   2   3
ATOM      3  C   UNL     1      10.921  13.185  -0.644  1.00  0.00     0.006 C 
BRANCH   3   4
ATOM      4  C   UNL     1      12.321  12.920  -0.076  1.00  0.00     0.053 C 
BRANCH   4   5
ATOM      5  C   UNL     1      12.404  13.261   1.381  1.00  0.00     0.041 C 
ATOM      6  O   UNL     1      13.525  13.363   1.945  1.00  0.00    -0.550 OA
ATOM      7  O   UNL     1      11.242  13.431   2.123  1.00  0.00    -0.550 OA
ENDBRANCH   4   5
ENDBRANCH   3   4
ENDBRANCH   2   3
ENDBRANCH   1   2
BRANCH   1   8
ATOM      8  C   UNL     1       8.585  14.397   0.313  1.00  0.00     0.000 C 
BRANCH   8   9
ATOM      9  C   UNL     1       8.799  15.054   1.687  1.00  0.00    -0.000 C 
BRANCH   9  10
ATOM     10  C   UNL     1       8.649  16.584   1.644  1.00  0.00    -0.000 C 
BRANCH  10  11
ATOM     11  C   UNL     1       9.913  17.315   2.125  1.00  0.00    -0.000 C 
BRANCH  11  12
ATOM     12  C   UNL     1      11.180  16.840   1.399  1.00  0.00    -0.003 C 
ATOM     13  C   UNL     1      12.437  17.311   2.125  1.00  0.00     0.004 C 
ENDBRANCH  11  12
ENDBRANCH  10  11
ENDBRANCH   9  10
ENDBRANCH   8   9
ENDBRANCH   1   8
TORSDOF 9
ENDMDL
MODEL 2
REMARK VINA RESULT:    -0.054      1.968      3.625
REMARK INTER + INTRA:          -0.440
REMARK INTER:                  -1.069
REMARK INTRA:                   0.629
REMARK UNBOUND:                -0.358
REMARK SMILES CCCCCCCCCCC(=O)[O-]
REMARK SMILES IDX 7 1 8 2 9 3 10 4 11 5 12 6 13 7 6 8 5 9 4 10 3 11 2 12 1 13
REMARK H PARENT
REMARK Flexibility Score: inf
ROOT
ATOM      1  C   UNL     1      11.740  13.858  -0.878  1.00  0.00     0.000 C 
ENDROOT
BRANCH   1   2
ATOM      2  C   UNL     1      12.114  12.979   0.326  1.00  0.00     0.000 C 
BRANCH   2   3
ATOM      3  C   UNL     1      12.635  13.797   1.521  1.00  0.00     0.006 C 
BRANCH   3   4
ATOM      4  C   UNL     1      11.595  14.801   2.033  1.00  0.00     0.053 C 
BRANCH   4   5
ATOM      5  C   UNL     1      12.115  16.206   2.001  1.00  0.00     0.041 C 
ATOM      6  O   UNL     1      13.349  16.427   2.125  1.00  0.00    -0.550 OA
ATOM      7  O   UNL     1      11.234  17.271   1.872  1.00  0.00    -0.550 OA
ENDBRANCH   4   5
ENDBRANCH   3   4
ENDBRANCH   2   3
ENDBRANCH   1   2
BRANCH   1   8
ATOM      8  C   UNL     1      10.218  14.031  -1.031  1.00  0.00     0.000 C 
BRANCH   8   9
ATOM      9  C   UNL     1       9.595  14.815   0.135  1.00  0.00    -0.000 C 
BRANCH   9  10
ATOM     10  C   UNL     1       8.499  14.021   0.867  1.00  0.00    -0.000 C 
BRANCH  10  11
ATOM     11  C   UNL     1       7.988  14.741   2.125  1.00  0.00    -0.000 C 
BRANCH  11  12
ATOM     12  C   UNL     1       6.562  15.287   1.953  1.00  0.00    -0.003 C 
ATOM     13  C   UNL     1       5.562  14.154   1.745  1.00  0.00     0.004 C 
ENDBRANCH  11  12
ENDBRANCH  10  11
ENDBRANCH   9  10
ENDBRANCH   8   9
ENDBRANCH   1   8
TORSDOF 9
ENDMDL
MODEL 3
REMARK VINA RESULT:     1.713      1.963      3.649
REMARK INTER + INTRA:           2.256
REMARK INTER:                   2.946
REMARK INTRA:                  -0.690
REMARK UNBOUND:                -0.358
REMARK SMILES CCCCCCCCCCC(=O)[O-]
REMARK SMILES IDX 7 1 8 2 9 3 10 4 11 5 12 6 13 7 6 8 5 9 4 10 3 11 2 12 1 13
REMARK H PARENT
REMARK Flexibility Score: inf
ROOT
ATOM      1  C   UNL     1      11.082  13.494  -1.541  1.00  0.00     0.000 C 
ENDROOT
BRANCH   1   2
ATOM      2  C   UNL     1       9.692  14.096  -1.805  1.00  0.00     0.000 C 
BRANCH   2   3
ATOM      3  C   UNL     1       9.144  14.878  -0.599  1.00  0.00     0.006 C 
BRANCH   3   4
ATOM      4  C   UNL     1       7.844  14.270  -0.058  1.00  0.00     0.053 C 
BRANCH   4   5
ATOM      5  C   UNL     1       7.702  14.484   1.419  1.00  0.00     0.041 C 
ATOM      6  O   UNL     1       8.718  14.724   2.124  1.00  0.00    -0.550 OA
ATOM      7  O   UNL     1       6.455  14.381   2.020  1.00  0.00    -0.550 OA
ENDBRANCH   4   5
ENDBRANCH   3   4
ENDBRANCH   2   3
ENDBRANCH   1   2
BRANCH   1   8
ATOM      8  C   UNL     1      11.352  13.268  -0.043  1.00  0.00     0.000 C 
BRANCH   8   9
ATOM      9  C   UNL     1      12.794  13.622   0.355  1.00  0.00    -0.000 C 
BRANCH   9  10
ATOM     10  C   UNL     1      12.889  14.232   1.764  1.00  0.00    -0.000 C 
BRANCH  10  11
ATOM     11  C   UNL     1      11.684  15.122   2.104  1.00  0.00    -0.000 C 
BRANCH  11  12
ATOM     12  C   UNL     1      12.017  16.620   2.031  1.00  0.00    -0.003 C 
ATOM     13  C   UNL     1      11.312  17.283   0.852  1.00  0.00     0.004 C 
ENDBRANCH  11  12
ENDBRANCH  10  11
ENDBRANCH   9  10
ENDBRANCH   8   9
ENDBRANCH   1   8
TORSDOF 9
ENDMDL
