MODEL 1
REMARK VINA RESULT:    -3.697      0.000      0.000
REMARK INTER + INTRA:          -4.441
REMARK INTER:                  -4.346
REMARK INTRA:                  -0.095
REMARK UNBOUND:                -0.095
REMARK SMILES O=C([O-])CCC(=O)[O-]
REMARK SMILES IDX 4 1 2 2 1 3 3 4 5 5 6 6 7 7 8 8
REMARK H PARENT
REMARK Flexibility Score: inf
ROOT
ATOM      1  C   UNL     1      -7.934  14.698 -13.591  1.00  0.00     0.059 C 
ENDROOT
BRANCH   1   2
ATOM      2  C   UNL     1      -7.026  14.047 -12.592  1.00  0.00     0.042 C 
ATOM      3  O   UNL     1      -6.082  13.310 -12.979  1.00  0.00    -0.550 OA
ATOM      4  O   UNL     1      -7.199  14.289 -11.235  1.00  0.00    -0.550 OA
ENDBRANCH   1   2
BRANCH   1   5
ATOM      5  C   UNL     1      -7.677  16.205 -13.688  1.00  0.00     0.059 C 
BRANCH   5   6
ATOM      6  C   UNL     1      -8.697  16.989 -12.919  1.00  0.00     0.042 C 
ATOM      7  O   UNL     1      -9.875  16.562 -12.809  1.00  0.00    -0.550 OA
ATOM      8  O   UNL     1      -8.355  18.214 -12.357  1.00  0.00    -0.550 OA
ENDBRANCH   5   6
ENDBRANCH   1   5
TORSDOF 3
ENDMDL
MODEL 2
REMARK VINA RESULT:    -3.688      0.075      3.810
REMARK INTER + INTRA:          -4.430
REMARK INTER:                  -4.332
REMARK INTRA:                  -0.098
REMARK UNBOUND:                -0.095
REMARK SMILES O=C([O-])CCC(=O)[O-]
REMARK SMILES IDX 4 1 2 2 1 3 3 4 5 5 6 6 7 7 8 8
REMARK H PARENT
REMARK Flexibility Score: inf
ROOT
ATOM      1  C   UNL     1      -7.728  16.206 -13.703  1.00  0.00     0.059 C 
ENDROOT
BRANCH   1   2
ATOM      2  C   UNL     1      -8.749  16.997 -12.942  1.00  0.00     0.042 C 
ATOM      3  O   UNL     1      -9.913  16.546 -12.785  1.00  0.00    -0.550 OA
ATOM      4  O   UNL     1      -8.398  18.214 -12.371  1.00  0.00    -0.550 OA
ENDBRANCH   1   2
BRANCH   1   5
ATOM      5  C   UNL     1      -7.973  14.699 -13.575  1.00  0.00     0.059 C 
BRANCH   5   6
ATOM      6  C   UNL     1      -7.035  14.070 -12.590  1.00  0.00     0.042 C 
ATOM      7  O   UNL     1      -7.187  14.265 -11.356  1.00  0.00    -0.550 OA
ATOM      8  O   UNL     1      -5.967  13.301 -13.038  1.00  0.00    -0.550 OA
ENDBRANCH   5   6
ENDBRANCH   1   5
TORSDOF 3
ENDMDL
MODEL 3
REMARK VINA RESULT:    -3.567      1.562      3.802
REMARK INTER + INTRA:          -4.288
REMARK INTER:                  -4.167
REMARK INTRA:                  -0.122
REMARK UNBOUND:                -0.095
REMARK SMILES O=C([O-])CCC(=O)[O-]
REMARK SMILES IDX 4 1 2 2 1 3 3 4 5 5 6 6 7 7 8 8
REMARK H PARENT
REMARK Flexibility Score: inf
ROOT
ATOM      1  C   UNL     1      -7.891  15.454 -12.154  1.00  0.00     0.059 C 
ENDROOT
BRANCH   1   2
ATOM      2  C   UNL     1      -8.773  16.647 -12.369  1.00  0.00     0.042 C 
ATOM      3  O   UNL     1      -9.903  16.510 -12.907  1.00  0.00    -0.550 OA
ATOM      4  O   UNL     1      -8.362  17.902 -11.938  1.00  0.00    -0.550 OA
ENDBRANCH   1   2
BRANCH   1   5
ATOM      5  C   UNL     1      -7.260  14.974 -13.465  1.00  0.00     0.059 C 
BRANCH   5   6
ATOM      6  C   UNL     1      -7.881  13.696 -13.940  1.00  0.00     0.042 C 
ATOM      7  O   UNL     1      -7.332  12.592 -13.687  1.00  0.00    -0.550 OA
ATOM      8  O   UNL     1      -9.046  13.727 -14.698  1.00  0.00    -0.550 OA
ENDBRANCH   5   6
ENDBRANCH   1   5
TORSDOF 3
ENDMDL
MODEL 4
REMARK VINA RESULT:    -3.550      1.130      1.463
REMARK INTER + INTRA:          -4.268
REMARK INTER:                  -4.215
REMARK INTRA:                  -0.053
REMARK UNBOUND:                -0.095
REMARK SMILES O=C([O-])CCC(=O)[O-]
REMARK SMILES IDX 4 1 2 2 1 3 3 4 5 5 6 6 7 7 8 8
REMARK H PARENT
REMARK Flexibility Score: inf
ROOT
ATOM      1  C   UNL     1      -8.267  14.994 -13.258  1.00  0.00     0.059 C 
ENDROOT
BRANCH   1   2
ATOM      2  C   UNL     1      -7.224  14.287 -12.446  1.00  0.00     0.042 C 
ATOM      3  O   UNL     1      -6.310  13.637 -13.017  1.00  0.00    -0.550 OA
ATOM      4  O   UNL     1      -7.241  14.381 -11.060  1.00  0.00    -0.550 OA
ENDBRANCH   1   2
BRANCH   1   5
ATOM      5  C   UNL     1      -8.747  16.275 -12.567  1.00  0.00     0.059 C 
BRANCH   5   6
ATOM      6  C   UNL     1      -8.373  17.497 -13.349  1.00  0.00     0.042 C 
ATOM      7  O   UNL     1      -8.053  18.559 -12.754  1.00  0.00    -0.550 OA
ATOM      8  O   UNL     1      -8.420  17.476 -14.738  1.00  0.00    -0.550 OA
ENDBRANCH   5   6
ENDBRANCH   1   5
TORSDOF 3
ENDMDL
MODEL 5
REMARK VINA RESULT:    -3.509      1.912      3.842
REMARK INTER + INTRA:          -4.220
REMARK INTER:                  -4.037
REMARK INTRA:                  -0.183
REMARK UNBOUND:                -0.095
REMARK SMILES O=C([O-])CCC(=O)[O-]
REMARK SMILES IDX 4 1 2 2 1 3 3 4 5 5 6 6 7 7 8 8
REMARK H PARENT
REMARK Flexibility Score: inf
ROOT
ATOM      1  C   UNL     1      -8.633  17.985 -12.566  1.00  0.00     0.059 C 
ENDROOT
BRANCH   1   2
ATOM      2  C   UNL     1      -7.782  18.118 -13.792  1.00  0.00     0.042 C 
ATOM      3  O   UNL     1      -6.600  18.539 -13.701  1.00  0.00    -0.550 OA
ATOM      4  O   UNL     1      -8.285  17.738 -15.030  1.00  0.00    -0.550 OA
ENDBRANCH   1   2
BRANCH   1   5
ATOM      5  C   UNL     1      -9.138  16.550 -12.383  1.00  0.00     0.059 C 
BRANCH   5   6
ATOM      6  C   UNL     1      -8.005  15.578 -12.255  1.00  0.00     0.042 C 
ATOM      7  O   UNL     1      -7.150  15.717 -11.341  1.00  0.00    -0.550 OA
ATOM      8  O   UNL     1      -7.869  14.543 -13.171  1.00  0.00    -0.550 OA
ENDBRANCH   5   6
ENDBRANCH   1   5
TORSDOF 3
ENDMDL
MODEL 6
REMARK VINA RESULT:    -3.476      1.877      2.309
REMARK INTER + INTRA:          -4.181
REMARK INTER:                  -3.997
REMARK INTRA:                  -0.184
REMARK UNBOUND:                -0.095
REMARK SMILES O=C([O-])CCC(=O)[O-]
REMARK SMILES IDX 4 1 2 2 1 3 3 4 5 5 6 6 7 7 8 8
REMARK H PARENT
REMARK Flexibility Score: inf
ROOT
ATOM      1  C   UNL     1      -9.108  16.350 -12.395  1.00  0.00     0.059 C 
ENDROOT
BRANCH   1   2
ATOM      2  C   UNL     1      -7.902  15.480 -12.203  1.00  0.00     0.042 C 
ATOM      3  O   UNL     1      -7.118  15.687 -11.240  1.00  0.00    -0.550 OA
ATOM      4  O   UNL     1      -7.669  14.417 -13.066  1.00  0.00    -0.550 OA
ENDBRANCH   1   2
BRANCH   1   5
ATOM      5  C   UNL     1      -8.718  17.817 -12.600  1.00  0.00     0.059 C 
BRANCH   5   6
ATOM      6  C   UNL     1      -7.851  17.995 -13.809  1.00  0.00     0.042 C 
ATOM      7  O   UNL     1      -8.280  17.676 -14.949  1.00  0.00    -0.550 OA
ATOM      8  O   UNL     1      -6.554  18.473 -13.672  1.00  0.00    -0.550 OA
ENDBRANCH   5   6
ENDBRANCH   1   5
TORSDOF 3
ENDMDL
MODEL 7
REMARK VINA RESULT:    -3.467      1.527      3.802
REMARK INTER + INTRA:          -4.170
REMARK INTER:                  -4.062
REMARK INTRA:                  -0.108
REMARK UNBOUND:                -0.095
REMARK SMILES O=C([O-])CCC(=O)[O-]
REMARK SMILES IDX 4 1 2 2 1 3 3 4 5 5 6 6 7 7 8 8
REMARK H PARENT
REMARK Flexibility Score: inf
ROOT
ATOM      1  C   UNL     1      -8.964  16.931 -12.891  1.00  0.00     0.059 C 
ENDROOT
BRANCH   1   2
ATOM      2  C   UNL     1      -8.149  17.809 -13.792  1.00  0.00     0.042 C 
ATOM      3  O   UNL     1      -8.297  17.746 -15.041  1.00  0.00    -0.550 OA
ATOM      4  O   UNL     1      -7.257  18.724 -13.249  1.00  0.00    -0.550 OA
ENDBRANCH   1   2
BRANCH   1   5
ATOM      5  C   UNL     1      -8.628  15.450 -13.092  1.00  0.00     0.059 C 
BRANCH   5   6
ATOM      6  C   UNL     1      -7.491  15.018 -12.216  1.00  0.00     0.042 C 
ATOM      7  O   UNL     1      -7.161  15.710 -11.218  1.00  0.00    -0.550 OA
ATOM      8  O   UNL     1      -6.769  13.872 -12.528  1.00  0.00    -0.550 OA
ENDBRANCH   5   6
ENDBRANCH   1   5
TORSDOF 3
ENDMDL
MODEL 8
REMARK VINA RESULT:    -3.407      1.243      3.450
REMARK INTER + INTRA:          -4.100
REMARK INTER:                  -3.959
REMARK INTRA:                  -0.141
REMARK UNBOUND:                -0.095
REMARK SMILES O=C([O-])CCC(=O)[O-]
REMARK SMILES IDX 4 1 2 2 1 3 3 4 5 5 6 6 7 7 8 8
REMARK H PARENT
REMARK Flexibility Score: inf
ROOT
ATOM      1  C   UNL     1      -7.631  16.013 -14.263  1.00  0.00     0.059 C 
ENDROOT
BRANCH   1   2
ATOM      2  C   UNL     1      -6.955  17.113 -13.501  1.00  0.00     0.042 C 
ATOM      3  O   UNL     1      -5.699  17.168 -13.447  1.00  0.00    -0.550 OA
ATOM      4  O   UNL     1      -7.715  18.100 -12.887  1.00  0.00    -0.550 OA
ENDBRANCH   1   2
BRANCH   1   5
ATOM      5  C   UNL     1      -8.257  14.978 -13.322  1.00  0.00     0.059 C 
BRANCH   5   6
ATOM      6  C   UNL     1      -7.222  14.308 -12.471  1.00  0.00     0.042 C 
ATOM      7  O   UNL     1      -6.336  13.588 -12.999  1.00  0.00    -0.550 OA
ATOM      8  O   UNL     1      -7.261  14.446 -11.088  1.00  0.00    -0.550 OA
ENDBRANCH   5   6
ENDBRANCH   1   5
TORSDOF 3
ENDMDL
MODEL 9
REMARK VINA RESULT:    -3.223      2.213      3.326
REMARK INTER + INTRA:          -3.884
REMARK INTER:                  -3.724
REMARK INTRA:                  -0.160
REMARK UNBOUND:                -0.095
REMARK SMILES O=C([O-])CCC(=O)[O-]
REMARK SMILES IDX 4 1 2 2 1 3 3 4 5 5 6 6 7 7 8 8
REMARK H PARENT
REMARK Flexibility Score: inf
ROOT
ATOM      1  C   UNL     1      -7.947  17.123 -14.292  1.00  0.00     0.059 C 
ENDROOT
BRANCH   1   2
ATOM      2  C   UNL     1      -8.549  16.741 -12.973  1.00  0.00     0.042 C 
ATOM      3  O   UNL     1      -9.796  16.615 -12.859  1.00  0.00    -0.550 OA
ATOM      4  O   UNL     1      -7.727  16.486 -11.883  1.00  0.00    -0.550 OA
ENDBRANCH   1   2
BRANCH   1   5
ATOM      5  C   UNL     1      -6.808  18.134 -14.120  1.00  0.00     0.059 C 
BRANCH   5   6
ATOM      6  C   UNL     1      -7.326  19.490 -13.749  1.00  0.00     0.042 C 
ATOM      7  O   UNL     1      -7.099  19.965 -12.606  1.00  0.00    -0.550 OA
ATOM      8  O   UNL     1      -8.096  20.213 -14.653  1.00  0.00    -0.550 OA
ENDBRANCH   5   6
ENDBRANCH   1   5
TORSDOF 3
ENDMDL
