MODEL 1
REMARK VINA RESULT:    -2.936      0.000      0.000
REMARK INTER + INTRA:          -3.555
REMARK INTER:                  -3.451
REMARK INTRA:                  -0.104
REMARK UNBOUND:                -0.104
REMARK SMILES CCCCC(=O)[O-]
REMARK SMILES IDX 4 1 5 2 6 3 7 4 3 5 2 6 1 7
REMARK H PARENT
REMARK Flexibility Score: inf
ROOT
ATOM      1  C   UNL     1       8.577  22.934  28.206  1.00  0.00     0.053 C 
ENDROOT
BRANCH   1   2
ATOM      2  C   UNL     1       7.136  22.638  28.487  1.00  0.00     0.041 C 
ATOM      3  O   UNL     1       6.526  23.264  29.394  1.00  0.00    -0.550 OA
ATOM      4  O   UNL     1       6.456  21.696  27.724  1.00  0.00    -0.550 OA
ENDBRANCH   1   2
BRANCH   1   5
ATOM      5  C   UNL     1       9.440  21.667  28.263  1.00  0.00     0.006 C 
BRANCH   5   6
ATOM      6  C   UNL     1       9.984  21.272  26.882  1.00  0.00    -0.003 C 
ATOM      7  C   UNL     1       9.403  19.937  26.424  1.00  0.00     0.004 C 
ENDBRANCH   5   6
ENDBRANCH   1   5
TORSDOF 3
ENDMDL
MODEL 2
REMARK VINA RESULT:    -2.923      2.539      3.583
REMARK INTER + INTRA:          -3.539
REMARK INTER:                  -3.472
REMARK INTRA:                  -0.067
REMARK UNBOUND:                -0.104
REMARK SMILES CCCCC(=O)[O-]
REMARK SMILES IDX 4 1 5 2 6 3 7 4 3 5 2 6 1 7
REMARK H PARENT
REMARK Flexibility Score: inf
ROOT
ATOM      1  C   UNL     1       9.486  21.546  28.186  1.00  0.00     0.053 C 
ENDROOT
BRANCH   1   2
ATOM      2  C   UNL     1      10.020  21.194  26.831  1.00  0.00     0.041 C 
ATOM      3  O   UNL     1      11.022  21.800  26.368  1.00  0.00    -0.550 OA
ATOM      4  O   UNL     1       9.433  20.172  26.094  1.00  0.00    -0.550 OA
ENDBRANCH   1   2
BRANCH   1   5
ATOM      5  C   UNL     1       8.827  22.931  28.196  1.00  0.00     0.006 C 
BRANCH   5   6
ATOM      6  C   UNL     1       7.381  22.883  28.711  1.00  0.00    -0.003 C 
ATOM      7  C   UNL     1       6.575  21.807  27.987  1.00  0.00     0.004 C 
ENDBRANCH   5   6
ENDBRANCH   1   5
TORSDOF 3
ENDMDL
MODEL 3
REMARK VINA RESULT:    -2.869     11.770     12.826
REMARK INTER + INTRA:          -3.476
REMARK INTER:                  -3.434
REMARK INTRA:                  -0.042
REMARK UNBOUND:                -0.104
REMARK SMILES CCCCC(=O)[O-]
REMARK SMILES IDX 4 1 5 2 6 3 7 4 3 5 2 6 1 7
REMARK H PARENT
REMARK Flexibility Score: inf
ROOT
ATOM      1  C   UNL     1       9.186  15.120  17.417  1.00  0.00     0.053 C 
ENDROOT
BRANCH   1   2
ATOM      2  C   UNL     1       8.411  14.051  18.124  1.00  0.00     0.041 C 
ATOM      3  O   UNL     1       7.975  14.249  19.289  1.00  0.00    -0.550 OA
ATOM      4  O   UNL     1       8.141  12.847  17.484  1.00  0.00    -0.550 OA
ENDBRANCH   1   2
BRANCH   1   5
ATOM      5  C   UNL     1       8.541  16.501  17.593  1.00  0.00     0.006 C 
BRANCH   5   6
ATOM      6  C   UNL     1       8.049  17.086  16.262  1.00  0.00    -0.003 C 
ATOM      7  C   UNL     1       8.184  16.069  15.131  1.00  0.00     0.004 C 
ENDBRANCH   5   6
ENDBRANCH   1   5
TORSDOF 3
ENDMDL
MODEL 4
REMARK VINA RESULT:    -2.817     13.572     14.954
REMARK INTER + INTRA:          -3.414
REMARK INTER:                  -3.367
REMARK INTRA:                  -0.047
REMARK UNBOUND:                -0.104
REMARK SMILES CCCCC(=O)[O-]
REMARK SMILES IDX 4 1 5 2 6 3 7 4 3 5 2 6 1 7
REMARK H PARENT
REMARK Flexibility Score: inf
ROOT
ATOM      1  C   UNL     1       8.365  15.827  14.532  1.00  0.00     0.053 C 
ENDROOT
BRANCH   1   2
ATOM      2  C   UNL     1       7.713  15.022  13.450  1.00  0.00     0.041 C 
ATOM      3  O   UNL     1       8.051  15.185  12.248  1.00  0.00    -0.550 OA
ATOM      4  O   UNL     1       6.756  14.068  13.772  1.00  0.00    -0.550 OA
ENDBRANCH   1   2
BRANCH   1   5
ATOM      5  C   UNL     1       8.515  15.021  15.830  1.00  0.00     0.006 C 
BRANCH   5   6
ATOM      6  C   UNL     1       8.549  15.922  17.072  1.00  0.00    -0.003 C 
ATOM      7  C   UNL     1       8.069  17.333  16.741  1.00  0.00     0.004 C 
ENDBRANCH   5   6
ENDBRANCH   1   5
TORSDOF 3
ENDMDL
MODEL 5
REMARK VINA RESULT:    -2.763      8.696     10.203
REMARK INTER + INTRA:          -3.351
REMARK INTER:                  -3.320
REMARK INTRA:                  -0.030
REMARK UNBOUND:                -0.104
REMARK SMILES CCCCC(=O)[O-]
REMARK SMILES IDX 4 1 5 2 6 3 7 4 3 5 2 6 1 7
REMARK H PARENT
REMARK Flexibility Score: inf
ROOT
ATOM      1  C   UNL     1      -0.504  19.246  29.873  1.00  0.00     0.053 C 
ENDROOT
BRANCH   1   2
ATOM      2  C   UNL     1       0.724  18.464  29.522  1.00  0.00     0.041 C 
ATOM      3  O   UNL     1       1.777  19.061  29.172  1.00  0.00    -0.550 OA
ATOM      4  O   UNL     1       0.718  17.078  29.613  1.00  0.00    -0.550 OA
ENDBRANCH   1   2
BRANCH   1   5
ATOM      5  C   UNL     1      -1.732  18.758  29.094  1.00  0.00     0.006 C 
BRANCH   5   6
ATOM      6  C   UNL     1      -3.007  19.522  29.482  1.00  0.00    -0.003 C 
ATOM      7  C   UNL     1      -2.674  20.919  29.999  1.00  0.00     0.004 C 
ENDBRANCH   5   6
ENDBRANCH   1   5
TORSDOF 3
ENDMDL
MODEL 6
REMARK VINA RESULT:    -2.736     13.068     14.303
REMARK INTER + INTRA:          -3.320
REMARK INTER:                  -3.237
REMARK INTRA:                  -0.083
REMARK UNBOUND:                -0.104
REMARK SMILES CCCCC(=O)[O-]
REMARK SMILES IDX 4 1 5 2 6 3 7 4 3 5 2 6 1 7
REMARK H PARENT
REMARK Flexibility Score: inf
ROOT
ATOM      1  C   UNL     1       8.890  15.876  15.132  1.00  0.00     0.053 C 
ENDROOT
BRANCH   1   2
ATOM      2  C   UNL     1       8.016  15.215  14.111  1.00  0.00     0.041 C 
ATOM      3  O   UNL     1       7.328  14.207  14.422  1.00  0.00    -0.550 OA
ATOM      4  O   UNL     1       7.933  15.734  12.824  1.00  0.00    -0.550 OA
ENDBRANCH   1   2
BRANCH   1   5
ATOM      5  C   UNL     1       8.096  16.838  16.025  1.00  0.00     0.006 C 
BRANCH   5   6
ATOM      6  C   UNL     1       8.458  16.686  17.509  1.00  0.00    -0.003 C 
ATOM      7  C   UNL     1       8.750  15.228  17.857  1.00  0.00     0.004 C 
ENDBRANCH   5   6
ENDBRANCH   1   5
TORSDOF 3
ENDMDL
MODEL 7
REMARK VINA RESULT:    -2.661     12.778     13.636
REMARK INTER + INTRA:          -3.231
REMARK INTER:                  -3.157
REMARK INTRA:                  -0.074
REMARK UNBOUND:                -0.104
REMARK SMILES CCCCC(=O)[O-]
REMARK SMILES IDX 4 1 5 2 6 3 7 4 3 5 2 6 1 7
REMARK H PARENT
REMARK Flexibility Score: inf
ROOT
ATOM      1  C   UNL     1       0.166  13.245  29.932  1.00  0.00     0.053 C 
ENDROOT
BRANCH   1   2
ATOM      2  C   UNL     1       0.781  11.995  29.383  1.00  0.00     0.041 C 
ATOM      3  O   UNL     1       0.577  11.661  28.185  1.00  0.00    -0.550 OA
ATOM      4  O   UNL     1       1.607  11.215  30.183  1.00  0.00    -0.550 OA
ENDBRANCH   1   2
BRANCH   1   5
ATOM      5  C   UNL     1      -1.343  13.086  30.159  1.00  0.00     0.006 C 
BRANCH   5   6
ATOM      6  C   UNL     1      -1.671  12.645  31.592  1.00  0.00    -0.003 C 
ATOM      7  C   UNL     1      -2.552  11.398  31.596  1.00  0.00     0.004 C 
ENDBRANCH   5   6
ENDBRANCH   1   5
TORSDOF 3
ENDMDL
MODEL 8
REMARK VINA RESULT:    -2.659      8.666      9.607
REMARK INTER + INTRA:          -3.229
REMARK INTER:                  -3.147
REMARK INTRA:                  -0.081
REMARK UNBOUND:                -0.104
REMARK SMILES CCCCC(=O)[O-]
REMARK SMILES IDX 4 1 5 2 6 3 7 4 3 5 2 6 1 7
REMARK H PARENT
REMARK Flexibility Score: inf
ROOT
ATOM      1  C   UNL     1       0.636  17.266  27.555  1.00  0.00     0.053 C 
ENDROOT
BRANCH   1   2
ATOM      2  C   UNL     1       1.749  16.306  27.840  1.00  0.00     0.041 C 
ATOM      3  O   UNL     1       1.753  15.639  28.909  1.00  0.00    -0.550 OA
ATOM      4  O   UNL     1       2.766  16.122  26.911  1.00  0.00    -0.550 OA
ENDBRANCH   1   2
BRANCH   1   5
ATOM      5  C   UNL     1      -0.529  17.096  28.540  1.00  0.00     0.006 C 
BRANCH   5   6
ATOM      6  C   UNL     1      -1.031  18.442  29.082  1.00  0.00    -0.003 C 
ATOM      7  C   UNL     1       0.059  19.155  29.878  1.00  0.00     0.004 C 
ENDBRANCH   5   6
ENDBRANCH   1   5
TORSDOF 3
ENDMDL
MODEL 9
REMARK VINA RESULT:    -1.334     13.161     13.885
REMARK INTER + INTRA:          -1.671
REMARK INTER:                  -1.602
REMARK INTRA:                  -0.069
REMARK UNBOUND:                -0.104
REMARK SMILES CCCCC(=O)[O-]
REMARK SMILES IDX 4 1 5 2 6 3 7 4 3 5 2 6 1 7
REMARK H PARENT
REMARK Flexibility Score: inf
ROOT
ATOM      1  C   UNL     1      -1.253  11.690  30.139  1.00  0.00     0.053 C 
ENDROOT
BRANCH   1   2
ATOM      2  C   UNL     1      -1.667  11.252  31.510  1.00  0.00     0.041 C 
ATOM      3  O   UNL     1      -0.999  10.379  32.125  1.00  0.00    -0.550 OA
ATOM      4  O   UNL     1      -2.770  11.833  32.124  1.00  0.00    -0.550 OA
ENDBRANCH   1   2
BRANCH   1   5
ATOM      5  C   UNL     1      -1.265  13.218  30.001  1.00  0.00     0.006 C 
BRANCH   5   6
ATOM      6  C   UNL     1      -0.028  13.868  30.637  1.00  0.00    -0.003 C 
ATOM      7  C   UNL     1       0.381  15.130  29.881  1.00  0.00     0.004 C 
ENDBRANCH   5   6
ENDBRANCH   1   5
TORSDOF 3
ENDMDL
