MODEL 1
REMARK VINA RESULT:    -3.070      0.000      0.000
REMARK INTER + INTRA:          -3.460
REMARK INTER:                  -3.429
REMARK INTRA:                  -0.031
REMARK UNBOUND:                -0.031
REMARK SMILES CCCC(=O)[O-]
REMARK SMILES IDX 3 1 4 2 5 3 6 4 2 5 1 6
REMARK H PARENT
REMARK Flexibility Score: inf
ROOT
ATOM      1  C   UNL     1    -116.825 -99.590  41.056  1.00  0.00     0.052 C 
ENDROOT
BRANCH   1   2
ATOM      2  C   UNL     1    -117.229 -98.789  39.860  1.00  0.00     0.041 C 
ATOM      3  O   UNL     1    -116.864 -99.143  38.707  1.00  0.00    -0.550 OA
ATOM      4  O   UNL     1    -117.968 -97.623  40.020  1.00  0.00    -0.550 OA
ENDBRANCH   1   2
BRANCH   1   5
ATOM      5  C   UNL     1    -116.326 -98.670  42.174  1.00  0.00     0.003 C 
ATOM      6  C   UNL     1    -117.031 -98.971  43.492  1.00  0.00     0.004 C 
ENDBRANCH   1   5
TORSDOF 2
ENDMDL
MODEL 2
REMARK VINA RESULT:    -3.000      4.948      6.552
REMARK INTER + INTRA:          -3.382
REMARK INTER:                  -3.355
REMARK INTRA:                  -0.028
REMARK UNBOUND:                -0.031
REMARK SMILES CCCC(=O)[O-]
REMARK SMILES IDX 3 1 4 2 5 3 6 4 2 5 1 6
REMARK H PARENT
REMARK Flexibility Score: inf
ROOT
ATOM      1  C   UNL     1    -116.683 -98.685  34.897  1.00  0.00     0.052 C 
ENDROOT
BRANCH   1   2
ATOM      2  C   UNL     1    -115.879 -98.970  36.126  1.00  0.00     0.041 C 
ATOM      3  O   UNL     1    -114.648 -99.220  36.034  1.00  0.00    -0.550 OA
ATOM      4  O   UNL     1    -116.500 -99.009  37.369  1.00  0.00    -0.550 OA
ENDBRANCH   1   2
BRANCH   1   5
ATOM      5  C   UNL     1    -115.773 -98.212  33.760  1.00  0.00     0.003 C 
ATOM      6  C   UNL     1    -116.103 -96.780  33.350  1.00  0.00     0.004 C 
ENDBRANCH   1   5
TORSDOF 2
ENDMDL
MODEL 3
REMARK VINA RESULT:    -2.972      4.936      6.656
REMARK INTER + INTRA:          -3.351
REMARK INTER:                  -3.330
REMARK INTRA:                  -0.021
REMARK UNBOUND:                -0.031
REMARK SMILES CCCC(=O)[O-]
REMARK SMILES IDX 3 1 4 2 5 3 6 4 2 5 1 6
REMARK H PARENT
REMARK Flexibility Score: inf
ROOT
ATOM      1  C   UNL     1    -116.733 -98.635  34.925  1.00  0.00     0.052 C 
ENDROOT
BRANCH   1   2
ATOM      2  C   UNL     1    -115.938 -98.973  36.146  1.00  0.00     0.041 C 
ATOM      3  O   UNL     1    -116.480 -98.946  37.283  1.00  0.00    -0.550 OA
ATOM      4  O   UNL     1    -114.584 -99.269  36.035  1.00  0.00    -0.550 OA
ENDBRANCH   1   2
BRANCH   1   5
ATOM      5  C   UNL     1    -115.810 -98.161  33.799  1.00  0.00     0.003 C 
ATOM      6  C   UNL     1    -116.191 -96.762  33.326  1.00  0.00     0.004 C 
ENDBRANCH   1   5
TORSDOF 2
ENDMDL
MODEL 4
REMARK VINA RESULT:    -2.906      1.531      2.145
REMARK INTER + INTRA:          -3.278
REMARK INTER:                  -3.207
REMARK INTRA:                  -0.070
REMARK UNBOUND:                -0.031
REMARK SMILES CCCC(=O)[O-]
REMARK SMILES IDX 3 1 4 2 5 3 6 4 2 5 1 6
REMARK H PARENT
REMARK Flexibility Score: inf
ROOT
ATOM      1  C   UNL     1    -118.351 -97.839  42.237  1.00  0.00     0.052 C 
ENDROOT
BRANCH   1   2
ATOM      2  C   UNL     1    -118.494 -97.767  40.750  1.00  0.00     0.041 C 
ATOM      3  O   UNL     1    -118.313 -96.675  40.148  1.00  0.00    -0.550 OA
ATOM      4  O   UNL     1    -118.875 -98.894  40.032  1.00  0.00    -0.550 OA
ENDBRANCH   1   2
BRANCH   1   5
ATOM      5  C   UNL     1    -117.327 -98.909  42.625  1.00  0.00     0.003 C 
ATOM      6  C   UNL     1    -115.954 -98.595  42.041  1.00  0.00     0.004 C 
ENDBRANCH   1   5
TORSDOF 2
ENDMDL
MODEL 5
REMARK VINA RESULT:    -2.894      5.018      6.562
REMARK INTER + INTRA:          -3.264
REMARK INTER:                  -3.226
REMARK INTRA:                  -0.039
REMARK UNBOUND:                -0.031
REMARK SMILES CCCC(=O)[O-]
REMARK SMILES IDX 3 1 4 2 5 3 6 4 2 5 1 6
REMARK H PARENT
REMARK Flexibility Score: inf
ROOT
ATOM      1  C   UNL     1    -115.386 -98.360  35.176  1.00  0.00     0.052 C 
ENDROOT
BRANCH   1   2
ATOM      2  C   UNL     1    -116.515 -98.931  35.973  1.00  0.00     0.041 C 
ATOM      3  O   UNL     1    -117.591 -99.256  35.406  1.00  0.00    -0.550 OA
ATOM      4  O   UNL     1    -116.397 -99.060  37.352  1.00  0.00    -0.550 OA
ENDBRANCH   1   2
BRANCH   1   5
ATOM      5  C   UNL     1    -115.788 -98.218  33.705  1.00  0.00     0.003 C 
ATOM      6  C   UNL     1    -116.003 -96.755  33.331  1.00  0.00     0.004 C 
ENDBRANCH   1   5
TORSDOF 2
ENDMDL
MODEL 6
REMARK VINA RESULT:    -2.729      5.061      5.956
REMARK INTER + INTRA:          -3.079
REMARK INTER:                  -3.065
REMARK INTRA:                  -0.014
REMARK UNBOUND:                -0.031
REMARK SMILES CCCC(=O)[O-]
REMARK SMILES IDX 3 1 4 2 5 3 6 4 2 5 1 6
REMARK H PARENT
REMARK Flexibility Score: inf
ROOT
ATOM      1  C   UNL     1    -118.505 -97.236  45.020  1.00  0.00     0.052 C 
ENDROOT
BRANCH   1   2
ATOM      2  C   UNL     1    -118.382 -96.675  46.401  1.00  0.00     0.041 C 
ATOM      3  O   UNL     1    -118.318 -97.446  47.395  1.00  0.00    -0.550 OA
ATOM      4  O   UNL     1    -118.386 -95.299  46.596  1.00  0.00    -0.550 OA
ENDBRANCH   1   2
BRANCH   1   5
ATOM      5  C   UNL     1    -118.016 -98.687  44.985  1.00  0.00     0.003 C 
ATOM      6  C   UNL     1    -117.282 -98.990  43.683  1.00  0.00     0.004 C 
ENDBRANCH   1   5
TORSDOF 2
ENDMDL
MODEL 7
REMARK VINA RESULT:    -2.671      6.114      6.668
REMARK INTER + INTRA:          -3.015
REMARK INTER:                  -3.002
REMARK INTRA:                  -0.013
REMARK UNBOUND:                -0.031
REMARK SMILES CCCC(=O)[O-]
REMARK SMILES IDX 3 1 4 2 5 3 6 4 2 5 1 6
REMARK H PARENT
REMARK Flexibility Score: inf
ROOT
ATOM      1  C   UNL     1    -118.005 -97.267  47.789  1.00  0.00     0.052 C 
ENDROOT
BRANCH   1   2
ATOM      2  C   UNL     1    -118.283 -96.339  46.650  1.00  0.00     0.041 C 
ATOM      3  O   UNL     1    -118.443 -96.793  45.486  1.00  0.00    -0.550 OA
ATOM      4  O   UNL     1    -118.316 -94.966  46.864  1.00  0.00    -0.550 OA
ENDBRANCH   1   2
BRANCH   1   5
ATOM      5  C   UNL     1    -118.029 -98.722  47.312  1.00  0.00     0.003 C 
ATOM      6  C   UNL     1    -117.391 -99.650  48.341  1.00  0.00     0.004 C 
ENDBRANCH   1   5
TORSDOF 2
ENDMDL
MODEL 8
REMARK VINA RESULT:    -2.640      1.538      2.023
REMARK INTER + INTRA:          -2.980
REMARK INTER:                  -2.975
REMARK INTRA:                  -0.005
REMARK UNBOUND:                -0.031
REMARK SMILES CCCC(=O)[O-]
REMARK SMILES IDX 3 1 4 2 5 3 6 4 2 5 1 6
REMARK H PARENT
REMARK Flexibility Score: inf
ROOT
ATOM      1  C   UNL     1    -116.806 -98.621  42.896  1.00  0.00     0.052 C 
ENDROOT
BRANCH   1   2
ATOM      2  C   UNL     1    -116.652 -99.044  41.469  1.00  0.00     0.041 C 
ATOM      3  O   UNL     1    -115.798 -99.914  41.154  1.00  0.00    -0.550 OA
ATOM      4  O   UNL     1    -117.419 -98.442  40.479  1.00  0.00    -0.550 OA
ENDBRANCH   1   2
BRANCH   1   5
ATOM      5  C   UNL     1    -117.768 -99.558  43.632  1.00  0.00     0.003 C 
ATOM      6  C   UNL     1    -117.834 -99.223  45.118  1.00  0.00     0.004 C 
ENDBRANCH   1   5
TORSDOF 2
ENDMDL
MODEL 9
REMARK VINA RESULT:    -2.591      9.198      9.676
REMARK INTER + INTRA:          -2.926
REMARK INTER:                  -2.884
REMARK INTRA:                  -0.041
REMARK UNBOUND:                -0.031
REMARK SMILES CCCC(=O)[O-]
REMARK SMILES IDX 3 1 4 2 5 3 6 4 2 5 1 6
REMARK H PARENT
REMARK Flexibility Score: inf
ROOT
ATOM      1  C   UNL     1    -118.516 -97.633  32.172  1.00  0.00     0.052 C 
ENDROOT
BRANCH   1   2
ATOM      2  C   UNL     1    -118.587 -97.549  30.680  1.00  0.00     0.041 C 
ATOM      3  O   UNL     1    -118.793 -98.587  29.996  1.00  0.00    -0.550 OA
ATOM      4  O   UNL     1    -118.376 -96.334  30.041  1.00  0.00    -0.550 OA
ENDBRANCH   1   2
BRANCH   1   5
ATOM      5  C   UNL     1    -117.097 -97.993  32.622  1.00  0.00     0.003 C 
ATOM      6  C   UNL     1    -116.317 -96.749  33.034  1.00  0.00     0.004 C 
ENDBRANCH   1   5
TORSDOF 2
ENDMDL
