MODEL 1
REMARK VINA RESULT:    -4.661      0.000      0.000
REMARK INTER + INTRA:          -7.064
REMARK INTER:                  -6.569
REMARK INTRA:                  -0.495
REMARK UNBOUND:                -0.495
REMARK SMILES CCCCCCCCC(=O)[O-]
REMARK SMILES IDX 6 1 7 2 8 3 9 4 10 5 11 6 5 7 4 8 3 9 2 10 1 11
REMARK H PARENT
REMARK Flexibility Score: inf
ROOT
ATOM      1  C   UNL     1       3.943  46.047  10.988  1.00  0.00     0.000 C 
ENDROOT
BRANCH   1   2
ATOM      2  C   UNL     1       4.879  46.115   9.765  1.00  0.00     0.006 C 
BRANCH   2   3
ATOM      3  C   UNL     1       4.893  47.489   9.078  1.00  0.00     0.053 C 
BRANCH   3   4
ATOM      4  C   UNL     1       6.234  48.150   9.157  1.00  0.00     0.041 C 
ATOM      5  O   UNL     1       6.364  49.359   8.833  1.00  0.00    -0.550 OA
ATOM      6  O   UNL     1       7.345  47.422   9.565  1.00  0.00    -0.550 OA
ENDBRANCH   3   4
ENDBRANCH   2   3
ENDBRANCH   1   2
BRANCH   1   7
ATOM      7  C   UNL     1       4.107  44.737  11.782  1.00  0.00     0.000 C 
BRANCH   7   8
ATOM      8  C   UNL     1       2.817  43.902  11.816  1.00  0.00    -0.000 C 
BRANCH   8   9
ATOM      9  C   UNL     1       2.971  42.543  11.113  1.00  0.00    -0.000 C 
BRANCH   9  10
ATOM     10  C   UNL     1       2.804  42.646   9.590  1.00  0.00    -0.003 C 
ATOM     11  C   UNL     1       1.750  43.676   9.180  1.00  0.00     0.004 C 
ENDBRANCH   9  10
ENDBRANCH   8   9
ENDBRANCH   7   8
ENDBRANCH   1   7
TORSDOF 7
ENDMDL
MODEL 2
REMARK VINA RESULT:    -4.502      1.931      2.249
REMARK INTER + INTRA:          -6.839
REMARK INTER:                  -6.127
REMARK INTRA:                  -0.712
REMARK UNBOUND:                -0.495
REMARK SMILES CCCCCCCCC(=O)[O-]
REMARK SMILES IDX 6 1 7 2 8 3 9 4 10 5 11 6 5 7 4 8 3 9 2 10 1 11
REMARK H PARENT
REMARK Flexibility Score: inf
ROOT
ATOM      1  C   UNL     1       4.606  44.942  11.235  1.00  0.00     0.000 C 
ENDROOT
BRANCH   1   2
ATOM      2  C   UNL     1       3.984  46.246  10.697  1.00  0.00     0.006 C 
BRANCH   2   3
ATOM      3  C   UNL     1       4.262  46.491   9.206  1.00  0.00     0.053 C 
BRANCH   3   4
ATOM      4  C   UNL     1       3.291  47.454   8.596  1.00  0.00     0.041 C 
ATOM      5  O   UNL     1       3.585  48.063   7.534  1.00  0.00    -0.550 OA
ATOM      6  O   UNL     1       2.072  47.697   9.216  1.00  0.00    -0.550 OA
ENDBRANCH   3   4
ENDBRANCH   2   3
ENDBRANCH   1   2
BRANCH   1   7
ATOM      7  C   UNL     1       3.714  44.256  12.285  1.00  0.00     0.000 C 
BRANCH   7   8
ATOM      8  C   UNL     1       2.401  43.723  11.689  1.00  0.00    -0.000 C 
BRANCH   8   9
ATOM      9  C   UNL     1       2.631  42.626  10.635  1.00  0.00    -0.000 C 
BRANCH   9  10
ATOM     10  C   UNL     1       2.347  43.114   9.207  1.00  0.00    -0.003 C 
ATOM     11  C   UNL     1       1.276  44.204   9.157  1.00  0.00     0.004 C 
ENDBRANCH   9  10
ENDBRANCH   8   9
ENDBRANCH   7   8
ENDBRANCH   1   7
TORSDOF 7
ENDMDL
MODEL 3
REMARK VINA RESULT:    -4.462      0.818      1.684
REMARK INTER + INTRA:          -6.783
REMARK INTER:                  -6.352
REMARK INTRA:                  -0.431
REMARK UNBOUND:                -0.495
REMARK SMILES CCCCCCCCC(=O)[O-]
REMARK SMILES IDX 6 1 7 2 8 3 9 4 10 5 11 6 5 7 4 8 3 9 2 10 1 11
REMARK H PARENT
REMARK Flexibility Score: inf
ROOT
ATOM      1  C   UNL     1       3.725  46.017  10.915  1.00  0.00     0.000 C 
ENDROOT
BRANCH   1   2
ATOM      2  C   UNL     1       4.880  46.097   9.896  1.00  0.00     0.006 C 
BRANCH   2   3
ATOM      3  C   UNL     1       4.919  47.419   9.115  1.00  0.00     0.053 C 
BRANCH   3   4
ATOM      4  C   UNL     1       6.267  48.069   9.166  1.00  0.00     0.041 C 
ATOM      5  O   UNL     1       7.267  47.423   9.575  1.00  0.00    -0.550 OA
ATOM      6  O   UNL     1       6.413  49.398   8.785  1.00  0.00    -0.550 OA
ENDBRANCH   3   4
ENDBRANCH   2   3
ENDBRANCH   1   2
BRANCH   1   7
ATOM      7  C   UNL     1       2.342  46.067  10.241  1.00  0.00     0.000 C 
BRANCH   7   8
ATOM      8  C   UNL     1       1.492  44.823  10.544  1.00  0.00    -0.000 C 
BRANCH   8   9
ATOM      9  C   UNL     1       2.035  44.007  11.730  1.00  0.00    -0.000 C 
BRANCH   9  10
ATOM     10  C   UNL     1       2.572  42.633  11.302  1.00  0.00    -0.003 C 
ATOM     11  C   UNL     1       2.767  42.520   9.791  1.00  0.00     0.004 C 
ENDBRANCH   9  10
ENDBRANCH   8   9
ENDBRANCH   7   8
ENDBRANCH   1   7
TORSDOF 7
ENDMDL
MODEL 4
REMARK VINA RESULT:    -4.423      3.933      6.126
REMARK INTER + INTRA:          -6.727
REMARK INTER:                  -6.435
REMARK INTRA:                  -0.293
REMARK UNBOUND:                -0.495
REMARK SMILES CCCCCCCCC(=O)[O-]
REMARK SMILES IDX 6 1 7 2 8 3 9 4 10 5 11 6 5 7 4 8 3 9 2 10 1 11
REMARK H PARENT
REMARK Flexibility Score: inf
ROOT
ATOM      1  C   UNL     1       4.160  44.148  12.170  1.00  0.00     0.000 C 
ENDROOT
BRANCH   1   2
ATOM      2  C   UNL     1       2.860  43.338  11.994  1.00  0.00     0.006 C 
BRANCH   2   3
ATOM      3  C   UNL     1       3.064  42.000  11.267  1.00  0.00     0.053 C 
BRANCH   3   4
ATOM      4  C   UNL     1       3.389  40.883  12.210  1.00  0.00     0.041 C 
ATOM      5  O   UNL     1       2.469  40.167  12.684  1.00  0.00    -0.550 OA
ATOM      6  O   UNL     1       4.706  40.650  12.583  1.00  0.00    -0.550 OA
ENDBRANCH   3   4
ENDBRANCH   2   3
ENDBRANCH   1   2
BRANCH   1   7
ATOM      7  C   UNL     1       4.598  44.845  10.870  1.00  0.00     0.000 C 
BRANCH   7   8
ATOM      8  C   UNL     1       3.729  46.068  10.533  1.00  0.00    -0.000 C 
BRANCH   8   9
ATOM      9  C   UNL     1       4.339  46.943   9.426  1.00  0.00    -0.000 C 
BRANCH   9  10
ATOM     10  C   UNL     1       5.859  47.104   9.573  1.00  0.00    -0.003 C 
ATOM     11  C   UNL     1       6.337  48.519   9.247  1.00  0.00     0.004 C 
ENDBRANCH   9  10
ENDBRANCH   8   9
ENDBRANCH   7   8
ENDBRANCH   1   7
TORSDOF 7
ENDMDL
MODEL 5
REMARK VINA RESULT:    -4.417      1.308      2.065
REMARK INTER + INTRA:          -6.719
REMARK INTER:                  -6.119
REMARK INTRA:                  -0.600
REMARK UNBOUND:                -0.495
REMARK SMILES CCCCCCCCC(=O)[O-]
REMARK SMILES IDX 6 1 7 2 8 3 9 4 10 5 11 6 5 7 4 8 3 9 2 10 1 11
REMARK H PARENT
REMARK Flexibility Score: inf
ROOT
ATOM      1  C   UNL     1       4.384  44.357  11.565  1.00  0.00     0.000 C 
ENDROOT
BRANCH   1   2
ATOM      2  C   UNL     1       4.257  45.790  11.009  1.00  0.00     0.006 C 
BRANCH   2   3
ATOM      3  C   UNL     1       4.509  45.887   9.497  1.00  0.00     0.053 C 
BRANCH   3   4
ATOM      4  C   UNL     1       5.227  47.146   9.120  1.00  0.00     0.041 C 
ATOM      5  O   UNL     1       6.412  47.337   9.499  1.00  0.00    -0.550 OA
ATOM      6  O   UNL     1       4.577  48.118   8.370  1.00  0.00    -0.550 OA
ENDBRANCH   3   4
ENDBRANCH   2   3
ENDBRANCH   1   2
BRANCH   1   7
ATOM      7  C   UNL     1       4.106  43.285  10.496  1.00  0.00     0.000 C 
BRANCH   7   8
ATOM      8  C   UNL     1       2.613  42.939  10.381  1.00  0.00    -0.000 C 
BRANCH   8   9
ATOM      9  C   UNL     1       1.820  43.305  11.647  1.00  0.00    -0.000 C 
BRANCH   9  10
ATOM     10  C   UNL     1       0.753  44.378  11.384  1.00  0.00    -0.003 C 
ATOM     11  C   UNL     1       0.795  44.914   9.953  1.00  0.00     0.004 C 
ENDBRANCH   9  10
ENDBRANCH   8   9
ENDBRANCH   7   8
ENDBRANCH   1   7
TORSDOF 7
ENDMDL
MODEL 6
REMARK VINA RESULT:    -4.393      3.172      5.705
REMARK INTER + INTRA:          -6.685
REMARK INTER:                  -6.384
REMARK INTRA:                  -0.302
REMARK UNBOUND:                -0.495
REMARK SMILES CCCCCCCCC(=O)[O-]
REMARK SMILES IDX 6 1 7 2 8 3 9 4 10 5 11 6 5 7 4 8 3 9 2 10 1 11
REMARK H PARENT
REMARK Flexibility Score: inf
ROOT
ATOM      1  C   UNL     1       2.707  45.064   9.762  1.00  0.00     0.000 C 
ENDROOT
BRANCH   1   2
ATOM      2  C   UNL     1       3.628  43.856   9.494  1.00  0.00     0.006 C 
BRANCH   2   3
ATOM      3  C   UNL     1       3.041  42.519   9.969  1.00  0.00     0.053 C 
BRANCH   3   4
ATOM      4  C   UNL     1       3.417  42.203  11.383  1.00  0.00     0.041 C 
ATOM      5  O   UNL     1       4.153  42.991  12.034  1.00  0.00    -0.550 OA
ATOM      6  O   UNL     1       2.975  41.026  11.974  1.00  0.00    -0.550 OA
ENDBRANCH   3   4
ENDBRANCH   2   3
ENDBRANCH   1   2
BRANCH   1   7
ATOM      7  C   UNL     1       3.466  46.258  10.370  1.00  0.00     0.000 C 
BRANCH   7   8
ATOM      8  C   UNL     1       4.862  46.444   9.755  1.00  0.00    -0.000 C 
BRANCH   8   9
ATOM      9  C   UNL     1       4.980  47.737   8.930  1.00  0.00    -0.000 C 
BRANCH   9  10
ATOM     10  C   UNL     1       6.334  48.436   9.121  1.00  0.00    -0.003 C 
ATOM     11  C   UNL     1       7.446  47.468   9.525  1.00  0.00     0.004 C 
ENDBRANCH   9  10
ENDBRANCH   8   9
ENDBRANCH   7   8
ENDBRANCH   1   7
TORSDOF 7
ENDMDL
MODEL 7
REMARK VINA RESULT:    -4.325      2.000      3.109
REMARK INTER + INTRA:          -6.589
REMARK INTER:                  -5.889
REMARK INTRA:                  -0.700
REMARK UNBOUND:                -0.495
REMARK SMILES CCCCCCCCC(=O)[O-]
REMARK SMILES IDX 6 1 7 2 8 3 9 4 10 5 11 6 5 7 4 8 3 9 2 10 1 11
REMARK H PARENT
REMARK Flexibility Score: inf
ROOT
ATOM      1  C   UNL     1       1.136  44.683  10.001  1.00  0.00     0.000 C 
ENDROOT
BRANCH   1   2
ATOM      2  C   UNL     1       1.120  46.104   9.403  1.00  0.00     0.006 C 
BRANCH   2   3
ATOM      3  C   UNL     1       2.277  46.990   9.890  1.00  0.00     0.053 C 
BRANCH   3   4
ATOM      4  C   UNL     1       3.438  46.979   8.945  1.00  0.00     0.041 C 
ATOM      5  O   UNL     1       3.439  47.729   7.934  1.00  0.00    -0.550 OA
ATOM      6  O   UNL     1       4.509  46.123   9.170  1.00  0.00    -0.550 OA
ENDBRANCH   3   4
ENDBRANCH   2   3
ENDBRANCH   1   2
BRANCH   1   7
ATOM      7  C   UNL     1       1.641  43.630   8.998  1.00  0.00     0.000 C 
BRANCH   7   8
ATOM      8  C   UNL     1       2.912  42.914   9.483  1.00  0.00    -0.000 C 
BRANCH   8   9
ATOM      9  C   UNL     1       2.800  42.426  10.938  1.00  0.00    -0.000 C 
BRANCH   9  10
ATOM     10  C   UNL     1       4.041  42.778  11.773  1.00  0.00    -0.003 C 
ATOM     11  C   UNL     1       4.107  44.261  12.136  1.00  0.00     0.004 C 
ENDBRANCH   9  10
ENDBRANCH   8   9
ENDBRANCH   7   8
ENDBRANCH   1   7
TORSDOF 7
ENDMDL
MODEL 8
REMARK VINA RESULT:    -4.246      2.845      5.079
REMARK INTER + INTRA:          -6.478
REMARK INTER:                  -5.982
REMARK INTRA:                  -0.497
REMARK UNBOUND:                -0.495
REMARK SMILES CCCCCCCCC(=O)[O-]
REMARK SMILES IDX 6 1 7 2 8 3 9 4 10 5 11 6 5 7 4 8 3 9 2 10 1 11
REMARK H PARENT
REMARK Flexibility Score: inf
ROOT
ATOM      1  C   UNL     1       1.362  44.349   9.740  1.00  0.00     0.000 C 
ENDROOT
BRANCH   1   2
ATOM      2  C   UNL     1       1.160  44.134  11.253  1.00  0.00     0.006 C 
BRANCH   2   3
ATOM      3  C   UNL     1       2.077  43.055  11.849  1.00  0.00     0.053 C 
BRANCH   3   4
ATOM      4  C   UNL     1       3.528  43.391  11.692  1.00  0.00     0.041 C 
ATOM      5  O   UNL     1       4.209  42.850  10.782  1.00  0.00    -0.550 OA
ATOM      6  O   UNL     1       4.132  44.285  12.567  1.00  0.00    -0.550 OA
ENDBRANCH   3   4
ENDBRANCH   2   3
ENDBRANCH   1   2
BRANCH   1   7
ATOM      7  C   UNL     1       1.293  45.835   9.343  1.00  0.00     0.000 C 
BRANCH   7   8
ATOM      8  C   UNL     1       2.388  46.678  10.016  1.00  0.00    -0.000 C 
BRANCH   8   9
ATOM      9  C   UNL     1       3.616  46.885   9.115  1.00  0.00    -0.000 C 
BRANCH   9  10
ATOM     10  C   UNL     1       4.927  46.472   9.802  1.00  0.00    -0.003 C 
ATOM     11  C   UNL     1       6.116  47.328   9.367  1.00  0.00     0.004 C 
ENDBRANCH   9  10
ENDBRANCH   8   9
ENDBRANCH   7   8
ENDBRANCH   1   7
TORSDOF 7
ENDMDL
MODEL 9
REMARK VINA RESULT:    -4.217      3.419      4.995
REMARK INTER + INTRA:          -6.437
REMARK INTER:                  -5.757
REMARK INTRA:                  -0.680
REMARK UNBOUND:                -0.495
REMARK SMILES CCCCCCCCC(=O)[O-]
REMARK SMILES IDX 6 1 7 2 8 3 9 4 10 5 11 6 5 7 4 8 3 9 2 10 1 11
REMARK H PARENT
REMARK Flexibility Score: inf
ROOT
ATOM      1  C   UNL     1       4.068  45.935  10.996  1.00  0.00     0.000 C 
ENDROOT
BRANCH   1   2
ATOM      2  C   UNL     1       4.371  44.536  11.568  1.00  0.00     0.006 C 
BRANCH   2   3
ATOM      3  C   UNL     1       3.113  43.744  11.955  1.00  0.00     0.053 C 
BRANCH   3   4
ATOM      4  C   UNL     1       2.983  42.469  11.181  1.00  0.00     0.041 C 
ATOM      5  O   UNL     1       2.823  42.500   9.932  1.00  0.00    -0.550 OA
ATOM      6  O   UNL     1       3.015  41.248  11.842  1.00  0.00    -0.550 OA
ENDBRANCH   3   4
ENDBRANCH   2   3
ENDBRANCH   1   2
BRANCH   1   7
ATOM      7  C   UNL     1       4.442  46.055   9.508  1.00  0.00     0.000 C 
BRANCH   7   8
ATOM      8  C   UNL     1       3.531  47.031   8.746  1.00  0.00    -0.000 C 
BRANCH   8   9
ATOM      9  C   UNL     1       2.154  47.199   9.411  1.00  0.00    -0.000 C 
BRANCH   9  10
ATOM     10  C   UNL     1       1.107  46.225   8.850  1.00  0.00    -0.003 C 
ATOM     11  C   UNL     1       0.487  45.337   9.929  1.00  0.00     0.004 C 
ENDBRANCH   9  10
ENDBRANCH   8   9
ENDBRANCH   7   8
ENDBRANCH   1   7
TORSDOF 7
ENDMDL
