MODEL 1
REMARK VINA RESULT:    -5.149      0.000      0.000
REMARK INTER + INTRA:          -6.595
REMARK INTER:                  -7.256
REMARK INTRA:                   0.662
REMARK UNBOUND:                 0.662
REMARK SMILES CC1=CCC(=C(C)C)C(=O)CC(C)=CCC1
REMARK SMILES IDX 12 1 14 2 13 3 15 4 16 5 2 6 1 7 3 8 11 10 9 11 10 12 5 13
REMARK SMILES IDX 6 14 7 15 8 16 4 17
REMARK H PARENT
REMARK Flexibility Score: 60.00
ROOT
ATOM      1  C   UNL     1      34.313  19.183  24.700  1.00  0.00    -0.070 C 
ATOM      2  C   UNL     1      34.252  20.348  24.016  1.00  0.00    -0.027 C 
ATOM      3  C   UNL     1      35.560  18.347  24.569  1.00  0.00     0.039 C 
ENDROOT
BRANCH   2   4
ATOM      4  C   UNL     1      33.152  21.370  24.146  1.00  0.00     0.032 C 
BRANCH   4   5
ATOM      5  C   UNL     1      32.589  21.708  22.761  1.00  0.00     0.034 C 
BRANCH   5   6
ATOM      6  C   UNL     1      32.109  20.480  22.013  1.00  0.00    -0.077 C 
ATOM      7  C   UNL     1      32.775  20.124  20.708  1.00  0.00     0.039 C 
ATOM      8  C   UNL     1      31.061  19.720  22.416  1.00  0.00    -0.023 CG0
ATOM      9  G   UNL     1      30.275  19.841  23.709  1.00  0.00     0.000 G0
ENDBRANCH   5   6
ENDBRANCH   4   5
ENDBRANCH   2   4
BRANCH   1  10
ATOM     10  C   UNL     1      33.185  18.667  25.573  1.00  0.00     0.111 C 
BRANCH  10  11
ATOM     11  C   UNL     1      31.999  18.219  24.754  1.00  0.00     0.163 C 
ATOM     12  O   UNL     1      32.180  17.256  23.961  1.00  0.00    -0.294 OA
BRANCH  11  13
ATOM     13  C   UNL     1      30.646  18.866  24.821  1.00  0.00    -0.002 C 
ATOM     14  C   UNL     1      29.735  18.477  25.765  1.00  0.00    -0.069 C 
ATOM     15  C   UNL     1      30.133  17.608  26.937  1.00  0.00     0.039 C 
ATOM     16  C   UNL     1      28.293  18.931  25.722  1.00  0.00     0.039 C 
BRANCH  13  17
ATOM     17  C   UNL     1      30.261  19.828  23.701  1.00  0.00     0.066 CG0
ATOM     18  G   UNL     1      31.064  19.724  22.417  1.00  0.00     0.000 G0
ENDBRANCH  13  17
ENDBRANCH  11  13
ENDBRANCH  10  11
ENDBRANCH   1  10
TORSDOF 0
ENDMDL
MODEL 2
REMARK VINA RESULT:    -4.997      1.982      4.736
REMARK INTER + INTRA:          -6.380
REMARK INTER:                  -6.541
REMARK INTRA:                   0.161
REMARK UNBOUND:                 0.662
REMARK SMILES CC1=CCC(=C(C)C)C(=O)CC(C)=CCC1
REMARK SMILES IDX 12 1 14 2 13 3 15 4 16 5 2 6 1 7 3 8 11 10 9 11 10 12 5 13
REMARK SMILES IDX 6 14 7 15 8 16 4 17
REMARK H PARENT
REMARK Flexibility Score: 60.00
ROOT
ATOM      1  C   UNL     1      32.492  21.346  22.688  1.00  0.00    -0.070 C 
ATOM      2  C   UNL     1      31.290  20.741  22.548  1.00  0.00    -0.027 C 
ATOM      3  C   UNL     1      33.122  21.965  21.466  1.00  0.00     0.039 C 
ENDROOT
BRANCH   2   4
ATOM      4  C   UNL     1      30.455  20.204  23.681  1.00  0.00     0.032 C 
BRANCH   4   5
ATOM      5  C   UNL     1      30.712  18.702  23.851  1.00  0.00     0.034 C 
BRANCH   5   6
ATOM      6  C   UNL     1      31.139  18.342  25.260  1.00  0.00    -0.077 C 
ATOM      7  C   UNL     1      30.082  18.232  26.329  1.00  0.00     0.039 C 
ATOM      8  C   UNL     1      32.433  18.183  25.633  1.00  0.00    -0.023 CG0
ATOM      9  G   UNL     1      33.660  18.189  24.739  1.00  0.00     0.000 G0
ENDBRANCH   5   6
ENDBRANCH   4   5
ENDBRANCH   2   4
BRANCH   1  10
ATOM     10  C   UNL     1      33.242  21.416  24.003  1.00  0.00     0.111 C 
BRANCH  10  11
ATOM     11  C   UNL     1      34.464  20.530  24.003  1.00  0.00     0.163 C 
ATOM     12  O   UNL     1      35.371  20.803  23.171  1.00  0.00    -0.294 OA
BRANCH  11  13
ATOM     13  C   UNL     1      34.639  19.348  24.912  1.00  0.00    -0.002 C 
ATOM     14  C   UNL     1      35.724  19.264  25.742  1.00  0.00    -0.069 C 
ATOM     15  C   UNL     1      36.623  20.454  25.990  1.00  0.00     0.039 C 
ATOM     16  C   UNL     1      36.059  17.997  26.496  1.00  0.00     0.039 C 
BRANCH  13  17
ATOM     17  C   UNL     1      33.677  18.176  24.748  1.00  0.00     0.066 CG0
ATOM     18  G   UNL     1      32.443  18.187  25.632  1.00  0.00     0.000 G0
ENDBRANCH  13  17
ENDBRANCH  11  13
ENDBRANCH  10  11
ENDBRANCH   1  10
TORSDOF 0
ENDMDL
MODEL 3
REMARK VINA RESULT:    -4.875      1.741      4.214
REMARK INTER + INTRA:          -6.207
REMARK INTER:                  -6.481
REMARK INTRA:                   0.274
REMARK UNBOUND:                 0.662
REMARK SMILES CC1=CCC(=C(C)C)C(=O)CC(C)=CCC1
REMARK SMILES IDX 12 1 14 2 13 3 15 4 16 5 2 6 1 7 3 8 11 10 9 11 10 12 5 13
REMARK SMILES IDX 6 14 7 15 8 16 4 17
REMARK H PARENT
REMARK Flexibility Score: 60.00
ROOT
ATOM      1  C   UNL     1      31.252  18.591  24.536  1.00  0.00    -0.070 C 
ATOM      2  C   UNL     1      30.535  19.410  23.732  1.00  0.00    -0.027 C 
ATOM      3  C   UNL     1      30.660  18.211  25.869  1.00  0.00     0.039 C 
ENDROOT
BRANCH   2   4
ATOM      4  C   UNL     1      30.905  19.770  22.316  1.00  0.00     0.032 C 
BRANCH   4   5
ATOM      5  C   UNL     1      31.616  21.128  22.293  1.00  0.00     0.034 C 
BRANCH   5   6
ATOM      6  C   UNL     1      33.005  21.046  21.693  1.00  0.00    -0.077 C 
ATOM      7  C   UNL     1      33.145  21.060  20.192  1.00  0.00     0.039 C 
ATOM      8  C   UNL     1      34.132  20.888  22.430  1.00  0.00    -0.023 CG0
ATOM      9  G   UNL     1      34.256  20.902  23.943  1.00  0.00     0.000 G0
ENDBRANCH   5   6
ENDBRANCH   4   5
ENDBRANCH   2   4
BRANCH   1  10
ATOM     10  C   UNL     1      32.623  18.056  24.174  1.00  0.00     0.111 C 
BRANCH  10  11
ATOM     11  C   UNL     1      33.702  18.622  25.064  1.00  0.00     0.163 C 
ATOM     12  O   UNL     1      33.699  18.259  26.272  1.00  0.00    -0.294 OA
BRANCH  11  13
ATOM     13  C   UNL     1      34.746  19.595  24.596  1.00  0.00    -0.002 C 
ATOM     14  C   UNL     1      36.066  19.394  24.894  1.00  0.00    -0.069 C 
ATOM     15  C   UNL     1      36.561  18.074  25.441  1.00  0.00     0.039 C 
ATOM     16  C   UNL     1      37.113  20.457  24.648  1.00  0.00     0.039 C 
BRANCH  13  17
ATOM     17  C   UNL     1      34.270  20.891  23.947  1.00  0.00     0.066 CG0
ATOM     18  G   UNL     1      34.135  20.878  22.435  1.00  0.00     0.000 G0
ENDBRANCH  13  17
ENDBRANCH  11  13
ENDBRANCH  10  11
ENDBRANCH   1  10
TORSDOF 0
ENDMDL
MODEL 4
REMARK VINA RESULT:    -4.627      5.044      7.876
REMARK INTER + INTRA:          -5.859
REMARK INTER:                  -6.122
REMARK INTRA:                   0.262
REMARK UNBOUND:                 0.662
REMARK SMILES CC1=CCC(=C(C)C)C(=O)CC(C)=CCC1
REMARK SMILES IDX 12 1 14 2 13 3 15 4 16 5 2 6 1 7 3 8 11 10 9 11 10 12 5 13
REMARK SMILES IDX 6 14 7 15 8 16 4 17
REMARK H PARENT
REMARK Flexibility Score: 60.00
ROOT
ATOM      1  C   UNL     1      35.302  19.998  24.863  1.00  0.00    -0.070 C 
ATOM      2  C   UNL     1      35.356  18.647  24.926  1.00  0.00    -0.027 C 
ATOM      3  C   UNL     1      34.472  20.625  23.772  1.00  0.00     0.039 C 
ENDROOT
BRANCH   2   4
ATOM      4  C   UNL     1      36.012  17.859  26.030  1.00  0.00     0.032 C 
BRANCH   4   5
ATOM      5  C   UNL     1      37.412  17.415  25.591  1.00  0.00     0.034 C 
BRANCH   5   6
ATOM      6  C   UNL     1      38.357  17.236  26.762  1.00  0.00    -0.077 C 
ATOM      7  C   UNL     1      38.272  15.966  27.571  1.00  0.00     0.039 C 
ATOM      8  C   UNL     1      39.232  18.188  27.172  1.00  0.00    -0.023 CG0
ATOM      9  G   UNL     1      39.540  19.512  26.497  1.00  0.00     0.000 G0
ENDBRANCH   5   6
ENDBRANCH   4   5
ENDBRANCH   2   4
BRANCH   1  10
ATOM     10  C   UNL     1      36.047  20.907  25.819  1.00  0.00     0.111 C 
BRANCH  10  11
ATOM     11  C   UNL     1      37.537  20.873  25.583  1.00  0.00     0.163 C 
ATOM     12  O   UNL     1      37.934  21.022  24.396  1.00  0.00    -0.294 OA
BRANCH  11  13
ATOM     13  C   UNL     1      38.550  20.652  26.670  1.00  0.00    -0.002 C 
ATOM     14  C   UNL     1      38.667  21.542  27.703  1.00  0.00    -0.069 C 
ATOM     15  C   UNL     1      37.620  22.604  27.953  1.00  0.00     0.039 C 
ATOM     16  C   UNL     1      39.817  21.485  28.683  1.00  0.00     0.039 C 
BRANCH  13  17
ATOM     17  C   UNL     1      39.553  19.518  26.487  1.00  0.00     0.066 CG0
ATOM     18  G   UNL     1      39.222  18.206  27.174  1.00  0.00     0.000 G0
ENDBRANCH  13  17
ENDBRANCH  11  13
ENDBRANCH  10  11
ENDBRANCH   1  10
TORSDOF 0
ENDMDL
MODEL 5
REMARK VINA RESULT:    -4.592      5.946      8.238
REMARK INTER + INTRA:          -5.810
REMARK INTER:                  -5.886
REMARK INTRA:                   0.076
REMARK UNBOUND:                 0.662
REMARK SMILES CC1=CCC(=C(C)C)C(=O)CC(C)=CCC1
REMARK SMILES IDX 12 1 14 2 13 3 15 4 16 5 2 6 1 7 3 8 11 10 9 11 10 12 5 13
REMARK SMILES IDX 6 14 7 15 8 16 4 17
REMARK H PARENT
REMARK Flexibility Score: 60.00
ROOT
ATOM      1  C   UNL     1      37.352  17.375  25.700  1.00  0.00    -0.070 C 
ATOM      2  C   UNL     1      36.326  18.219  25.445  1.00  0.00    -0.027 C 
ATOM      3  C   UNL     1      37.714  16.359  24.647  1.00  0.00     0.039 C 
ENDROOT
BRANCH   2   4
ATOM      4  C   UNL     1      35.928  19.383  26.315  1.00  0.00     0.032 C 
BRANCH   4   5
ATOM      5  C   UNL     1      36.470  20.688  25.720  1.00  0.00     0.034 C 
BRANCH   5   6
ATOM      6  C   UNL     1      37.635  21.247  26.512  1.00  0.00    -0.077 C 
ATOM      7  C   UNL     1      37.345  22.165  27.672  1.00  0.00     0.039 C 
ATOM      8  C   UNL     1      38.934  21.027  26.191  1.00  0.00    -0.023 CG0
ATOM      9  G   UNL     1      39.476  20.104  25.114  1.00  0.00     0.000 G0
ENDBRANCH   5   6
ENDBRANCH   4   5
ENDBRANCH   2   4
BRANCH   1  10
ATOM     10  C   UNL     1      38.141  17.387  26.994  1.00  0.00     0.111 C 
BRANCH  10  11
ATOM     11  C   UNL     1      39.414  18.187  26.871  1.00  0.00     0.163 C 
ATOM     12  O   UNL     1      40.040  18.438  27.937  1.00  0.00    -0.294 OA
BRANCH  11  13
ATOM     13  C   UNL     1      39.952  18.707  25.568  1.00  0.00    -0.002 C 
ATOM     14  C   UNL     1      40.943  18.034  24.907  1.00  0.00    -0.069 C 
ATOM     15  C   UNL     1      41.335  16.625  25.293  1.00  0.00     0.039 C 
ATOM     16  C   UNL     1      41.670  18.636  23.726  1.00  0.00     0.039 C 
BRANCH  13  17
ATOM     17  C   UNL     1      39.490  20.086  25.109  1.00  0.00     0.066 CG0
ATOM     18  G   UNL     1      38.951  21.011  26.185  1.00  0.00     0.000 G0
ENDBRANCH  13  17
ENDBRANCH  11  13
ENDBRANCH  10  11
ENDBRANCH   1  10
TORSDOF 0
ENDMDL
MODEL 6
REMARK VINA RESULT:    -4.579      1.622      4.369
REMARK INTER + INTRA:          -5.791
REMARK INTER:                  -6.003
REMARK INTRA:                   0.211
REMARK UNBOUND:                 0.662
REMARK SMILES CC1=CCC(=C(C)C)C(=O)CC(C)=CCC1
REMARK SMILES IDX 12 1 14 2 13 3 15 4 16 5 2 6 1 7 3 8 11 10 9 11 10 12 5 13
REMARK SMILES IDX 6 14 7 15 8 16 4 17
REMARK H PARENT
REMARK Flexibility Score: 60.00
ROOT
ATOM      1  C   UNL     1      34.161  20.269  24.310  1.00  0.00    -0.070 C 
ATOM      2  C   UNL     1      33.979  19.059  24.887  1.00  0.00    -0.027 C 
ATOM      3  C   UNL     1      35.414  20.489  23.502  1.00  0.00     0.039 C 
ENDROOT
BRANCH   2   4
ATOM      4  C   UNL     1      32.726  18.622  25.601  1.00  0.00     0.032 C 
BRANCH   4   5
ATOM      5  C   UNL     1      31.829  17.831  24.642  1.00  0.00     0.034 C 
BRANCH   5   6
ATOM      6  C   UNL     1      30.649  18.644  24.147  1.00  0.00    -0.077 C 
ATOM      7  C   UNL     1      29.396  18.681  24.986  1.00  0.00     0.039 C 
ATOM      8  C   UNL     1      30.628  19.285  22.953  1.00  0.00    -0.023 CG0
ATOM      9  G   UNL     1      31.772  19.440  21.968  1.00  0.00     0.000 G0
ENDBRANCH   5   6
ENDBRANCH   4   5
ENDBRANCH   2   4
BRANCH   1  10
ATOM     10  C   UNL     1      33.181  21.417  24.452  1.00  0.00     0.111 C 
BRANCH  10  11
ATOM     11  C   UNL     1      32.398  21.649  23.183  1.00  0.00     0.163 C 
ATOM     12  O   UNL     1      31.597  22.623  23.173  1.00  0.00    -0.294 OA
BRANCH  11  13
ATOM     13  C   UNL     1      32.507  20.780  21.963  1.00  0.00    -0.002 C 
ATOM     14  C   UNL     1      33.098  21.253  20.823  1.00  0.00    -0.069 C 
ATOM     15  C   UNL     1      33.907  22.531  20.825  1.00  0.00     0.039 C 
ATOM     16  C   UNL     1      33.022  20.505  19.512  1.00  0.00     0.039 C 
BRANCH  13  17
ATOM     17  C   UNL     1      31.782  19.439  21.979  1.00  0.00     0.066 CG0
ATOM     18  G   UNL     1      30.624  19.308  22.951  1.00  0.00     0.000 G0
ENDBRANCH  13  17
ENDBRANCH  11  13
ENDBRANCH  10  11
ENDBRANCH   1  10
TORSDOF 0
ENDMDL
MODEL 7
REMARK VINA RESULT:    -4.572      6.505      8.812
REMARK INTER + INTRA:          -5.782
REMARK INTER:                  -5.912
REMARK INTRA:                   0.130
REMARK UNBOUND:                 0.662
REMARK SMILES CC1=CCC(=C(C)C)C(=O)CC(C)=CCC1
REMARK SMILES IDX 12 1 14 2 13 3 15 4 16 5 2 6 1 7 3 8 11 10 9 11 10 12 5 13
REMARK SMILES IDX 6 14 7 15 8 16 4 17
REMARK H PARENT
REMARK Flexibility Score: 60.00
ROOT
ATOM      1  C   UNL     1      37.374  18.294  25.776  1.00  0.00    -0.070 C 
ATOM      2  C   UNL     1      38.197  17.257  25.500  1.00  0.00    -0.027 C 
ATOM      3  C   UNL     1      36.213  18.052  26.706  1.00  0.00     0.039 C 
ENDROOT
BRANCH   2   4
ATOM      4  C   UNL     1      39.479  17.356  24.716  1.00  0.00     0.032 C 
BRANCH   4   5
ATOM      5  C   UNL     1      40.675  17.081  25.635  1.00  0.00     0.034 C 
BRANCH   5   6
ATOM      6  C   UNL     1      41.502  18.324  25.899  1.00  0.00    -0.077 C 
ATOM      7  C   UNL     1      42.769  18.529  25.107  1.00  0.00     0.039 C 
ATOM      8  C   UNL     1      41.205  19.231  26.862  1.00  0.00    -0.023 CG0
ATOM      9  G   UNL     1      39.968  19.274  27.741  1.00  0.00     0.000 G0
ENDBRANCH   5   6
ENDBRANCH   4   5
ENDBRANCH   2   4
BRANCH   1  10
ATOM     10  C   UNL     1      37.549  19.678  25.184  1.00  0.00     0.111 C 
BRANCH  10  11
ATOM     11  C   UNL     1      38.581  20.486  25.932  1.00  0.00     0.163 C 
ATOM     12  O   UNL     1      39.217  21.354  25.276  1.00  0.00    -0.294 OA
BRANCH  11  13
ATOM     13  C   UNL     1      38.897  20.294  27.388  1.00  0.00    -0.002 C 
ATOM     14  C   UNL     1      38.349  21.119  28.333  1.00  0.00    -0.069 C 
ATOM     15  C   UNL     1      37.206  22.052  28.000  1.00  0.00     0.039 C 
ATOM     16  C   UNL     1      38.816  21.111  29.771  1.00  0.00     0.039 C 
BRANCH  13  17
ATOM     17  C   UNL     1      39.977  19.281  27.754  1.00  0.00     0.066 CG0
ATOM     18  G   UNL     1      41.203  19.250  26.860  1.00  0.00     0.000 G0
ENDBRANCH  13  17
ENDBRANCH  11  13
ENDBRANCH  10  11
ENDBRANCH   1  10
TORSDOF 0
ENDMDL
MODEL 8
REMARK VINA RESULT:    -4.417      5.883      8.898
REMARK INTER + INTRA:          -5.562
REMARK INTER:                  -5.400
REMARK INTRA:                  -0.162
REMARK UNBOUND:                 0.662
REMARK SMILES CC1=CCC(=C(C)C)C(=O)CC(C)=CCC1
REMARK SMILES IDX 12 1 14 2 13 3 15 4 16 5 2 6 1 7 3 8 11 10 9 11 10 12 5 13
REMARK SMILES IDX 6 14 7 15 8 16 4 17
REMARK H PARENT
REMARK Flexibility Score: 60.00
ROOT
ATOM      1  C   UNL     1      36.653  20.258  25.251  1.00  0.00    -0.070 C 
ATOM      2  C   UNL     1      36.324  20.900  26.396  1.00  0.00    -0.027 C 
ATOM      3  C   UNL     1      35.536  19.763  24.369  1.00  0.00     0.039 C 
ENDROOT
BRANCH   2   4
ATOM      4  C   UNL     1      37.302  21.584  27.315  1.00  0.00     0.032 C 
BRANCH   4   5
ATOM      5  C   UNL     1      37.647  20.661  28.489  1.00  0.00     0.034 C 
BRANCH   5   6
ATOM      6  C   UNL     1      39.122  20.691  28.836  1.00  0.00    -0.077 C 
ATOM      7  C   UNL     1      39.654  21.858  29.629  1.00  0.00     0.039 C 
ATOM      8  C   UNL     1      40.011  19.759  28.411  1.00  0.00    -0.023 CG0
ATOM      9  G   UNL     1      39.715  18.476  27.657  1.00  0.00     0.000 G0
ENDBRANCH   5   6
ENDBRANCH   4   5
ENDBRANCH   2   4
BRANCH   1  10
ATOM     10  C   UNL     1      38.083  19.996  24.824  1.00  0.00     0.111 C 
BRANCH  10  11
ATOM     11  C   UNL     1      38.592  18.672  25.339  1.00  0.00     0.163 C 
ATOM     12  O   UNL     1      37.894  17.652  25.087  1.00  0.00    -0.294 OA
BRANCH  11  13
ATOM     13  C   UNL     1      39.852  18.516  26.140  1.00  0.00    -0.002 C 
ATOM     14  C   UNL     1      41.044  18.261  25.518  1.00  0.00    -0.069 C 
ATOM     15  C   UNL     1      41.202  18.409  24.021  1.00  0.00     0.039 C 
ATOM     16  C   UNL     1      42.283  17.868  26.291  1.00  0.00     0.039 C 
BRANCH  13  17
ATOM     17  C   UNL     1      39.727  18.467  27.659  1.00  0.00     0.066 CG0
ATOM     18  G   UNL     1      40.004  19.762  28.401  1.00  0.00     0.000 G0
ENDBRANCH  13  17
ENDBRANCH  11  13
ENDBRANCH  10  11
ENDBRANCH   1  10
TORSDOF 0
ENDMDL
MODEL 9
REMARK VINA RESULT:    -4.353      5.845      8.260
REMARK INTER + INTRA:          -5.472
REMARK INTER:                  -5.489
REMARK INTRA:                   0.017
REMARK UNBOUND:                 0.662
REMARK SMILES CC1=CCC(=C(C)C)C(=O)CC(C)=CCC1
REMARK SMILES IDX 12 1 14 2 13 3 15 4 16 5 2 6 1 7 3 8 11 10 9 11 10 12 5 13
REMARK SMILES IDX 6 14 7 15 8 16 4 17
REMARK H PARENT
REMARK Flexibility Score: 60.00
ROOT
ATOM      1  C   UNL     1      39.734  22.683  26.941  1.00  0.00    -0.070 C 
ATOM      2  C   UNL     1      40.716  22.105  27.671  1.00  0.00    -0.027 C 
ATOM      3  C   UNL     1      39.547  24.173  27.057  1.00  0.00     0.039 C 
ENDROOT
BRANCH   2   4
ATOM      4  C   UNL     1      41.136  20.662  27.566  1.00  0.00     0.032 C 
BRANCH   4   5
ATOM      5  C   UNL     1      40.319  19.810  28.544  1.00  0.00     0.034 C 
BRANCH   5   6
ATOM      6  C   UNL     1      40.011  18.431  27.995  1.00  0.00    -0.077 C 
ATOM      7  C   UNL     1      41.143  17.447  27.836  1.00  0.00     0.039 C 
ATOM      8  C   UNL     1      38.781  18.052  27.569  1.00  0.00    -0.023 CG0
ATOM      9  G   UNL     1      37.484  18.834  27.676  1.00  0.00     0.000 G0
ENDBRANCH   5   6
ENDBRANCH   4   5
ENDBRANCH   2   4
BRANCH   1  10
ATOM     10  C   UNL     1      38.804  21.905  26.032  1.00  0.00     0.111 C 
BRANCH  10  11
ATOM     11  C   UNL     1      37.669  21.269  26.797  1.00  0.00     0.163 C 
ATOM     12  O   UNL     1      37.110  21.971  27.683  1.00  0.00    -0.294 OA
BRANCH  11  13
ATOM     13  C   UNL     1      37.198  19.861  26.575  1.00  0.00    -0.002 C 
ATOM     14  C   UNL     1      36.408  19.553  25.501  1.00  0.00    -0.069 C 
ATOM     15  C   UNL     1      36.214  20.525  24.358  1.00  0.00     0.039 C 
ATOM     16  C   UNL     1      35.724  18.211  25.367  1.00  0.00     0.039 C 
BRANCH  13  17
ATOM     17  C   UNL     1      37.472  18.838  27.672  1.00  0.00     0.066 CG0
ATOM     18  G   UNL     1      38.770  18.058  27.559  1.00  0.00     0.000 G0
ENDBRANCH  13  17
ENDBRANCH  11  13
ENDBRANCH  10  11
ENDBRANCH   1  10
TORSDOF 0
ENDMDL
