MODEL 1
REMARK VINA RESULT:    -4.583      0.000      0.000
REMARK INTER + INTRA:          -6.670
REMARK INTER:                  -6.190
REMARK INTRA:                  -0.480
REMARK UNBOUND:                -0.480
REMARK SMILES [NH3+]CCCC[C@H]([NH3+])C(=O)[O-]
REMARK SMILES IDX 4 1 3 2 2 3 1 4 5 8 6 9 7 10 8 14 9 15 10 16
REMARK H PARENT 1 5 1 6 1 7 7 11 7 12 7 13
REMARK Flexibility Score: inf
ROOT
ATOM      1  C   UNL     1      28.003  17.506  22.537  1.00  0.00     0.012 C 
ENDROOT
BRANCH   1   2
ATOM      2  C   UNL     1      29.080  17.953  23.535  1.00  0.00     0.061 C 
BRANCH   2   3
ATOM      3  C   UNL     1      30.408  18.317  22.850  1.00  0.00     0.258 C 
BRANCH   3   4
ATOM      4  N   UNL     1      30.264  19.450  21.933  1.00  0.00    -0.358 N 
ATOM      5  H   UNL     1      30.056  19.112  20.967  1.00  0.00     0.344 HD
ATOM      6  H   UNL     1      29.466  20.045  22.252  1.00  0.00     0.344 HD
ATOM      7  H   UNL     1      31.135  20.030  21.930  1.00  0.00     0.344 HD
ENDBRANCH   3   4
ENDBRANCH   2   3
ENDBRANCH   1   2
BRANCH   1   8
ATOM      8  C   UNL     1      28.449  16.244  21.778  1.00  0.00     0.072 C 
BRANCH   8   9
ATOM      9  C   UNL     1      28.384  16.369  20.238  1.00  0.00     0.227 C 
BRANCH   9  10
ATOM     10  N   UNL     1      27.807  15.172  19.611  1.00  0.00    -0.350 N 
ATOM     11  H   UNL     1      28.081  14.319  20.151  1.00  0.00     0.345 HD
ATOM     12  H   UNL     1      26.763  15.242  19.622  1.00  0.00     0.345 HD
ATOM     13  H   UNL     1      28.123  15.067  18.621  1.00  0.00     0.345 HD
ENDBRANCH   9  10
BRANCH   9  14
ATOM     14  C   UNL     1      29.734  16.699  19.651  1.00  0.00     0.099 C 
ATOM     15  O   UNL     1      29.978  17.871  19.260  1.00  0.00    -0.544 OA
ATOM     16  O   UNL     1      30.734  15.735  19.581  1.00  0.00    -0.544 OA
ENDBRANCH   9  14
ENDBRANCH   8   9
ENDBRANCH   1   8
TORSDOF 7
ENDMDL
MODEL 2
REMARK VINA RESULT:    -4.547      2.517      3.656
REMARK INTER + INTRA:          -6.622
REMARK INTER:                  -6.203
REMARK INTRA:                  -0.419
REMARK UNBOUND:                -0.480
REMARK SMILES [NH3+]CCCC[C@H]([NH3+])C(=O)[O-]
REMARK SMILES IDX 4 1 3 2 2 3 1 4 5 8 6 9 7 10 8 14 9 15 10 16
REMARK H PARENT 1 5 1 6 1 7 7 11 7 12 7 13
REMARK Flexibility Score: inf
ROOT
ATOM      1  C   UNL     1      29.620  15.382  20.832  1.00  0.00     0.012 C 
ENDROOT
BRANCH   1   2
ATOM      2  C   UNL     1      30.366  15.791  19.554  1.00  0.00     0.061 C 
BRANCH   2   3
ATOM      3  C   UNL     1      29.656  16.923  18.792  1.00  0.00     0.258 C 
BRANCH   3   4
ATOM      4  N   UNL     1      30.456  18.149  18.752  1.00  0.00    -0.358 N 
ATOM      5  H   UNL     1      29.851  18.984  18.920  1.00  0.00     0.344 HD
ATOM      6  H   UNL     1      31.176  18.109  19.508  1.00  0.00     0.344 HD
ATOM      7  H   UNL     1      30.942  18.238  17.830  1.00  0.00     0.344 HD
ENDBRANCH   3   4
ENDBRANCH   2   3
ENDBRANCH   1   2
BRANCH   1   8
ATOM      8  C   UNL     1      28.395  16.284  21.065  1.00  0.00     0.072 C 
BRANCH   8   9
ATOM      9  C   UNL     1      28.230  16.773  22.523  1.00  0.00     0.227 C 
BRANCH   9  10
ATOM     10  N   UNL     1      26.821  16.996  22.874  1.00  0.00    -0.350 N 
ATOM     11  H   UNL     1      26.575  16.448  23.730  1.00  0.00     0.345 HD
ATOM     12  H   UNL     1      26.670  18.011  23.083  1.00  0.00     0.345 HD
ATOM     13  H   UNL     1      26.182  16.719  22.095  1.00  0.00     0.345 HD
ENDBRANCH   9  10
BRANCH   9  14
ATOM     14  C   UNL     1      29.064  18.001  22.793  1.00  0.00     0.099 C 
ATOM     15  O   UNL     1      29.280  18.363  23.979  1.00  0.00    -0.544 OA
ATOM     16  O   UNL     1      29.641  18.712  21.747  1.00  0.00    -0.544 OA
ENDBRANCH   9  14
ENDBRANCH   8   9
ENDBRANCH   1   8
TORSDOF 7
ENDMDL
MODEL 3
REMARK VINA RESULT:    -4.526      2.888      4.194
REMARK INTER + INTRA:          -6.595
REMARK INTER:                  -6.374
REMARK INTRA:                  -0.221
REMARK UNBOUND:                -0.480
REMARK SMILES [NH3+]CCCC[C@H]([NH3+])C(=O)[O-]
REMARK SMILES IDX 4 1 3 2 2 3 1 4 5 8 6 9 7 10 8 14 9 15 10 16
REMARK H PARENT 1 5 1 6 1 7 7 11 7 12 7 13
REMARK Flexibility Score: inf
ROOT
ATOM      1  C   UNL     1      28.311  16.513  21.011  1.00  0.00     0.012 C 
ENDROOT
BRANCH   1   2
ATOM      2  C   UNL     1      28.558  16.714  19.509  1.00  0.00     0.061 C 
BRANCH   2   3
ATOM      3  C   UNL     1      30.053  16.814  19.163  1.00  0.00     0.258 C 
BRANCH   3   4
ATOM      4  N   UNL     1      30.409  18.128  18.623  1.00  0.00    -0.358 N 
ATOM      5  H   UNL     1      30.542  18.072  17.588  1.00  0.00     0.344 HD
ATOM      6  H   UNL     1      29.630  18.797  18.818  1.00  0.00     0.344 HD
ATOM      7  H   UNL     1      31.281  18.485  19.078  1.00  0.00     0.344 HD
ENDBRANCH   3   4
ENDBRANCH   2   3
ENDBRANCH   1   2
BRANCH   1   8
ATOM      8  C   UNL     1      29.524  16.984  21.833  1.00  0.00     0.072 C 
BRANCH   8   9
ATOM      9  C   UNL     1      29.323  18.342  22.545  1.00  0.00     0.227 C 
BRANCH   9  10
ATOM     10  N   UNL     1      30.296  19.348  22.097  1.00  0.00    -0.350 N 
ATOM     11  H   UNL     1      30.372  20.112  22.807  1.00  0.00     0.345 HD
ATOM     12  H   UNL     1      31.238  18.902  21.998  1.00  0.00     0.345 HD
ATOM     13  H   UNL     1      30.025  19.761  21.176  1.00  0.00     0.345 HD
ENDBRANCH   9  10
BRANCH   9  14
ATOM     14  C   UNL     1      29.342  18.190  24.045  1.00  0.00     0.099 C 
ATOM     15  O   UNL     1      29.662  19.168  24.770  1.00  0.00    -0.544 OA
ATOM     16  O   UNL     1      28.962  16.994  24.643  1.00  0.00    -0.544 OA
ENDBRANCH   9  14
ENDBRANCH   8   9
ENDBRANCH   1   8
TORSDOF 7
ENDMDL
MODEL 4
REMARK VINA RESULT:    -4.521      2.432      3.099
REMARK INTER + INTRA:          -6.587
REMARK INTER:                  -6.418
REMARK INTRA:                  -0.169
REMARK UNBOUND:                -0.480
REMARK SMILES [NH3+]CCCC[C@H]([NH3+])C(=O)[O-]
REMARK SMILES IDX 4 1 3 2 2 3 1 4 5 8 6 9 7 10 8 14 9 15 10 16
REMARK H PARENT 1 5 1 6 1 7 7 11 7 12 7 13
REMARK Flexibility Score: inf
ROOT
ATOM      1  C   UNL     1      29.578  16.468  19.527  1.00  0.00     0.012 C 
ENDROOT
BRANCH   1   2
ATOM      2  C   UNL     1      29.726  17.964  19.838  1.00  0.00     0.061 C 
BRANCH   2   3
ATOM      3  C   UNL     1      29.596  18.272  21.339  1.00  0.00     0.258 C 
BRANCH   3   4
ATOM      4  N   UNL     1      30.250  19.530  21.705  1.00  0.00    -0.358 N 
ATOM      5  H   UNL     1      29.537  20.256  21.941  1.00  0.00     0.344 HD
ATOM      6  H   UNL     1      30.846  19.369  22.548  1.00  0.00     0.344 HD
ATOM      7  H   UNL     1      30.859  19.866  20.923  1.00  0.00     0.344 HD
ENDBRANCH   3   4
ENDBRANCH   2   3
ENDBRANCH   1   2
BRANCH   1   8
ATOM      8  C   UNL     1      28.148  15.985  19.827  1.00  0.00     0.072 C 
BRANCH   8   9
ATOM      9  C   UNL     1      28.057  14.513  20.293  1.00  0.00     0.227 C 
BRANCH   9  10
ATOM     10  N   UNL     1      26.968  13.789  19.624  1.00  0.00    -0.350 N 
ATOM     11  H   UNL     1      27.351  13.212  18.840  1.00  0.00     0.345 HD
ATOM     12  H   UNL     1      26.507  13.143  20.307  1.00  0.00     0.345 HD
ATOM     13  H   UNL     1      26.246  14.443  19.247  1.00  0.00     0.345 HD
ENDBRANCH   9  10
BRANCH   9  14
ATOM     14  C   UNL     1      27.942  14.413  21.794  1.00  0.00     0.099 C 
ATOM     15  O   UNL     1      27.639  15.432  22.469  1.00  0.00    -0.544 OA
ATOM     16  O   UNL     1      28.119  13.195  22.441  1.00  0.00    -0.544 OA
ENDBRANCH   9  14
ENDBRANCH   8   9
ENDBRANCH   1   8
TORSDOF 7
ENDMDL
MODEL 5
REMARK VINA RESULT:    -4.496      1.913      3.919
REMARK INTER + INTRA:          -6.553
REMARK INTER:                  -6.092
REMARK INTRA:                  -0.461
REMARK UNBOUND:                -0.480
REMARK SMILES [NH3+]CCCC[C@H]([NH3+])C(=O)[O-]
REMARK SMILES IDX 4 1 3 2 2 3 1 4 5 8 6 9 7 10 8 14 9 15 10 16
REMARK H PARENT 1 5 1 6 1 7 7 11 7 12 7 13
REMARK Flexibility Score: inf
ROOT
ATOM      1  C   UNL     1      28.236  14.649  22.858  1.00  0.00     0.012 C 
ENDROOT
BRANCH   1   2
ATOM      2  C   UNL     1      28.587  13.868  21.584  1.00  0.00     0.061 C 
BRANCH   2   3
ATOM      3  C   UNL     1      27.344  13.498  20.756  1.00  0.00     0.258 C 
BRANCH   3   4
ATOM      4  N   UNL     1      27.299  14.211  19.478  1.00  0.00    -0.358 N 
ATOM      5  H   UNL     1      28.266  14.401  19.133  1.00  0.00     0.344 HD
ATOM      6  H   UNL     1      26.810  13.613  18.773  1.00  0.00     0.344 HD
ATOM      7  H   UNL     1      26.771  15.109  19.579  1.00  0.00     0.344 HD
ENDBRANCH   3   4
ENDBRANCH   2   3
ENDBRANCH   1   2
BRANCH   1   8
ATOM      8  C   UNL     1      27.654  16.031  22.511  1.00  0.00     0.072 C 
BRANCH   8   9
ATOM      9  C   UNL     1      28.716  17.135  22.300  1.00  0.00     0.227 C 
BRANCH   9  10
ATOM     10  N   UNL     1      28.442  18.326  23.116  1.00  0.00    -0.350 N 
ATOM     11  H   UNL     1      27.487  18.694  22.902  1.00  0.00     0.345 HD
ATOM     12  H   UNL     1      28.472  18.068  24.130  1.00  0.00     0.345 HD
ATOM     13  H   UNL     1      29.146  19.080  22.943  1.00  0.00     0.345 HD
ENDBRANCH   9  10
BRANCH   9  14
ATOM     14  C   UNL     1      28.862  17.491  20.841  1.00  0.00     0.099 C 
ATOM     15  O   UNL     1      28.083  16.986  19.991  1.00  0.00    -0.544 OA
ATOM     16  O   UNL     1      29.819  18.411  20.427  1.00  0.00    -0.544 OA
ENDBRANCH   9  14
ENDBRANCH   8   9
ENDBRANCH   1   8
TORSDOF 7
ENDMDL
MODEL 6
REMARK VINA RESULT:    -4.464      2.531      4.447
REMARK INTER + INTRA:          -6.510
REMARK INTER:                  -6.049
REMARK INTRA:                  -0.461
REMARK UNBOUND:                -0.480
REMARK SMILES [NH3+]CCCC[C@H]([NH3+])C(=O)[O-]
REMARK SMILES IDX 4 1 3 2 2 3 1 4 5 8 6 9 7 10 8 14 9 15 10 16
REMARK H PARENT 1 5 1 6 1 7 7 11 7 12 7 13
REMARK Flexibility Score: inf
ROOT
ATOM      1  C   UNL     1      29.704  17.071  19.907  1.00  0.00     0.012 C 
ENDROOT
BRANCH   1   2
ATOM      2  C   UNL     1      28.278  16.507  19.842  1.00  0.00     0.061 C 
BRANCH   2   3
ATOM      3  C   UNL     1      28.182  15.074  20.393  1.00  0.00     0.258 C 
BRANCH   3   4
ATOM      4  N   UNL     1      27.399  15.008  21.629  1.00  0.00    -0.358 N 
ATOM      5  H   UNL     1      28.010  14.741  22.433  1.00  0.00     0.344 HD
ATOM      6  H   UNL     1      26.994  15.952  21.824  1.00  0.00     0.344 HD
ATOM      7  H   UNL     1      26.617  14.321  21.529  1.00  0.00     0.344 HD
ENDBRANCH   3   4
ENDBRANCH   2   3
ENDBRANCH   1   2
BRANCH   1   8
ATOM      8  C   UNL     1      30.182  17.187  21.365  1.00  0.00     0.072 C 
BRANCH   8   9
ATOM      9  C   UNL     1      29.557  18.364  22.149  1.00  0.00     0.227 C 
BRANCH   9  10
ATOM     10  N   UNL     1      30.432  19.544  22.164  1.00  0.00    -0.350 N 
ATOM     11  H   UNL     1      30.737  19.774  21.190  1.00  0.00     0.345 HD
ATOM     12  H   UNL     1      29.904  20.365  22.541  1.00  0.00     0.345 HD
ATOM     13  H   UNL     1      31.277  19.389  22.759  1.00  0.00     0.345 HD
ENDBRANCH   9  10
BRANCH   9  14
ATOM     14  C   UNL     1      29.167  17.953  23.548  1.00  0.00     0.099 C 
ATOM     15  O   UNL     1      28.566  16.863  23.736  1.00  0.00    -0.544 OA
ATOM     16  O   UNL     1      29.506  18.742  24.641  1.00  0.00    -0.544 OA
ENDBRANCH   9  14
ENDBRANCH   8   9
ENDBRANCH   1   8
TORSDOF 7
ENDMDL
MODEL 7
REMARK VINA RESULT:    -4.463      2.600      3.933
REMARK INTER + INTRA:          -6.509
REMARK INTER:                  -5.979
REMARK INTRA:                  -0.531
REMARK UNBOUND:                -0.480
REMARK SMILES [NH3+]CCCC[C@H]([NH3+])C(=O)[O-]
REMARK SMILES IDX 4 1 3 2 2 3 1 4 5 8 6 9 7 10 8 14 9 15 10 16
REMARK H PARENT 1 5 1 6 1 7 7 11 7 12 7 13
REMARK Flexibility Score: inf
ROOT
ATOM      1  C   UNL     1      27.844  14.717  21.922  1.00  0.00     0.012 C 
ENDROOT
BRANCH   1   2
ATOM      2  C   UNL     1      28.936  14.658  20.845  1.00  0.00     0.061 C 
BRANCH   2   3
ATOM      3  C   UNL     1      28.555  15.433  19.573  1.00  0.00     0.258 C 
BRANCH   3   4
ATOM      4  N   UNL     1      27.870  16.692  19.876  1.00  0.00    -0.358 N 
ATOM      5  H   UNL     1      27.006  16.785  19.295  1.00  0.00     0.344 HD
ATOM      6  H   UNL     1      27.589  16.690  20.883  1.00  0.00     0.344 HD
ATOM      7  H   UNL     1      28.506  17.504  19.705  1.00  0.00     0.344 HD
ENDBRANCH   3   4
ENDBRANCH   2   3
ENDBRANCH   1   2
BRANCH   1   8
ATOM      8  C   UNL     1      28.412  15.248  23.251  1.00  0.00     0.072 C 
BRANCH   8   9
ATOM      9  C   UNL     1      27.869  16.635  23.667  1.00  0.00     0.227 C 
BRANCH   9  10
ATOM     10  N   UNL     1      26.597  16.952  23.003  1.00  0.00    -0.350 N 
ATOM     11  H   UNL     1      25.802  16.534  23.539  1.00  0.00     0.345 HD
ATOM     12  H   UNL     1      26.465  17.990  22.981  1.00  0.00     0.345 HD
ATOM     13  H   UNL     1      26.576  16.593  22.022  1.00  0.00     0.345 HD
ENDBRANCH   9  10
BRANCH   9  14
ATOM     14  C   UNL     1      28.892  17.721  23.440  1.00  0.00     0.099 C 
ATOM     15  O   UNL     1      29.339  18.374  24.419  1.00  0.00    -0.544 OA
ATOM     16  O   UNL     1      29.385  17.978  22.166  1.00  0.00    -0.544 OA
ENDBRANCH   9  14
ENDBRANCH   8   9
ENDBRANCH   1   8
TORSDOF 7
ENDMDL
MODEL 8
REMARK VINA RESULT:    -4.435      3.022      3.706
REMARK INTER + INTRA:          -6.471
REMARK INTER:                  -5.936
REMARK INTRA:                  -0.535
REMARK UNBOUND:                -0.480
REMARK SMILES [NH3+]CCCC[C@H]([NH3+])C(=O)[O-]
REMARK SMILES IDX 4 1 3 2 2 3 1 4 5 8 6 9 7 10 8 14 9 15 10 16
REMARK H PARENT 1 5 1 6 1 7 7 11 7 12 7 13
REMARK Flexibility Score: inf
ROOT
ATOM      1  C   UNL     1      28.674  15.886  21.213  1.00  0.00     0.012 C 
ENDROOT
BRANCH   1   2
ATOM      2  C   UNL     1      29.933  16.742  21.017  1.00  0.00     0.061 C 
BRANCH   2   3
ATOM      3  C   UNL     1      29.613  18.155  20.501  1.00  0.00     0.258 C 
BRANCH   3   4
ATOM      4  N   UNL     1      30.055  19.197  21.431  1.00  0.00    -0.358 N 
ATOM      5  H   UNL     1      29.723  20.135  21.111  1.00  0.00     0.344 HD
ATOM      6  H   UNL     1      29.644  19.006  22.373  1.00  0.00     0.344 HD
ATOM      7  H   UNL     1      31.098  19.194  21.513  1.00  0.00     0.344 HD
ENDBRANCH   3   4
ENDBRANCH   2   3
ENDBRANCH   1   2
BRANCH   1   8
ATOM      8  C   UNL     1      28.585  15.366  22.659  1.00  0.00     0.072 C 
BRANCH   8   9
ATOM      9  C   UNL     1      27.830  16.305  23.629  1.00  0.00     0.227 C 
BRANCH   9  10
ATOM     10  N   UNL     1      26.860  17.157  22.928  1.00  0.00    -0.350 N 
ATOM     11  H   UNL     1      27.189  17.346  21.953  1.00  0.00     0.345 HD
ATOM     12  H   UNL     1      25.939  16.662  22.869  1.00  0.00     0.345 HD
ATOM     13  H   UNL     1      26.718  18.066  23.424  1.00  0.00     0.345 HD
ENDBRANCH   9  10
BRANCH   9  14
ATOM     14  C   UNL     1      28.784  17.127  24.459  1.00  0.00     0.099 C 
ATOM     15  O   UNL     1      29.083  18.295  24.096  1.00  0.00    -0.544 OA
ATOM     16  O   UNL     1      29.302  16.629  25.648  1.00  0.00    -0.544 OA
ENDBRANCH   9  14
ENDBRANCH   8   9
ENDBRANCH   1   8
TORSDOF 7
ENDMDL
MODEL 9
REMARK VINA RESULT:    -4.420      1.649      2.054
REMARK INTER + INTRA:          -6.451
REMARK INTER:                  -5.935
REMARK INTRA:                  -0.516
REMARK UNBOUND:                -0.480
REMARK SMILES [NH3+]CCCC[C@H]([NH3+])C(=O)[O-]
REMARK SMILES IDX 4 1 3 2 2 3 1 4 5 8 6 9 7 10 8 14 9 15 10 16
REMARK H PARENT 1 5 1 6 1 7 7 11 7 12 7 13
REMARK Flexibility Score: inf
ROOT
ATOM      1  C   UNL     1      28.341  15.196  22.626  1.00  0.00     0.012 C 
ENDROOT
BRANCH   1   2
ATOM      2  C   UNL     1      27.694  16.401  23.323  1.00  0.00     0.061 C 
BRANCH   2   3
ATOM      3  C   UNL     1      28.643  17.088  24.319  1.00  0.00     0.258 C 
BRANCH   3   4
ATOM      4  N   UNL     1      28.879  18.493  23.978  1.00  0.00    -0.358 N 
ATOM      5  H   UNL     1      28.320  19.118  24.602  1.00  0.00     0.344 HD
ATOM      6  H   UNL     1      29.892  18.710  24.119  1.00  0.00     0.344 HD
ATOM      7  H   UNL     1      28.633  18.673  22.978  1.00  0.00     0.344 HD
ENDBRANCH   3   4
ENDBRANCH   2   3
ENDBRANCH   1   2
BRANCH   1   8
ATOM      8  C   UNL     1      29.135  15.641  21.385  1.00  0.00     0.072 C 
BRANCH   8   9
ATOM      9  C   UNL     1      28.523  16.848  20.636  1.00  0.00     0.227 C 
BRANCH   9  10
ATOM     10  N   UNL     1      27.796  16.435  19.428  1.00  0.00    -0.350 N 
ATOM     11  H   UNL     1      27.052  15.743  19.678  1.00  0.00     0.345 HD
ATOM     12  H   UNL     1      27.333  17.269  18.998  1.00  0.00     0.345 HD
ATOM     13  H   UNL     1      28.436  16.009  18.721  1.00  0.00     0.345 HD
ENDBRANCH   9  10
BRANCH   9  14
ATOM     14  C   UNL     1      29.566  17.890  20.320  1.00  0.00     0.099 C 
ATOM     15  O   UNL     1      30.170  17.858  19.215  1.00  0.00    -0.544 OA
ATOM     16  O   UNL     1      29.835  18.920  21.214  1.00  0.00    -0.544 OA
ENDBRANCH   9  14
ENDBRANCH   8   9
ENDBRANCH   1   8
TORSDOF 7
ENDMDL
