MODEL 1
REMARK VINA RESULT:    -4.627      0.000      0.000
REMARK INTER + INTRA:         -15.425
REMARK INTER:                 -11.661
REMARK INTRA:                  -3.764
REMARK UNBOUND:                -3.764
REMARK SMILES CCCCCCCCCCCCCCCCCCCCCCCCCCCC(=O)[O-]
REMARK SMILES IDX 15 1 16 2 17 3 18 4 19 5 20 6 21 7 22 8 23 9 24 10 25 11
REMARK SMILES IDX 26 12 27 13 28 14 29 15 30 16 14 17 13 18 12 19 11 20 10 21
REMARK SMILES IDX 9 22 8 23 7 24 6 25 5 26 4 27 3 28 2 29 1 30
REMARK H PARENT
REMARK Flexibility Score: inf
ROOT
ATOM      1  C   UNL     1       4.056  10.838 -14.230  1.00  0.00     0.000 C 
ENDROOT
BRANCH   1   2
ATOM      2  C   UNL     1       3.053  11.972 -14.508  1.00  0.00     0.000 C 
BRANCH   2   3
ATOM      3  C   UNL     1       1.589  11.501 -14.473  1.00  0.00     0.000 C 
BRANCH   3   4
ATOM      4  C   UNL     1       1.263  10.495 -15.586  1.00  0.00     0.000 C 
BRANCH   4   5
ATOM      5  C   UNL     1       1.773  10.955 -16.962  1.00  0.00     0.000 C 
BRANCH   5   6
ATOM      6  C   UNL     1       1.128  12.289 -17.370  1.00  0.00     0.000 C 
BRANCH   6   7
ATOM      7  C   UNL     1       2.155  13.328 -17.852  1.00  0.00     0.000 C 
BRANCH   7   8
ATOM      8  C   UNL     1       2.510  14.423 -16.827  1.00  0.00     0.000 C 
BRANCH   8   9
ATOM      9  C   UNL     1       3.478  15.500 -17.365  1.00  0.00     0.000 C 
BRANCH   9  10
ATOM     10  C   UNL     1       3.016  16.928 -17.021  1.00  0.00     0.000 C 
BRANCH  10  11
ATOM     11  C   UNL     1       1.647  17.273 -17.626  1.00  0.00     0.000 C 
BRANCH  11  12
ATOM     12  C   UNL     1       0.716  17.974 -16.621  1.00  0.00     0.006 C 
BRANCH  12  13
ATOM     13  C   UNL     1      -0.720  17.440 -16.697  1.00  0.00     0.053 C 
BRANCH  13  14
ATOM     14  C   UNL     1      -0.864  16.141 -15.964  1.00  0.00     0.041 C 
ATOM     15  O   UNL     1      -0.770  16.105 -14.709  1.00  0.00    -0.550 OA
ATOM     16  O   UNL     1      -1.066  14.963 -16.672  1.00  0.00    -0.550 OA
ENDBRANCH  13  14
ENDBRANCH  12  13
ENDBRANCH  11  12
ENDBRANCH  10  11
ENDBRANCH   9  10
ENDBRANCH   8   9
ENDBRANCH   7   8
ENDBRANCH   6   7
ENDBRANCH   5   6
ENDBRANCH   4   5
ENDBRANCH   3   4
ENDBRANCH   2   3
ENDBRANCH   1   2
BRANCH   1  17
ATOM     17  C   UNL     1       4.938  10.430 -15.426  1.00  0.00     0.000 C 
BRANCH  17  18
ATOM     18  C   UNL     1       6.419  10.250 -15.053  1.00  0.00     0.000 C 
BRANCH  18  19
ATOM     19  C   UNL     1       6.815   8.775 -14.870  1.00  0.00     0.000 C 
BRANCH  19  20
ATOM     20  C   UNL     1       7.326   8.434 -13.456  1.00  0.00     0.000 C 
BRANCH  20  21
ATOM     21  C   UNL     1       7.159   9.607 -12.477  1.00  0.00     0.000 C 
BRANCH  21  22
ATOM     22  C   UNL     1       8.266   9.599 -11.413  1.00  0.00    -0.000 C 
BRANCH  22  23
ATOM     23  C   UNL     1       8.330  10.907 -10.605  1.00  0.00    -0.000 C 
BRANCH  23  24
ATOM     24  C   UNL     1       8.561  12.183 -11.440  1.00  0.00    -0.000 C 
BRANCH  24  25
ATOM     25  C   UNL     1       7.406  13.200 -11.417  1.00  0.00    -0.000 C 
BRANCH  25  26
ATOM     26  C   UNL     1       6.488  13.090 -12.646  1.00  0.00    -0.000 C 
BRANCH  26  27
ATOM     27  C   UNL     1       7.050  13.842 -13.865  1.00  0.00    -0.000 C 
BRANCH  27  28
ATOM     28  C   UNL     1       6.073  13.852 -15.054  1.00  0.00    -0.000 C 
BRANCH  28  29
ATOM     29  C   UNL     1       6.741  14.308 -16.360  1.00  0.00    -0.003 C 
ATOM     30  C   UNL     1       6.547  13.311 -17.504  1.00  0.00     0.004 C 
ENDBRANCH  28  29
ENDBRANCH  27  28
ENDBRANCH  26  27
ENDBRANCH  25  26
ENDBRANCH  24  25
ENDBRANCH  23  24
ENDBRANCH  22  23
ENDBRANCH  21  22
ENDBRANCH  20  21
ENDBRANCH  19  20
ENDBRANCH  18  19
ENDBRANCH  17  18
ENDBRANCH   1  17
TORSDOF 26
ENDMDL
MODEL 2
REMARK VINA RESULT:    -4.521      1.832      4.389
REMARK INTER + INTRA:         -15.156
REMARK INTER:                 -11.707
REMARK INTRA:                  -3.449
REMARK UNBOUND:                -3.764
REMARK SMILES CCCCCCCCCCCCCCCCCCCCCCCCCCCC(=O)[O-]
REMARK SMILES IDX 15 1 16 2 17 3 18 4 19 5 20 6 21 7 22 8 23 9 24 10 25 11
REMARK SMILES IDX 26 12 27 13 28 14 29 15 30 16 14 17 13 18 12 19 11 20 10 21
REMARK SMILES IDX 9 22 8 23 7 24 6 25 5 26 4 27 3 28 2 29 1 30
REMARK H PARENT
REMARK Flexibility Score: inf
ROOT
ATOM      1  C   UNL     1       0.152  12.995 -15.184  1.00  0.00     0.000 C 
ENDROOT
BRANCH   1   2
ATOM      2  C   UNL     1       0.343  13.548 -16.609  1.00  0.00     0.000 C 
BRANCH   2   3
ATOM      3  C   UNL     1       1.285  12.686 -17.466  1.00  0.00     0.000 C 
BRANCH   3   4
ATOM      4  C   UNL     1       2.563  13.433 -17.877  1.00  0.00     0.000 C 
BRANCH   4   5
ATOM      5  C   UNL     1       3.290  14.057 -16.675  1.00  0.00     0.000 C 
BRANCH   5   6
ATOM      6  C   UNL     1       3.896  15.420 -17.045  1.00  0.00     0.000 C 
BRANCH   6   7
ATOM      7  C   UNL     1       2.925  16.311 -17.838  1.00  0.00     0.000 C 
BRANCH   7   8
ATOM      8  C   UNL     1       2.036  17.235 -16.982  1.00  0.00     0.000 C 
BRANCH   8   9
ATOM      9  C   UNL     1       0.532  17.159 -17.326  1.00  0.00     0.000 C 
BRANCH   9  10
ATOM     10  C   UNL     1      -0.354  17.772 -16.227  1.00  0.00     0.000 C 
BRANCH  10  11
ATOM     11  C   UNL     1      -0.633  16.797 -15.074  1.00  0.00     0.000 C 
BRANCH  11  12
ATOM     12  C   UNL     1      -2.086  16.875 -14.573  1.00  0.00     0.006 C 
BRANCH  12  13
ATOM     13  C   UNL     1      -2.834  18.078 -15.160  1.00  0.00     0.053 C 
BRANCH  13  14
ATOM     14  C   UNL     1      -4.283  18.065 -14.781  1.00  0.00     0.041 C 
ATOM     15  O   UNL     1      -5.150  17.645 -15.593  1.00  0.00    -0.550 OA
ATOM     16  O   UNL     1      -4.681  18.551 -13.543  1.00  0.00    -0.550 OA
ENDBRANCH  13  14
ENDBRANCH  12  13
ENDBRANCH  11  12
ENDBRANCH  10  11
ENDBRANCH   9  10
ENDBRANCH   8   9
ENDBRANCH   7   8
ENDBRANCH   6   7
ENDBRANCH   5   6
ENDBRANCH   4   5
ENDBRANCH   3   4
ENDBRANCH   2   3
ENDBRANCH   1   2
BRANCH   1  17
ATOM     17  C   UNL     1       0.964  11.728 -14.855  1.00  0.00     0.000 C 
BRANCH  17  18
ATOM     18  C   UNL     1       2.236  12.018 -14.041  1.00  0.00     0.000 C 
BRANCH  18  19
ATOM     19  C   UNL     1       3.272  10.884 -14.123  1.00  0.00     0.000 C 
BRANCH  19  20
ATOM     20  C   UNL     1       3.766  10.589 -15.554  1.00  0.00     0.000 C 
BRANCH  20  21
ATOM     21  C   UNL     1       5.248  10.182 -15.585  1.00  0.00     0.000 C 
BRANCH  21  22
ATOM     22  C   UNL     1       6.075  11.034 -14.612  1.00  0.00    -0.000 C 
BRANCH  22  23
ATOM     23  C   UNL     1       6.295  12.473 -15.112  1.00  0.00    -0.000 C 
BRANCH  23  24
ATOM     24  C   UNL     1       6.366  13.548 -14.010  1.00  0.00    -0.000 C 
BRANCH  24  25
ATOM     25  C   UNL     1       6.779  13.035 -12.618  1.00  0.00    -0.000 C 
BRANCH  25  26
ATOM     26  C   UNL     1       8.180  13.510 -12.197  1.00  0.00    -0.000 C 
BRANCH  26  27
ATOM     27  C   UNL     1       8.791  12.625 -11.097  1.00  0.00    -0.000 C 
BRANCH  27  28
ATOM     28  C   UNL     1       8.444  11.137 -11.275  1.00  0.00    -0.000 C 
BRANCH  28  29
ATOM     29  C   UNL     1       9.101  10.249 -10.208  1.00  0.00    -0.003 C 
ATOM     30  C   UNL     1       8.087   9.640  -9.238  1.00  0.00     0.004 C 
ENDBRANCH  28  29
ENDBRANCH  27  28
ENDBRANCH  26  27
ENDBRANCH  25  26
ENDBRANCH  24  25
ENDBRANCH  23  24
ENDBRANCH  22  23
ENDBRANCH  21  22
ENDBRANCH  20  21
ENDBRANCH  19  20
ENDBRANCH  18  19
ENDBRANCH  17  18
ENDBRANCH   1  17
TORSDOF 26
ENDMDL
MODEL 3
REMARK VINA RESULT:    -4.401      3.249      8.394
REMARK INTER + INTRA:         -14.855
REMARK INTER:                 -11.242
REMARK INTRA:                  -3.613
REMARK UNBOUND:                -3.764
REMARK SMILES CCCCCCCCCCCCCCCCCCCCCCCCCCCC(=O)[O-]
REMARK SMILES IDX 15 1 16 2 17 3 18 4 19 5 20 6 21 7 22 8 23 9 24 10 25 11
REMARK SMILES IDX 26 12 27 13 28 14 29 15 30 16 14 17 13 18 12 19 11 20 10 21
REMARK SMILES IDX 9 22 8 23 7 24 6 25 5 26 4 27 3 28 2 29 1 30
REMARK H PARENT
REMARK Flexibility Score: inf
ROOT
ATOM      1  C   UNL     1       3.392  11.789 -13.291  1.00  0.00     0.000 C 
ENDROOT
BRANCH   1   2
ATOM      2  C   UNL     1       4.160  13.109 -13.091  1.00  0.00     0.000 C 
BRANCH   2   3
ATOM      3  C   UNL     1       5.674  12.902 -12.910  1.00  0.00     0.000 C 
BRANCH   3   4
ATOM      4  C   UNL     1       6.502  13.611 -13.991  1.00  0.00     0.000 C 
BRANCH   4   5
ATOM      5  C   UNL     1       5.689  13.890 -15.266  1.00  0.00     0.000 C 
BRANCH   5   6
ATOM      6  C   UNL     1       6.421  13.365 -16.511  1.00  0.00     0.000 C 
BRANCH   6   7
ATOM      7  C   UNL     1       6.818  11.884 -16.393  1.00  0.00     0.000 C 
BRANCH   7   8
ATOM      8  C   UNL     1       5.650  10.912 -16.127  1.00  0.00     0.000 C 
BRANCH   8   9
ATOM      9  C   UNL     1       5.784  10.110 -14.813  1.00  0.00     0.000 C 
BRANCH   9  10
ATOM     10  C   UNL     1       6.845   8.999 -14.910  1.00  0.00     0.000 C 
BRANCH  10  11
ATOM     11  C   UNL     1       7.268   8.458 -13.536  1.00  0.00     0.000 C 
BRANCH  11  12
ATOM     12  C   UNL     1       7.234   9.537 -12.440  1.00  0.00     0.006 C 
BRANCH  12  13
ATOM     13  C   UNL     1       8.477   9.486 -11.543  1.00  0.00     0.053 C 
BRANCH  13  14
ATOM     14  C   UNL     1       8.241  10.175 -10.234  1.00  0.00     0.041 C 
ATOM     15  O   UNL     1       8.607  11.369 -10.068  1.00  0.00    -0.550 OA
ATOM     16  O   UNL     1       7.648   9.487  -9.184  1.00  0.00    -0.550 OA
ENDBRANCH  13  14
ENDBRANCH  12  13
ENDBRANCH  11  12
ENDBRANCH  10  11
ENDBRANCH   9  10
ENDBRANCH   8   9
ENDBRANCH   7   8
ENDBRANCH   6   7
ENDBRANCH   5   6
ENDBRANCH   4   5
ENDBRANCH   3   4
ENDBRANCH   2   3
ENDBRANCH   1   2
BRANCH   1  17
ATOM     17  C   UNL     1       2.097  11.900 -14.118  1.00  0.00     0.000 C 
BRANCH  17  18
ATOM     18  C   UNL     1       1.663  10.565 -14.745  1.00  0.00     0.000 C 
BRANCH  18  19
ATOM     19  C   UNL     1       1.791  10.554 -16.278  1.00  0.00     0.000 C 
BRANCH  19  20
ATOM     20  C   UNL     1       2.411  11.838 -16.865  1.00  0.00     0.000 C 
BRANCH  20  21
ATOM     21  C   UNL     1       1.551  12.440 -17.987  1.00  0.00     0.000 C 
BRANCH  21  22
ATOM     22  C   UNL     1       0.695  13.602 -17.464  1.00  0.00    -0.000 C 
BRANCH  22  23
ATOM     23  C   UNL     1       1.466  14.530 -16.507  1.00  0.00    -0.000 C 
BRANCH  23  24
ATOM     24  C   UNL     1       2.218  15.692 -17.185  1.00  0.00    -0.000 C 
BRANCH  24  25
ATOM     25  C   UNL     1       1.613  17.089 -16.955  1.00  0.00    -0.000 C 
BRANCH  25  26
ATOM     26  C   UNL     1       0.308  17.312 -17.738  1.00  0.00    -0.000 C 
BRANCH  26  27
ATOM     27  C   UNL     1      -0.762  18.032 -16.900  1.00  0.00    -0.000 C 
BRANCH  27  28
ATOM     28  C   UNL     1      -0.216  18.534 -15.552  1.00  0.00    -0.000 C 
BRANCH  28  29
ATOM     29  C   UNL     1      -1.061  18.055 -14.361  1.00  0.00    -0.003 C 
ATOM     30  C   UNL     1      -1.003  16.540 -14.166  1.00  0.00     0.004 C 
ENDBRANCH  28  29
ENDBRANCH  27  28
ENDBRANCH  26  27
ENDBRANCH  25  26
ENDBRANCH  24  25
ENDBRANCH  23  24
ENDBRANCH  22  23
ENDBRANCH  21  22
ENDBRANCH  20  21
ENDBRANCH  19  20
ENDBRANCH  18  19
ENDBRANCH  17  18
ENDBRANCH   1  17
TORSDOF 26
ENDMDL
MODEL 4
REMARK VINA RESULT:    -4.361      2.978      6.066
REMARK INTER + INTRA:         -14.754
REMARK INTER:                 -11.459
REMARK INTRA:                  -3.295
REMARK UNBOUND:                -3.764
REMARK SMILES CCCCCCCCCCCCCCCCCCCCCCCCCCCC(=O)[O-]
REMARK SMILES IDX 15 1 16 2 17 3 18 4 19 5 20 6 21 7 22 8 23 9 24 10 25 11
REMARK SMILES IDX 26 12 27 13 28 14 29 15 30 16 14 17 13 18 12 19 11 20 10 21
REMARK SMILES IDX 9 22 8 23 7 24 6 25 5 26 4 27 3 28 2 29 1 30
REMARK H PARENT
REMARK Flexibility Score: inf
ROOT
ATOM      1  C   UNL     1       0.816  13.151 -17.555  1.00  0.00     0.000 C 
ENDROOT
BRANCH   1   2
ATOM      2  C   UNL     1      -0.020  14.206 -16.806  1.00  0.00     0.000 C 
BRANCH   2   3
ATOM      3  C   UNL     1      -0.952  15.004 -17.734  1.00  0.00     0.000 C 
BRANCH   3   4
ATOM      4  C   UNL     1      -1.012  16.496 -17.374  1.00  0.00     0.000 C 
BRANCH   4   5
ATOM      5  C   UNL     1       0.220  16.958 -16.577  1.00  0.00     0.000 C 
BRANCH   5   6
ATOM      6  C   UNL     1      -0.185  17.906 -15.438  1.00  0.00     0.000 C 
BRANCH   6   7
ATOM      7  C   UNL     1      -0.995  17.204 -14.335  1.00  0.00     0.000 C 
BRANCH   7   8
ATOM      8  C   UNL     1      -2.299  17.918 -13.926  1.00  0.00     0.000 C 
BRANCH   8   9
ATOM      9  C   UNL     1      -3.508  17.590 -14.831  1.00  0.00     0.000 C 
BRANCH   9  10
ATOM     10  C   UNL     1      -3.869  18.754 -15.771  1.00  0.00     0.000 C 
BRANCH  10  11
ATOM     11  C   UNL     1      -4.253  18.283 -17.182  1.00  0.00     0.000 C 
BRANCH  11  12
ATOM     12  C   UNL     1      -5.752  18.461 -17.477  1.00  0.00     0.006 C 
BRANCH  12  13
ATOM     13  C   UNL     1      -6.630  17.678 -16.492  1.00  0.00     0.053 C 
BRANCH  13  14
ATOM     14  C   UNL     1      -7.061  16.363 -17.064  1.00  0.00     0.041 C 
ATOM     15  O   UNL     1      -8.282  16.125 -17.264  1.00  0.00    -0.550 OA
ATOM     16  O   UNL     1      -6.117  15.383 -17.342  1.00  0.00    -0.550 OA
ENDBRANCH  13  14
ENDBRANCH  12  13
ENDBRANCH  11  12
ENDBRANCH  10  11
ENDBRANCH   9  10
ENDBRANCH   8   9
ENDBRANCH   7   8
ENDBRANCH   6   7
ENDBRANCH   5   6
ENDBRANCH   4   5
ENDBRANCH   3   4
ENDBRANCH   2   3
ENDBRANCH   1   2
BRANCH   1  17
ATOM     17  C   UNL     1       2.343  13.341 -17.472  1.00  0.00     0.000 C 
BRANCH  17  18
ATOM     18  C   UNL     1       2.767  14.373 -16.414  1.00  0.00     0.000 C 
BRANCH  18  19
ATOM     19  C   UNL     1       4.103  15.059 -16.750  1.00  0.00     0.000 C 
BRANCH  19  20
ATOM     20  C   UNL     1       5.053  14.199 -17.607  1.00  0.00     0.000 C 
BRANCH  20  21
ATOM     21  C   UNL     1       6.434  14.032 -16.955  1.00  0.00     0.000 C 
BRANCH  21  22
ATOM     22  C   UNL     1       6.927  12.582 -17.070  1.00  0.00    -0.000 C 
BRANCH  22  23
ATOM     23  C   UNL     1       6.138  11.609 -16.176  1.00  0.00    -0.000 C 
BRANCH  23  24
ATOM     24  C   UNL     1       5.954  12.062 -14.714  1.00  0.00    -0.000 C 
BRANCH  24  25
ATOM     25  C   UNL     1       5.313  11.021 -13.778  1.00  0.00    -0.000 C 
BRANCH  25  26
ATOM     26  C   UNL     1       3.805  11.246 -13.578  1.00  0.00    -0.000 C 
BRANCH  26  27
ATOM     27  C   UNL     1       3.003  11.031 -14.873  1.00  0.00    -0.000 C 
BRANCH  27  28
ATOM     28  C   UNL     1       1.563  10.563 -14.605  1.00  0.00    -0.000 C 
BRANCH  28  29
ATOM     29  C   UNL     1       1.148   9.391 -15.508  1.00  0.00    -0.003 C 
ATOM     30  C   UNL     1       1.556   9.596 -16.968  1.00  0.00     0.004 C 
ENDBRANCH  28  29
ENDBRANCH  27  28
ENDBRANCH  26  27
ENDBRANCH  25  26
ENDBRANCH  24  25
ENDBRANCH  23  24
ENDBRANCH  22  23
ENDBRANCH  21  22
ENDBRANCH  20  21
ENDBRANCH  19  20
ENDBRANCH  18  19
ENDBRANCH  17  18
ENDBRANCH   1  17
TORSDOF 26
ENDMDL
MODEL 5
REMARK VINA RESULT:    -4.354      2.142      5.638
REMARK INTER + INTRA:         -14.736
REMARK INTER:                 -10.060
REMARK INTRA:                  -4.676
REMARK UNBOUND:                -3.764
REMARK SMILES CCCCCCCCCCCCCCCCCCCCCCCCCCCC(=O)[O-]
REMARK SMILES IDX 15 1 16 2 17 3 18 4 19 5 20 6 21 7 22 8 23 9 24 10 25 11
REMARK SMILES IDX 26 12 27 13 28 14 29 15 30 16 14 17 13 18 12 19 11 20 10 21
REMARK SMILES IDX 9 22 8 23 7 24 6 25 5 26 4 27 3 28 2 29 1 30
REMARK H PARENT
REMARK Flexibility Score: inf
ROOT
ATOM      1  C   UNL     1       6.141  10.357 -15.070  1.00  0.00     0.000 C 
ENDROOT
BRANCH   1   2
ATOM      2  C   UNL     1       5.701  11.259 -16.238  1.00  0.00     0.000 C 
BRANCH   2   3
ATOM      3  C   UNL     1       6.491  12.577 -16.310  1.00  0.00     0.000 C 
BRANCH   3   4
ATOM      4  C   UNL     1       6.396  13.250 -17.687  1.00  0.00     0.000 C 
BRANCH   4   5
ATOM      5  C   UNL     1       5.046  13.952 -17.906  1.00  0.00     0.000 C 
BRANCH   5   6
ATOM      6  C   UNL     1       4.491  14.504 -16.583  1.00  0.00     0.000 C 
BRANCH   6   7
ATOM      7  C   UNL     1       3.956  15.940 -16.710  1.00  0.00     0.000 C 
BRANCH   7   8
ATOM      8  C   UNL     1       2.927  16.158 -17.838  1.00  0.00     0.000 C 
BRANCH   8   9
ATOM      9  C   UNL     1       2.404  17.608 -17.942  1.00  0.00     0.000 C 
BRANCH   9  10
ATOM     10  C   UNL     1       0.895  17.710 -17.658  1.00  0.00     0.000 C 
BRANCH  10  11
ATOM     11  C   UNL     1       0.585  18.025 -16.187  1.00  0.00     0.000 C 
BRANCH  11  12
ATOM     12  C   UNL     1      -0.889  17.776 -15.826  1.00  0.00     0.006 C 
BRANCH  12  13
ATOM     13  C   UNL     1      -1.786  17.729 -17.070  1.00  0.00     0.053 C 
BRANCH  13  14
ATOM     14  C   UNL     1      -3.161  17.235 -16.739  1.00  0.00     0.041 C 
ATOM     15  O   UNL     1      -3.513  16.070 -17.060  1.00  0.00    -0.550 OA
ATOM     16  O   UNL     1      -4.068  18.077 -16.108  1.00  0.00    -0.550 OA
ENDBRANCH  13  14
ENDBRANCH  12  13
ENDBRANCH  11  12
ENDBRANCH  10  11
ENDBRANCH   9  10
ENDBRANCH   8   9
ENDBRANCH   7   8
ENDBRANCH   6   7
ENDBRANCH   5   6
ENDBRANCH   4   5
ENDBRANCH   3   4
ENDBRANCH   2   3
ENDBRANCH   1   2
BRANCH   1  17
ATOM     17  C   UNL     1       5.586  10.751 -13.688  1.00  0.00     0.000 C 
BRANCH  17  18
ATOM     18  C   UNL     1       4.055  10.894 -13.669  1.00  0.00     0.000 C 
BRANCH  18  19
ATOM     19  C   UNL     1       3.592  12.341 -13.428  1.00  0.00     0.000 C 
BRANCH  19  20
ATOM     20  C   UNL     1       2.447  12.797 -14.355  1.00  0.00     0.000 C 
BRANCH  20  21
ATOM     21  C   UNL     1       1.077  12.285 -13.884  1.00  0.00     0.000 C 
BRANCH  21  22
ATOM     22  C   UNL     1      -0.064  13.027 -14.595  1.00  0.00    -0.000 C 
BRANCH  22  23
ATOM     23  C   UNL     1       0.439  14.124 -15.551  1.00  0.00    -0.000 C 
BRANCH  23  24
ATOM     24  C   UNL     1      -0.435  14.357 -16.800  1.00  0.00    -0.000 C 
BRANCH  24  25
ATOM     25  C   UNL     1       0.164  13.852 -18.125  1.00  0.00    -0.000 C 
BRANCH  25  26
ATOM     26  C   UNL     1       1.478  13.078 -17.930  1.00  0.00    -0.000 C 
BRANCH  26  27
ATOM     27  C   UNL     1       1.250  11.563 -17.791  1.00  0.00    -0.000 C 
BRANCH  27  28
ATOM     28  C   UNL     1       2.371  10.868 -16.999  1.00  0.00    -0.000 C 
BRANCH  28  29
ATOM     29  C   UNL     1       2.052   9.395 -16.699  1.00  0.00    -0.003 C 
ATOM     30  C   UNL     1       0.867   9.229 -15.746  1.00  0.00     0.004 C 
ENDBRANCH  28  29
ENDBRANCH  27  28
ENDBRANCH  26  27
ENDBRANCH  25  26
ENDBRANCH  24  25
ENDBRANCH  23  24
ENDBRANCH  22  23
ENDBRANCH  21  22
ENDBRANCH  20  21
ENDBRANCH  19  20
ENDBRANCH  18  19
ENDBRANCH  17  18
ENDBRANCH   1  17
TORSDOF 26
ENDMDL
MODEL 6
REMARK VINA RESULT:    -4.218      2.321      5.360
REMARK INTER + INTRA:         -14.392
REMARK INTER:                 -10.915
REMARK INTRA:                  -3.477
REMARK UNBOUND:                -3.764
REMARK SMILES CCCCCCCCCCCCCCCCCCCCCCCCCCCC(=O)[O-]
REMARK SMILES IDX 15 1 16 2 17 3 18 4 19 5 20 6 21 7 22 8 23 9 24 10 25 11
REMARK SMILES IDX 26 12 27 13 28 14 29 15 30 16 14 17 13 18 12 19 11 20 10 21
REMARK SMILES IDX 9 22 8 23 7 24 6 25 5 26 4 27 3 28 2 29 1 30
REMARK H PARENT
REMARK Flexibility Score: inf
ROOT
ATOM      1  C   UNL     1       0.469  13.505 -15.452  1.00  0.00     0.000 C 
ENDROOT
BRANCH   1   2
ATOM      2  C   UNL     1      -0.838  13.693 -16.245  1.00  0.00     0.000 C 
BRANCH   2   3
ATOM      3  C   UNL     1      -0.712  14.729 -17.375  1.00  0.00     0.000 C 
BRANCH   3   4
ATOM      4  C   UNL     1      -1.780  15.829 -17.293  1.00  0.00     0.000 C 
BRANCH   4   5
ATOM      5  C   UNL     1      -1.302  17.158 -17.900  1.00  0.00     0.000 C 
BRANCH   5   6
ATOM      6  C   UNL     1      -1.111  18.224 -16.810  1.00  0.00     0.000 C 
BRANCH   6   7
ATOM      7  C   UNL     1       0.118  17.962 -15.924  1.00  0.00     0.000 C 
BRANCH   7   8
ATOM      8  C   UNL     1       1.346  18.842 -16.230  1.00  0.00     0.000 C 
BRANCH   8   9
ATOM      9  C   UNL     1       2.520  18.080 -16.886  1.00  0.00     0.000 C 
BRANCH   9  10
ATOM     10  C   UNL     1       2.203  16.590 -17.103  1.00  0.00     0.000 C 
BRANCH  10  11
ATOM     11  C   UNL     1       3.434  15.775 -17.528  1.00  0.00     0.000 C 
BRANCH  11  12
ATOM     12  C   UNL     1       3.477  14.384 -16.872  1.00  0.00     0.006 C 
BRANCH  12  13
ATOM     13  C   UNL     1       4.672  14.233 -15.922  1.00  0.00     0.053 C 
BRANCH  13  14
ATOM     14  C   UNL     1       5.974  14.272 -16.662  1.00  0.00     0.041 C 
ATOM     15  O   UNL     1       6.123  13.608 -17.722  1.00  0.00    -0.550 OA
ATOM     16  O   UNL     1       7.035  15.013 -16.161  1.00  0.00    -0.550 OA
ENDBRANCH  13  14
ENDBRANCH  12  13
ENDBRANCH  11  12
ENDBRANCH  10  11
ENDBRANCH   9  10
ENDBRANCH   8   9
ENDBRANCH   7   8
ENDBRANCH   6   7
ENDBRANCH   5   6
ENDBRANCH   4   5
ENDBRANCH   3   4
ENDBRANCH   2   3
ENDBRANCH   1   2
BRANCH   1  17
ATOM     17  C   UNL     1       0.363  12.590 -14.217  1.00  0.00     0.000 C 
BRANCH  17  18
ATOM     18  C   UNL     1       1.039  11.223 -14.417  1.00  0.00     0.000 C 
BRANCH  18  19
ATOM     19  C   UNL     1       1.230  10.861 -15.900  1.00  0.00     0.000 C 
BRANCH  19  20
ATOM     20  C   UNL     1       2.704  10.811 -16.350  1.00  0.00     0.000 C 
BRANCH  20  21
ATOM     21  C   UNL     1       3.670  10.658 -15.164  1.00  0.00     0.000 C 
BRANCH  21  22
ATOM     22  C   UNL     1       5.126  10.581 -15.644  1.00  0.00    -0.000 C 
BRANCH  22  23
ATOM     23  C   UNL     1       6.140  10.583 -14.487  1.00  0.00    -0.000 C 
BRANCH  23  24
ATOM     24  C   UNL     1       5.845  11.589 -13.357  1.00  0.00    -0.000 C 
BRANCH  24  25
ATOM     25  C   UNL     1       6.779  12.811 -13.303  1.00  0.00    -0.000 C 
BRANCH  25  26
ATOM     26  C   UNL     1       7.207  13.174 -11.872  1.00  0.00    -0.000 C 
BRANCH  26  27
ATOM     27  C   UNL     1       8.645  12.725 -11.559  1.00  0.00    -0.000 C 
BRANCH  27  28
ATOM     28  C   UNL     1       8.699  11.633 -10.476  1.00  0.00    -0.000 C 
BRANCH  28  29
ATOM     29  C   UNL     1       9.124  10.268 -11.038  1.00  0.00    -0.003 C 
ATOM     30  C   UNL     1       7.936   9.417 -11.489  1.00  0.00     0.004 C 
ENDBRANCH  28  29
ENDBRANCH  27  28
ENDBRANCH  26  27
ENDBRANCH  25  26
ENDBRANCH  24  25
ENDBRANCH  23  24
ENDBRANCH  22  23
ENDBRANCH  21  22
ENDBRANCH  20  21
ENDBRANCH  19  20
ENDBRANCH  18  19
ENDBRANCH  17  18
ENDBRANCH   1  17
TORSDOF 26
ENDMDL
MODEL 7
REMARK VINA RESULT:    -4.194      2.615      8.654
REMARK INTER + INTRA:         -14.333
REMARK INTER:                 -10.751
REMARK INTRA:                  -3.582
REMARK UNBOUND:                -3.764
REMARK SMILES CCCCCCCCCCCCCCCCCCCCCCCCCCCC(=O)[O-]
REMARK SMILES IDX 15 1 16 2 17 3 18 4 19 5 20 6 21 7 22 8 23 9 24 10 25 11
REMARK SMILES IDX 26 12 27 13 28 14 29 15 30 16 14 17 13 18 12 19 11 20 10 21
REMARK SMILES IDX 9 22 8 23 7 24 6 25 5 26 4 27 3 28 2 29 1 30
REMARK H PARENT
REMARK Flexibility Score: inf
ROOT
ATOM      1  C   UNL     1       1.245  10.937 -14.522  1.00  0.00     0.000 C 
ENDROOT
BRANCH   1   2
ATOM      2  C   UNL     1       1.139   9.941 -15.693  1.00  0.00     0.000 C 
BRANCH   2   3
ATOM      3  C   UNL     1       1.766  10.473 -16.993  1.00  0.00     0.000 C 
BRANCH   3   4
ATOM      4  C   UNL     1       2.741  11.635 -16.748  1.00  0.00     0.000 C 
BRANCH   4   5
ATOM      5  C   UNL     1       2.667  12.706 -17.849  1.00  0.00     0.000 C 
BRANCH   5   6
ATOM      6  C   UNL     1       3.765  13.764 -17.663  1.00  0.00     0.000 C 
BRANCH   6   7
ATOM      7  C   UNL     1       5.165  13.246 -18.031  1.00  0.00     0.000 C 
BRANCH   7   8
ATOM      8  C   UNL     1       6.296  13.680 -17.076  1.00  0.00     0.000 C 
BRANCH   8   9
ATOM      9  C   UNL     1       6.600  12.660 -15.956  1.00  0.00     0.000 C 
BRANCH   9  10
ATOM     10  C   UNL     1       6.124  11.239 -16.311  1.00  0.00     0.000 C 
BRANCH  10  11
ATOM     11  C   UNL     1       6.143  10.287 -15.106  1.00  0.00     0.000 C 
BRANCH  11  12
ATOM     12  C   UNL     1       5.925  11.018 -13.770  1.00  0.00     0.006 C 
BRANCH  12  13
ATOM     13  C   UNL     1       4.436  11.224 -13.463  1.00  0.00     0.053 C 
BRANCH  13  14
ATOM     14  C   UNL     1       4.119  12.667 -13.217  1.00  0.00     0.041 C 
ATOM     15  O   UNL     1       4.134  13.493 -14.167  1.00  0.00    -0.550 OA
ATOM     16  O   UNL     1       3.844  13.107 -11.929  1.00  0.00    -0.550 OA
ENDBRANCH  13  14
ENDBRANCH  12  13
ENDBRANCH  11  12
ENDBRANCH  10  11
ENDBRANCH   9  10
ENDBRANCH   8   9
ENDBRANCH   7   8
ENDBRANCH   6   7
ENDBRANCH   5   6
ENDBRANCH   4   5
ENDBRANCH   3   4
ENDBRANCH   2   3
ENDBRANCH   1   2
BRANCH   1  17
ATOM     17  C   UNL     1       0.046  11.890 -14.358  1.00  0.00     0.000 C 
BRANCH  17  18
ATOM     18  C   UNL     1       0.388  13.354 -14.678  1.00  0.00     0.000 C 
BRANCH  18  19
ATOM     19  C   UNL     1      -0.257  13.849 -15.983  1.00  0.00     0.000 C 
BRANCH  19  20
ATOM     20  C   UNL     1       0.409  15.107 -16.576  1.00  0.00     0.000 C 
BRANCH  20  21
ATOM     21  C   UNL     1      -0.620  16.112 -17.117  1.00  0.00     0.000 C 
BRANCH  21  22
ATOM     22  C   UNL     1      -1.700  15.402 -17.947  1.00  0.00    -0.000 C 
BRANCH  22  23
ATOM     23  C   UNL     1      -3.075  15.388 -17.255  1.00  0.00    -0.000 C 
BRANCH  23  24
ATOM     24  C   UNL     1      -4.077  16.443 -17.765  1.00  0.00    -0.000 C 
BRANCH  24  25
ATOM     25  C   UNL     1      -3.857  17.870 -17.231  1.00  0.00    -0.000 C 
BRANCH  25  26
ATOM     26  C   UNL     1      -4.922  18.296 -16.206  1.00  0.00    -0.000 C 
BRANCH  26  27
ATOM     27  C   UNL     1      -4.307  18.691 -14.852  1.00  0.00    -0.000 C 
BRANCH  27  28
ATOM     28  C   UNL     1      -3.485  17.552 -14.223  1.00  0.00    -0.000 C 
BRANCH  28  29
ATOM     29  C   UNL     1      -2.003  17.922 -14.054  1.00  0.00    -0.003 C 
ATOM     30  C   UNL     1      -1.134  16.721 -13.677  1.00  0.00     0.004 C 
ENDBRANCH  28  29
ENDBRANCH  27  28
ENDBRANCH  26  27
ENDBRANCH  25  26
ENDBRANCH  24  25
ENDBRANCH  23  24
ENDBRANCH  22  23
ENDBRANCH  21  22
ENDBRANCH  20  21
ENDBRANCH  19  20
ENDBRANCH  18  19
ENDBRANCH  17  18
ENDBRANCH   1  17
TORSDOF 26
ENDMDL
MODEL 8
REMARK VINA RESULT:    -4.173      3.927      9.597
REMARK INTER + INTRA:         -14.281
REMARK INTER:                 -11.786
REMARK INTRA:                  -2.494
REMARK UNBOUND:                -3.764
REMARK SMILES CCCCCCCCCCCCCCCCCCCCCCCCCCCC(=O)[O-]
REMARK SMILES IDX 15 1 16 2 17 3 18 4 19 5 20 6 21 7 22 8 23 9 24 10 25 11
REMARK SMILES IDX 26 12 27 13 28 14 29 15 30 16 14 17 13 18 12 19 11 20 10 21
REMARK SMILES IDX 9 22 8 23 7 24 6 25 5 26 4 27 3 28 2 29 1 30
REMARK H PARENT
REMARK Flexibility Score: inf
ROOT
ATOM      1  C   UNL     1       0.956  11.478 -14.641  1.00  0.00     0.000 C 
ENDROOT
BRANCH   1   2
ATOM      2  C   UNL     1       1.277  10.829 -16.000  1.00  0.00     0.000 C 
BRANCH   2   3
ATOM      3  C   UNL     1       2.771  10.512 -16.178  1.00  0.00     0.000 C 
BRANCH   3   4
ATOM      4  C   UNL     1       3.650  11.772 -16.160  1.00  0.00     0.000 C 
BRANCH   4   5
ATOM      5  C   UNL     1       3.271  12.768 -17.268  1.00  0.00     0.000 C 
BRANCH   5   6
ATOM      6  C   UNL     1       4.510  13.519 -17.780  1.00  0.00     0.000 C 
BRANCH   6   7
ATOM      7  C   UNL     1       5.827  12.798 -17.448  1.00  0.00     0.000 C 
BRANCH   7   8
ATOM      8  C   UNL     1       6.957  13.706 -16.921  1.00  0.00     0.000 C 
BRANCH   8   9
ATOM      9  C   UNL     1       6.601  14.464 -15.622  1.00  0.00     0.000 C 
BRANCH   9  10
ATOM     10  C   UNL     1       6.331  13.512 -14.442  1.00  0.00     0.000 C 
BRANCH  10  11
ATOM     11  C   UNL     1       7.258  13.770 -13.245  1.00  0.00     0.000 C 
BRANCH  11  12
ATOM     12  C   UNL     1       7.037  12.768 -12.100  1.00  0.00     0.006 C 
BRANCH  12  13
ATOM     13  C   UNL     1       8.348  12.405 -11.390  1.00  0.00     0.053 C 
BRANCH  13  14
ATOM     14  C   UNL     1       8.314  11.008 -10.851  1.00  0.00     0.041 C 
ATOM     15  O   UNL     1       8.519  10.793  -9.627  1.00  0.00    -0.550 OA
ATOM     16  O   UNL     1       8.092   9.938 -11.708  1.00  0.00    -0.550 OA
ENDBRANCH  13  14
ENDBRANCH  12  13
ENDBRANCH  11  12
ENDBRANCH  10  11
ENDBRANCH   9  10
ENDBRANCH   8   9
ENDBRANCH   7   8
ENDBRANCH   6   7
ENDBRANCH   5   6
ENDBRANCH   4   5
ENDBRANCH   3   4
ENDBRANCH   2   3
ENDBRANCH   1   2
BRANCH   1  17
ATOM     17  C   UNL     1      -0.005  12.681 -14.696  1.00  0.00     0.000 C 
BRANCH  17  18
ATOM     18  C   UNL     1       0.428  13.756 -15.707  1.00  0.00     0.000 C 
BRANCH  18  19
ATOM     19  C   UNL     1      -0.720  14.214 -16.623  1.00  0.00     0.000 C 
BRANCH  19  20
ATOM     20  C   UNL     1      -0.549  15.643 -17.177  1.00  0.00     0.000 C 
BRANCH  20  21
ATOM     21  C   UNL     1       0.332  16.518 -16.270  1.00  0.00     0.000 C 
BRANCH  21  22
ATOM     22  C   UNL     1      -0.509  17.567 -15.529  1.00  0.00    -0.000 C 
BRANCH  22  23
ATOM     23  C   UNL     1      -1.610  16.943 -14.653  1.00  0.00    -0.000 C 
BRANCH  23  24
ATOM     24  C   UNL     1      -3.046  17.407 -14.973  1.00  0.00    -0.000 C 
BRANCH  24  25
ATOM     25  C   UNL     1      -3.188  18.281 -16.232  1.00  0.00    -0.000 C 
BRANCH  25  26
ATOM     26  C   UNL     1      -3.608  17.476 -17.474  1.00  0.00    -0.000 C 
BRANCH  26  27
ATOM     27  C   UNL     1      -5.133  17.464 -17.676  1.00  0.00    -0.000 C 
BRANCH  27  28
ATOM     28  C   UNL     1      -5.747  16.072 -17.448  1.00  0.00    -0.000 C 
BRANCH  28  29
ATOM     29  C   UNL     1      -7.187  16.146 -16.916  1.00  0.00    -0.003 C 
ATOM     30  C   UNL     1      -7.721  17.578 -16.851  1.00  0.00     0.004 C 
ENDBRANCH  28  29
ENDBRANCH  27  28
ENDBRANCH  26  27
ENDBRANCH  25  26
ENDBRANCH  24  25
ENDBRANCH  23  24
ENDBRANCH  22  23
ENDBRANCH  21  22
ENDBRANCH  20  21
ENDBRANCH  19  20
ENDBRANCH  18  19
ENDBRANCH  17  18
ENDBRANCH   1  17
TORSDOF 26
ENDMDL
MODEL 9
REMARK VINA RESULT:    -4.149      2.277      4.933
REMARK INTER + INTRA:         -14.219
REMARK INTER:                 -10.188
REMARK INTRA:                  -4.031
REMARK UNBOUND:                -3.764
REMARK SMILES CCCCCCCCCCCCCCCCCCCCCCCCCCCC(=O)[O-]
REMARK SMILES IDX 15 1 16 2 17 3 18 4 19 5 20 6 21 7 22 8 23 9 24 10 25 11
REMARK SMILES IDX 26 12 27 13 28 14 29 15 30 16 14 17 13 18 12 19 11 20 10 21
REMARK SMILES IDX 9 22 8 23 7 24 6 25 5 26 4 27 3 28 2 29 1 30
REMARK H PARENT
REMARK Flexibility Score: inf
ROOT
ATOM      1  C   UNL     1       2.124  10.873 -14.712  1.00  0.00     0.000 C 
ENDROOT
BRANCH   1   2
ATOM      2  C   UNL     1       1.528  12.124 -14.041  1.00  0.00     0.000 C 
BRANCH   2   3
ATOM      3  C   UNL     1       0.056  12.365 -14.418  1.00  0.00     0.000 C 
BRANCH   3   4
ATOM      4  C   UNL     1      -0.270  13.853 -14.613  1.00  0.00     0.000 C 
BRANCH   4   5
ATOM      5  C   UNL     1      -0.116  14.301 -16.076  1.00  0.00     0.000 C 
BRANCH   5   6
ATOM      6  C   UNL     1      -1.481  14.636 -16.696  1.00  0.00     0.000 C 
BRANCH   6   7
ATOM      7  C   UNL     1      -1.449  15.903 -17.566  1.00  0.00     0.000 C 
BRANCH   7   8
ATOM      8  C   UNL     1      -0.046  16.497 -17.807  1.00  0.00     0.000 C 
BRANCH   8   9
ATOM      9  C   UNL     1       0.250  17.769 -16.983  1.00  0.00     0.000 C 
BRANCH   9  10
ATOM     10  C   UNL     1      -0.983  18.265 -16.206  1.00  0.00     0.000 C 
BRANCH  10  11
ATOM     11  C   UNL     1      -0.823  18.128 -14.685  1.00  0.00     0.000 C 
BRANCH  11  12
ATOM     12  C   UNL     1      -1.925  17.263 -14.050  1.00  0.00     0.006 C 
BRANCH  12  13
ATOM     13  C   UNL     1      -3.289  17.491 -14.713  1.00  0.00     0.053 C 
BRANCH  13  14
ATOM     14  C   UNL     1      -4.161  18.386 -13.886  1.00  0.00     0.041 C 
ATOM     15  O   UNL     1      -3.885  18.603 -12.677  1.00  0.00    -0.550 OA
ATOM     16  O   UNL     1      -5.301  18.952 -14.442  1.00  0.00    -0.550 OA
ENDBRANCH  13  14
ENDBRANCH  12  13
ENDBRANCH  11  12
ENDBRANCH  10  11
ENDBRANCH   9  10
ENDBRANCH   8   9
ENDBRANCH   7   8
ENDBRANCH   6   7
ENDBRANCH   5   6
ENDBRANCH   4   5
ENDBRANCH   3   4
ENDBRANCH   2   3
ENDBRANCH   1   2
BRANCH   1  17
ATOM     17  C   UNL     1       1.257  10.244 -15.820  1.00  0.00     0.000 C 
BRANCH  17  18
ATOM     18  C   UNL     1       1.558  10.808 -17.218  1.00  0.00     0.000 C 
BRANCH  18  19
ATOM     19  C   UNL     1       2.595  11.945 -17.194  1.00  0.00     0.000 C 
BRANCH  19  20
ATOM     20  C   UNL     1       2.253  13.126 -18.124  1.00  0.00     0.000 C 
BRANCH  20  21
ATOM     21  C   UNL     1       2.916  14.436 -17.671  1.00  0.00     0.000 C 
BRANCH  21  22
ATOM     22  C   UNL     1       4.431  14.404 -17.922  1.00  0.00    -0.000 C 
BRANCH  22  23
ATOM     23  C   UNL     1       5.254  14.750 -16.668  1.00  0.00    -0.000 C 
BRANCH  23  24
ATOM     24  C   UNL     1       6.671  14.145 -16.626  1.00  0.00    -0.000 C 
BRANCH  24  25
ATOM     25  C   UNL     1       6.821  12.773 -17.308  1.00  0.00    -0.000 C 
BRANCH  25  26
ATOM     26  C   UNL     1       6.898  11.611 -16.302  1.00  0.00    -0.000 C 
BRANCH  26  27
ATOM     27  C   UNL     1       5.558  11.365 -15.589  1.00  0.00    -0.000 C 
BRANCH  27  28
ATOM     28  C   UNL     1       5.724  11.176 -14.071  1.00  0.00    -0.000 C 
BRANCH  28  29
ATOM     29  C   UNL     1       5.541  12.488 -13.292  1.00  0.00    -0.003 C 
ATOM     30  C   UNL     1       6.845  13.275 -13.145  1.00  0.00     0.004 C 
ENDBRANCH  28  29
ENDBRANCH  27  28
ENDBRANCH  26  27
ENDBRANCH  25  26
ENDBRANCH  24  25
ENDBRANCH  23  24
ENDBRANCH  22  23
ENDBRANCH  21  22
ENDBRANCH  20  21
ENDBRANCH  19  20
ENDBRANCH  18  19
ENDBRANCH  17  18
ENDBRANCH   1  17
TORSDOF 26
ENDMDL
