MODEL 1
REMARK VINA RESULT:    -3.478      0.000      0.000
REMARK INTER + INTRA:          -5.519
REMARK INTER:                  -5.308
REMARK INTRA:                  -0.211
REMARK UNBOUND:                -0.211
REMARK SMILES CC1=CCC[C@H](C)C(=O)C[C@@H](C(C)C)C(=O)C1
REMARK SMILES IDX 8 1 9 2 6 3 7 4 5 5 4 6 3 7 2 8 1 9 10 11 11 12 15 13 16 14
REMARK SMILES IDX 17 15 12 17 13 18 14 19
REMARK H PARENT
REMARK Flexibility Score: 70.00
ROOT
ATOM      1  C   UNL     1       6.147  -4.578  -0.411  1.00  0.00     0.136 C 
ATOM      2  O   UNL     1       5.141  -4.811   0.245  1.00  0.00    -0.299 OA
ENDROOT
BRANCH   1   3
ATOM      3  C   UNL     1       6.629  -5.574  -1.453  1.00  0.00     0.053 C 
ATOM      4  C   UNL     1       6.996  -6.934  -0.837  1.00  0.00     0.016 C 
BRANCH   3   5
ATOM      5  C   UNL     1       5.608  -5.729  -2.598  1.00  0.00     0.015 C 
BRANCH   5   6
ATOM      6  C   UNL     1       5.975  -4.939  -3.870  1.00  0.00     0.028 C 
BRANCH   6   7
ATOM      7  C   UNL     1       7.468  -4.761  -3.973  1.00  0.00    -0.028 C 
ATOM      8  C   UNL     1       8.117  -3.585  -3.804  1.00  0.00    -0.070 CG0
ATOM      9  C   UNL     1       9.623  -3.590  -3.876  1.00  0.00     0.039 C 
ATOM     10  G   UNL     1       7.395  -2.266  -3.569  1.00  0.00     0.000 G0
ENDBRANCH   6   7
ENDBRANCH   5   6
ENDBRANCH   3   5
ENDBRANCH   1   3
BRANCH   1  11
ATOM     11  C   UNL     1       6.894  -3.288  -0.169  1.00  0.00     0.087 C 
BRANCH  11  12
ATOM     12  C   UNL     1       6.425  -2.154  -1.119  1.00  0.00     0.066 C 
BRANCH  12  13
ATOM     13  C   UNL     1       7.502  -1.796  -2.132  1.00  0.00     0.140 C 
ATOM     14  O   UNL     1       8.435  -1.078  -1.802  1.00  0.00    -0.299 OA
BRANCH  13  15
ATOM     15  C   UNL     1       7.399  -2.256  -3.567  1.00  0.00     0.106 CG0
ATOM     16  G   UNL     1       8.101  -3.586  -3.802  1.00  0.00     0.000 G0
ENDBRANCH  13  15
ENDBRANCH  12  13
BRANCH  12  17
ATOM     17  C   UNL     1       5.904  -0.912  -0.331  1.00  0.00    -0.006 C 
ATOM     18  C   UNL     1       4.999   0.023  -1.154  1.00  0.00     0.008 C 
ATOM     19  C   UNL     1       5.195  -1.325   0.968  1.00  0.00     0.008 C 
ENDBRANCH  12  17
ENDBRANCH  11  12
ENDBRANCH   1  11
TORSDOF 1
ENDMDL
MODEL 2
REMARK VINA RESULT:    -3.379      1.959      4.359
REMARK INTER + INTRA:          -5.368
REMARK INTER:                  -5.233
REMARK INTRA:                  -0.135
REMARK UNBOUND:                -0.211
REMARK SMILES CC1=CCC[C@H](C)C(=O)C[C@@H](C(C)C)C(=O)C1
REMARK SMILES IDX 8 1 9 2 6 3 7 4 5 5 4 6 3 7 2 8 1 9 10 11 11 12 15 13 16 14
REMARK SMILES IDX 17 15 12 17 13 18 14 19
REMARK H PARENT
REMARK Flexibility Score: 70.00
ROOT
ATOM      1  C   UNL     1       6.153  -3.644   0.246  1.00  0.00     0.136 C 
ATOM      2  O   UNL     1       7.206  -3.730   0.862  1.00  0.00    -0.299 OA
ENDROOT
BRANCH   1   3
ATOM      3  C   UNL     1       5.377  -2.337   0.236  1.00  0.00     0.053 C 
ATOM      4  C   UNL     1       5.280  -1.703   1.634  1.00  0.00     0.016 C 
BRANCH   3   5
ATOM      5  C   UNL     1       5.954  -1.346  -0.795  1.00  0.00     0.015 C 
BRANCH   5   6
ATOM      6  C   UNL     1       5.011  -1.063  -1.981  1.00  0.00     0.028 C 
BRANCH   6   7
ATOM      7  C   UNL     1       5.643  -1.499  -3.278  1.00  0.00    -0.028 C 
ATOM      8  C   UNL     1       5.356  -2.654  -3.924  1.00  0.00    -0.070 CG0
ATOM      9  C   UNL     1       6.029  -2.909  -5.249  1.00  0.00     0.039 C 
ATOM     10  G   UNL     1       4.407  -3.704  -3.365  1.00  0.00     0.000 G0
ENDBRANCH   6   7
ENDBRANCH   5   6
ENDBRANCH   3   5
ENDBRANCH   1   3
BRANCH   1  11
ATOM     11  C   UNL     1       5.645  -4.851  -0.505  1.00  0.00     0.087 C 
BRANCH  11  12
ATOM     12  C   UNL     1       6.250  -4.952  -1.930  1.00  0.00     0.066 C 
BRANCH  12  13
ATOM     13  C   UNL     1       5.164  -4.984  -2.995  1.00  0.00     0.140 C 
ATOM     14  O   UNL     1       4.922  -6.026  -3.588  1.00  0.00    -0.299 OA
BRANCH  13  15
ATOM     15  C   UNL     1       4.423  -3.726  -3.384  1.00  0.00     0.106 CG0
ATOM     16  G   UNL     1       5.353  -2.647  -3.919  1.00  0.00     0.000 G0
ENDBRANCH  13  15
ENDBRANCH  12  13
BRANCH  12  17
ATOM     17  C   UNL     1       7.249  -6.143  -2.055  1.00  0.00    -0.006 C 
ATOM     18  C   UNL     1       8.725  -5.752  -1.854  1.00  0.00     0.008 C 
ATOM     19  C   UNL     1       6.874  -7.295  -1.111  1.00  0.00     0.008 C 
ENDBRANCH  12  17
ENDBRANCH  11  12
ENDBRANCH   1  11
TORSDOF 1
ENDMDL
MODEL 3
REMARK VINA RESULT:    -3.327      2.030      3.926
REMARK INTER + INTRA:          -5.289
REMARK INTER:                  -5.254
REMARK INTRA:                  -0.035
REMARK UNBOUND:                -0.211
REMARK SMILES CC1=CCC[C@H](C)C(=O)C[C@@H](C(C)C)C(=O)C1
REMARK SMILES IDX 8 1 9 2 6 3 7 4 5 5 4 6 3 7 2 8 1 9 10 11 11 12 15 13 16 14
REMARK SMILES IDX 17 15 12 17 13 18 14 19
REMARK H PARENT
REMARK Flexibility Score: 70.00
ROOT
ATOM      1  C   UNL     1       7.758  -2.355  -3.362  1.00  0.00     0.136 C 
ATOM      2  O   UNL     1       7.729  -3.098  -4.333  1.00  0.00    -0.299 OA
ENDROOT
BRANCH   1   3
ATOM      3  C   UNL     1       9.072  -2.080  -2.648  1.00  0.00     0.053 C 
ATOM      4  C   UNL     1       8.907  -1.103  -1.472  1.00  0.00     0.016 C 
BRANCH   3   5
ATOM      5  C   UNL     1       9.757  -3.388  -2.205  1.00  0.00     0.015 C 
BRANCH   5   6
ATOM      6  C   UNL     1       9.118  -4.035  -0.960  1.00  0.00     0.028 C 
BRANCH   6   7
ATOM      7  C   UNL     1       8.552  -5.390  -1.297  1.00  0.00    -0.028 C 
ATOM      8  C   UNL     1       7.243  -5.723  -1.203  1.00  0.00    -0.070 CG0
ATOM      9  C   UNL     1       6.830  -7.105  -1.642  1.00  0.00     0.039 C 
ATOM     10  G   UNL     1       6.183  -4.776  -0.657  1.00  0.00     0.000 G0
ENDBRANCH   6   7
ENDBRANCH   5   6
ENDBRANCH   3   5
ENDBRANCH   1   3
BRANCH   1  11
ATOM     11  C   UNL     1       6.473  -1.716  -2.891  1.00  0.00     0.087 C 
BRANCH  11  12
ATOM     12  C   UNL     1       5.987  -2.307  -1.542  1.00  0.00     0.066 C 
BRANCH  12  13
ATOM     13  C   UNL     1       5.664  -3.790  -1.668  1.00  0.00     0.140 C 
ATOM     14  O   UNL     1       4.947  -4.182  -2.577  1.00  0.00    -0.299 OA
BRANCH  13  15
ATOM     15  C   UNL     1       6.161  -4.780  -0.641  1.00  0.00     0.106 CG0
ATOM     16  G   UNL     1       7.231  -5.708  -1.200  1.00  0.00     0.000 G0
ENDBRANCH  13  15
ENDBRANCH  12  13
BRANCH  12  17
ATOM     17  C   UNL     1       4.807  -1.486  -0.938  1.00  0.00    -0.006 C 
ATOM     18  C   UNL     1       5.049  -1.000   0.503  1.00  0.00     0.008 C 
ATOM     19  C   UNL     1       4.426  -0.300  -1.838  1.00  0.00     0.008 C 
ENDBRANCH  12  17
ENDBRANCH  11  12
ENDBRANCH   1  11
TORSDOF 1
ENDMDL
MODEL 4
REMARK VINA RESULT:    -3.257      1.521      1.934
REMARK INTER + INTRA:          -5.181
REMARK INTER:                  -4.979
REMARK INTRA:                  -0.202
REMARK UNBOUND:                -0.211
REMARK SMILES CC1=CCC[C@H](C)C(=O)C[C@@H](C(C)C)C(=O)C1
REMARK SMILES IDX 8 1 9 2 6 3 7 4 5 5 4 6 3 7 2 8 1 9 10 11 11 12 15 13 16 14
REMARK SMILES IDX 17 15 12 17 13 18 14 19
REMARK H PARENT
REMARK Flexibility Score: 70.00
ROOT
ATOM      1  C   UNL     1       4.627  -4.179  -2.087  1.00  0.00     0.136 C 
ATOM      2  O   UNL     1       3.491  -3.737  -2.182  1.00  0.00    -0.299 OA
ENDROOT
BRANCH   1   3
ATOM      3  C   UNL     1       5.015  -5.456  -2.814  1.00  0.00     0.053 C 
ATOM      4  C   UNL     1       5.240  -5.230  -4.318  1.00  0.00     0.016 C 
BRANCH   3   5
ATOM      5  C   UNL     1       6.234  -6.133  -2.156  1.00  0.00     0.015 C 
BRANCH   5   6
ATOM      6  C   UNL     1       7.518  -6.063  -3.005  1.00  0.00     0.028 C 
BRANCH   6   7
ATOM      7  C   UNL     1       8.650  -5.466  -2.209  1.00  0.00    -0.028 C 
ATOM      8  C   UNL     1       8.945  -4.145  -2.161  1.00  0.00    -0.070 CG0
ATOM      9  C   UNL     1      10.072  -3.704  -1.262  1.00  0.00     0.039 C 
ATOM     10  G   UNL     1       8.207  -3.100  -2.985  1.00  0.00     0.000 G0
ENDBRANCH   6   7
ENDBRANCH   5   6
ENDBRANCH   3   5
ENDBRANCH   1   3
BRANCH   1  11
ATOM     11  C   UNL     1       5.633  -3.434  -1.242  1.00  0.00     0.087 C 
BRANCH  11  12
ATOM     12  C   UNL     1       6.052  -2.086  -1.886  1.00  0.00     0.066 C 
BRANCH  12  13
ATOM     13  C   UNL     1       7.552  -2.033  -2.140  1.00  0.00     0.140 C 
ATOM     14  O   UNL     1       8.211  -1.100  -1.702  1.00  0.00    -0.299 OA
BRANCH  13  15
ATOM     15  C   UNL     1       8.231  -3.081  -2.987  1.00  0.00     0.106 CG0
ATOM     16  G   UNL     1       8.937  -4.138  -2.149  1.00  0.00     0.000 G0
ENDBRANCH  13  15
ENDBRANCH  12  13
BRANCH  12  17
ATOM     17  C   UNL     1       5.538  -0.863  -1.064  1.00  0.00    -0.006 C 
ATOM     18  C   UNL     1       4.455  -0.034  -1.778  1.00  0.00     0.008 C 
ATOM     19  C   UNL     1       5.048  -1.287   0.329  1.00  0.00     0.008 C 
ENDBRANCH  12  17
ENDBRANCH  11  12
ENDBRANCH   1  11
TORSDOF 1
ENDMDL
MODEL 5
REMARK VINA RESULT:    -3.245      2.147      4.729
REMARK INTER + INTRA:          -5.163
REMARK INTER:                  -5.442
REMARK INTRA:                   0.279
REMARK UNBOUND:                -0.211
REMARK SMILES CC1=CCC[C@H](C)C(=O)C[C@@H](C(C)C)C(=O)C1
REMARK SMILES IDX 8 1 9 2 6 3 7 4 5 5 4 6 3 7 2 8 1 9 10 11 11 12 15 13 16 14
REMARK SMILES IDX 17 15 12 17 13 18 14 19
REMARK H PARENT
REMARK Flexibility Score: 70.00
ROOT
ATOM      1  C   UNL     1       5.072  -2.011  -2.411  1.00  0.00     0.136 C 
ATOM      2  O   UNL     1       4.121  -2.537  -1.850  1.00  0.00    -0.299 OA
ENDROOT
BRANCH   1   3
ATOM      3  C   UNL     1       5.831  -0.882  -1.732  1.00  0.00     0.053 C 
ATOM      4  C   UNL     1       4.891   0.163  -1.106  1.00  0.00     0.016 C 
BRANCH   3   5
ATOM      5  C   UNL     1       6.842  -1.422  -0.700  1.00  0.00     0.015 C 
BRANCH   5   6
ATOM      6  C   UNL     1       7.820  -2.464  -1.276  1.00  0.00     0.028 C 
BRANCH   6   7
ATOM      7  C   UNL     1       7.458  -3.850  -0.806  1.00  0.00    -0.028 C 
ATOM      8  C   UNL     1       7.170  -4.890  -1.624  1.00  0.00    -0.070 CG0
ATOM      9  C   UNL     1       6.893  -6.231  -0.993  1.00  0.00     0.039 C 
ATOM     10  G   UNL     1       7.095  -4.758  -3.138  1.00  0.00     0.000 G0
ENDBRANCH   6   7
ENDBRANCH   5   6
ENDBRANCH   3   5
ENDBRANCH   1   3
BRANCH   1  11
ATOM     11  C   UNL     1       5.478  -2.504  -3.779  1.00  0.00     0.087 C 
BRANCH  11  12
ATOM     12  C   UNL     1       4.830  -3.870  -4.124  1.00  0.00     0.066 C 
BRANCH  12  13
ATOM     13  C   UNL     1       5.724  -5.030  -3.711  1.00  0.00     0.140 C 
ATOM     14  O   UNL     1       5.303  -6.176  -3.775  1.00  0.00    -0.299 OA
BRANCH  13  15
ATOM     15  C   UNL     1       7.106  -4.783  -3.154  1.00  0.00     0.106 CG0
ATOM     16  G   UNL     1       7.147  -4.889  -1.636  1.00  0.00     0.000 G0
ENDBRANCH  13  15
ENDBRANCH  12  13
BRANCH  12  17
ATOM     17  C   UNL     1       4.398  -3.948  -5.621  1.00  0.00    -0.006 C 
ATOM     18  C   UNL     1       3.103  -3.181  -5.945  1.00  0.00     0.008 C 
ATOM     19  C   UNL     1       5.529  -3.496  -6.558  1.00  0.00     0.008 C 
ENDBRANCH  12  17
ENDBRANCH  11  12
ENDBRANCH   1  11
TORSDOF 1
ENDMDL
MODEL 6
REMARK VINA RESULT:    -3.233      2.023      4.060
REMARK INTER + INTRA:          -5.145
REMARK INTER:                  -5.552
REMARK INTRA:                   0.407
REMARK UNBOUND:                -0.211
REMARK SMILES CC1=CCC[C@H](C)C(=O)C[C@@H](C(C)C)C(=O)C1
REMARK SMILES IDX 8 1 9 2 6 3 7 4 5 5 4 6 3 7 2 8 1 9 10 11 11 12 15 13 16 14
REMARK SMILES IDX 17 15 12 17 13 18 14 19
REMARK H PARENT
REMARK Flexibility Score: 70.00
ROOT
ATOM      1  C   UNL     1       5.507  -1.294  -0.314  1.00  0.00     0.136 C 
ATOM      2  O   UNL     1       5.196  -1.522   0.847  1.00  0.00    -0.299 OA
ENDROOT
BRANCH   1   3
ATOM      3  C   UNL     1       4.434  -0.984  -1.345  1.00  0.00     0.053 C 
ATOM      4  C   UNL     1       4.557   0.443  -1.908  1.00  0.00     0.016 C 
BRANCH   3   5
ATOM      5  C   UNL     1       4.414  -2.036  -2.473  1.00  0.00     0.015 C 
BRANCH   5   6
ATOM      6  C   UNL     1       4.007  -3.445  -2.001  1.00  0.00     0.028 C 
BRANCH   6   7
ATOM      7  C   UNL     1       4.889  -4.492  -2.630  1.00  0.00    -0.028 C 
ATOM      8  C   UNL     1       5.863  -5.172  -1.979  1.00  0.00    -0.070 CG0
ATOM      9  C   UNL     1       6.612  -6.237  -2.739  1.00  0.00     0.039 C 
ATOM     10  G   UNL     1       6.243  -4.893  -0.531  1.00  0.00     0.000 G0
ENDBRANCH   6   7
ENDBRANCH   5   6
ENDBRANCH   3   5
ENDBRANCH   1   3
BRANCH   1  11
ATOM     11  C   UNL     1       6.967  -1.323  -0.700  1.00  0.00     0.087 C 
BRANCH  11  12
ATOM     12  C   UNL     1       7.367  -2.662  -1.373  1.00  0.00     0.066 C 
BRANCH  12  13
ATOM     13  C   UNL     1       7.306  -3.820  -0.389  1.00  0.00     0.140 C 
ATOM     14  O   UNL     1       8.152  -3.920   0.489  1.00  0.00    -0.299 OA
BRANCH  13  15
ATOM     15  C   UNL     1       6.253  -4.894  -0.521  1.00  0.00     0.106 CG0
ATOM     16  G   UNL     1       5.877  -5.163  -1.972  1.00  0.00     0.000 G0
ENDBRANCH  13  15
ENDBRANCH  12  13
BRANCH  12  17
ATOM     17  C   UNL     1       8.745  -2.561  -2.097  1.00  0.00    -0.006 C 
ATOM     18  C   UNL     1       8.766  -3.184  -3.505  1.00  0.00     0.008 C 
ATOM     19  C   UNL     1       9.246  -1.110  -2.154  1.00  0.00     0.008 C 
ENDBRANCH  12  17
ENDBRANCH  11  12
ENDBRANCH   1  11
TORSDOF 1
ENDMDL
MODEL 7
REMARK VINA RESULT:    -3.205      1.828      3.465
REMARK INTER + INTRA:          -5.103
REMARK INTER:                  -4.864
REMARK INTRA:                  -0.238
REMARK UNBOUND:                -0.211
REMARK SMILES CC1=CCC[C@H](C)C(=O)C[C@@H](C(C)C)C(=O)C1
REMARK SMILES IDX 8 1 9 2 6 3 7 4 5 5 4 6 3 7 2 8 1 9 10 11 11 12 15 13 16 14
REMARK SMILES IDX 17 15 12 17 13 18 14 19
REMARK H PARENT
REMARK Flexibility Score: 70.00
ROOT
ATOM      1  C   UNL     1       8.134  -1.841  -2.010  1.00  0.00     0.136 C 
ATOM      2  O   UNL     1       8.792  -1.149  -1.246  1.00  0.00    -0.299 OA
ENDROOT
BRANCH   1   3
ATOM      3  C   UNL     1       8.734  -3.103  -2.608  1.00  0.00     0.053 C 
ATOM      4  C   UNL     1      10.034  -2.825  -3.381  1.00  0.00     0.016 C 
BRANCH   3   5
ATOM      5  C   UNL     1       8.936  -4.194  -1.537  1.00  0.00     0.015 C 
BRANCH   5   6
ATOM      6  C   UNL     1       7.817  -5.253  -1.509  1.00  0.00     0.028 C 
BRANCH   6   7
ATOM      7  C   UNL     1       7.315  -5.534  -2.902  1.00  0.00    -0.028 C 
ATOM      8  C   UNL     1       6.071  -5.239  -3.347  1.00  0.00    -0.070 CG0
ATOM      9  C   UNL     1       5.750  -5.526  -4.792  1.00  0.00     0.039 C 
ATOM     10  G   UNL     1       4.987  -4.654  -2.452  1.00  0.00     0.000 G0
ENDBRANCH   6   7
ENDBRANCH   5   6
ENDBRANCH   3   5
ENDBRANCH   1   3
BRANCH   1  11
ATOM     11  C   UNL     1       6.722  -1.422  -2.343  1.00  0.00     0.087 C 
BRANCH  11  12
ATOM     12  C   UNL     1       5.667  -2.266  -1.581  1.00  0.00     0.066 C 
BRANCH  12  13
ATOM     13  C   UNL     1       4.875  -3.155  -2.528  1.00  0.00     0.140 C 
ATOM     14  O   UNL     1       4.099  -2.653  -3.329  1.00  0.00    -0.299 OA
BRANCH  13  15
ATOM     15  C   UNL     1       4.979  -4.659  -2.448  1.00  0.00     0.106 CG0
ATOM     16  G   UNL     1       6.077  -5.214  -3.343  1.00  0.00     0.000 G0
ENDBRANCH  13  15
ENDBRANCH  12  13
BRANCH  12  17
ATOM     17  C   UNL     1       4.751  -1.380  -0.682  1.00  0.00    -0.006 C 
ATOM     18  C   UNL     1       5.154  -1.359   0.804  1.00  0.00     0.008 C 
ATOM     19  C   UNL     1       4.650   0.055  -1.221  1.00  0.00     0.008 C 
ENDBRANCH  12  17
ENDBRANCH  11  12
ENDBRANCH   1  11
TORSDOF 1
ENDMDL
MODEL 8
REMARK VINA RESULT:    -3.149      2.060      3.370
REMARK INTER + INTRA:          -5.018
REMARK INTER:                  -5.351
REMARK INTRA:                   0.333
REMARK UNBOUND:                -0.211
REMARK SMILES CC1=CCC[C@H](C)C(=O)C[C@@H](C(C)C)C(=O)C1
REMARK SMILES IDX 8 1 9 2 6 3 7 4 5 5 4 6 3 7 2 8 1 9 10 11 11 12 15 13 16 14
REMARK SMILES IDX 17 15 12 17 13 18 14 19
REMARK H PARENT
REMARK Flexibility Score: 70.00
ROOT
ATOM      1  C   UNL     1       3.866  -3.990  -2.890  1.00  0.00     0.136 C 
ATOM      2  O   UNL     1       3.213  -4.875  -2.356  1.00  0.00    -0.299 OA
ENDROOT
BRANCH   1   3
ATOM      3  C   UNL     1       4.285  -4.120  -4.345  1.00  0.00     0.053 C 
ATOM      4  C   UNL     1       3.727  -2.986  -5.221  1.00  0.00     0.016 C 
BRANCH   3   5
ATOM      5  C   UNL     1       5.816  -4.239  -4.483  1.00  0.00     0.015 C 
BRANCH   5   6
ATOM      6  C   UNL     1       6.398  -5.529  -3.872  1.00  0.00     0.028 C 
BRANCH   6   7
ATOM      7  C   UNL     1       7.594  -5.218  -3.011  1.00  0.00    -0.028 C 
ATOM      8  C   UNL     1       7.582  -5.187  -1.658  1.00  0.00    -0.070 CG0
ATOM      9  C   UNL     1       8.884  -4.923  -0.944  1.00  0.00     0.039 C 
ATOM     10  G   UNL     1       6.317  -5.384  -0.835  1.00  0.00     0.000 G0
ENDBRANCH   6   7
ENDBRANCH   5   6
ENDBRANCH   3   5
ENDBRANCH   1   3
BRANCH   1  11
ATOM     11  C   UNL     1       4.241  -2.770  -2.083  1.00  0.00     0.087 C 
BRANCH  11  12
ATOM     12  C   UNL     1       5.627  -2.922  -1.404  1.00  0.00     0.066 C 
BRANCH  12  13
ATOM     13  C   UNL     1       5.646  -4.096  -0.436  1.00  0.00     0.140 C 
ATOM     14  O   UNL     1       5.160  -3.975   0.679  1.00  0.00    -0.299 OA
BRANCH  13  15
ATOM     15  C   UNL     1       6.323  -5.394  -0.807  1.00  0.00     0.106 CG0
ATOM     16  G   UNL     1       7.577  -5.177  -1.643  1.00  0.00     0.000 G0
ENDBRANCH  13  15
ENDBRANCH  12  13
BRANCH  12  17
ATOM     17  C   UNL     1       6.101  -1.591  -0.742  1.00  0.00    -0.006 C 
ATOM     18  C   UNL     1       7.498  -1.126  -1.192  1.00  0.00     0.008 C 
ATOM     19  C   UNL     1       5.078  -0.464  -0.947  1.00  0.00     0.008 C 
ENDBRANCH  12  17
ENDBRANCH  11  12
ENDBRANCH   1  11
TORSDOF 1
ENDMDL
MODEL 9
REMARK VINA RESULT:    -3.143      1.951      2.819
REMARK INTER + INTRA:          -5.008
REMARK INTER:                  -5.144
REMARK INTRA:                   0.136
REMARK UNBOUND:                -0.211
REMARK SMILES CC1=CCC[C@H](C)C(=O)C[C@@H](C(C)C)C(=O)C1
REMARK SMILES IDX 8 1 9 2 6 3 7 4 5 5 4 6 3 7 2 8 1 9 10 11 11 12 15 13 16 14
REMARK SMILES IDX 17 15 12 17 13 18 14 19
REMARK H PARENT
REMARK Flexibility Score: 70.00
ROOT
ATOM      1  C   UNL     1       4.893  -3.054  -3.286  1.00  0.00     0.136 C 
ATOM      2  O   UNL     1       4.067  -2.549  -4.033  1.00  0.00    -0.299 OA
ENDROOT
BRANCH   1   3
ATOM      3  C   UNL     1       5.975  -3.963  -3.846  1.00  0.00     0.053 C 
ATOM      4  C   UNL     1       5.394  -5.187  -4.573  1.00  0.00     0.016 C 
BRANCH   3   5
ATOM      5  C   UNL     1       6.957  -3.184  -4.745  1.00  0.00     0.015 C 
BRANCH   5   6
ATOM      6  C   UNL     1       8.261  -2.775  -4.033  1.00  0.00     0.028 C 
BRANCH   6   7
ATOM      7  C   UNL     1       8.821  -3.929  -3.242  1.00  0.00    -0.028 C 
ATOM      8  C   UNL     1       8.900  -3.970  -1.891  1.00  0.00    -0.070 CG0
ATOM      9  C   UNL     1       9.426  -5.230  -1.251  1.00  0.00     0.039 C 
ATOM     10  G   UNL     1       8.504  -2.800  -1.001  1.00  0.00     0.000 G0
ENDBRANCH   6   7
ENDBRANCH   5   6
ENDBRANCH   3   5
ENDBRANCH   1   3
BRANCH   1  11
ATOM     11  C   UNL     1       4.822  -2.755  -1.807  1.00  0.00     0.087 C 
BRANCH  11  12
ATOM     12  C   UNL     1       6.050  -1.946  -1.315  1.00  0.00     0.066 C 
BRANCH  12  13
ATOM     13  C   UNL     1       7.057  -2.841  -0.606  1.00  0.00     0.140 C 
ATOM     14  O   UNL     1       6.694  -3.554   0.318  1.00  0.00    -0.299 OA
BRANCH  13  15
ATOM     15  C   UNL     1       8.520  -2.808  -0.981  1.00  0.00     0.106 CG0
ATOM     16  G   UNL     1       8.909  -3.959  -1.899  1.00  0.00     0.000 G0
ENDBRANCH  13  15
ENDBRANCH  12  13
BRANCH  12  17
ATOM     17  C   UNL     1       5.631  -0.715  -0.454  1.00  0.00    -0.006 C 
ATOM     18  C   UNL     1       4.826   0.349  -1.223  1.00  0.00     0.008 C 
ATOM     19  C   UNL     1       4.866  -1.144   0.808  1.00  0.00     0.008 C 
ENDBRANCH  12  17
ENDBRANCH  11  12
ENDBRANCH   1  11
TORSDOF 1
ENDMDL
