MODEL 1
REMARK VINA RESULT:    -3.068      0.000      0.000
REMARK INTER + INTRA:          -7.734
REMARK INTER:                  -5.939
REMARK INTRA:                  -1.796
REMARK UNBOUND:                -1.796
REMARK SMILES CCCCCC=CCC=CCCCCCCCCOC(C)=O
REMARK SMILES IDX 12 1 11 2 10 3 9 4 8 5 7 6 6 7 5 8 4 9 3 10 2 11 1 12 13 13
REMARK SMILES IDX 14 14 15 15 16 16 17 17 18 18 19 19 20 20 22 21 21 22
REMARK H PARENT
REMARK Flexibility Score: inf
ROOT
ATOM      1  C   UNL     1      22.520  33.558  38.707  1.00  0.00     0.004 C 
ENDROOT
BRANCH   1   2
ATOM      2  C   UNL     1      23.446  32.450  39.232  1.00  0.00     0.027 C 
BRANCH   2   3
ATOM      3  C   UNL     1      23.376  32.313  40.729  1.00  0.00    -0.031 C 
ATOM      4  C   UNL     1      24.348  32.783  41.525  1.00  0.00    -0.027 C 
BRANCH   4   5
ATOM      5  C   UNL     1      24.289  32.614  43.015  1.00  0.00     0.054 C 
BRANCH   5   6
ATOM      6  C   UNL     1      24.954  33.785  43.697  1.00  0.00    -0.027 C 
ATOM      7  C   UNL     1      24.362  34.961  43.972  1.00  0.00    -0.031 C 
BRANCH   7   8
ATOM      8  C   UNL     1      22.916  35.291  43.693  1.00  0.00     0.027 C 
BRANCH   8   9
ATOM      9  C   UNL     1      22.725  36.085  42.386  1.00  0.00     0.004 C 
BRANCH   9  10
ATOM     10  C   UNL     1      22.819  37.616  42.546  1.00  0.00     0.000 C 
BRANCH  10  11
ATOM     11  C   UNL     1      24.242  38.192  42.443  1.00  0.00    -0.003 C 
ATOM     12  C   UNL     1      25.125  37.426  41.459  1.00  0.00     0.004 C 
ENDBRANCH  10  11
ENDBRANCH   9  10
ENDBRANCH   8   9
ENDBRANCH   7   8
ENDBRANCH   5   6
ENDBRANCH   4   5
ENDBRANCH   2   3
ENDBRANCH   1   2
BRANCH   1  13
ATOM     13  C   UNL     1      21.528  33.033  37.656  1.00  0.00     0.000 C 
BRANCH  13  14
ATOM     14  C   UNL     1      20.616  34.162  37.155  1.00  0.00     0.000 C 
BRANCH  14  15
ATOM     15  C   UNL     1      19.579  33.678  36.128  1.00  0.00     0.000 C 
BRANCH  15  16
ATOM     16  C   UNL     1      18.913  32.330  36.467  1.00  0.00     0.003 C 
BRANCH  16  17
ATOM     17  C   UNL     1      17.433  32.456  36.886  1.00  0.00     0.042 C 
BRANCH  17  18
ATOM     18  C   UNL     1      17.212  32.102  38.362  1.00  0.00     0.233 C 
BRANCH  18  19
ATOM     19  O   UNL     1      18.358  32.447  39.136  1.00  0.00    -0.466 OA
BRANCH  19  20
ATOM     20  C   UNL     1      18.289  32.907  40.456  1.00  0.00     0.302 C 
ATOM     21  O   UNL     1      17.177  33.137  41.003  1.00  0.00    -0.253 OA
ATOM     22  C   UNL     1      19.546  33.068  41.242  1.00  0.00     0.139 C 
ENDBRANCH  19  20
ENDBRANCH  18  19
ENDBRANCH  17  18
ENDBRANCH  16  17
ENDBRANCH  15  16
ENDBRANCH  14  15
ENDBRANCH  13  14
ENDBRANCH   1  13
TORSDOF 16
ENDMDL
MODEL 2
REMARK VINA RESULT:    -3.065      3.264      4.115
REMARK INTER + INTRA:          -7.728
REMARK INTER:                  -6.381
REMARK INTRA:                  -1.347
REMARK UNBOUND:                -1.796
REMARK SMILES CCCCCC=CCC=CCCCCCCCCOC(C)=O
REMARK SMILES IDX 12 1 11 2 10 3 9 4 8 5 7 6 6 7 5 8 4 9 3 10 2 11 1 12 13 13
REMARK SMILES IDX 14 14 15 15 16 16 17 17 18 18 19 19 20 20 22 21 21 22
REMARK H PARENT
REMARK Flexibility Score: inf
ROOT
ATOM      1  C   UNL     1      20.398  33.053  40.839  1.00  0.00     0.004 C 
ENDROOT
BRANCH   1   2
ATOM      2  C   UNL     1      21.579  32.732  39.910  1.00  0.00     0.027 C 
BRANCH   2   3
ATOM      3  C   UNL     1      22.905  33.060  40.541  1.00  0.00    -0.031 C 
ATOM      4  C   UNL     1      23.591  32.152  41.249  1.00  0.00    -0.027 C 
BRANCH   4   5
ATOM      5  C   UNL     1      24.898  32.494  41.904  1.00  0.00     0.054 C 
BRANCH   5   6
ATOM      6  C   UNL     1      24.693  32.728  43.381  1.00  0.00    -0.027 C 
ATOM      7  C   UNL     1      24.506  33.930  43.956  1.00  0.00    -0.031 C 
BRANCH   7   8
ATOM      8  C   UNL     1      24.419  35.243  43.217  1.00  0.00     0.027 C 
BRANCH   8   9
ATOM      9  C   UNL     1      22.968  35.718  43.011  1.00  0.00     0.004 C 
BRANCH   9  10
ATOM     10  C   UNL     1      22.829  37.202  42.614  1.00  0.00     0.000 C 
BRANCH  10  11
ATOM     11  C   UNL     1      22.906  37.477  41.102  1.00  0.00    -0.003 C 
ATOM     12  C   UNL     1      22.181  36.424  40.267  1.00  0.00     0.004 C 
ENDBRANCH  10  11
ENDBRANCH   9  10
ENDBRANCH   8   9
ENDBRANCH   7   8
ENDBRANCH   5   6
ENDBRANCH   4   5
ENDBRANCH   2   3
ENDBRANCH   1   2
BRANCH   1  13
ATOM     13  C   UNL     1      19.119  33.389  40.054  1.00  0.00     0.000 C 
BRANCH  13  14
ATOM     14  C   UNL     1      18.395  32.106  39.617  1.00  0.00     0.000 C 
BRANCH  14  15
ATOM     15  C   UNL     1      16.866  32.264  39.599  1.00  0.00     0.000 C 
BRANCH  15  16
ATOM     16  C   UNL     1      16.204  32.301  40.991  1.00  0.00     0.003 C 
BRANCH  16  17
ATOM     17  C   UNL     1      14.685  32.026  40.964  1.00  0.00     0.042 C 
BRANCH  17  18
ATOM     18  C   UNL     1      13.897  33.014  41.834  1.00  0.00     0.233 C 
BRANCH  18  19
ATOM     19  O   UNL     1      12.516  32.663  41.862  1.00  0.00    -0.466 OA
BRANCH  19  20
ATOM     20  C   UNL     1      11.662  32.974  42.926  1.00  0.00     0.302 C 
ATOM     21  O   UNL     1      11.298  34.163  43.137  1.00  0.00    -0.253 OA
ATOM     22  C   UNL     1      11.127  31.876  43.782  1.00  0.00     0.139 C 
ENDBRANCH  19  20
ENDBRANCH  18  19
ENDBRANCH  17  18
ENDBRANCH  16  17
ENDBRANCH  15  16
ENDBRANCH  14  15
ENDBRANCH  13  14
ENDBRANCH   1  13
TORSDOF 16
ENDMDL
MODEL 3
REMARK VINA RESULT:    -2.951      3.236      7.954
REMARK INTER + INTRA:          -7.507
REMARK INTER:                  -6.077
REMARK INTRA:                  -1.430
REMARK UNBOUND:                -1.796
REMARK SMILES CCCCCC=CCC=CCCCCCCCCOC(C)=O
REMARK SMILES IDX 12 1 11 2 10 3 9 4 8 5 7 6 6 7 5 8 4 9 3 10 2 11 1 12 13 13
REMARK SMILES IDX 14 14 15 15 16 16 17 17 18 18 19 19 20 20 22 21 21 22
REMARK H PARENT
REMARK Flexibility Score: inf
ROOT
ATOM      1  C   UNL     1      22.704  32.533  40.350  1.00  0.00     0.004 C 
ENDROOT
BRANCH   1   2
ATOM      2  C   UNL     1      21.837  31.884  41.440  1.00  0.00     0.027 C 
BRANCH   2   3
ATOM      3  C   UNL     1      20.369  31.953  41.115  1.00  0.00    -0.031 C 
ATOM      4  C   UNL     1      19.934  32.305  39.896  1.00  0.00    -0.027 C 
BRANCH   4   5
ATOM      5  C   UNL     1      18.468  32.403  39.587  1.00  0.00     0.054 C 
BRANCH   5   6
ATOM      6  C   UNL     1      17.727  32.986  40.765  1.00  0.00    -0.027 C 
ATOM      7  C   UNL     1      16.428  32.774  41.046  1.00  0.00    -0.031 C 
BRANCH   7   8
ATOM      8  C   UNL     1      15.505  31.876  40.259  1.00  0.00     0.027 C 
BRANCH   8   9
ATOM      9  C   UNL     1      14.050  31.923  40.764  1.00  0.00     0.004 C 
BRANCH   9  10
ATOM     10  C   UNL     1      13.821  32.857  41.970  1.00  0.00     0.000 C 
BRANCH  10  11
ATOM     11  C   UNL     1      12.708  32.408  42.934  1.00  0.00    -0.003 C 
ATOM     12  C   UNL     1      11.939  33.580  43.542  1.00  0.00     0.004 C 
ENDBRANCH  10  11
ENDBRANCH   9  10
ENDBRANCH   8   9
ENDBRANCH   7   8
ENDBRANCH   5   6
ENDBRANCH   4   5
ENDBRANCH   2   3
ENDBRANCH   1   2
BRANCH   1  13
ATOM     13  C   UNL     1      24.183  32.616  40.760  1.00  0.00     0.000 C 
BRANCH  13  14
ATOM     14  C   UNL     1      24.424  31.875  42.084  1.00  0.00     0.000 C 
BRANCH  14  15
ATOM     15  C   UNL     1      24.748  32.827  43.248  1.00  0.00     0.000 C 
BRANCH  15  16
ATOM     16  C   UNL     1      24.751  34.323  42.878  1.00  0.00     0.003 C 
BRANCH  16  17
ATOM     17  C   UNL     1      23.801  35.178  43.742  1.00  0.00     0.042 C 
BRANCH  17  18
ATOM     18  C   UNL     1      22.416  35.339  43.102  1.00  0.00     0.233 C 
BRANCH  18  19
ATOM     19  O   UNL     1      22.538  35.775  41.750  1.00  0.00    -0.466 OA
BRANCH  19  20
ATOM     20  C   UNL     1      22.500  37.120  41.366  1.00  0.00     0.302 C 
ATOM     21  O   UNL     1      22.452  37.444  40.149  1.00  0.00    -0.253 OA
ATOM     22  C   UNL     1      22.455  38.181  42.414  1.00  0.00     0.139 C 
ENDBRANCH  19  20
ENDBRANCH  18  19
ENDBRANCH  17  18
ENDBRANCH  16  17
ENDBRANCH  15  16
ENDBRANCH  14  15
ENDBRANCH  13  14
ENDBRANCH   1  13
TORSDOF 16
ENDMDL
MODEL 4
REMARK VINA RESULT:    -2.946      1.273      2.213
REMARK INTER + INTRA:          -7.496
REMARK INTER:                  -4.714
REMARK INTRA:                  -2.782
REMARK UNBOUND:                -1.796
REMARK SMILES CCCCCC=CCC=CCCCCCCCCOC(C)=O
REMARK SMILES IDX 12 1 11 2 10 3 9 4 8 5 7 6 6 7 5 8 4 9 3 10 2 11 1 12 13 13
REMARK SMILES IDX 14 14 15 15 16 16 17 17 18 18 19 19 20 20 22 21 21 22
REMARK H PARENT
REMARK Flexibility Score: inf
ROOT
ATOM      1  C   UNL     1      23.212  32.648  39.381  1.00  0.00     0.004 C 
ENDROOT
BRANCH   1   2
ATOM      2  C   UNL     1      24.641  33.080  39.744  1.00  0.00     0.027 C 
BRANCH   2   3
ATOM      3  C   UNL     1      24.693  33.834  41.046  1.00  0.00    -0.031 C 
ATOM      4  C   UNL     1      23.833  33.579  42.042  1.00  0.00    -0.027 C 
BRANCH   4   5
ATOM      5  C   UNL     1      23.869  34.357  43.326  1.00  0.00     0.054 C 
BRANCH   5   6
ATOM      6  C   UNL     1      22.602  35.162  43.481  1.00  0.00    -0.027 C 
ATOM      7  C   UNL     1      22.467  36.463  43.163  1.00  0.00    -0.031 C 
BRANCH   7   8
ATOM      8  C   UNL     1      23.544  37.324  42.549  1.00  0.00     0.027 C 
BRANCH   8   9
ATOM      9  C   UNL     1      23.475  37.361  41.010  1.00  0.00     0.004 C 
BRANCH   9  10
ATOM     10  C   UNL     1      22.057  37.192  40.428  1.00  0.00     0.000 C 
BRANCH  10  11
ATOM     11  C   UNL     1      21.784  35.826  39.775  1.00  0.00    -0.003 C 
ATOM     12  C   UNL     1      20.861  35.919  38.561  1.00  0.00     0.004 C 
ENDBRANCH  10  11
ENDBRANCH   9  10
ENDBRANCH   8   9
ENDBRANCH   7   8
ENDBRANCH   5   6
ENDBRANCH   4   5
ENDBRANCH   2   3
ENDBRANCH   1   2
BRANCH   1  13
ATOM     13  C   UNL     1      23.108  32.160  37.927  1.00  0.00     0.000 C 
BRANCH  13  14
ATOM     14  C   UNL     1      21.644  31.894  37.544  1.00  0.00     0.000 C 
BRANCH  14  15
ATOM     15  C   UNL     1      21.079  32.952  36.582  1.00  0.00     0.000 C 
BRANCH  15  16
ATOM     16  C   UNL     1      19.558  33.173  36.685  1.00  0.00     0.003 C 
BRANCH  16  17
ATOM     17  C   UNL     1      18.761  31.885  36.980  1.00  0.00     0.042 C 
BRANCH  17  18
ATOM     18  C   UNL     1      17.992  31.965  38.306  1.00  0.00     0.233 C 
BRANCH  18  19
ATOM     19  O   UNL     1      18.894  31.936  39.409  1.00  0.00    -0.466 OA
BRANCH  19  20
ATOM     20  C   UNL     1      18.856  32.857  40.462  1.00  0.00     0.302 C 
ATOM     21  O   UNL     1      17.824  33.548  40.680  1.00  0.00    -0.253 OA
ATOM     22  C   UNL     1      20.029  32.975  41.375  1.00  0.00     0.139 C 
ENDBRANCH  19  20
ENDBRANCH  18  19
ENDBRANCH  17  18
ENDBRANCH  16  17
ENDBRANCH  15  16
ENDBRANCH  14  15
ENDBRANCH  13  14
ENDBRANCH   1  13
TORSDOF 16
ENDMDL
MODEL 5
REMARK VINA RESULT:    -2.871      5.426      9.554
REMARK INTER + INTRA:          -7.352
REMARK INTER:                  -6.249
REMARK INTRA:                  -1.103
REMARK UNBOUND:                -1.796
REMARK SMILES CCCCCC=CCC=CCCCCCCCCOC(C)=O
REMARK SMILES IDX 12 1 11 2 10 3 9 4 8 5 7 6 6 7 5 8 4 9 3 10 2 11 1 12 13 13
REMARK SMILES IDX 14 14 15 15 16 16 17 17 18 18 19 19 20 20 22 21 21 22
REMARK H PARENT
REMARK Flexibility Score: inf
ROOT
ATOM      1  C   UNL     1      18.190  33.050  40.584  1.00  0.00     0.004 C 
ENDROOT
BRANCH   1   2
ATOM      2  C   UNL     1      17.135  32.178  39.885  1.00  0.00     0.027 C 
BRANCH   2   3
ATOM      3  C   UNL     1      15.935  31.928  40.758  1.00  0.00    -0.031 C 
ATOM      4  C   UNL     1      15.212  32.936  41.266  1.00  0.00    -0.027 C 
BRANCH   4   5
ATOM      5  C   UNL     1      14.035  32.680  42.162  1.00  0.00     0.054 C 
BRANCH   5   6
ATOM      6  C   UNL     1      13.496  33.985  42.695  1.00  0.00    -0.027 C 
ATOM      7  C   UNL     1      12.462  34.105  43.548  1.00  0.00    -0.031 C 
BRANCH   7   8
ATOM      8  C   UNL     1      11.699  32.954  44.157  1.00  0.00     0.027 C 
BRANCH   8   9
ATOM      9  C   UNL     1      10.238  32.882  43.674  1.00  0.00     0.004 C 
BRANCH   9  10
ATOM     10  C   UNL     1      10.028  32.060  42.386  1.00  0.00     0.000 C 
BRANCH  10  11
ATOM     11  C   UNL     1       8.559  31.884  41.963  1.00  0.00    -0.003 C 
ATOM     12  C   UNL     1       7.573  32.212  43.082  1.00  0.00     0.004 C 
ENDBRANCH  10  11
ENDBRANCH   9  10
ENDBRANCH   8   9
ENDBRANCH   7   8
ENDBRANCH   5   6
ENDBRANCH   4   5
ENDBRANCH   2   3
ENDBRANCH   1   2
BRANCH   1  13
ATOM     13  C   UNL     1      19.603  32.456  40.465  1.00  0.00     0.000 C 
BRANCH  13  14
ATOM     14  C   UNL     1      20.627  33.549  40.124  1.00  0.00     0.000 C 
BRANCH  14  15
ATOM     15  C   UNL     1      20.327  34.248  38.787  1.00  0.00     0.000 C 
BRANCH  15  16
ATOM     16  C   UNL     1      20.796  35.714  38.705  1.00  0.00     0.003 C 
BRANCH  16  17
ATOM     17  C   UNL     1      22.173  35.963  39.356  1.00  0.00     0.042 C 
BRANCH  17  18
ATOM     18  C   UNL     1      22.160  37.169  40.304  1.00  0.00     0.233 C 
BRANCH  18  19
ATOM     19  O   UNL     1      23.215  37.067  41.258  1.00  0.00    -0.466 OA
BRANCH  19  20
ATOM     20  C   UNL     1      23.382  35.969  42.110  1.00  0.00     0.302 C 
ATOM     21  O   UNL     1      24.508  35.417  42.239  1.00  0.00    -0.253 OA
ATOM     22  C   UNL     1      22.227  35.488  42.921  1.00  0.00     0.139 C 
ENDBRANCH  19  20
ENDBRANCH  18  19
ENDBRANCH  17  18
ENDBRANCH  16  17
ENDBRANCH  15  16
ENDBRANCH  14  15
ENDBRANCH  13  14
ENDBRANCH   1  13
TORSDOF 16
ENDMDL
MODEL 6
REMARK VINA RESULT:    -2.620      1.463      2.767
REMARK INTER + INTRA:          -6.866
REMARK INTER:                  -5.412
REMARK INTRA:                  -1.454
REMARK UNBOUND:                -1.796
REMARK SMILES CCCCCC=CCC=CCCCCCCCCOC(C)=O
REMARK SMILES IDX 12 1 11 2 10 3 9 4 8 5 7 6 6 7 5 8 4 9 3 10 2 11 1 12 13 13
REMARK SMILES IDX 14 14 15 15 16 16 17 17 18 18 19 19 20 20 22 21 21 22
REMARK H PARENT
REMARK Flexibility Score: inf
ROOT
ATOM      1  C   UNL     1      21.444  34.000  40.239  1.00  0.00     0.004 C 
ENDROOT
BRANCH   1   2
ATOM      2  C   UNL     1      22.632  33.858  39.274  1.00  0.00     0.027 C 
BRANCH   2   3
ATOM      3  C   UNL     1      23.829  33.230  39.935  1.00  0.00    -0.031 C 
ATOM      4  C   UNL     1      23.914  33.107  41.268  1.00  0.00    -0.027 C 
BRANCH   4   5
ATOM      5  C   UNL     1      25.124  32.509  41.923  1.00  0.00     0.054 C 
BRANCH   5   6
ATOM      6  C   UNL     1      24.987  32.574  43.425  1.00  0.00    -0.027 C 
ATOM      7  C   UNL     1      24.754  33.693  44.134  1.00  0.00    -0.031 C 
BRANCH   7   8
ATOM      8  C   UNL     1      24.539  35.066  43.545  1.00  0.00     0.027 C 
BRANCH   8   9
ATOM      9  C   UNL     1      23.049  35.440  43.431  1.00  0.00     0.004 C 
BRANCH   9  10
ATOM     10  C   UNL     1      22.784  36.859  42.887  1.00  0.00     0.000 C 
BRANCH  10  11
ATOM     11  C   UNL     1      23.202  37.080  41.423  1.00  0.00    -0.003 C 
ATOM     12  C   UNL     1      24.577  37.732  41.288  1.00  0.00     0.004 C 
ENDBRANCH  10  11
ENDBRANCH   9  10
ENDBRANCH   8   9
ENDBRANCH   7   8
ENDBRANCH   5   6
ENDBRANCH   4   5
ENDBRANCH   2   3
ENDBRANCH   1   2
BRANCH   1  13
ATOM     13  C   UNL     1      20.476  32.810  40.144  1.00  0.00     0.000 C 
BRANCH  13  14
ATOM     14  C   UNL     1      19.273  33.009  41.078  1.00  0.00     0.000 C 
BRANCH  14  15
ATOM     15  C   UNL     1      17.926  32.812  40.363  1.00  0.00     0.000 C 
BRANCH  15  16
ATOM     16  C   UNL     1      17.984  31.920  39.108  1.00  0.00     0.003 C 
BRANCH  16  17
ATOM     17  C   UNL     1      17.014  32.356  37.990  1.00  0.00     0.042 C 
BRANCH  17  18
ATOM     18  C   UNL     1      17.653  32.275  36.597  1.00  0.00     0.233 C 
BRANCH  18  19
ATOM     19  O   UNL     1      19.029  31.914  36.700  1.00  0.00    -0.466 OA
BRANCH  19  20
ATOM     20  C   UNL     1      20.080  32.786  36.396  1.00  0.00     0.302 C 
ATOM     21  O   UNL     1      19.891  34.031  36.333  1.00  0.00    -0.253 OA
ATOM     22  C   UNL     1      21.454  32.238  36.205  1.00  0.00     0.139 C 
ENDBRANCH  19  20
ENDBRANCH  18  19
ENDBRANCH  17  18
ENDBRANCH  16  17
ENDBRANCH  15  16
ENDBRANCH  14  15
ENDBRANCH  13  14
ENDBRANCH   1  13
TORSDOF 16
ENDMDL
MODEL 7
REMARK VINA RESULT:    -2.603      1.201      2.247
REMARK INTER + INTRA:          -6.834
REMARK INTER:                  -5.242
REMARK INTRA:                  -1.593
REMARK UNBOUND:                -1.796
REMARK SMILES CCCCCC=CCC=CCCCCCCCCOC(C)=O
REMARK SMILES IDX 12 1 11 2 10 3 9 4 8 5 7 6 6 7 5 8 4 9 3 10 2 11 1 12 13 13
REMARK SMILES IDX 14 14 15 15 16 16 17 17 18 18 19 19 20 20 22 21 21 22
REMARK H PARENT
REMARK Flexibility Score: inf
ROOT
ATOM      1  C   UNL     1      20.699  35.479  37.977  1.00  0.00     0.004 C 
ENDROOT
BRANCH   1   2
ATOM      2  C   UNL     1      21.935  35.662  38.870  1.00  0.00     0.027 C 
BRANCH   2   3
ATOM      3  C   UNL     1      21.965  34.679  40.009  1.00  0.00    -0.031 C 
ATOM      4  C   UNL     1      23.050  33.935  40.268  1.00  0.00    -0.027 C 
BRANCH   4   5
ATOM      5  C   UNL     1      23.062  32.932  41.386  1.00  0.00     0.054 C 
BRANCH   5   6
ATOM      6  C   UNL     1      24.477  32.492  41.672  1.00  0.00    -0.027 C 
ATOM      7  C   UNL     1      25.125  32.675  42.837  1.00  0.00    -0.031 C 
BRANCH   7   8
ATOM      8  C   UNL     1      24.530  33.306  44.072  1.00  0.00     0.027 C 
BRANCH   8   9
ATOM      9  C   UNL     1      24.878  34.801  44.207  1.00  0.00     0.004 C 
BRANCH   9  10
ATOM     10  C   UNL     1      25.058  35.541  42.866  1.00  0.00     0.000 C 
BRANCH  10  11
ATOM     11  C   UNL     1      24.091  36.716  42.640  1.00  0.00    -0.003 C 
ATOM     12  C   UNL     1      22.654  36.391  43.042  1.00  0.00     0.004 C 
ENDBRANCH  10  11
ENDBRANCH   9  10
ENDBRANCH   8   9
ENDBRANCH   7   8
ENDBRANCH   5   6
ENDBRANCH   4   5
ENDBRANCH   2   3
ENDBRANCH   1   2
BRANCH   1  13
ATOM     13  C   UNL     1      20.656  34.086  37.327  1.00  0.00     0.000 C 
BRANCH  13  14
ATOM     14  C   UNL     1      19.784  34.101  36.062  1.00  0.00     0.000 C 
BRANCH  14  15
ATOM     15  C   UNL     1      18.879  32.863  35.950  1.00  0.00     0.000 C 
BRANCH  15  16
ATOM     16  C   UNL     1      17.385  33.126  36.224  1.00  0.00     0.003 C 
BRANCH  16  17
ATOM     17  C   UNL     1      16.621  31.889  36.742  1.00  0.00     0.042 C 
BRANCH  17  18
ATOM     18  C   UNL     1      16.503  31.875  38.271  1.00  0.00     0.233 C 
BRANCH  18  19
ATOM     19  O   UNL     1      17.503  32.704  38.858  1.00  0.00    -0.466 OA
BRANCH  19  20
ATOM     20  C   UNL     1      17.630  32.904  40.237  1.00  0.00     0.302 C 
ATOM     21  O   UNL     1      18.701  33.349  40.730  1.00  0.00    -0.253 OA
ATOM     22  C   UNL     1      16.460  32.646  41.125  1.00  0.00     0.139 C 
ENDBRANCH  19  20
ENDBRANCH  18  19
ENDBRANCH  17  18
ENDBRANCH  16  17
ENDBRANCH  15  16
ENDBRANCH  14  15
ENDBRANCH  13  14
ENDBRANCH   1  13
TORSDOF 16
ENDMDL
MODEL 8
REMARK VINA RESULT:    -2.425      2.529      7.468
REMARK INTER + INTRA:          -6.488
REMARK INTER:                  -4.469
REMARK INTRA:                  -2.019
REMARK UNBOUND:                -1.796
REMARK SMILES CCCCCC=CCC=CCCCCCCCCOC(C)=O
REMARK SMILES IDX 12 1 11 2 10 3 9 4 8 5 7 6 6 7 5 8 4 9 3 10 2 11 1 12 13 13
REMARK SMILES IDX 14 14 15 15 16 16 17 17 18 18 19 19 20 20 22 21 21 22
REMARK H PARENT
REMARK Flexibility Score: inf
ROOT
ATOM      1  C   UNL     1      21.670  35.528  40.399  1.00  0.00     0.004 C 
ENDROOT
BRANCH   1   2
ATOM      2  C   UNL     1      22.533  34.386  39.840  1.00  0.00     0.027 C 
BRANCH   2   3
ATOM      3  C   UNL     1      22.194  34.065  38.409  1.00  0.00    -0.031 C 
ATOM      4  C   UNL     1      21.176  33.252  38.091  1.00  0.00    -0.027 C 
BRANCH   4   5
ATOM      5  C   UNL     1      20.863  32.911  36.664  1.00  0.00     0.054 C 
BRANCH   5   6
ATOM      6  C   UNL     1      19.647  33.675  36.201  1.00  0.00    -0.027 C 
ATOM      7  C   UNL     1      18.383  33.215  36.238  1.00  0.00    -0.031 C 
BRANCH   7   8
ATOM      8  C   UNL     1      17.961  31.878  36.795  1.00  0.00     0.027 C 
BRANCH   8   9
ATOM      9  C   UNL     1      16.647  31.952  37.597  1.00  0.00     0.004 C 
BRANCH   9  10
ATOM     10  C   UNL     1      16.829  32.252  39.099  1.00  0.00     0.000 C 
BRANCH  10  11
ATOM     11  C   UNL     1      18.254  32.035  39.635  1.00  0.00    -0.003 C 
ATOM     12  C   UNL     1      18.664  33.075  40.676  1.00  0.00     0.004 C 
ENDBRANCH  10  11
ENDBRANCH   9  10
ENDBRANCH   8   9
ENDBRANCH   7   8
ENDBRANCH   5   6
ENDBRANCH   4   5
ENDBRANCH   2   3
ENDBRANCH   1   2
BRANCH   1  13
ATOM     13  C   UNL     1      22.409  36.875  40.376  1.00  0.00     0.000 C 
BRANCH  13  14
ATOM     14  C   UNL     1      22.895  37.255  41.782  1.00  0.00     0.000 C 
BRANCH  14  15
ATOM     15  C   UNL     1      22.129  36.521  42.895  1.00  0.00     0.000 C 
BRANCH  15  16
ATOM     16  C   UNL     1      22.985  35.564  43.747  1.00  0.00     0.003 C 
BRANCH  16  17
ATOM     17  C   UNL     1      24.316  35.159  43.078  1.00  0.00     0.042 C 
BRANCH  17  18
ATOM     18  C   UNL     1      25.108  34.149  43.919  1.00  0.00     0.233 C 
BRANCH  18  19
ATOM     19  O   UNL     1      24.613  32.828  43.710  1.00  0.00    -0.466 OA
BRANCH  19  20
ATOM     20  C   UNL     1      24.252  32.328  42.454  1.00  0.00     0.302 C 
ATOM     21  O   UNL     1      25.125  32.104  41.572  1.00  0.00    -0.253 OA
ATOM     22  C   UNL     1      22.824  32.000  42.178  1.00  0.00     0.139 C 
ENDBRANCH  19  20
ENDBRANCH  18  19
ENDBRANCH  17  18
ENDBRANCH  16  17
ENDBRANCH  15  16
ENDBRANCH  14  15
ENDBRANCH  13  14
ENDBRANCH   1  13
TORSDOF 16
ENDMDL
