MODEL 1
REMARK VINA RESULT:    -2.560      0.000      0.000
REMARK INTER + INTRA:          -4.212
REMARK INTER:                  -3.907
REMARK INTRA:                  -0.305
REMARK UNBOUND:                -0.305
REMARK SMILES O=C([O-])CCCCCCCCC(=O)[O-]
REMARK SMILES IDX 7 1 6 2 5 3 4 4 2 5 1 6 3 7 8 8 9 9 10 10 11 11 12 12 13 13
REMARK SMILES IDX 14 14
REMARK H PARENT
REMARK Flexibility Score: inf
ROOT
ATOM      1  C   UNL     1      66.501  56.444   9.380  1.00  0.00     0.000 C 
ENDROOT
BRANCH   1   2
ATOM      2  C   UNL     1      66.378  55.591  10.652  1.00  0.00     0.000 C 
BRANCH   2   3
ATOM      3  C   UNL     1      67.732  55.027  11.119  1.00  0.00     0.006 C 
BRANCH   3   4
ATOM      4  C   UNL     1      68.774  55.018   9.993  1.00  0.00     0.053 C 
BRANCH   4   5
ATOM      5  C   UNL     1      70.173  54.996  10.529  1.00  0.00     0.041 C 
ATOM      6  O   UNL     1      70.681  53.914  10.928  1.00  0.00    -0.550 OA
ATOM      7  O   UNL     1      70.905  56.172  10.615  1.00  0.00    -0.550 OA
ENDBRANCH   4   5
ENDBRANCH   3   4
ENDBRANCH   2   3
ENDBRANCH   1   2
BRANCH   1   8
ATOM      8  C   UNL     1      65.374  57.479   9.247  1.00  0.00     0.000 C 
BRANCH   8   9
ATOM      9  C   UNL     1      65.293  58.365  10.496  1.00  0.00     0.000 C 
BRANCH   9  10
ATOM     10  C   UNL     1      63.892  58.305  11.125  1.00  0.00     0.006 C 
BRANCH  10  11
ATOM     11  C   UNL     1      62.780  58.320  10.068  1.00  0.00     0.053 C 
BRANCH  11  12
ATOM     12  C   UNL     1      62.181  56.959   9.874  1.00  0.00     0.041 C 
ATOM     13  O   UNL     1      61.875  56.254  10.870  1.00  0.00    -0.550 OA
ATOM     14  O   UNL     1      61.994  56.459   8.592  1.00  0.00    -0.550 OA
ENDBRANCH  11  12
ENDBRANCH  10  11
ENDBRANCH   9  10
ENDBRANCH   8   9
ENDBRANCH   1   8
TORSDOF 9
ENDMDL
MODEL 2
REMARK VINA RESULT:    -2.524      0.801      6.790
REMARK INTER + INTRA:          -4.157
REMARK INTER:                  -4.177
REMARK INTRA:                   0.020
REMARK UNBOUND:                -0.305
REMARK SMILES O=C([O-])CCCCCCCCC(=O)[O-]
REMARK SMILES IDX 7 1 6 2 5 3 4 4 2 5 1 6 3 7 8 8 9 9 10 10 11 11 12 12 13 13
REMARK SMILES IDX 14 14
REMARK H PARENT
REMARK Flexibility Score: inf
ROOT
ATOM      1  C   UNL     1      66.232  56.527   9.511  1.00  0.00     0.000 C 
ENDROOT
BRANCH   1   2
ATOM      2  C   UNL     1      65.152  57.613   9.382  1.00  0.00     0.000 C 
BRANCH   2   3
ATOM      3  C   UNL     1      64.869  58.326  10.716  1.00  0.00     0.006 C 
BRANCH   3   4
ATOM      4  C   UNL     1      63.393  58.222  11.124  1.00  0.00     0.053 C 
BRANCH   4   5
ATOM      5  C   UNL     1      62.701  57.088  10.432  1.00  0.00     0.041 C 
ATOM      6  O   UNL     1      62.284  57.228   9.252  1.00  0.00    -0.550 OA
ATOM      7  O   UNL     1      62.489  55.890  11.099  1.00  0.00    -0.550 OA
ENDBRANCH   4   5
ENDBRANCH   3   4
ENDBRANCH   2   3
ENDBRANCH   1   2
BRANCH   1   8
ATOM      8  C   UNL     1      66.176  55.791  10.858  1.00  0.00     0.000 C 
BRANCH   8   9
ATOM      9  C   UNL     1      66.937  54.462  10.790  1.00  0.00     0.000 C 
BRANCH   9  10
ATOM     10  C   UNL     1      68.373  54.673  10.286  1.00  0.00     0.006 C 
BRANCH  10  11
ATOM     11  C   UNL     1      69.122  55.741  11.094  1.00  0.00     0.053 C 
BRANCH  11  12
ATOM     12  C   UNL     1      70.599  55.690  10.847  1.00  0.00     0.041 C 
ATOM     13  O   UNL     1      71.133  54.635  10.415  1.00  0.00    -0.550 OA
ATOM     14  O   UNL     1      71.389  56.798  11.125  1.00  0.00    -0.550 OA
ENDBRANCH  11  12
ENDBRANCH  10  11
ENDBRANCH   9  10
ENDBRANCH   8   9
ENDBRANCH   1   8
TORSDOF 9
ENDMDL
