MODEL 1
REMARK VINA RESULT:    -4.601      0.000      0.000
REMARK INTER + INTRA:          -8.556
REMARK INTER:                  -7.828
REMARK INTRA:                  -0.728
REMARK UNBOUND:                -0.728
REMARK SMILES CCCCCCCCCCCCCC(=O)[O-]
REMARK SMILES IDX 8 1 9 2 10 3 11 4 12 5 13 6 14 7 15 8 16 9 7 10 6 11 5 12
REMARK SMILES IDX 4 13 3 14 2 15 1 16
REMARK H PARENT
REMARK Flexibility Score: inf
ROOT
ATOM      1  C   UNL     1      -5.183  -4.108   3.601  1.00  0.00     0.000 C 
ENDROOT
BRANCH   1   2
ATOM      2  C   UNL     1      -5.059  -2.937   2.610  1.00  0.00     0.000 C 
BRANCH   2   3
ATOM      3  C   UNL     1      -4.759  -3.399   1.173  1.00  0.00     0.000 C 
BRANCH   3   4
ATOM      4  C   UNL     1      -4.928  -4.912   0.924  1.00  0.00     0.000 C 
BRANCH   4   5
ATOM      5  C   UNL     1      -6.125  -5.301   0.034  1.00  0.00     0.006 C 
BRANCH   5   6
ATOM      6  C   UNL     1      -5.766  -5.551  -1.439  1.00  0.00     0.053 C 
BRANCH   6   7
ATOM      7  C   UNL     1      -6.342  -4.502  -2.341  1.00  0.00     0.041 C 
ATOM      8  O   UNL     1      -6.321  -4.659  -3.590  1.00  0.00    -0.550 OA
ATOM      9  O   UNL     1      -6.872  -3.336  -1.802  1.00  0.00    -0.550 OA
ENDBRANCH   6   7
ENDBRANCH   5   6
ENDBRANCH   4   5
ENDBRANCH   3   4
ENDBRANCH   2   3
ENDBRANCH   1   2
BRANCH   1  10
ATOM     10  C   UNL     1      -4.859  -3.695   5.053  1.00  0.00     0.000 C 
BRANCH  10  11
ATOM     11  C   UNL     1      -4.347  -2.248   5.191  1.00  0.00    -0.000 C 
BRANCH  11  12
ATOM     12  C   UNL     1      -3.716  -1.903   6.554  1.00  0.00    -0.000 C 
BRANCH  12  13
ATOM     13  C   UNL     1      -3.093  -0.498   6.644  1.00  0.00    -0.000 C 
BRANCH  13  14
ATOM     14  C   UNL     1      -2.571   0.009   5.288  1.00  0.00    -0.000 C 
BRANCH  14  15
ATOM     15  C   UNL     1      -1.044   0.181   5.274  1.00  0.00    -0.003 C 
ATOM     16  C   UNL     1      -0.449   0.281   6.678  1.00  0.00     0.004 C 
ENDBRANCH  14  15
ENDBRANCH  13  14
ENDBRANCH  12  13
ENDBRANCH  11  12
ENDBRANCH  10  11
ENDBRANCH   1  10
TORSDOF 12
ENDMDL
MODEL 2
REMARK VINA RESULT:    -4.512      2.150      4.216
REMARK INTER + INTRA:          -8.405
REMARK INTER:                  -7.679
REMARK INTRA:                  -0.727
REMARK UNBOUND:                -0.728
REMARK SMILES CCCCCCCCCCCCCC(=O)[O-]
REMARK SMILES IDX 8 1 9 2 10 3 11 4 12 5 13 6 14 7 15 8 16 9 7 10 6 11 5 12
REMARK SMILES IDX 4 13 3 14 2 15 1 16
REMARK H PARENT
REMARK Flexibility Score: inf
ROOT
ATOM      1  C   UNL     1      -2.994  -0.162   6.399  1.00  0.00     0.000 C 
ENDROOT
BRANCH   1   2
ATOM      2  C   UNL     1      -3.646  -1.535   6.158  1.00  0.00     0.000 C 
BRANCH   2   3
ATOM      3  C   UNL     1      -4.091  -1.738   4.699  1.00  0.00     0.000 C 
BRANCH   3   4
ATOM      4  C   UNL     1      -4.827  -3.064   4.418  1.00  0.00     0.000 C 
BRANCH   4   5
ATOM      5  C   UNL     1      -5.242  -3.286   2.949  1.00  0.00     0.006 C 
BRANCH   5   6
ATOM      6  C   UNL     1      -5.418  -4.761   2.556  1.00  0.00     0.053 C 
BRANCH   6   7
ATOM      7  C   UNL     1      -5.361  -4.954   1.071  1.00  0.00     0.041 C 
ATOM      8  O   UNL     1      -4.361  -4.556   0.418  1.00  0.00    -0.550 OA
ATOM      9  O   UNL     1      -6.428  -5.543   0.405  1.00  0.00    -0.550 OA
ENDBRANCH   6   7
ENDBRANCH   5   6
ENDBRANCH   4   5
ENDBRANCH   3   4
ENDBRANCH   2   3
ENDBRANCH   1   2
BRANCH   1  10
ATOM     10  C   UNL     1      -2.217   0.351   5.168  1.00  0.00     0.000 C 
BRANCH  10  11
ATOM     11  C   UNL     1      -0.709   0.037   5.205  1.00  0.00    -0.000 C 
BRANCH  11  12
ATOM     12  C   UNL     1      -0.106  -0.117   6.615  1.00  0.00    -0.000 C 
BRANCH  12  13
ATOM     13  C   UNL     1       0.722  -1.397   6.830  1.00  0.00    -0.000 C 
BRANCH  13  14
ATOM     14  C   UNL     1       2.145  -1.289   6.256  1.00  0.00    -0.000 C 
BRANCH  14  15
ATOM     15  C   UNL     1       2.410  -2.320   5.147  1.00  0.00    -0.003 C 
ATOM     16  C   UNL     1       2.070  -1.789   3.755  1.00  0.00     0.004 C 
ENDBRANCH  14  15
ENDBRANCH  13  14
ENDBRANCH  12  13
ENDBRANCH  11  12
ENDBRANCH  10  11
ENDBRANCH   1  10
TORSDOF 12
ENDMDL
MODEL 3
REMARK VINA RESULT:    -4.472      1.514      2.673
REMARK INTER + INTRA:          -8.337
REMARK INTER:                  -7.710
REMARK INTRA:                  -0.627
REMARK UNBOUND:                -0.728
REMARK SMILES CCCCCCCCCCCCCC(=O)[O-]
REMARK SMILES IDX 8 1 9 2 10 3 11 4 12 5 13 6 14 7 15 8 16 9 7 10 6 11 5 12
REMARK SMILES IDX 4 13 3 14 2 15 1 16
REMARK H PARENT
REMARK Flexibility Score: inf
ROOT
ATOM      1  C   UNL     1      -4.332  -1.859   5.173  1.00  0.00     0.000 C 
ENDROOT
BRANCH   1   2
ATOM      2  C   UNL     1      -4.455  -1.859   3.638  1.00  0.00     0.000 C 
BRANCH   2   3
ATOM      3  C   UNL     1      -5.202  -3.091   3.099  1.00  0.00     0.000 C 
BRANCH   3   4
ATOM      4  C   UNL     1      -5.599  -3.014   1.610  1.00  0.00     0.000 C 
BRANCH   4   5
ATOM      5  C   UNL     1      -4.621  -3.698   0.634  1.00  0.00     0.006 C 
BRANCH   5   6
ATOM      6  C   UNL     1      -4.954  -5.165   0.324  1.00  0.00     0.053 C 
BRANCH   6   7
ATOM      7  C   UNL     1      -6.120  -5.288  -0.610  1.00  0.00     0.041 C 
ATOM      8  O   UNL     1      -6.033  -4.862  -1.791  1.00  0.00    -0.550 OA
ATOM      9  O   UNL     1      -7.312  -5.844  -0.164  1.00  0.00    -0.550 OA
ENDBRANCH   6   7
ENDBRANCH   5   6
ENDBRANCH   4   5
ENDBRANCH   3   4
ENDBRANCH   2   3
ENDBRANCH   1   2
BRANCH   1  10
ATOM     10  C   UNL     1      -3.533  -0.650   5.705  1.00  0.00     0.000 C 
BRANCH  10  11
ATOM     11  C   UNL     1      -2.224  -0.379   4.937  1.00  0.00    -0.000 C 
BRANCH  11  12
ATOM     12  C   UNL     1      -1.399   0.816   5.450  1.00  0.00    -0.000 C 
BRANCH  12  13
ATOM     13  C   UNL     1      -0.553   0.531   6.705  1.00  0.00    -0.000 C 
BRANCH  13  14
ATOM     14  C   UNL     1      -0.064  -0.926   6.774  1.00  0.00    -0.000 C 
BRANCH  14  15
ATOM     15  C   UNL     1       1.436  -1.057   6.465  1.00  0.00    -0.003 C 
ATOM     16  C   UNL     1       1.711  -1.356   4.992  1.00  0.00     0.004 C 
ENDBRANCH  14  15
ENDBRANCH  13  14
ENDBRANCH  12  13
ENDBRANCH  11  12
ENDBRANCH  10  11
ENDBRANCH   1  10
TORSDOF 12
ENDMDL
MODEL 4
REMARK VINA RESULT:    -4.410      1.172      1.599
REMARK INTER + INTRA:          -8.233
REMARK INTER:                  -7.382
REMARK INTRA:                  -0.850
REMARK UNBOUND:                -0.728
REMARK SMILES CCCCCCCCCCCCCC(=O)[O-]
REMARK SMILES IDX 8 1 9 2 10 3 11 4 12 5 13 6 14 7 15 8 16 9 7 10 6 11 5 12
REMARK SMILES IDX 4 13 3 14 2 15 1 16
REMARK H PARENT
REMARK Flexibility Score: inf
ROOT
ATOM      1  C   UNL     1      -5.786  -3.985   4.645  1.00  0.00     0.000 C 
ENDROOT
BRANCH   1   2
ATOM      2  C   UNL     1      -5.553  -4.427   3.189  1.00  0.00     0.000 C 
BRANCH   2   3
ATOM      3  C   UNL     1      -5.286  -3.245   2.241  1.00  0.00     0.000 C 
BRANCH   3   4
ATOM      4  C   UNL     1      -4.608  -3.617   0.907  1.00  0.00     0.000 C 
BRANCH   4   5
ATOM      5  C   UNL     1      -4.722  -5.102   0.505  1.00  0.00     0.006 C 
BRANCH   5   6
ATOM      6  C   UNL     1      -5.573  -5.357  -0.748  1.00  0.00     0.053 C 
BRANCH   6   7
ATOM      7  C   UNL     1      -7.019  -5.043  -0.516  1.00  0.00     0.041 C 
ATOM      8  O   UNL     1      -7.622  -4.238  -1.274  1.00  0.00    -0.550 OA
ATOM      9  O   UNL     1      -7.692  -5.614   0.557  1.00  0.00    -0.550 OA
ENDBRANCH   6   7
ENDBRANCH   5   6
ENDBRANCH   4   5
ENDBRANCH   3   4
ENDBRANCH   2   3
ENDBRANCH   1   2
BRANCH   1  10
ATOM     10  C   UNL     1      -4.524  -3.372   5.289  1.00  0.00     0.000 C 
BRANCH  10  11
ATOM     11  C   UNL     1      -4.634  -1.860   5.564  1.00  0.00    -0.000 C 
BRANCH  11  12
ATOM     12  C   UNL     1      -3.560  -0.990   4.883  1.00  0.00    -0.000 C 
BRANCH  12  13
ATOM     13  C   UNL     1      -2.935   0.092   5.783  1.00  0.00    -0.000 C 
BRANCH  13  14
ATOM     14  C   UNL     1      -1.657   0.701   5.181  1.00  0.00    -0.000 C 
BRANCH  14  15
ATOM     15  C   UNL     1      -0.397  -0.103   5.540  1.00  0.00    -0.003 C 
ATOM     16  C   UNL     1      -0.286  -0.389   7.037  1.00  0.00     0.004 C 
ENDBRANCH  14  15
ENDBRANCH  13  14
ENDBRANCH  12  13
ENDBRANCH  11  12
ENDBRANCH  10  11
ENDBRANCH   1  10
TORSDOF 12
ENDMDL
MODEL 5
REMARK VINA RESULT:    -4.390      4.216      8.358
REMARK INTER + INTRA:          -8.198
REMARK INTER:                  -7.352
REMARK INTRA:                  -0.847
REMARK UNBOUND:                -0.728
REMARK SMILES CCCCCCCCCCCCCC(=O)[O-]
REMARK SMILES IDX 8 1 9 2 10 3 11 4 12 5 13 6 14 7 15 8 16 9 7 10 6 11 5 12
REMARK SMILES IDX 4 13 3 14 2 15 1 16
REMARK H PARENT
REMARK Flexibility Score: inf
ROOT
ATOM      1  C   UNL     1      -5.503  -3.635   3.462  1.00  0.00     0.000 C 
ENDROOT
BRANCH   1   2
ATOM      2  C   UNL     1      -4.686  -3.177   4.683  1.00  0.00     0.000 C 
BRANCH   2   3
ATOM      3  C   UNL     1      -4.292  -1.691   4.617  1.00  0.00     0.000 C 
BRANCH   3   4
ATOM      4  C   UNL     1      -3.512  -1.167   5.840  1.00  0.00     0.000 C 
BRANCH   4   5
ATOM      5  C   UNL     1      -2.827   0.201   5.644  1.00  0.00     0.006 C 
BRANCH   5   6
ATOM      6  C   UNL     1      -1.405   0.122   5.068  1.00  0.00     0.053 C 
BRANCH   6   7
ATOM      7  C   UNL     1      -0.384  -0.141   6.132  1.00  0.00     0.041 C 
ATOM      8  O   UNL     1      -0.555   0.303   7.297  1.00  0.00    -0.550 OA
ATOM      9  O   UNL     1       0.772  -0.849   5.827  1.00  0.00    -0.550 OA
ENDBRANCH   6   7
ENDBRANCH   5   6
ENDBRANCH   4   5
ENDBRANCH   3   4
ENDBRANCH   2   3
ENDBRANCH   1   2
BRANCH   1  10
ATOM     10  C   UNL     1      -5.294  -2.725   2.232  1.00  0.00     0.000 C 
BRANCH  10  11
ATOM     11  C   UNL     1      -4.615  -3.430   1.042  1.00  0.00    -0.000 C 
BRANCH  11  12
ATOM     12  C   UNL     1      -4.901  -4.939   0.925  1.00  0.00    -0.000 C 
BRANCH  12  13
ATOM     13  C   UNL     1      -5.436  -5.395  -0.445  1.00  0.00    -0.000 C 
BRANCH  13  14
ATOM     14  C   UNL     1      -6.969  -5.515  -0.475  1.00  0.00    -0.000 C 
BRANCH  14  15
ATOM     15  C   UNL     1      -7.646  -4.252  -1.033  1.00  0.00    -0.003 C 
ATOM     16  C   UNL     1      -6.765  -3.502  -2.031  1.00  0.00     0.004 C 
ENDBRANCH  14  15
ENDBRANCH  13  14
ENDBRANCH  12  13
ENDBRANCH  11  12
ENDBRANCH  10  11
ENDBRANCH   1  10
TORSDOF 12
ENDMDL
MODEL 6
REMARK VINA RESULT:    -4.369      7.380      8.889
REMARK INTER + INTRA:          -8.162
REMARK INTER:                  -7.742
REMARK INTRA:                  -0.420
REMARK UNBOUND:                -0.728
REMARK SMILES CCCCCCCCCCCCCC(=O)[O-]
REMARK SMILES IDX 8 1 9 2 10 3 11 4 12 5 13 6 14 7 15 8 16 9 7 10 6 11 5 12
REMARK SMILES IDX 4 13 3 14 2 15 1 16
REMARK H PARENT
REMARK Flexibility Score: inf
ROOT
ATOM      1  C   UNL     1       4.088  -1.361   2.913  1.00  0.00     0.000 C 
ENDROOT
BRANCH   1   2
ATOM      2  C   UNL     1       5.188  -2.436   2.944  1.00  0.00     0.000 C 
BRANCH   2   3
ATOM      3  C   UNL     1       5.829  -2.676   1.567  1.00  0.00     0.000 C 
BRANCH   3   4
ATOM      4  C   UNL     1       4.968  -3.486   0.577  1.00  0.00     0.000 C 
BRANCH   4   5
ATOM      5  C   UNL     1       5.758  -4.329  -0.444  1.00  0.00     0.006 C 
BRANCH   5   6
ATOM      6  C   UNL     1       4.905  -4.918  -1.578  1.00  0.00     0.053 C 
BRANCH   6   7
ATOM      7  C   UNL     1       5.112  -6.395  -1.725  1.00  0.00     0.041 C 
ATOM      8  O   UNL     1       4.807  -6.972  -2.801  1.00  0.00    -0.550 OA
ATOM      9  O   UNL     1       5.612  -7.136  -0.662  1.00  0.00    -0.550 OA
ENDBRANCH   6   7
ENDBRANCH   5   6
ENDBRANCH   4   5
ENDBRANCH   3   4
ENDBRANCH   2   3
ENDBRANCH   1   2
BRANCH   1  10
ATOM     10  C   UNL     1       2.681  -1.941   3.175  1.00  0.00     0.000 C 
BRANCH  10  11
ATOM     11  C   UNL     1       2.209  -1.799   4.635  1.00  0.00    -0.000 C 
BRANCH  11  12
ATOM     12  C   UNL     1       0.932  -0.960   4.832  1.00  0.00    -0.000 C 
BRANCH  12  13
ATOM     13  C   UNL     1       0.467  -0.819   6.293  1.00  0.00    -0.000 C 
BRANCH  13  14
ATOM     14  C   UNL     1      -0.621   0.254   6.471  1.00  0.00    -0.000 C 
BRANCH  14  15
ATOM     15  C   UNL     1      -1.559   0.345   5.257  1.00  0.00    -0.003 C 
ATOM     16  C   UNL     1      -3.012   0.030   5.610  1.00  0.00     0.004 C 
ENDBRANCH  14  15
ENDBRANCH  13  14
ENDBRANCH  12  13
ENDBRANCH  11  12
ENDBRANCH  10  11
ENDBRANCH   1  10
TORSDOF 12
ENDMDL
MODEL 7
REMARK VINA RESULT:    -4.325      1.881      2.566
REMARK INTER + INTRA:          -8.087
REMARK INTER:                  -6.728
REMARK INTRA:                  -1.359
REMARK UNBOUND:                -0.728
REMARK SMILES CCCCCCCCCCCCCC(=O)[O-]
REMARK SMILES IDX 8 1 9 2 10 3 11 4 12 5 13 6 14 7 15 8 16 9 7 10 6 11 5 12
REMARK SMILES IDX 4 13 3 14 2 15 1 16
REMARK H PARENT
REMARK Flexibility Score: inf
ROOT
ATOM      1  C   UNL     1      -5.821  -1.685   2.890  1.00  0.00     0.000 C 
ENDROOT
BRANCH   1   2
ATOM      2  C   UNL     1      -7.118  -2.105   3.604  1.00  0.00     0.000 C 
BRANCH   2   3
ATOM      3  C   UNL     1      -8.170  -2.685   2.642  1.00  0.00     0.000 C 
BRANCH   3   4
ATOM      4  C   UNL     1      -7.602  -3.531   1.485  1.00  0.00     0.000 C 
BRANCH   4   5
ATOM      5  C   UNL     1      -7.145  -4.951   1.873  1.00  0.00     0.006 C 
BRANCH   5   6
ATOM      6  C   UNL     1      -5.625  -5.169   1.814  1.00  0.00     0.053 C 
BRANCH   6   7
ATOM      7  C   UNL     1      -5.050  -4.740   0.499  1.00  0.00     0.041 C 
ATOM      8  O   UNL     1      -4.344  -3.701   0.425  1.00  0.00    -0.550 OA
ATOM      9  O   UNL     1      -5.322  -5.472  -0.650  1.00  0.00    -0.550 OA
ENDBRANCH   6   7
ENDBRANCH   5   6
ENDBRANCH   4   5
ENDBRANCH   3   4
ENDBRANCH   2   3
ENDBRANCH   1   2
BRANCH   1  10
ATOM     10  C   UNL     1      -4.554  -2.200   3.606  1.00  0.00     0.000 C 
BRANCH  10  11
ATOM     11  C   UNL     1      -4.844  -3.156   4.778  1.00  0.00    -0.000 C 
BRANCH  11  12
ATOM     12  C   UNL     1      -4.222  -2.747   6.127  1.00  0.00    -0.000 C 
BRANCH  12  13
ATOM     13  C   UNL     1      -4.140  -1.229   6.370  1.00  0.00    -0.000 C 
BRANCH  13  14
ATOM     14  C   UNL     1      -2.692  -0.727   6.506  1.00  0.00    -0.000 C 
BRANCH  14  15
ATOM     15  C   UNL     1      -2.194  -0.021   5.235  1.00  0.00    -0.003 C 
ATOM     16  C   UNL     1      -1.261   1.151   5.538  1.00  0.00     0.004 C 
ENDBRANCH  14  15
ENDBRANCH  13  14
ENDBRANCH  12  13
ENDBRANCH  11  12
ENDBRANCH  10  11
ENDBRANCH   1  10
TORSDOF 12
ENDMDL
MODEL 8
REMARK VINA RESULT:    -4.279      4.225      8.033
REMARK INTER + INTRA:          -8.009
REMARK INTER:                  -7.399
REMARK INTRA:                  -0.610
REMARK UNBOUND:                -0.728
REMARK SMILES CCCCCCCCCCCCCC(=O)[O-]
REMARK SMILES IDX 8 1 9 2 10 3 11 4 12 5 13 6 14 7 15 8 16 9 7 10 6 11 5 12
REMARK SMILES IDX 4 13 3 14 2 15 1 16
REMARK H PARENT
REMARK Flexibility Score: inf
ROOT
ATOM      1  C   UNL     1      -2.808  -1.120   7.023  1.00  0.00     0.000 C 
ENDROOT
BRANCH   1   2
ATOM      2  C   UNL     1      -2.315  -0.153   5.932  1.00  0.00     0.000 C 
BRANCH   2   3
ATOM      3  C   UNL     1      -0.866   0.313   6.157  1.00  0.00     0.000 C 
BRANCH   3   4
ATOM      4  C   UNL     1       0.004  -0.642   7.000  1.00  0.00     0.000 C 
BRANCH   4   5
ATOM      5  C   UNL     1       1.246  -1.206   6.280  1.00  0.00     0.006 C 
BRANCH   5   6
ATOM      6  C   UNL     1       1.174  -1.144   4.746  1.00  0.00     0.053 C 
BRANCH   6   7
ATOM      7  C   UNL     1       2.250  -1.964   4.102  1.00  0.00     0.041 C 
ATOM      8  O   UNL     1       3.074  -2.598   4.813  1.00  0.00    -0.550 OA
ATOM      9  O   UNL     1       2.362  -2.001   2.718  1.00  0.00    -0.550 OA
ENDBRANCH   6   7
ENDBRANCH   5   6
ENDBRANCH   4   5
ENDBRANCH   3   4
ENDBRANCH   2   3
ENDBRANCH   1   2
BRANCH   1  10
ATOM     10  C   UNL     1      -3.799  -2.172   6.481  1.00  0.00     0.000 C 
BRANCH  10  11
ATOM     11  C   UNL     1      -4.080  -2.046   4.971  1.00  0.00    -0.000 C 
BRANCH  11  12
ATOM     12  C   UNL     1      -5.034  -3.107   4.391  1.00  0.00    -0.000 C 
BRANCH  12  13
ATOM     13  C   UNL     1      -5.038  -3.206   2.854  1.00  0.00    -0.000 C 
BRANCH  13  14
ATOM     14  C   UNL     1      -5.196  -4.652   2.351  1.00  0.00    -0.000 C 
BRANCH  14  15
ATOM     15  C   UNL     1      -4.706  -4.828   0.905  1.00  0.00    -0.003 C 
ATOM     16  C   UNL     1      -5.829  -5.215  -0.056  1.00  0.00     0.004 C 
ENDBRANCH  14  15
ENDBRANCH  13  14
ENDBRANCH  12  13
ENDBRANCH  11  12
ENDBRANCH  10  11
ENDBRANCH   1  10
TORSDOF 12
ENDMDL
MODEL 9
REMARK VINA RESULT:    -4.261      2.243      4.271
REMARK INTER + INTRA:          -7.978
REMARK INTER:                  -5.981
REMARK INTRA:                  -1.998
REMARK UNBOUND:                -0.728
REMARK SMILES CCCCCCCCCCCCCC(=O)[O-]
REMARK SMILES IDX 8 1 9 2 10 3 11 4 12 5 13 6 14 7 15 8 16 9 7 10 6 11 5 12
REMARK SMILES IDX 4 13 3 14 2 15 1 16
REMARK H PARENT
REMARK Flexibility Score: inf
ROOT
ATOM      1  C   UNL     1      -5.913  -1.869   3.327  1.00  0.00     0.000 C 
ENDROOT
BRANCH   1   2
ATOM      2  C   UNL     1      -6.049  -2.396   1.887  1.00  0.00     0.000 C 
BRANCH   2   3
ATOM      3  C   UNL     1      -4.800  -3.156   1.408  1.00  0.00     0.000 C 
BRANCH   3   4
ATOM      4  C   UNL     1      -4.967  -4.685   1.298  1.00  0.00     0.000 C 
BRANCH   4   5
ATOM      5  C   UNL     1      -4.941  -5.247  -0.138  1.00  0.00     0.006 C 
BRANCH   5   6
ATOM      6  C   UNL     1      -6.312  -5.280  -0.831  1.00  0.00     0.053 C 
BRANCH   6   7
ATOM      7  C   UNL     1      -6.406  -4.269  -1.933  1.00  0.00     0.041 C 
ATOM      8  O   UNL     1      -6.239  -4.620  -3.130  1.00  0.00    -0.550 OA
ATOM      9  O   UNL     1      -6.645  -2.934  -1.634  1.00  0.00    -0.550 OA
ENDBRANCH   6   7
ENDBRANCH   5   6
ENDBRANCH   4   5
ENDBRANCH   3   4
ENDBRANCH   2   3
ENDBRANCH   1   2
BRANCH   1  10
ATOM     10  C   UNL     1      -4.533  -2.181   3.946  1.00  0.00     0.000 C 
BRANCH  10  11
ATOM     11  C   UNL     1      -4.608  -2.860   5.327  1.00  0.00    -0.000 C 
BRANCH  11  12
ATOM     12  C   UNL     1      -5.698  -3.941   5.469  1.00  0.00    -0.000 C 
BRANCH  12  13
ATOM     13  C   UNL     1      -5.302  -5.334   4.946  1.00  0.00    -0.000 C 
BRANCH  13  14
ATOM     14  C   UNL     1      -6.465  -6.059   4.247  1.00  0.00    -0.000 C 
BRANCH  14  15
ATOM     15  C   UNL     1      -7.672  -5.139   4.007  1.00  0.00    -0.003 C 
ATOM     16  C   UNL     1      -8.311  -5.349   2.635  1.00  0.00     0.004 C 
ENDBRANCH  14  15
ENDBRANCH  13  14
ENDBRANCH  12  13
ENDBRANCH  11  12
ENDBRANCH  10  11
ENDBRANCH   1  10
TORSDOF 12
ENDMDL
