MODEL 1
REMARK VINA RESULT:    -1.145      0.000      0.000
REMARK INTER + INTRA:          -2.046
REMARK INTER:                  -1.614
REMARK INTRA:                  -0.432
REMARK UNBOUND:                -0.432
REMARK SMILES CCCCCCCCC(=O)[O-]
REMARK SMILES IDX 6 1 7 2 8 3 9 4 10 5 11 6 5 7 4 8 3 9 2 10 1 11
REMARK H PARENT
REMARK Flexibility Score: inf
ROOT
ATOM      1  C   UNL     1      39.045   4.332  41.026  1.00  0.00     0.000 C 
ENDROOT
BRANCH   1   2
ATOM      2  C   UNL     1      38.959   3.157  40.045  1.00  0.00     0.006 C 
BRANCH   2   3
ATOM      3  C   UNL     1      40.344   2.557  39.781  1.00  0.00     0.053 C 
BRANCH   3   4
ATOM      4  C   UNL     1      40.742   1.648  40.900  1.00  0.00     0.041 C 
ATOM      5  O   UNL     1      39.895   0.876  41.420  1.00  0.00    -0.550 OA
ATOM      6  O   UNL     1      42.061   1.617  41.337  1.00  0.00    -0.550 OA
ENDBRANCH   3   4
ENDBRANCH   2   3
ENDBRANCH   1   2
BRANCH   1   7
ATOM      7  C   UNL     1      37.953   4.236  42.098  1.00  0.00     0.000 C 
BRANCH   7   8
ATOM      8  C   UNL     1      37.107   2.970  41.911  1.00  0.00    -0.000 C 
BRANCH   8   9
ATOM      9  C   UNL     1      35.608   3.302  41.941  1.00  0.00    -0.000 C 
BRANCH   9  10
ATOM     10  C   UNL     1      34.731   2.053  42.125  1.00  0.00    -0.003 C 
ATOM     11  C   UNL     1      34.304   1.430  40.797  1.00  0.00     0.004 C 
ENDBRANCH   9  10
ENDBRANCH   8   9
ENDBRANCH   7   8
ENDBRANCH   1   7
TORSDOF 7
ENDMDL
MODEL 2
REMARK VINA RESULT:    -1.114      3.268      5.328
REMARK INTER + INTRA:          -2.002
REMARK INTER:                  -1.287
REMARK INTRA:                  -0.715
REMARK UNBOUND:                -0.432
REMARK SMILES CCCCCCCCC(=O)[O-]
REMARK SMILES IDX 6 1 7 2 8 3 9 4 10 5 11 6 5 7 4 8 3 9 2 10 1 11
REMARK H PARENT
REMARK Flexibility Score: inf
ROOT
ATOM      1  C   UNL     1      37.688   1.460  41.310  1.00  0.00     0.000 C 
ENDROOT
BRANCH   1   2
ATOM      2  C   UNL     1      37.501   2.755  42.109  1.00  0.00     0.006 C 
BRANCH   2   3
ATOM      3  C   UNL     1      36.869   3.850  41.244  1.00  0.00     0.053 C 
BRANCH   3   4
ATOM      4  C   UNL     1      35.507   4.199  41.754  1.00  0.00     0.041 C 
ATOM      5  O   UNL     1      34.643   3.299  41.920  1.00  0.00    -0.550 OA
ATOM      6  O   UNL     1      35.207   5.512  42.094  1.00  0.00    -0.550 OA
ENDBRANCH   3   4
ENDBRANCH   2   3
ENDBRANCH   1   2
BRANCH   1   7
ATOM      7  C   UNL     1      38.883   1.569  40.356  1.00  0.00     0.000 C 
BRANCH   7   8
ATOM      8  C   UNL     1      40.206   1.361  41.104  1.00  0.00    -0.000 C 
BRANCH   8   9
ATOM      9  C   UNL     1      41.231   2.438  40.719  1.00  0.00    -0.000 C 
BRANCH   9  10
ATOM     10  C   UNL     1      40.570   3.719  40.186  1.00  0.00    -0.003 C 
ATOM     11  C   UNL     1      40.513   4.833  41.230  1.00  0.00     0.004 C 
ENDBRANCH   9  10
ENDBRANCH   8   9
ENDBRANCH   7   8
ENDBRANCH   1   7
TORSDOF 7
ENDMDL
MODEL 3
REMARK VINA RESULT:    -1.100      2.410      4.714
REMARK INTER + INTRA:          -1.982
REMARK INTER:                  -1.267
REMARK INTRA:                  -0.715
REMARK UNBOUND:                -0.432
REMARK SMILES CCCCCCCCC(=O)[O-]
REMARK SMILES IDX 6 1 7 2 8 3 9 4 10 5 11 6 5 7 4 8 3 9 2 10 1 11
REMARK H PARENT
REMARK Flexibility Score: inf
ROOT
ATOM      1  C   UNL     1      38.583   4.034  40.798  1.00  0.00     0.000 C 
ENDROOT
BRANCH   1   2
ATOM      2  C   UNL     1      38.024   3.438  42.095  1.00  0.00     0.006 C 
BRANCH   2   3
ATOM      3  C   UNL     1      37.999   1.908  42.032  1.00  0.00     0.053 C 
BRANCH   3   4
ATOM      4  C   UNL     1      36.701   1.429  41.463  1.00  0.00     0.041 C 
ATOM      5  O   UNL     1      35.634   1.565  42.117  1.00  0.00    -0.550 OA
ATOM      6  O   UNL     1      36.661   0.875  40.190  1.00  0.00    -0.550 OA
ENDBRANCH   3   4
ENDBRANCH   2   3
ENDBRANCH   1   2
BRANCH   1   7
ATOM      7  C   UNL     1      39.826   4.887  41.074  1.00  0.00     0.000 C 
BRANCH   7   8
ATOM      8  C   UNL     1      41.095   4.196  40.560  1.00  0.00    -0.000 C 
BRANCH   8   9
ATOM      9  C   UNL     1      40.769   3.231  39.412  1.00  0.00    -0.000 C 
BRANCH   9  10
ATOM     10  C   UNL     1      41.412   1.848  39.601  1.00  0.00    -0.003 C 
ATOM     11  C   UNL     1      41.564   1.463  41.072  1.00  0.00     0.004 C 
ENDBRANCH   9  10
ENDBRANCH   8   9
ENDBRANCH   7   8
ENDBRANCH   1   7
TORSDOF 7
ENDMDL
MODEL 4
REMARK VINA RESULT:    -1.094      2.171      4.140
REMARK INTER + INTRA:          -1.973
REMARK INTER:                  -1.474
REMARK INTRA:                  -0.499
REMARK UNBOUND:                -0.432
REMARK SMILES CCCCCCCCC(=O)[O-]
REMARK SMILES IDX 6 1 7 2 8 3 9 4 10 5 11 6 5 7 4 8 3 9 2 10 1 11
REMARK H PARENT
REMARK Flexibility Score: inf
ROOT
ATOM      1  C   UNL     1      34.527   1.689  41.065  1.00  0.00     0.000 C 
ENDROOT
BRANCH   1   2
ATOM      2  C   UNL     1      35.639   1.446  42.093  1.00  0.00     0.006 C 
BRANCH   2   3
ATOM      3  C   UNL     1      36.632   2.612  42.116  1.00  0.00     0.053 C 
BRANCH   3   4
ATOM      4  C   UNL     1      37.976   2.164  41.640  1.00  0.00     0.041 C 
ATOM      5  O   UNL     1      38.672   2.914  40.907  1.00  0.00    -0.550 OA
ATOM      6  O   UNL     1      38.484   0.935  42.045  1.00  0.00    -0.550 OA
ENDBRANCH   3   4
ENDBRANCH   2   3
ENDBRANCH   1   2
BRANCH   1   7
ATOM      7  C   UNL     1      33.143   1.575  41.713  1.00  0.00     0.000 C 
BRANCH   7   8
ATOM      8  C   UNL     1      32.546   2.962  41.984  1.00  0.00    -0.000 C 
BRANCH   8   9
ATOM      9  C   UNL     1      33.186   4.023  41.077  1.00  0.00    -0.000 C 
BRANCH   9  10
ATOM     10  C   UNL     1      33.773   5.201  41.871  1.00  0.00    -0.003 C 
ATOM     11  C   UNL     1      33.696   6.524  41.109  1.00  0.00     0.004 C 
ENDBRANCH   9  10
ENDBRANCH   8   9
ENDBRANCH   7   8
ENDBRANCH   1   7
TORSDOF 7
ENDMDL
MODEL 5
REMARK VINA RESULT:    -1.085      3.981      5.548
REMARK INTER + INTRA:          -1.961
REMARK INTER:                  -1.352
REMARK INTRA:                  -0.609
REMARK UNBOUND:                -0.432
REMARK SMILES CCCCCCCCC(=O)[O-]
REMARK SMILES IDX 6 1 7 2 8 3 9 4 10 5 11 6 5 7 4 8 3 9 2 10 1 11
REMARK H PARENT
REMARK Flexibility Score: inf
ROOT
ATOM      1  C   UNL     1      36.295   3.383  41.826  1.00  0.00     0.000 C 
ENDROOT
BRANCH   1   2
ATOM      2  C   UNL     1      36.085   4.456  40.750  1.00  0.00     0.006 C 
BRANCH   2   3
ATOM      3  C   UNL     1      34.600   4.607  40.406  1.00  0.00     0.053 C 
BRANCH   3   4
ATOM      4  C   UNL     1      33.828   5.055  41.606  1.00  0.00     0.041 C 
ATOM      5  O   UNL     1      34.057   6.179  42.123  1.00  0.00    -0.550 OA
ATOM      6  O   UNL     1      32.821   4.251  42.125  1.00  0.00    -0.550 OA
ENDBRANCH   3   4
ENDBRANCH   2   3
ENDBRANCH   1   2
BRANCH   1   7
ATOM      7  C   UNL     1      37.785   3.184  42.123  1.00  0.00     0.000 C 
BRANCH   7   8
ATOM      8  C   UNL     1      38.178   1.706  42.006  1.00  0.00    -0.000 C 
BRANCH   8   9
ATOM      9  C   UNL     1      38.184   1.253  40.539  1.00  0.00    -0.000 C 
BRANCH   9  10
ATOM     10  C   UNL     1      39.091   2.124  39.655  1.00  0.00    -0.003 C 
ATOM     11  C   UNL     1      38.421   2.537  38.345  1.00  0.00     0.004 C 
ENDBRANCH   9  10
ENDBRANCH   8   9
ENDBRANCH   7   8
ENDBRANCH   1   7
TORSDOF 7
ENDMDL
MODEL 6
REMARK VINA RESULT:    -1.084      3.192      5.002
REMARK INTER + INTRA:          -1.959
REMARK INTER:                  -1.269
REMARK INTRA:                  -0.690
REMARK UNBOUND:                -0.432
REMARK SMILES CCCCCCCCC(=O)[O-]
REMARK SMILES IDX 6 1 7 2 8 3 9 4 10 5 11 6 5 7 4 8 3 9 2 10 1 11
REMARK H PARENT
REMARK Flexibility Score: inf
ROOT
ATOM      1  C   UNL     1      35.966   3.661  39.105  1.00  0.00     0.000 C 
ENDROOT
BRANCH   1   2
ATOM      2  C   UNL     1      35.727   2.147  39.156  1.00  0.00     0.006 C 
BRANCH   2   3
ATOM      3  C   UNL     1      34.245   1.831  39.382  1.00  0.00     0.053 C 
BRANCH   3   4
ATOM      4  C   UNL     1      33.868   2.083  40.807  1.00  0.00     0.041 C 
ATOM      5  O   UNL     1      34.611   1.679  41.740  1.00  0.00    -0.550 OA
ATOM      6  O   UNL     1      32.721   2.807  41.107  1.00  0.00    -0.550 OA
ENDBRANCH   3   4
ENDBRANCH   2   3
ENDBRANCH   1   2
BRANCH   1   7
ATOM      7  C   UNL     1      37.333   4.022  39.696  1.00  0.00     0.000 C 
BRANCH   7   8
ATOM      8  C   UNL     1      37.187   4.615  41.103  1.00  0.00    -0.000 C 
BRANCH   8   9
ATOM      9  C   UNL     1      38.006   3.813  42.125  1.00  0.00    -0.000 C 
BRANCH   9  10
ATOM     10  C   UNL     1      38.605   2.531  41.527  1.00  0.00    -0.003 C 
ATOM     11  C   UNL     1      38.002   1.261  42.125  1.00  0.00     0.004 C 
ENDBRANCH   9  10
ENDBRANCH   8   9
ENDBRANCH   7   8
ENDBRANCH   1   7
TORSDOF 7
ENDMDL
MODEL 7
REMARK VINA RESULT:    -1.046      2.993      3.715
REMARK INTER + INTRA:          -1.906
REMARK INTER:                  -1.196
REMARK INTRA:                  -0.710
REMARK UNBOUND:                -0.432
REMARK SMILES CCCCCCCCC(=O)[O-]
REMARK SMILES IDX 6 1 7 2 8 3 9 4 10 5 11 6 5 7 4 8 3 9 2 10 1 11
REMARK H PARENT
REMARK Flexibility Score: inf
ROOT
ATOM      1  C   UNL     1      38.431   2.454  40.711  1.00  0.00     0.000 C 
ENDROOT
BRANCH   1   2
ATOM      2  C   UNL     1      37.974   3.832  40.217  1.00  0.00     0.006 C 
BRANCH   2   3
ATOM      3  C   UNL     1      37.259   4.606  41.330  1.00  0.00     0.053 C 
BRANCH   3   4
ATOM      4  C   UNL     1      37.474   6.076  41.166  1.00  0.00     0.041 C 
ATOM      5  O   UNL     1      36.499   6.837  40.930  1.00  0.00    -0.550 OA
ATOM      6  O   UNL     1      38.745   6.616  41.322  1.00  0.00    -0.550 OA
ENDBRANCH   3   4
ENDBRANCH   2   3
ENDBRANCH   1   2
BRANCH   1   7
ATOM      7  C   UNL     1      37.902   2.171  42.121  1.00  0.00     0.000 C 
BRANCH   7   8
ATOM      8  C   UNL     1      36.968   0.954  42.125  1.00  0.00    -0.000 C 
BRANCH   8   9
ATOM      9  C   UNL     1      35.496   1.391  42.123  1.00  0.00    -0.000 C 
BRANCH   9  10
ATOM     10  C   UNL     1      34.728   0.878  40.895  1.00  0.00    -0.003 C 
ATOM     11  C   UNL     1      34.804   1.837  39.707  1.00  0.00     0.004 C 
ENDBRANCH   9  10
ENDBRANCH   8   9
ENDBRANCH   7   8
ENDBRANCH   1   7
TORSDOF 7
ENDMDL
MODEL 8
REMARK VINA RESULT:     0.089      3.660      5.275
REMARK INTER + INTRA:          -0.307
REMARK INTER:                   0.193
REMARK INTRA:                  -0.500
REMARK UNBOUND:                -0.432
REMARK SMILES CCCCCCCCC(=O)[O-]
REMARK SMILES IDX 6 1 7 2 8 3 9 4 10 5 11 6 5 7 4 8 3 9 2 10 1 11
REMARK H PARENT
REMARK Flexibility Score: inf
ROOT
ATOM      1  C   UNL     1      36.924   5.480  40.672  1.00  0.00     0.000 C 
ENDROOT
BRANCH   1   2
ATOM      2  C   UNL     1      36.191   4.783  41.825  1.00  0.00     0.006 C 
BRANCH   2   3
ATOM      3  C   UNL     1      34.856   5.472  42.124  1.00  0.00     0.053 C 
BRANCH   3   4
ATOM      4  C   UNL     1      33.713   4.576  41.768  1.00  0.00     0.041 C 
ATOM      5  O   UNL     1      33.719   3.369  42.125  1.00  0.00    -0.550 OA
ATOM      6  O   UNL     1      32.617   5.085  41.082  1.00  0.00    -0.550 OA
ENDBRANCH   3   4
ENDBRANCH   2   3
ENDBRANCH   1   2
BRANCH   1   7
ATOM      7  C   UNL     1      38.294   4.839  40.423  1.00  0.00     0.000 C 
BRANCH   7   8
ATOM      8  C   UNL     1      38.699   3.932  41.592  1.00  0.00    -0.000 C 
BRANCH   8   9
ATOM      9  C   UNL     1      38.885   2.482  41.125  1.00  0.00    -0.000 C 
BRANCH   9  10
ATOM     10  C   UNL     1      38.160   1.472  42.028  1.00  0.00    -0.003 C 
ATOM     11  C   UNL     1      36.763   1.119  41.517  1.00  0.00     0.004 C 
ENDBRANCH   9  10
ENDBRANCH   8   9
ENDBRANCH   7   8
ENDBRANCH   1   7
TORSDOF 7
ENDMDL
