MODEL 1
REMARK VINA RESULT:    -5.282      0.000      0.000
REMARK INTER + INTRA:          -8.457
REMARK INTER:                  -7.135
REMARK INTRA:                  -1.322
REMARK UNBOUND:                -1.322
REMARK SMILES CC(=O)CCC=C(C)CCC=C(C)C
REMARK SMILES IDX 7 1 6 2 8 3 9 4 10 5 11 6 13 7 12 8 14 9 5 10 4 11 2 12 3 13
REMARK SMILES IDX 1 14
REMARK H PARENT
REMARK Flexibility Score: inf
ROOT
ATOM      1  C   UNL     1     139.729 140.813 114.319  1.00  0.00    -0.077 C 
ATOM      2  C   UNL     1     139.825 141.871 115.158  1.00  0.00    -0.028 C 
ATOM      3  C   UNL     1     139.267 139.457 114.795  1.00  0.00     0.039 C 
ENDROOT
BRANCH   1   4
ATOM      4  C   UNL     1     140.078 141.000 112.859  1.00  0.00     0.034 C 
BRANCH   4   5
ATOM      5  C   UNL     1     141.263 141.959 112.700  1.00  0.00     0.032 C 
BRANCH   5   6
ATOM      6  C   UNL     1     142.570 141.216 112.818  1.00  0.00    -0.028 C 
ATOM      7  C   UNL     1     143.273 142.459 114.876  1.00  0.00     0.039 C 
ATOM      8  C   UNL     1     143.497 141.452 113.774  1.00  0.00    -0.080 C 
ATOM      9  C   UNL     1     144.784 140.669 113.781  1.00  0.00     0.039 C 
ENDBRANCH   5   6
ENDBRANCH   4   5
ENDBRANCH   1   4
BRANCH   2  10
ATOM     10  C   UNL     1     139.547 141.815 116.640  1.00  0.00     0.035 C 
BRANCH  10  11
ATOM     11  C   UNL     1     140.849 141.965 117.441  1.00  0.00     0.079 C 
BRANCH  11  12
ATOM     12  C   UNL     1     141.460 140.657 117.892  1.00  0.00     0.130 C 
ATOM     13  O   UNL     1     141.315 140.322 119.057  1.00  0.00    -0.300 OA
ATOM     14  C   UNL     1     142.237 139.754 116.972  1.00  0.00     0.087 C 
ENDBRANCH  11  12
ENDBRANCH  10  11
ENDBRANCH   2  10
TORSDOF 6
ENDMDL
MODEL 2
REMARK VINA RESULT:    -5.271      2.220      5.057
REMARK INTER + INTRA:          -8.442
REMARK INTER:                  -7.485
REMARK INTRA:                  -0.957
REMARK UNBOUND:                -1.322
REMARK SMILES CC(=O)CCC=C(C)CCC=C(C)C
REMARK SMILES IDX 7 1 6 2 8 3 9 4 10 5 11 6 13 7 12 8 14 9 5 10 4 11 2 12 3 13
REMARK SMILES IDX 1 14
REMARK H PARENT
REMARK Flexibility Score: inf
ROOT
ATOM      1  C   UNL     1     140.917 142.527 115.337  1.00  0.00    -0.077 C 
ATOM      2  C   UNL     1     142.121 141.981 115.626  1.00  0.00    -0.028 C 
ATOM      3  C   UNL     1     140.645 143.204 114.014  1.00  0.00     0.039 C 
ENDROOT
BRANCH   1   4
ATOM      4  C   UNL     1     139.806 142.441 116.360  1.00  0.00     0.034 C 
BRANCH   4   5
ATOM      5  C   UNL     1     139.649 141.006 116.874  1.00  0.00     0.032 C 
BRANCH   5   6
ATOM      6  C   UNL     1     139.483 140.990 118.373  1.00  0.00    -0.028 C 
ATOM      7  C   UNL     1     141.861 140.315 118.786  1.00  0.00     0.039 C 
ATOM      8  C   UNL     1     140.462 140.652 119.243  1.00  0.00    -0.080 C 
ATOM      9  C   UNL     1     140.179 140.641 120.723  1.00  0.00     0.039 C 
ENDBRANCH   5   6
ENDBRANCH   4   5
ENDBRANCH   1   4
BRANCH   2  10
ATOM     10  C   UNL     1     143.323 142.031 114.716  1.00  0.00     0.035 C 
BRANCH  10  11
ATOM     11  C   UNL     1     143.664 140.628 114.192  1.00  0.00     0.079 C 
BRANCH  11  12
ATOM     12  C   UNL     1     142.701 140.098 113.152  1.00  0.00     0.130 C 
ATOM     13  O   UNL     1     141.978 139.162 113.456  1.00  0.00    -0.300 OA
ATOM     14  C   UNL     1     142.595 140.670 111.765  1.00  0.00     0.087 C 
ENDBRANCH  11  12
ENDBRANCH  10  11
ENDBRANCH   2  10
TORSDOF 6
ENDMDL
MODEL 3
REMARK VINA RESULT:    -5.268      8.059      8.918
REMARK INTER + INTRA:          -8.438
REMARK INTER:                  -7.475
REMARK INTRA:                  -0.962
REMARK UNBOUND:                -1.322
REMARK SMILES CC(=O)CCC=C(C)CCC=C(C)C
REMARK SMILES IDX 7 1 6 2 8 3 9 4 10 5 11 6 13 7 12 8 14 9 5 10 4 11 2 12 3 13
REMARK SMILES IDX 1 14
REMARK H PARENT
REMARK Flexibility Score: inf
ROOT
ATOM      1  C   UNL     1     134.284 136.337 114.612  1.00  0.00    -0.077 C 
ATOM      2  C   UNL     1     135.045 136.561 115.709  1.00  0.00    -0.028 C 
ATOM      3  C   UNL     1     132.805 136.050 114.713  1.00  0.00     0.039 C 
ENDROOT
BRANCH   1   4
ATOM      4  C   UNL     1     134.931 136.396 113.245  1.00  0.00     0.034 C 
BRANCH   4   5
ATOM      5  C   UNL     1     135.086 134.989 112.656  1.00  0.00     0.032 C 
BRANCH   5   6
ATOM      6  C   UNL     1     136.059 134.173 113.470  1.00  0.00    -0.028 C 
ATOM      7  C   UNL     1     134.261 132.757 114.491  1.00  0.00     0.039 C 
ATOM      8  C   UNL     1     135.699 133.186 114.322  1.00  0.00    -0.080 C 
ATOM      9  C   UNL     1     136.753 132.453 115.109  1.00  0.00     0.039 C 
ENDBRANCH   5   6
ENDBRANCH   4   5
ENDBRANCH   1   4
BRANCH   2  10
ATOM     10  C   UNL     1     134.539 136.494 117.129  1.00  0.00     0.035 C 
BRANCH  10  11
ATOM     11  C   UNL     1     135.037 135.217 117.822  1.00  0.00     0.079 C 
BRANCH  11  12
ATOM     12  C   UNL     1     136.245 135.417 118.709  1.00  0.00     0.130 C 
ATOM     13  O   UNL     1     137.350 135.191 118.242  1.00  0.00    -0.300 OA
ATOM     14  C   UNL     1     136.146 135.879 120.138  1.00  0.00     0.087 C 
ENDBRANCH  11  12
ENDBRANCH  10  11
ENDBRANCH   2  10
TORSDOF 6
ENDMDL
MODEL 4
REMARK VINA RESULT:    -5.237      1.621      3.037
REMARK INTER + INTRA:          -8.396
REMARK INTER:                  -7.424
REMARK INTRA:                  -0.972
REMARK UNBOUND:                -1.322
REMARK SMILES CC(=O)CCC=C(C)CCC=C(C)C
REMARK SMILES IDX 7 1 6 2 8 3 9 4 10 5 11 6 13 7 12 8 14 9 5 10 4 11 2 12 3 13
REMARK SMILES IDX 1 14
REMARK H PARENT
REMARK Flexibility Score: inf
ROOT
ATOM      1  C   UNL     1     142.441 140.208 114.267  1.00  0.00    -0.077 C 
ATOM      2  C   UNL     1     141.630 139.901 115.306  1.00  0.00    -0.028 C 
ATOM      3  C   UNL     1     143.916 140.471 114.457  1.00  0.00     0.039 C 
ENDROOT
BRANCH   1   4
ATOM      4  C   UNL     1     141.857 140.272 112.873  1.00  0.00     0.034 C 
BRANCH   4   5
ATOM      5  C   UNL     1     141.692 141.726 112.417  1.00  0.00     0.032 C 
BRANCH   5   6
ATOM      6  C   UNL     1     140.642 142.428 113.240  1.00  0.00    -0.028 C 
ATOM      7  C   UNL     1     142.325 143.702 114.590  1.00  0.00     0.039 C 
ATOM      8  C   UNL     1     140.914 143.297 114.241  1.00  0.00    -0.080 C 
ATOM      9  C   UNL     1     139.785 143.921 115.019  1.00  0.00     0.039 C 
ENDBRANCH   5   6
ENDBRANCH   4   5
ENDBRANCH   1   4
BRANCH   2  10
ATOM     10  C   UNL     1     142.072 139.844 116.748  1.00  0.00     0.035 C 
BRANCH  10  11
ATOM     11  C   UNL     1     141.658 141.121 117.493  1.00  0.00     0.079 C 
BRANCH  11  12
ATOM     12  C   UNL     1     140.334 141.019 118.219  1.00  0.00     0.130 C 
ATOM     13  O   UNL     1     139.316 141.307 117.609  1.00  0.00    -0.300 OA
ATOM     14  C   UNL     1     140.217 140.581 119.654  1.00  0.00     0.087 C 
ENDBRANCH  11  12
ENDBRANCH  10  11
ENDBRANCH   2  10
TORSDOF 6
ENDMDL
MODEL 5
REMARK VINA RESULT:    -5.227      8.240      9.965
REMARK INTER + INTRA:          -8.383
REMARK INTER:                  -7.501
REMARK INTRA:                  -0.882
REMARK UNBOUND:                -1.322
REMARK SMILES CC(=O)CCC=C(C)CCC=C(C)C
REMARK SMILES IDX 7 1 6 2 8 3 9 4 10 5 11 6 13 7 12 8 14 9 5 10 4 11 2 12 3 13
REMARK SMILES IDX 1 14
REMARK H PARENT
REMARK Flexibility Score: inf
ROOT
ATOM      1  C   UNL     1     135.461 133.974 115.227  1.00  0.00    -0.077 C 
ATOM      2  C   UNL     1     134.267 134.548 115.504  1.00  0.00    -0.028 C 
ATOM      3  C   UNL     1     135.737 133.309 113.899  1.00  0.00     0.039 C 
ENDROOT
BRANCH   1   4
ATOM      4  C   UNL     1     136.556 134.016 116.270  1.00  0.00     0.034 C 
BRANCH   4   5
ATOM      5  C   UNL     1     136.769 135.446 116.779  1.00  0.00     0.032 C 
BRANCH   5   6
ATOM      6  C   UNL     1     136.946 135.460 118.276  1.00  0.00    -0.028 C 
ATOM      7  C   UNL     1     134.581 136.164 118.708  1.00  0.00     0.039 C 
ATOM      8  C   UNL     1     135.979 135.810 119.154  1.00  0.00    -0.080 C 
ATOM      9  C   UNL     1     136.274 135.817 120.632  1.00  0.00     0.039 C 
ENDBRANCH   5   6
ENDBRANCH   4   5
ENDBRANCH   1   4
BRANCH   2  10
ATOM     10  C   UNL     1     133.080 134.544 114.573  1.00  0.00     0.035 C 
BRANCH  10  11
ATOM     11  C   UNL     1     132.830 135.950 114.007  1.00  0.00     0.079 C 
BRANCH  11  12
ATOM     12  C   UNL     1     133.497 136.215 112.676  1.00  0.00     0.130 C 
ATOM     13  O   UNL     1     133.621 135.284 111.895  1.00  0.00    -0.300 OA
ATOM     14  C   UNL     1     134.016 137.569 112.273  1.00  0.00     0.087 C 
ENDBRANCH  11  12
ENDBRANCH  10  11
ENDBRANCH   2  10
TORSDOF 6
ENDMDL
MODEL 6
REMARK VINA RESULT:    -5.206      6.746      9.104
REMARK INTER + INTRA:          -8.354
REMARK INTER:                  -7.318
REMARK INTRA:                  -1.035
REMARK UNBOUND:                -1.322
REMARK SMILES CC(=O)CCC=C(C)CCC=C(C)C
REMARK SMILES IDX 7 1 6 2 8 3 9 4 10 5 11 6 13 7 12 8 14 9 5 10 4 11 2 12 3 13
REMARK SMILES IDX 1 14
REMARK H PARENT
REMARK Flexibility Score: inf
ROOT
ATOM      1  C   UNL     1     136.501 136.084 113.742  1.00  0.00    -0.077 C 
ATOM      2  C   UNL     1     136.806 135.285 114.791  1.00  0.00    -0.028 C 
ATOM      3  C   UNL     1     136.459 137.589 113.871  1.00  0.00     0.039 C 
ENDROOT
BRANCH   1   4
ATOM      4  C   UNL     1     136.212 135.454 112.398  1.00  0.00     0.034 C 
BRANCH   4   5
ATOM      5  C   UNL     1     135.051 134.458 112.501  1.00  0.00     0.032 C 
BRANCH   5   6
ATOM      6  C   UNL     1     133.739 135.182 112.671  1.00  0.00    -0.028 C 
ATOM      7  C   UNL     1     133.355 134.272 114.973  1.00  0.00     0.039 C 
ATOM      8  C   UNL     1     132.952 135.083 113.766  1.00  0.00    -0.080 C 
ATOM      9  C   UNL     1     131.644 135.829 113.819  1.00  0.00     0.039 C 
ENDBRANCH   5   6
ENDBRANCH   4   5
ENDBRANCH   1   4
BRANCH   2  10
ATOM     10  C   UNL     1     137.075 135.778 116.191  1.00  0.00     0.035 C 
BRANCH  10  11
ATOM     11  C   UNL     1     136.279 134.957 117.217  1.00  0.00     0.079 C 
BRANCH  11  12
ATOM     12  C   UNL     1     135.580 135.784 118.273  1.00  0.00     0.130 C 
ATOM     13  O   UNL     1     134.590 136.421 117.947  1.00  0.00    -0.300 OA
ATOM     14  C   UNL     1     136.050 135.860 119.700  1.00  0.00     0.087 C 
ENDBRANCH  11  12
ENDBRANCH  10  11
ENDBRANCH   2  10
TORSDOF 6
ENDMDL
MODEL 7
REMARK VINA RESULT:    -5.090      2.106      4.660
REMARK INTER + INTRA:          -8.198
REMARK INTER:                  -6.978
REMARK INTRA:                  -1.219
REMARK UNBOUND:                -1.322
REMARK SMILES CC(=O)CCC=C(C)CCC=C(C)C
REMARK SMILES IDX 7 1 6 2 8 3 9 4 10 5 11 6 13 7 12 8 14 9 5 10 4 11 2 12 3 13
REMARK SMILES IDX 1 14
REMARK H PARENT
REMARK Flexibility Score: inf
ROOT
ATOM      1  C   UNL     1     141.075 142.912 114.281  1.00  0.00    -0.077 C 
ATOM      2  C   UNL     1     140.782 142.384 113.070  1.00  0.00    -0.028 C 
ATOM      3  C   UNL     1     142.471 143.365 114.637  1.00  0.00     0.039 C 
ENDROOT
BRANCH   1   4
ATOM      4  C   UNL     1     139.969 143.070 115.301  1.00  0.00     0.034 C 
BRANCH   4   5
ATOM      5  C   UNL     1     139.533 141.705 115.846  1.00  0.00     0.032 C 
BRANCH   5   6
ATOM      6  C   UNL     1     140.079 141.484 117.234  1.00  0.00    -0.028 C 
ATOM      7  C   UNL     1     141.887 139.939 116.447  1.00  0.00     0.039 C 
ATOM      8  C   UNL     1     141.120 140.668 117.522  1.00  0.00    -0.080 C 
ATOM      9  C   UNL     1     141.567 140.498 118.950  1.00  0.00     0.039 C 
ENDBRANCH   5   6
ENDBRANCH   4   5
ENDBRANCH   1   4
BRANCH   2  10
ATOM     10  C   UNL     1     141.793 142.135 111.978  1.00  0.00     0.035 C 
BRANCH  10  11
ATOM     11  C   UNL     1     141.872 140.638 111.645  1.00  0.00     0.079 C 
BRANCH  11  12
ATOM     12  C   UNL     1     142.625 139.810 112.663  1.00  0.00     0.130 C 
ATOM     13  O   UNL     1     142.180 138.712 112.960  1.00  0.00    -0.300 OA
ATOM     14  C   UNL     1     143.891 140.279 113.327  1.00  0.00     0.087 C 
ENDBRANCH  11  12
ENDBRANCH  10  11
ENDBRANCH   2  10
TORSDOF 6
ENDMDL
MODEL 8
REMARK VINA RESULT:    -4.974      6.451      8.538
REMARK INTER + INTRA:          -8.040
REMARK INTER:                  -6.804
REMARK INTRA:                  -1.236
REMARK UNBOUND:                -1.322
REMARK SMILES CC(=O)CCC=C(C)CCC=C(C)C
REMARK SMILES IDX 7 1 6 2 8 3 9 4 10 5 11 6 13 7 12 8 14 9 5 10 4 11 2 12 3 13
REMARK SMILES IDX 1 14
REMARK H PARENT
REMARK Flexibility Score: inf
ROOT
ATOM      1  C   UNL     1     134.234 134.472 113.221  1.00  0.00    -0.077 C 
ATOM      2  C   UNL     1     135.414 133.891 113.541  1.00  0.00    -0.028 C 
ATOM      3  C   UNL     1     133.114 134.609 114.225  1.00  0.00     0.039 C 
ENDROOT
BRANCH   1   4
ATOM      4  C   UNL     1     134.040 135.017 111.823  1.00  0.00     0.034 C 
BRANCH   4   5
ATOM      5  C   UNL     1     134.183 136.543 111.809  1.00  0.00     0.032 C 
BRANCH   5   6
ATOM      6  C   UNL     1     135.579 136.945 111.405  1.00  0.00    -0.028 C 
ATOM      7  C   UNL     1     136.268 137.495 113.750  1.00  0.00     0.039 C 
ATOM      8  C   UNL     1     136.517 137.404 112.265  1.00  0.00    -0.080 C 
ATOM      9  C   UNL     1     137.874 137.806 111.749  1.00  0.00     0.039 C 
ENDBRANCH   5   6
ENDBRANCH   4   5
ENDBRANCH   1   4
BRANCH   2  10
ATOM     10  C   UNL     1     135.727 133.273 114.882  1.00  0.00     0.035 C 
BRANCH  10  11
ATOM     11  C   UNL     1     136.515 134.255 115.761  1.00  0.00     0.079 C 
BRANCH  11  12
ATOM     12  C   UNL     1     135.741 134.793 116.944  1.00  0.00     0.130 C 
ATOM     13  O   UNL     1     135.730 134.139 117.975  1.00  0.00    -0.300 OA
ATOM     14  C   UNL     1     134.984 136.093 116.907  1.00  0.00     0.087 C 
ENDBRANCH  11  12
ENDBRANCH  10  11
ENDBRANCH   2  10
TORSDOF 6
ENDMDL
MODEL 9
REMARK VINA RESULT:    -4.958      6.775      9.393
REMARK INTER + INTRA:          -8.019
REMARK INTER:                  -6.890
REMARK INTRA:                  -1.129
REMARK UNBOUND:                -1.322
REMARK SMILES CC(=O)CCC=C(C)CCC=C(C)C
REMARK SMILES IDX 7 1 6 2 8 3 9 4 10 5 11 6 13 7 12 8 14 9 5 10 4 11 2 12 3 13
REMARK SMILES IDX 1 14
REMARK H PARENT
REMARK Flexibility Score: inf
ROOT
ATOM      1  C   UNL     1     134.269 133.973 113.877  1.00  0.00    -0.077 C 
ATOM      2  C   UNL     1     134.572 134.234 112.584  1.00  0.00    -0.028 C 
ATOM      3  C   UNL     1     133.179 134.720 114.608  1.00  0.00     0.039 C 
ENDROOT
BRANCH   1   4
ATOM      4  C   UNL     1     135.032 132.888 114.606  1.00  0.00     0.034 C 
BRANCH   4   5
ATOM      5  C   UNL     1     136.438 133.371 114.982  1.00  0.00     0.032 C 
BRANCH   5   6
ATOM      6  C   UNL     1     136.490 133.788 116.430  1.00  0.00    -0.028 C 
ATOM      7  C   UNL     1     136.879 136.202 115.883  1.00  0.00     0.039 C 
ATOM      8  C   UNL     1     136.718 135.054 116.850  1.00  0.00    -0.080 C 
ATOM      9  C   UNL     1     136.778 135.356 118.324  1.00  0.00     0.039 C 
ENDBRANCH   5   6
ENDBRANCH   4   5
ENDBRANCH   1   4
BRANCH   2  10
ATOM     10  C   UNL     1     133.920 135.312 111.754  1.00  0.00     0.035 C 
BRANCH  10  11
ATOM     11  C   UNL     1     134.967 136.315 111.248  1.00  0.00     0.079 C 
BRANCH  11  12
ATOM     12  C   UNL     1     135.673 137.085 112.341  1.00  0.00     0.130 C 
ATOM     13  O   UNL     1     134.995 137.607 113.212  1.00  0.00    -0.300 OA
ATOM     14  C   UNL     1     137.169 137.240 112.401  1.00  0.00     0.087 C 
ENDBRANCH  11  12
ENDBRANCH  10  11
ENDBRANCH   2  10
TORSDOF 6
ENDMDL
