MODEL 1
REMARK VINA RESULT:    -3.842      0.000      0.000
REMARK INTER + INTRA:          -4.377
REMARK INTER:                  -4.291
REMARK INTRA:                  -0.086
REMARK UNBOUND:                -0.086
REMARK SMILES CCc1ccc(O)cc1O
REMARK SMILES IDX 3 1 9 2 8 3 6 4 5 5 4 6 2 7 1 8 10 9 7 11
REMARK H PARENT 10 10 7 12
REMARK Flexibility Score: inf
ROOT
ATOM      1  C   UNL     1     127.352 144.452 107.294  1.00  0.00    -0.006 A 
ATOM      2  C   UNL     1     127.681 144.629 108.653  1.00  0.00     0.122 A 
ATOM      3  C   UNL     1     127.876 143.509 109.476  1.00  0.00     0.092 A 
ATOM      4  C   UNL     1     127.758 142.216 108.951  1.00  0.00     0.119 A 
ATOM      5  C   UNL     1     127.447 142.042 107.600  1.00  0.00     0.047 A 
ATOM      6  C   UNL     1     127.249 143.151 106.775  1.00  0.00     0.011 A 
ENDROOT
BRANCH   1   7
ATOM      7  C   UNL     1     127.166 145.638 106.380  1.00  0.00     0.036 C 
ATOM      8  C   UNL     1     127.295 145.219 104.920  1.00  0.00     0.009 C 
ENDBRANCH   1   7
BRANCH   2   9
ATOM      9  O   UNL     1     127.813 145.913 109.182  1.00  0.00    -0.508 OA
ATOM     10  H   UNL     1     127.561 146.736 108.649  1.00  0.00     0.293 HD
ENDBRANCH   2   9
BRANCH   4  11
ATOM     11  O   UNL     1     127.951 141.100 109.762  1.00  0.00    -0.508 OA
ATOM     12  H   UNL     1     127.336 140.900 110.543  1.00  0.00     0.293 HD
ENDBRANCH   4  11
TORSDOF 3
ENDMDL
MODEL 2
REMARK VINA RESULT:    -3.815      1.945      3.902
REMARK INTER + INTRA:          -4.348
REMARK INTER:                  -4.261
REMARK INTRA:                  -0.087
REMARK UNBOUND:                -0.086
REMARK SMILES CCc1ccc(O)cc1O
REMARK SMILES IDX 3 1 9 2 8 3 6 4 5 5 4 6 2 7 1 8 10 9 7 11
REMARK H PARENT 10 10 7 12
REMARK Flexibility Score: inf
ROOT
ATOM      1  C   UNL     1     127.789 143.159 107.357  1.00  0.00    -0.006 A 
ATOM      2  C   UNL     1     127.208 144.432 107.525  1.00  0.00     0.122 A 
ATOM      3  C   UNL     1     126.962 145.240 106.405  1.00  0.00     0.092 A 
ATOM      4  C   UNL     1     127.280 144.784 105.119  1.00  0.00     0.119 A 
ATOM      5  C   UNL     1     127.842 143.517 104.953  1.00  0.00     0.047 A 
ATOM      6  C   UNL     1     128.092 142.706 106.062  1.00  0.00     0.011 A 
ENDROOT
BRANCH   1   7
ATOM      7  C   UNL     1     128.037 142.257 108.541  1.00  0.00     0.036 C 
ATOM      8  C   UNL     1     128.074 140.796 108.108  1.00  0.00     0.009 C 
ENDBRANCH   1   7
BRANCH   2   9
ATOM      9  O   UNL     1     126.875 144.890 108.800  1.00  0.00    -0.508 OA
ATOM     10  H   UNL     1     125.925 145.142 109.043  1.00  0.00     0.293 HD
ENDBRANCH   2   9
BRANCH   4  11
ATOM     11  O   UNL     1     127.038 145.582 104.003  1.00  0.00    -0.508 OA
ATOM     12  H   UNL     1     126.905 146.583 104.086  1.00  0.00     0.293 HD
ENDBRANCH   4  11
TORSDOF 3
ENDMDL
MODEL 3
REMARK VINA RESULT:    -3.714      2.333      3.366
REMARK INTER + INTRA:          -4.235
REMARK INTER:                  -4.128
REMARK INTRA:                  -0.107
REMARK UNBOUND:                -0.086
REMARK SMILES CCc1ccc(O)cc1O
REMARK SMILES IDX 3 1 9 2 8 3 6 4 5 5 4 6 2 7 1 8 10 9 7 11
REMARK H PARENT 10 10 7 12
REMARK Flexibility Score: inf
ROOT
ATOM      1  C   UNL     1     128.480 145.050 106.516  1.00  0.00    -0.006 A 
ATOM      2  C   UNL     1     128.169 145.163 107.886  1.00  0.00     0.122 A 
ATOM      3  C   UNL     1     129.152 145.591 108.792  1.00  0.00     0.092 A 
ATOM      4  C   UNL     1     130.436 145.919 108.340  1.00  0.00     0.119 A 
ATOM      5  C   UNL     1     130.739 145.820 106.981  1.00  0.00     0.047 A 
ATOM      6  C   UNL     1     129.768 145.393 106.073  1.00  0.00     0.011 A 
ENDROOT
BRANCH   1   7
ATOM      7  C   UNL     1     127.436 144.620 105.517  1.00  0.00     0.036 C 
ATOM      8  C   UNL     1     126.877 145.826 104.768  1.00  0.00     0.009 C 
ENDBRANCH   1   7
BRANCH   2   9
ATOM      9  O   UNL     1     126.889 144.852 108.344  1.00  0.00    -0.508 OA
ATOM     10  H   UNL     1     126.732 144.481 109.274  1.00  0.00     0.293 HD
ENDBRANCH   2   9
BRANCH   4  11
ATOM     11  O   UNL     1     131.416 146.345 109.235  1.00  0.00    -0.508 OA
ATOM     12  H   UNL     1     131.187 146.606 110.187  1.00  0.00     0.293 HD
ENDBRANCH   4  11
TORSDOF 3
ENDMDL
MODEL 4
REMARK VINA RESULT:    -3.703      2.068      3.850
REMARK INTER + INTRA:          -4.222
REMARK INTER:                  -4.118
REMARK INTRA:                  -0.105
REMARK UNBOUND:                -0.086
REMARK SMILES CCc1ccc(O)cc1O
REMARK SMILES IDX 3 1 9 2 8 3 6 4 5 5 4 6 2 7 1 8 10 9 7 11
REMARK H PARENT 10 10 7 12
REMARK Flexibility Score: inf
ROOT
ATOM      1  C   UNL     1     127.502 144.682 108.260  1.00  0.00    -0.006 A 
ATOM      2  C   UNL     1     127.392 143.369 107.762  1.00  0.00     0.122 A 
ATOM      3  C   UNL     1     127.401 143.144 106.376  1.00  0.00     0.092 A 
ATOM      4  C   UNL     1     127.532 144.218 105.487  1.00  0.00     0.119 A 
ATOM      5  C   UNL     1     127.656 145.518 105.982  1.00  0.00     0.047 A 
ATOM      6  C   UNL     1     127.646 145.750 107.359  1.00  0.00     0.011 A 
ENDROOT
BRANCH   1   7
ATOM      7  C   UNL     1     127.525 144.950 109.744  1.00  0.00     0.036 C 
ATOM      8  C   UNL     1     128.928 145.332 110.203  1.00  0.00     0.009 C 
ENDBRANCH   1   7
BRANCH   2   9
ATOM      9  O   UNL     1     127.275 142.291 108.640  1.00  0.00    -0.508 OA
ATOM     10  H   UNL     1     126.666 141.507 108.441  1.00  0.00     0.293 HD
ENDBRANCH   2   9
BRANCH   4  11
ATOM     11  O   UNL     1     127.543 144.002 104.110  1.00  0.00    -0.508 OA
ATOM     12  H   UNL     1     128.403 143.805 103.611  1.00  0.00     0.293 HD
ENDBRANCH   4  11
TORSDOF 3
ENDMDL
MODEL 5
REMARK VINA RESULT:    -3.605      2.964      4.253
REMARK INTER + INTRA:          -4.113
REMARK INTER:                  -4.020
REMARK INTRA:                  -0.093
REMARK UNBOUND:                -0.086
REMARK SMILES CCc1ccc(O)cc1O
REMARK SMILES IDX 3 1 9 2 8 3 6 4 5 5 4 6 2 7 1 8 10 9 7 11
REMARK H PARENT 10 10 7 12
REMARK Flexibility Score: inf
ROOT
ATOM      1  C   UNL     1     128.748 145.732 108.128  1.00  0.00    -0.006 A 
ATOM      2  C   UNL     1     129.637 145.634 107.039  1.00  0.00     0.122 A 
ATOM      3  C   UNL     1     129.135 145.417 105.746  1.00  0.00     0.092 A 
ATOM      4  C   UNL     1     127.756 145.309 105.531  1.00  0.00     0.119 A 
ATOM      5  C   UNL     1     126.875 145.422 106.609  1.00  0.00     0.047 A 
ATOM      6  C   UNL     1     127.365 145.636 107.899  1.00  0.00     0.011 A 
ENDROOT
BRANCH   1   7
ATOM      7  C   UNL     1     129.258 145.995 109.523  1.00  0.00     0.036 C 
ATOM      8  C   UNL     1     128.850 144.869 110.468  1.00  0.00     0.009 C 
ENDBRANCH   1   7
BRANCH   2   9
ATOM      9  O   UNL     1     131.012 145.752 107.241  1.00  0.00    -0.508 OA
ATOM     10  H   UNL     1     131.468 146.656 107.276  1.00  0.00     0.293 HD
ENDBRANCH   2   9
BRANCH   4  11
ATOM     11  O   UNL     1     127.251 145.095 104.250  1.00  0.00    -0.508 OA
ATOM     12  H   UNL     1     127.167 144.161 103.863  1.00  0.00     0.293 HD
ENDBRANCH   4  11
TORSDOF 3
ENDMDL
MODEL 6
REMARK VINA RESULT:    -3.574      2.342      4.054
REMARK INTER + INTRA:          -4.078
REMARK INTER:                  -3.970
REMARK INTRA:                  -0.108
REMARK UNBOUND:                -0.086
REMARK SMILES CCc1ccc(O)cc1O
REMARK SMILES IDX 3 1 9 2 8 3 6 4 5 5 4 6 2 7 1 8 10 9 7 11
REMARK H PARENT 10 10 7 12
REMARK Flexibility Score: inf
ROOT
ATOM      1  C   UNL     1     129.023 145.498 108.171  1.00  0.00    -0.006 A 
ATOM      2  C   UNL     1     127.650 145.199 108.066  1.00  0.00     0.122 A 
ATOM      3  C   UNL     1     127.061 145.055 106.801  1.00  0.00     0.092 A 
ATOM      4  C   UNL     1     127.833 145.194 105.641  1.00  0.00     0.119 A 
ATOM      5  C   UNL     1     129.197 145.475 105.745  1.00  0.00     0.047 A 
ATOM      6  C   UNL     1     129.791 145.622 107.000  1.00  0.00     0.011 A 
ENDROOT
BRANCH   1   7
ATOM      7  C   UNL     1     129.689 145.628 109.518  1.00  0.00     0.036 C 
ATOM      8  C   UNL     1     130.334 144.311 109.932  1.00  0.00     0.009 C 
ENDBRANCH   1   7
BRANCH   2   9
ATOM      9  O   UNL     1     126.875 145.045 109.216  1.00  0.00    -0.508 OA
ATOM     10  H   UNL     1     127.278 144.730 110.090  1.00  0.00     0.293 HD
ENDBRANCH   2   9
BRANCH   4  11
ATOM     11  O   UNL     1     127.255 145.051 104.381  1.00  0.00    -0.508 OA
ATOM     12  H   UNL     1     126.406 144.514 104.246  1.00  0.00     0.293 HD
ENDBRANCH   4  11
TORSDOF 3
ENDMDL
MODEL 7
REMARK VINA RESULT:    -3.515      2.021      2.154
REMARK INTER + INTRA:          -4.013
REMARK INTER:                  -3.927
REMARK INTRA:                  -0.085
REMARK UNBOUND:                -0.086
REMARK SMILES CCc1ccc(O)cc1O
REMARK SMILES IDX 3 1 9 2 8 3 6 4 5 5 4 6 2 7 1 8 10 9 7 11
REMARK H PARENT 10 10 7 12
REMARK Flexibility Score: inf
ROOT
ATOM      1  C   UNL     1     128.351 143.392 106.430  1.00  0.00    -0.006 A 
ATOM      2  C   UNL     1     129.091 142.804 107.476  1.00  0.00     0.122 A 
ATOM      3  C   UNL     1     128.707 141.555 107.987  1.00  0.00     0.092 A 
ATOM      4  C   UNL     1     127.600 140.883 107.455  1.00  0.00     0.119 A 
ATOM      5  C   UNL     1     126.876 141.459 106.408  1.00  0.00     0.047 A 
ATOM      6  C   UNL     1     127.250 142.702 105.895  1.00  0.00     0.011 A 
ENDROOT
BRANCH   1   7
ATOM      7  C   UNL     1     128.759 144.719 105.842  1.00  0.00     0.036 C 
ATOM      8  C   UNL     1     127.547 145.459 105.286  1.00  0.00     0.009 C 
ENDBRANCH   1   7
BRANCH   2   9
ATOM      9  O   UNL     1     130.204 143.460 108.004  1.00  0.00    -0.508 OA
ATOM     10  H   UNL     1     130.247 144.470 108.062  1.00  0.00     0.293 HD
ENDBRANCH   2   9
BRANCH   4  11
ATOM     11  O   UNL     1     127.214 139.641 107.957  1.00  0.00    -0.508 OA
ATOM     12  H   UNL     1     127.055 139.497 108.948  1.00  0.00     0.293 HD
ENDBRANCH   4  11
TORSDOF 3
ENDMDL
MODEL 8
REMARK VINA RESULT:    -3.491      2.768      3.419
REMARK INTER + INTRA:          -3.986
REMARK INTER:                  -3.883
REMARK INTRA:                  -0.103
REMARK UNBOUND:                -0.086
REMARK SMILES CCc1ccc(O)cc1O
REMARK SMILES IDX 3 1 9 2 8 3 6 4 5 5 4 6 2 7 1 8 10 9 7 11
REMARK H PARENT 10 10 7 12
REMARK Flexibility Score: inf
ROOT
ATOM      1  C   UNL     1     128.002 145.108 106.819  1.00  0.00    -0.006 A 
ATOM      2  C   UNL     1     129.411 145.139 106.855  1.00  0.00     0.122 A 
ATOM      3  C   UNL     1     130.070 145.628 107.993  1.00  0.00     0.092 A 
ATOM      4  C   UNL     1     129.335 146.074 109.099  1.00  0.00     0.119 A 
ATOM      5  C   UNL     1     127.940 146.029 109.068  1.00  0.00     0.047 A 
ATOM      6  C   UNL     1     127.276 145.545 107.939  1.00  0.00     0.011 A 
ENDROOT
BRANCH   1   7
ATOM      7  C   UNL     1     127.269 144.560 105.620  1.00  0.00     0.036 C 
ATOM      8  C   UNL     1     126.907 145.679 104.650  1.00  0.00     0.009 C 
ENDBRANCH   1   7
BRANCH   2   9
ATOM      9  O   UNL     1     130.152 144.685 105.763  1.00  0.00    -0.508 OA
ATOM     10  H   UNL     1     130.622 143.788 105.776  1.00  0.00     0.293 HD
ENDBRANCH   2   9
BRANCH   4  11
ATOM     11  O   UNL     1     129.983 146.560 110.233  1.00  0.00    -0.508 OA
ATOM     12  H   UNL     1     130.420 145.936 110.902  1.00  0.00     0.293 HD
ENDBRANCH   4  11
TORSDOF 3
ENDMDL
MODEL 9
REMARK VINA RESULT:    -3.491      5.938      6.461
REMARK INTER + INTRA:          -3.985
REMARK INTER:                  -3.897
REMARK INTRA:                  -0.089
REMARK UNBOUND:                -0.086
REMARK SMILES CCc1ccc(O)cc1O
REMARK SMILES IDX 3 1 9 2 8 3 6 4 5 5 4 6 2 7 1 8 10 9 7 11
REMARK H PARENT 10 10 7 12
REMARK Flexibility Score: inf
ROOT
ATOM      1  C   UNL     1     133.676 146.032 106.163  1.00  0.00    -0.006 A 
ATOM      2  C   UNL     1     133.897 146.390 107.508  1.00  0.00     0.122 A 
ATOM      3  C   UNL     1     132.823 146.412 108.411  1.00  0.00     0.092 A 
ATOM      4  C   UNL     1     131.534 146.067 107.985  1.00  0.00     0.119 A 
ATOM      5  C   UNL     1     131.318 145.698 106.656  1.00  0.00     0.047 A 
ATOM      6  C   UNL     1     132.381 145.675 105.750  1.00  0.00     0.011 A 
ENDROOT
BRANCH   1   7
ATOM      7  C   UNL     1     134.817 145.971 105.178  1.00  0.00     0.036 C 
ATOM      8  C   UNL     1     134.669 144.767 104.254  1.00  0.00     0.009 C 
ENDBRANCH   1   7
BRANCH   2   9
ATOM      9  O   UNL     1     135.180 146.722 107.944  1.00  0.00    -0.508 OA
ATOM     10  H   UNL     1     135.412 147.660 108.248  1.00  0.00     0.293 HD
ENDBRANCH   2   9
BRANCH   4  11
ATOM     11  O   UNL     1     130.464 146.086 108.877  1.00  0.00    -0.508 OA
ATOM     12  H   UNL     1     129.563 146.471 108.615  1.00  0.00     0.293 HD
ENDBRANCH   4  11
TORSDOF 3
ENDMDL
