MODEL 1
REMARK VINA RESULT:    -1.755      0.000      0.000
REMARK INTER + INTRA:          -2.436
REMARK INTER:                  -2.269
REMARK INTRA:                  -0.167
REMARK UNBOUND:                -0.167
REMARK SMILES CCCCCCC(=O)[O-]
REMARK SMILES IDX 5 1 6 2 7 3 8 4 9 5 4 6 3 7 2 8 1 9
REMARK H PARENT
REMARK Flexibility Score: inf
ROOT
ATOM      1  C   UNL     1     -20.060   3.345 -15.316  1.00  0.00     0.006 C 
ENDROOT
BRANCH   1   2
ATOM      2  C   UNL     1     -20.096   2.293 -14.200  1.00  0.00     0.053 C 
BRANCH   2   3
ATOM      3  C   UNL     1     -19.500   0.992 -14.646  1.00  0.00     0.041 C 
ATOM      4  O   UNL     1     -18.418   0.585 -14.146  1.00  0.00    -0.550 OA
ATOM      5  O   UNL     1     -20.125   0.245 -15.637  1.00  0.00    -0.550 OA
ENDBRANCH   2   3
ENDBRANCH   1   2
BRANCH   1   6
ATOM      6  C   UNL     1     -20.079   4.778 -14.764  1.00  0.00     0.000 C 
BRANCH   6   7
ATOM      7  C   UNL     1     -19.828   5.800 -15.879  1.00  0.00    -0.000 C 
BRANCH   7   8
ATOM      8  C   UNL     1     -19.691   5.108 -17.239  1.00  0.00    -0.003 C 
ATOM      9  C   UNL     1     -18.657   5.810 -18.114  1.00  0.00     0.004 C 
ENDBRANCH   7   8
ENDBRANCH   6   7
ENDBRANCH   1   6
TORSDOF 5
ENDMDL
MODEL 2
REMARK VINA RESULT:    -1.653      2.683      5.116
REMARK INTER + INTRA:          -2.304
REMARK INTER:                  -2.162
REMARK INTRA:                  -0.142
REMARK UNBOUND:                -0.167
REMARK SMILES CCCCCCC(=O)[O-]
REMARK SMILES IDX 5 1 6 2 7 3 8 4 9 5 4 6 3 7 2 8 1 9
REMARK H PARENT
REMARK Flexibility Score: inf
ROOT
ATOM      1  C   UNL     1     -20.044   2.144 -14.945  1.00  0.00     0.006 C 
ENDROOT
BRANCH   1   2
ATOM      2  C   UNL     1     -20.124   3.584 -14.423  1.00  0.00     0.053 C 
BRANCH   2   3
ATOM      3  C   UNL     1     -19.750   4.578 -15.481  1.00  0.00     0.041 C 
ATOM      4  O   UNL     1     -20.101   4.394 -16.676  1.00  0.00    -0.550 OA
ATOM      5  O   UNL     1     -18.988   5.691 -15.150  1.00  0.00    -0.550 OA
ENDBRANCH   2   3
ENDBRANCH   1   2
BRANCH   1   6
ATOM      6  C   UNL     1     -19.051   1.290 -14.143  1.00  0.00     0.000 C 
BRANCH   6   7
ATOM      7  C   UNL     1     -19.550  -0.154 -14.009  1.00  0.00    -0.000 C 
BRANCH   7   8
ATOM      8  C   UNL     1     -20.087  -0.677 -15.346  1.00  0.00    -0.003 C 
ATOM      9  C   UNL     1     -20.124  -2.202 -15.366  1.00  0.00     0.004 C 
ENDBRANCH   7   8
ENDBRANCH   6   7
ENDBRANCH   1   6
TORSDOF 5
ENDMDL
MODEL 3
REMARK VINA RESULT:    -1.615      2.843      4.698
REMARK INTER + INTRA:          -2.254
REMARK INTER:                  -2.114
REMARK INTRA:                  -0.140
REMARK UNBOUND:                -0.167
REMARK SMILES CCCCCCC(=O)[O-]
REMARK SMILES IDX 5 1 6 2 7 3 8 4 9 5 4 6 3 7 2 8 1 9
REMARK H PARENT
REMARK Flexibility Score: inf
ROOT
ATOM      1  C   UNL     1     -20.124   3.340 -15.283  1.00  0.00     0.006 C 
ENDROOT
BRANCH   1   2
ATOM      2  C   UNL     1     -19.974   4.845 -15.027  1.00  0.00     0.053 C 
BRANCH   2   3
ATOM      3  C   UNL     1     -19.323   5.543 -16.182  1.00  0.00     0.041 C 
ATOM      4  O   UNL     1     -18.607   6.559 -15.988  1.00  0.00    -0.550 OA
ATOM      5  O   UNL     1     -19.535   5.087 -17.478  1.00  0.00    -0.550 OA
ENDBRANCH   2   3
ENDBRANCH   1   2
BRANCH   1   6
ATOM      6  C   UNL     1     -19.860   2.506 -14.020  1.00  0.00     0.000 C 
BRANCH   6   7
ATOM      7  C   UNL     1     -19.135   1.200 -14.366  1.00  0.00    -0.000 C 
BRANCH   7   8
ATOM      8  C   UNL     1     -20.125   0.132 -14.845  1.00  0.00    -0.003 C 
ATOM      9  C   UNL     1     -19.853  -0.262 -16.293  1.00  0.00     0.004 C 
ENDBRANCH   7   8
ENDBRANCH   6   7
ENDBRANCH   1   6
TORSDOF 5
ENDMDL
MODEL 4
REMARK VINA RESULT:    -1.596      3.452      5.035
REMARK INTER + INTRA:          -2.229
REMARK INTER:                  -2.059
REMARK INTRA:                  -0.170
REMARK UNBOUND:                -0.167
REMARK SMILES CCCCCCC(=O)[O-]
REMARK SMILES IDX 5 1 6 2 7 3 8 4 9 5 4 6 3 7 2 8 1 9
REMARK H PARENT
REMARK Flexibility Score: inf
ROOT
ATOM      1  C   UNL     1     -18.522   6.581 -15.491  1.00  0.00     0.006 C 
ENDROOT
BRANCH   1   2
ATOM      2  C   UNL     1     -19.160   6.839 -16.861  1.00  0.00     0.053 C 
BRANCH   2   3
ATOM      3  C   UNL     1     -18.276   6.378 -17.980  1.00  0.00     0.041 C 
ATOM      4  O   UNL     1     -18.568   5.341 -18.632  1.00  0.00    -0.550 OA
ATOM      5  O   UNL     1     -17.114   7.077 -18.281  1.00  0.00    -0.550 OA
ENDBRANCH   2   3
ENDBRANCH   1   2
BRANCH   1   6
ATOM      6  C   UNL     1     -19.516   5.971 -14.492  1.00  0.00     0.000 C 
BRANCH   6   7
ATOM      7  C   UNL     1     -19.195   4.495 -14.228  1.00  0.00    -0.000 C 
BRANCH   7   8
ATOM      8  C   UNL     1     -19.996   3.582 -15.164  1.00  0.00    -0.003 C 
ATOM      9  C   UNL     1     -19.829   2.116 -14.779  1.00  0.00     0.004 C 
ENDBRANCH   7   8
ENDBRANCH   6   7
ENDBRANCH   1   6
TORSDOF 5
ENDMDL
MODEL 5
REMARK VINA RESULT:    -1.059      3.123      4.293
REMARK INTER + INTRA:          -1.536
REMARK INTER:                  -1.472
REMARK INTRA:                  -0.064
REMARK UNBOUND:                -0.167
REMARK SMILES CCCCCCC(=O)[O-]
REMARK SMILES IDX 5 1 6 2 7 3 8 4 9 5 4 6 3 7 2 8 1 9
REMARK H PARENT
REMARK Flexibility Score: inf
ROOT
ATOM      1  C   UNL     1     -17.992   6.134 -17.494  1.00  0.00     0.006 C 
ENDROOT
BRANCH   1   2
ATOM      2  C   UNL     1     -19.492   5.909 -17.723  1.00  0.00     0.053 C 
BRANCH   2   3
ATOM      3  C   UNL     1     -19.904   4.513 -17.365  1.00  0.00     0.041 C 
ATOM      4  O   UNL     1     -20.065   4.189 -16.158  1.00  0.00    -0.550 OA
ATOM      5  O   UNL     1     -20.079   3.562 -18.362  1.00  0.00    -0.550 OA
ENDBRANCH   2   3
ENDBRANCH   1   2
BRANCH   1   6
ATOM      6  C   UNL     1     -17.720   7.123 -16.351  1.00  0.00     0.000 C 
BRANCH   6   7
ATOM      7  C   UNL     1     -18.098   6.514 -14.995  1.00  0.00    -0.000 C 
BRANCH   7   8
ATOM      8  C   UNL     1     -17.202   7.060 -13.878  1.00  0.00    -0.003 C 
ATOM      9  C   UNL     1     -15.801   6.461 -13.952  1.00  0.00     0.004 C 
ENDBRANCH   7   8
ENDBRANCH   6   7
ENDBRANCH   1   6
TORSDOF 5
ENDMDL
MODEL 6
REMARK VINA RESULT:    -0.966      1.601      2.155
REMARK INTER + INTRA:          -1.416
REMARK INTER:                  -1.322
REMARK INTRA:                  -0.094
REMARK UNBOUND:                -0.167
REMARK SMILES CCCCCCC(=O)[O-]
REMARK SMILES IDX 5 1 6 2 7 3 8 4 9 5 4 6 3 7 2 8 1 9
REMARK H PARENT
REMARK Flexibility Score: inf
ROOT
ATOM      1  C   UNL     1     -19.333   1.804 -15.169  1.00  0.00     0.006 C 
ENDROOT
BRANCH   1   2
ATOM      2  C   UNL     1     -20.119   0.568 -14.713  1.00  0.00     0.053 C 
BRANCH   2   3
ATOM      3  C   UNL     1     -19.920  -0.590 -15.644  1.00  0.00     0.041 C 
ATOM      4  O   UNL     1     -19.756  -0.392 -16.876  1.00  0.00    -0.550 OA
ATOM      5  O   UNL     1     -19.949  -1.889 -15.152  1.00  0.00    -0.550 OA
ENDBRANCH   2   3
ENDBRANCH   1   2
BRANCH   1   6
ATOM      6  C   UNL     1     -19.833   3.092 -14.497  1.00  0.00     0.000 C 
BRANCH   6   7
ATOM      7  C   UNL     1     -19.031   4.308 -14.975  1.00  0.00    -0.000 C 
BRANCH   7   8
ATOM      8  C   UNL     1     -19.791   5.075 -16.063  1.00  0.00    -0.003 C 
ATOM      9  C   UNL     1     -20.125   6.492 -15.606  1.00  0.00     0.004 C 
ENDBRANCH   7   8
ENDBRANCH   6   7
ENDBRANCH   1   6
TORSDOF 5
ENDMDL
MODEL 7
REMARK VINA RESULT:    -0.921      3.240      5.116
REMARK INTER + INTRA:          -1.358
REMARK INTER:                  -1.264
REMARK INTRA:                  -0.094
REMARK UNBOUND:                -0.167
REMARK SMILES CCCCCCC(=O)[O-]
REMARK SMILES IDX 5 1 6 2 7 3 8 4 9 5 4 6 3 7 2 8 1 9
REMARK H PARENT
REMARK Flexibility Score: inf
ROOT
ATOM      1  C   UNL     1     -19.923   3.943 -17.381  1.00  0.00     0.006 C 
ENDROOT
BRANCH   1   2
ATOM      2  C   UNL     1     -19.946   5.446 -17.687  1.00  0.00     0.053 C 
BRANCH   2   3
ATOM      3  C   UNL     1     -18.571   6.041 -17.646  1.00  0.00     0.041 C 
ATOM      4  O   UNL     1     -17.906   6.176 -18.707  1.00  0.00    -0.550 OA
ATOM      5  O   UNL     1     -18.013   6.417 -16.431  1.00  0.00    -0.550 OA
ENDBRANCH   2   3
ENDBRANCH   1   2
BRANCH   1   6
ATOM      6  C   UNL     1     -20.001   3.655 -15.874  1.00  0.00     0.000 C 
BRANCH   6   7
ATOM      7  C   UNL     1     -20.121   2.149 -15.607  1.00  0.00    -0.000 C 
BRANCH   7   8
ATOM      8  C   UNL     1     -19.609   1.797 -14.207  1.00  0.00    -0.003 C 
ATOM      9  C   UNL     1     -18.637   0.622 -14.255  1.00  0.00     0.004 C 
ENDBRANCH   7   8
ENDBRANCH   6   7
ENDBRANCH   1   6
TORSDOF 5
ENDMDL
