MODEL 1
REMARK VINA RESULT:    -3.990      0.000      0.000
REMARK INTER + INTRA:          -6.151
REMARK INTER:                  -5.390
REMARK INTRA:                  -0.761
REMARK UNBOUND:                -0.761
REMARK SMILES CC(=O)OCC=C(C)CCC=C(C)C
REMARK SMILES IDX 7 1 6 2 8 3 9 4 10 5 11 6 13 7 12 8 14 9 5 10 4 11 2 12 3 13
REMARK SMILES IDX 1 14
REMARK H PARENT
REMARK Flexibility Score: inf
ROOT
ATOM      1  C   UNL     1     -10.627 -10.366  93.069  1.00  0.00    -0.074 C 
ATOM      2  C   UNL     1     -10.893 -11.147  94.140  1.00  0.00     0.013 C 
ATOM      3  C   UNL     1      -9.364  -9.545  93.078  1.00  0.00     0.039 C 
ENDROOT
BRANCH   1   4
ATOM      4  C   UNL     1     -11.562 -10.252  91.876  1.00  0.00     0.034 C 
BRANCH   4   5
ATOM      5  C   UNL     1     -10.894  -9.544  90.688  1.00  0.00     0.032 C 
BRANCH   5   6
ATOM      6  C   UNL     1     -10.447 -10.518  89.624  1.00  0.00    -0.028 C 
ATOM      7  C   UNL     1      -8.095  -9.660  89.586  1.00  0.00     0.039 C 
ATOM      8  C   UNL     1      -9.191 -10.596  89.134  1.00  0.00    -0.080 C 
ATOM      9  C   UNL     1      -8.888 -11.650  88.101  1.00  0.00     0.039 C 
ENDBRANCH   5   6
ENDBRANCH   4   5
ENDBRANCH   1   4
BRANCH   2  10
ATOM     10  C   UNL     1     -12.107 -12.031  94.263  1.00  0.00     0.260 C 
BRANCH  10  11
ATOM     11  O   UNL     1     -13.019 -11.501  95.224  1.00  0.00    -0.462 OA
BRANCH  11  12
ATOM     12  C   UNL     1     -14.041 -10.604  94.898  1.00  0.00     0.302 C 
ATOM     13  O   UNL     1     -14.554 -10.601  93.745  1.00  0.00    -0.253 OA
ATOM     14  C   UNL     1     -14.562  -9.674  95.940  1.00  0.00     0.139 C 
ENDBRANCH  11  12
ENDBRANCH  10  11
ENDBRANCH   2  10
TORSDOF 6
ENDMDL
MODEL 2
REMARK VINA RESULT:    -3.968      4.001      6.137
REMARK INTER + INTRA:          -6.120
REMARK INTER:                  -5.247
REMARK INTRA:                  -0.874
REMARK UNBOUND:                -0.761
REMARK SMILES CC(=O)OCC=C(C)CCC=C(C)C
REMARK SMILES IDX 7 1 6 2 8 3 9 4 10 5 11 6 13 7 12 8 14 9 5 10 4 11 2 12 3 13
REMARK SMILES IDX 1 14
REMARK H PARENT
REMARK Flexibility Score: inf
ROOT
ATOM      1  C   UNL     1      -9.638  -7.443  89.878  1.00  0.00    -0.074 C 
ATOM      2  C   UNL     1     -10.737  -8.186  90.141  1.00  0.00     0.013 C 
ATOM      3  C   UNL     1      -9.814  -6.144  89.135  1.00  0.00     0.039 C 
ENDROOT
BRANCH   1   4
ATOM      4  C   UNL     1      -8.234  -7.877  90.264  1.00  0.00     0.034 C 
BRANCH   4   5
ATOM      5  C   UNL     1      -7.817  -7.320  91.633  1.00  0.00     0.032 C 
BRANCH   5   6
ATOM      6  C   UNL     1      -6.685  -6.326  91.522  1.00  0.00    -0.028 C 
ATOM      7  C   UNL     1      -8.170  -4.341  91.872  1.00  0.00     0.039 C 
ATOM      8  C   UNL     1      -6.824  -4.989  91.647  1.00  0.00    -0.080 C 
ATOM      9  C   UNL     1      -5.592  -4.127  91.552  1.00  0.00     0.039 C 
ENDBRANCH   5   6
ENDBRANCH   4   5
ENDBRANCH   1   4
BRANCH   2  10
ATOM     10  C   UNL     1     -10.714  -9.496  90.887  1.00  0.00     0.260 C 
BRANCH  10  11
ATOM     11  O   UNL     1     -11.191 -10.553  90.057  1.00  0.00    -0.462 OA
BRANCH  11  12
ATOM     12  C   UNL     1     -10.720 -10.784  88.761  1.00  0.00     0.302 C 
ATOM     13  O   UNL     1     -11.457 -10.575  87.759  1.00  0.00    -0.253 OA
ATOM     14  C   UNL     1      -9.313 -11.237  88.561  1.00  0.00     0.139 C 
ENDBRANCH  11  12
ENDBRANCH  10  11
ENDBRANCH   2  10
TORSDOF 6
ENDMDL
MODEL 3
REMARK VINA RESULT:    -3.931      5.483      7.427
REMARK INTER + INTRA:          -6.071
REMARK INTER:                  -5.391
REMARK INTRA:                  -0.680
REMARK UNBOUND:                -0.761
REMARK SMILES CC(=O)OCC=C(C)CCC=C(C)C
REMARK SMILES IDX 7 1 6 2 8 3 9 4 10 5 11 6 13 7 12 8 14 9 5 10 4 11 2 12 3 13
REMARK SMILES IDX 1 14
REMARK H PARENT
REMARK Flexibility Score: inf
ROOT
ATOM      1  C   UNL     1      -7.340  -7.173  92.343  1.00  0.00    -0.074 C 
ATOM      2  C   UNL     1      -7.585  -8.264  91.583  1.00  0.00     0.013 C 
ATOM      3  C   UNL     1      -6.998  -7.375  93.796  1.00  0.00     0.039 C 
ENDROOT
BRANCH   1   4
ATOM      4  C   UNL     1      -7.431  -5.753  91.807  1.00  0.00     0.034 C 
BRANCH   4   5
ATOM      5  C   UNL     1      -6.058  -5.210  91.383  1.00  0.00     0.032 C 
BRANCH   5   6
ATOM      6  C   UNL     1      -5.526  -4.187  92.358  1.00  0.00    -0.028 C 
ATOM      7  C   UNL     1      -3.781  -5.726  93.282  1.00  0.00     0.039 C 
ATOM      8  C   UNL     1      -4.492  -4.396  93.201  1.00  0.00    -0.080 C 
ATOM      9  C   UNL     1      -4.049  -3.262  94.089  1.00  0.00     0.039 C 
ENDBRANCH   5   6
ENDBRANCH   4   5
ENDBRANCH   1   4
BRANCH   2  10
ATOM     10  C   UNL     1      -7.924  -8.214  90.115  1.00  0.00     0.260 C 
BRANCH  10  11
ATOM     11  O   UNL     1      -7.607  -9.454  89.485  1.00  0.00    -0.462 OA
BRANCH  11  12
ATOM     12  C   UNL     1      -8.569 -10.410  89.148  1.00  0.00     0.302 C 
ATOM     13  O   UNL     1      -8.270 -11.402  88.428  1.00  0.00    -0.253 OA
ATOM     14  C   UNL     1      -9.954 -10.280  89.685  1.00  0.00     0.139 C 
ENDBRANCH  11  12
ENDBRANCH  10  11
ENDBRANCH   2  10
TORSDOF 6
ENDMDL
MODEL 4
REMARK VINA RESULT:    -3.892      3.484      6.132
REMARK INTER + INTRA:          -6.018
REMARK INTER:                  -5.306
REMARK INTRA:                  -0.713
REMARK UNBOUND:                -0.761
REMARK SMILES CC(=O)OCC=C(C)CCC=C(C)C
REMARK SMILES IDX 7 1 6 2 8 3 9 4 10 5 11 6 13 7 12 8 14 9 5 10 4 11 2 12 3 13
REMARK SMILES IDX 1 14
REMARK H PARENT
REMARK Flexibility Score: inf
ROOT
ATOM      1  C   UNL     1      -8.078  -8.292  92.634  1.00  0.00    -0.074 C 
ATOM      2  C   UNL     1      -7.493  -8.094  91.432  1.00  0.00     0.013 C 
ATOM      3  C   UNL     1      -7.210  -8.264  93.866  1.00  0.00     0.039 C 
ENDROOT
BRANCH   1   4
ATOM      4  C   UNL     1      -9.562  -8.579  92.796  1.00  0.00     0.034 C 
BRANCH   4   5
ATOM      5  C   UNL     1      -9.835 -10.070  93.046  1.00  0.00     0.032 C 
BRANCH   5   6
ATOM      6  C   UNL     1     -11.301 -10.408  92.923  1.00  0.00    -0.028 C 
ATOM      7  C   UNL     1     -11.325 -11.812  94.996  1.00  0.00     0.039 C 
ATOM      8  C   UNL     1     -11.989 -11.170  93.800  1.00  0.00    -0.080 C 
ATOM      9  C   UNL     1     -13.461 -11.386  93.563  1.00  0.00     0.039 C 
ENDBRANCH   5   6
ENDBRANCH   4   5
ENDBRANCH   1   4
BRANCH   2  10
ATOM     10  C   UNL     1      -8.237  -8.080  90.121  1.00  0.00     0.260 C 
BRANCH  10  11
ATOM     11  O   UNL     1      -7.697  -9.052  89.227  1.00  0.00    -0.462 OA
BRANCH  11  12
ATOM     12  C   UNL     1      -8.242 -10.329  89.063  1.00  0.00     0.302 C 
ATOM     13  O   UNL     1      -7.520 -11.298  88.702  1.00  0.00    -0.253 OA
ATOM     14  C   UNL     1      -9.685 -10.556  89.364  1.00  0.00     0.139 C 
ENDBRANCH  11  12
ENDBRANCH  10  11
ENDBRANCH   2  10
TORSDOF 6
ENDMDL
MODEL 5
REMARK VINA RESULT:    -3.850      2.552      4.538
REMARK INTER + INTRA:          -5.962
REMARK INTER:                  -5.075
REMARK INTRA:                  -0.887
REMARK UNBOUND:                -0.761
REMARK SMILES CC(=O)OCC=C(C)CCC=C(C)C
REMARK SMILES IDX 7 1 6 2 8 3 9 4 10 5 11 6 13 7 12 8 14 9 5 10 4 11 2 12 3 13
REMARK SMILES IDX 1 14
REMARK H PARENT
REMARK Flexibility Score: inf
ROOT
ATOM      1  C   UNL     1     -13.914 -10.628  94.896  1.00  0.00    -0.074 C 
ATOM      2  C   UNL     1     -14.331  -9.543  95.587  1.00  0.00     0.013 C 
ATOM      3  C   UNL     1     -14.594 -10.949  93.591  1.00  0.00     0.039 C 
ENDROOT
BRANCH   1   4
ATOM      4  C   UNL     1     -12.819 -11.557  95.395  1.00  0.00     0.034 C 
BRANCH   4   5
ATOM      5  C   UNL     1     -11.892 -12.014  94.259  1.00  0.00     0.032 C 
BRANCH   5   6
ATOM      6  C   UNL     1     -10.708 -11.093  94.086  1.00  0.00    -0.028 C 
ATOM      7  C   UNL     1     -11.455 -10.279  91.839  1.00  0.00     0.039 C 
ATOM      8  C   UNL     1     -10.508 -10.294  93.016  1.00  0.00    -0.080 C 
ATOM      9  C   UNL     1      -9.296  -9.398  93.005  1.00  0.00     0.039 C 
ENDBRANCH   5   6
ENDBRANCH   4   5
ENDBRANCH   1   4
BRANCH   2  10
ATOM     10  C   UNL     1     -13.734  -9.093  96.896  1.00  0.00     0.260 C 
BRANCH  10  11
ATOM     11  O   UNL     1     -14.651  -9.310  97.966  1.00  0.00    -0.462 OA
BRANCH  11  12
ATOM     12  C   UNL     1     -14.302  -9.957  99.156  1.00  0.00     0.302 C 
ATOM     13  O   UNL     1     -14.565  -9.438 100.275  1.00  0.00    -0.253 OA
ATOM     14  C   UNL     1     -13.654 -11.299  99.099  1.00  0.00     0.139 C 
ENDBRANCH  11  12
ENDBRANCH  10  11
ENDBRANCH   2  10
TORSDOF 6
ENDMDL
MODEL 6
REMARK VINA RESULT:    -3.837      2.629      6.479
REMARK INTER + INTRA:          -5.944
REMARK INTER:                  -5.279
REMARK INTRA:                  -0.664
REMARK UNBOUND:                -0.761
REMARK SMILES CC(=O)OCC=C(C)CCC=C(C)C
REMARK SMILES IDX 7 1 6 2 8 3 9 4 10 5 11 6 13 7 12 8 14 9 5 10 4 11 2 12 3 13
REMARK SMILES IDX 1 14
REMARK H PARENT
REMARK Flexibility Score: inf
ROOT
ATOM      1  C   UNL     1     -11.130 -10.880  93.417  1.00  0.00    -0.074 C 
ATOM      2  C   UNL     1     -10.063 -10.214  92.922  1.00  0.00     0.013 C 
ATOM      3  C   UNL     1     -10.884 -12.002  94.392  1.00  0.00     0.039 C 
ENDROOT
BRANCH   1   4
ATOM      4  C   UNL     1     -12.561 -10.574  93.005  1.00  0.00     0.034 C 
BRANCH   4   5
ATOM      5  C   UNL     1     -13.582 -11.262  93.923  1.00  0.00     0.032 C 
BRANCH   5   6
ATOM      6  C   UNL     1     -14.357 -10.270  94.756  1.00  0.00    -0.028 C 
ATOM      7  C   UNL     1     -13.247 -10.945  96.897  1.00  0.00     0.039 C 
ATOM      8  C   UNL     1     -14.204 -10.101  96.087  1.00  0.00    -0.080 C 
ATOM      9  C   UNL     1     -15.023  -9.040  96.775  1.00  0.00     0.039 C 
ENDBRANCH   5   6
ENDBRANCH   4   5
ENDBRANCH   1   4
BRANCH   2  10
ATOM     10  C   UNL     1     -10.158  -9.064  91.953  1.00  0.00     0.260 C 
BRANCH  10  11
ATOM     11  O   UNL     1     -10.196  -9.542  90.609  1.00  0.00    -0.462 OA
BRANCH  11  12
ATOM     12  C   UNL     1      -9.053  -9.918  89.897  1.00  0.00     0.302 C 
ATOM     13  O   UNL     1      -9.041 -10.971  89.203  1.00  0.00    -0.253 OA
ATOM     14  C   UNL     1      -7.849  -9.039  89.922  1.00  0.00     0.139 C 
ENDBRANCH  11  12
ENDBRANCH  10  11
ENDBRANCH   2  10
TORSDOF 6
ENDMDL
MODEL 7
REMARK VINA RESULT:    -3.808      2.850      6.263
REMARK INTER + INTRA:          -5.905
REMARK INTER:                  -5.025
REMARK INTRA:                  -0.880
REMARK UNBOUND:                -0.761
REMARK SMILES CC(=O)OCC=C(C)CCC=C(C)C
REMARK SMILES IDX 7 1 6 2 8 3 9 4 10 5 11 6 13 7 12 8 14 9 5 10 4 11 2 12 3 13
REMARK SMILES IDX 1 14
REMARK H PARENT
REMARK Flexibility Score: inf
ROOT
ATOM      1  C   UNL     1     -10.897  -9.354  93.064  1.00  0.00    -0.074 C 
ATOM      2  C   UNL     1     -11.281  -9.182  91.779  1.00  0.00     0.013 C 
ATOM      3  C   UNL     1     -11.095  -8.215  94.030  1.00  0.00     0.039 C 
ENDROOT
BRANCH   1   4
ATOM      4  C   UNL     1     -10.241 -10.630  93.568  1.00  0.00     0.034 C 
BRANCH   4   5
ATOM      5  C   UNL     1     -11.278 -11.685  93.980  1.00  0.00     0.032 C 
BRANCH   5   6
ATOM      6  C   UNL     1     -11.681 -11.550  95.429  1.00  0.00    -0.028 C 
ATOM      7  C   UNL     1     -13.940 -10.615  94.890  1.00  0.00     0.039 C 
ATOM      8  C   UNL     1     -12.878 -11.092  95.853  1.00  0.00    -0.080 C 
ATOM      9  C   UNL     1     -13.149 -11.054  97.335  1.00  0.00     0.039 C 
ENDBRANCH   5   6
ENDBRANCH   4   5
ENDBRANCH   1   4
BRANCH   2  10
ATOM     10  C   UNL     1     -11.158 -10.237  90.710  1.00  0.00     0.260 C 
BRANCH  10  11
ATOM     11  O   UNL     1     -10.328  -9.777  89.645  1.00  0.00    -0.462 OA
BRANCH  11  12
ATOM     12  C   UNL     1      -8.968 -10.084  89.546  1.00  0.00     0.302 C 
ATOM     13  O   UNL     1      -8.587 -11.182  89.054  1.00  0.00    -0.253 OA
ATOM     14  C   UNL     1      -7.955  -9.081  89.983  1.00  0.00     0.139 C 
ENDBRANCH  11  12
ENDBRANCH  10  11
ENDBRANCH   2  10
TORSDOF 6
ENDMDL
MODEL 8
REMARK VINA RESULT:    -3.804      3.837      5.210
REMARK INTER + INTRA:          -5.899
REMARK INTER:                  -4.788
REMARK INTRA:                  -1.110
REMARK UNBOUND:                -0.761
REMARK SMILES CC(=O)OCC=C(C)CCC=C(C)C
REMARK SMILES IDX 7 1 6 2 8 3 9 4 10 5 11 6 13 7 12 8 14 9 5 10 4 11 2 12 3 13
REMARK SMILES IDX 1 14
REMARK H PARENT
REMARK Flexibility Score: inf
ROOT
ATOM      1  C   UNL     1     -12.219  -9.680  96.408  1.00  0.00    -0.074 C 
ATOM      2  C   UNL     1     -13.374  -9.159  96.879  1.00  0.00     0.013 C 
ATOM      3  C   UNL     1     -11.202  -8.743  95.810  1.00  0.00     0.039 C 
ENDROOT
BRANCH   1   4
ATOM      4  C   UNL     1     -11.918 -11.170  96.419  1.00  0.00     0.034 C 
BRANCH   4   5
ATOM      5  C   UNL     1     -11.773 -11.738  95.000  1.00  0.00     0.032 C 
BRANCH   5   6
ATOM      6  C   UNL     1     -13.109 -12.065  94.379  1.00  0.00    -0.028 C 
ATOM      7  C   UNL     1     -13.044 -10.120  92.803  1.00  0.00     0.039 C 
ATOM      8  C   UNL     1     -13.684 -11.362  93.379  1.00  0.00    -0.080 C 
ATOM      9  C   UNL     1     -15.006 -11.837  92.834  1.00  0.00     0.039 C 
ENDBRANCH   5   6
ENDBRANCH   4   5
ENDBRANCH   1   4
BRANCH   2  10
ATOM     10  C   UNL     1     -14.472  -9.972  97.516  1.00  0.00     0.260 C 
BRANCH  10  11
ATOM     11  O   UNL     1     -14.378  -9.916  98.938  1.00  0.00    -0.462 OA
BRANCH  11  12
ATOM     12  C   UNL     1     -13.543 -10.752  99.685  1.00  0.00     0.302 C 
ATOM     13  O   UNL     1     -13.759 -11.994  99.745  1.00  0.00    -0.253 OA
ATOM     14  C   UNL     1     -12.355 -10.176 100.379  1.00  0.00     0.139 C 
ENDBRANCH  11  12
ENDBRANCH  10  11
ENDBRANCH   2  10
TORSDOF 6
ENDMDL
MODEL 9
REMARK VINA RESULT:    -3.798      4.402      5.664
REMARK INTER + INTRA:          -5.891
REMARK INTER:                  -5.138
REMARK INTRA:                  -0.753
REMARK UNBOUND:                -0.761
REMARK SMILES CC(=O)OCC=C(C)CCC=C(C)C
REMARK SMILES IDX 7 1 6 2 8 3 9 4 10 5 11 6 13 7 12 8 14 9 5 10 4 11 2 12 3 13
REMARK SMILES IDX 1 14
REMARK H PARENT
REMARK Flexibility Score: inf
ROOT
ATOM      1  C   UNL     1      -9.973 -10.770  88.802  1.00  0.00    -0.074 C 
ATOM      2  C   UNL     1     -11.238 -10.650  88.341  1.00  0.00     0.013 C 
ATOM      3  C   UNL     1      -9.041 -11.719  88.094  1.00  0.00     0.039 C 
ENDROOT
BRANCH   1   4
ATOM      4  C   UNL     1      -9.461 -10.020  90.021  1.00  0.00     0.034 C 
BRANCH   4   5
ATOM      5  C   UNL     1      -8.018  -9.529  89.829  1.00  0.00     0.032 C 
BRANCH   5   6
ATOM      6  C   UNL     1      -7.878  -8.052  90.110  1.00  0.00    -0.028 C 
ATOM      7  C   UNL     1      -7.455  -8.385  92.556  1.00  0.00     0.039 C 
ATOM      8  C   UNL     1      -7.606  -7.525  91.323  1.00  0.00    -0.080 C 
ATOM      9  C   UNL     1      -7.456  -6.030  91.439  1.00  0.00     0.039 C 
ENDBRANCH   5   6
ENDBRANCH   4   5
ENDBRANCH   1   4
BRANCH   2  10
ATOM     10  C   UNL     1     -12.272  -9.730  88.939  1.00  0.00     0.260 C 
BRANCH  10  11
ATOM     11  O   UNL     1     -12.496  -8.607  88.088  1.00  0.00    -0.462 OA
BRANCH  11  12
ATOM     12  C   UNL     1     -12.358  -7.282  88.516  1.00  0.00     0.302 C 
ATOM     13  O   UNL     1     -13.367  -6.605  88.856  1.00  0.00    -0.253 OA
ATOM     14  C   UNL     1     -10.998  -6.680  88.614  1.00  0.00     0.139 C 
ENDBRANCH  11  12
ENDBRANCH  10  11
ENDBRANCH   2  10
TORSDOF 6
ENDMDL
