MODEL 1
REMARK VINA RESULT:    -3.151      0.000      0.000
REMARK INTER + INTRA:          -4.901
REMARK INTER:                  -4.256
REMARK INTRA:                  -0.645
REMARK UNBOUND:                -0.645
REMARK SMILES O=C[C@@H](O)[C@H](O)[C@@H](O)CO
REMARK SMILES IDX 7 1 9 2 10 3 5 5 3 6 2 7 1 8 4 9 6 11 8 13
REMARK H PARENT 10 4 4 10 6 12 8 14
REMARK Flexibility Score: inf
ROOT
ATOM      1  C   UNL     1     -10.977  31.273 106.399  1.00  0.00     0.171 C 
ENDROOT
BRANCH   1   2
ATOM      2  C   UNL     1     -12.056  31.473 107.477  1.00  0.00     0.190 C 
BRANCH   2   3
ATOM      3  O   UNL     1     -12.792  30.293 107.659  1.00  0.00    -0.394 OA
ATOM      4  H   UNL     1     -13.618  30.398 107.117  1.00  0.00     0.210 HD
ENDBRANCH   2   3
ENDBRANCH   1   2
BRANCH   1   5
ATOM      5  C   UNL     1      -9.858  30.277 106.805  1.00  0.00     0.181 C 
BRANCH   5   6
ATOM      6  C   UNL     1      -8.457  30.671 106.247  1.00  0.00     0.209 C 
BRANCH   6   7
ATOM      7  C   UNL     1      -7.556  29.480 106.041  1.00  0.00     0.258 C 
ATOM      8  O   UNL     1      -7.351  28.703 106.961  1.00  0.00    -0.300 OA
ENDBRANCH   6   7
BRANCH   6   9
ATOM      9  O   UNL     1      -8.578  31.371 105.033  1.00  0.00    -0.383 OA
ATOM     10  H   UNL     1      -8.061  30.869 104.347  1.00  0.00     0.211 HD
ENDBRANCH   6   9
ENDBRANCH   5   6
BRANCH   5  11
ATOM     11  O   UNL     1     -10.215  29.013 106.299  1.00  0.00    -0.387 OA
ATOM     12  H   UNL     1      -9.829  28.329 106.908  1.00  0.00     0.211 HD
ENDBRANCH   5  11
ENDBRANCH   1   5
BRANCH   1  13
ATOM     13  O   UNL     1     -11.588  30.808 105.221  1.00  0.00    -0.388 OA
ATOM     14  H   UNL     1     -11.090  29.997 104.937  1.00  0.00     0.211 HD
ENDBRANCH   1  13
TORSDOF 8
ENDMDL
MODEL 2
REMARK VINA RESULT:    -2.992      2.186      3.057
REMARK INTER + INTRA:          -4.686
REMARK INTER:                  -3.817
REMARK INTRA:                  -0.869
REMARK UNBOUND:                -0.645
REMARK SMILES O=C[C@@H](O)[C@H](O)[C@@H](O)CO
REMARK SMILES IDX 7 1 9 2 10 3 5 5 3 6 2 7 1 8 4 9 6 11 8 13
REMARK H PARENT 10 4 4 10 6 12 8 14
REMARK Flexibility Score: inf
ROOT
ATOM      1  C   UNL     1      -8.885  30.128 106.724  1.00  0.00     0.171 C 
ENDROOT
BRANCH   1   2
ATOM      2  C   UNL     1      -9.511  28.735 106.539  1.00  0.00     0.190 C 
BRANCH   2   3
ATOM      3  O   UNL     1      -9.025  28.131 105.372  1.00  0.00    -0.394 OA
ATOM      4  H   UNL     1      -8.101  27.831 105.581  1.00  0.00     0.210 HD
ENDBRANCH   2   3
ENDBRANCH   1   2
BRANCH   1   5
ATOM      5  C   UNL     1      -7.336  30.115 106.822  1.00  0.00     0.181 C 
BRANCH   5   6
ATOM      6  C   UNL     1      -6.639  30.713 105.563  1.00  0.00     0.209 C 
BRANCH   6   7
ATOM      7  C   UNL     1      -5.134  30.675 105.657  1.00  0.00     0.258 C 
ATOM      8  O   UNL     1      -4.595  30.106 106.594  1.00  0.00    -0.300 OA
ENDBRANCH   6   7
BRANCH   6   9
ATOM      9  O   UNL     1      -7.043  30.039 104.397  1.00  0.00    -0.383 OA
ATOM     10  H   UNL     1      -7.272  29.105 104.655  1.00  0.00     0.211 HD
ENDBRANCH   6   9
ENDBRANCH   5   6
BRANCH   5  11
ATOM     11  O   UNL     1      -6.935  28.774 106.976  1.00  0.00    -0.387 OA
ATOM     12  H   UNL     1      -6.284  28.743 107.726  1.00  0.00     0.211 HD
ENDBRANCH   5  11
ENDBRANCH   1   5
BRANCH   1  13
ATOM     13  O   UNL     1      -9.261  30.946 105.644  1.00  0.00    -0.388 OA
ATOM     14  H   UNL     1      -8.465  31.487 105.399  1.00  0.00     0.211 HD
ENDBRANCH   1  13
TORSDOF 8
ENDMDL
MODEL 3
REMARK VINA RESULT:    -2.934      2.713      3.746
REMARK INTER + INTRA:          -4.608
REMARK INTER:                  -4.494
REMARK INTRA:                  -0.115
REMARK UNBOUND:                -0.645
REMARK SMILES O=C[C@@H](O)[C@H](O)[C@@H](O)CO
REMARK SMILES IDX 7 1 9 2 10 3 5 5 3 6 2 7 1 8 4 9 6 11 8 13
REMARK H PARENT 10 4 4 10 6 12 8 14
REMARK Flexibility Score: inf
ROOT
ATOM      1  C   UNL     1      -7.881  29.925 106.079  1.00  0.00     0.171 C 
ENDROOT
BRANCH   1   2
ATOM      2  C   UNL     1      -8.155  28.418 106.221  1.00  0.00     0.190 C 
BRANCH   2   3
ATOM      3  O   UNL     1      -9.181  28.022 105.352  1.00  0.00    -0.394 OA
ATOM      4  H   UNL     1      -9.470  27.123 105.659  1.00  0.00     0.210 HD
ENDBRANCH   2   3
ENDBRANCH   1   2
BRANCH   1   5
ATOM      5  C   UNL     1      -6.909  30.283 104.923  1.00  0.00     0.181 C 
BRANCH   5   6
ATOM      6  C   UNL     1      -5.564  30.892 105.422  1.00  0.00     0.209 C 
BRANCH   6   7
ATOM      7  C   UNL     1      -5.159  30.377 106.780  1.00  0.00     0.258 C 
ATOM      8  O   UNL     1      -4.279  29.535 106.876  1.00  0.00    -0.300 OA
ENDBRANCH   6   7
BRANCH   6   9
ATOM      9  O   UNL     1      -4.527  30.639 104.506  1.00  0.00    -0.383 OA
ATOM     10  H   UNL     1      -4.791  31.044 103.637  1.00  0.00     0.211 HD
ENDBRANCH   6   9
ENDBRANCH   5   6
BRANCH   5  11
ATOM     11  O   UNL     1      -7.561  31.219 104.099  1.00  0.00    -0.387 OA
ATOM     12  H   UNL     1      -8.078  31.827 104.691  1.00  0.00     0.211 HD
ENDBRANCH   5  11
ENDBRANCH   1   5
BRANCH   1  13
ATOM     13  O   UNL     1      -9.100  30.593 105.866  1.00  0.00    -0.388 OA
ATOM     14  H   UNL     1      -9.348  30.448 104.915  1.00  0.00     0.211 HD
ENDBRANCH   1  13
TORSDOF 8
ENDMDL
MODEL 4
REMARK VINA RESULT:    -2.926      2.231      4.767
REMARK INTER + INTRA:          -4.598
REMARK INTER:                  -3.707
REMARK INTRA:                  -0.891
REMARK UNBOUND:                -0.645
REMARK SMILES O=C[C@@H](O)[C@H](O)[C@@H](O)CO
REMARK SMILES IDX 7 1 9 2 10 3 5 5 3 6 2 7 1 8 4 9 6 11 8 13
REMARK H PARENT 10 4 4 10 6 12 8 14
REMARK Flexibility Score: inf
ROOT
ATOM      1  C   UNL     1      -6.624  30.476 104.449  1.00  0.00     0.171 C 
ENDROOT
BRANCH   1   2
ATOM      2  C   UNL     1      -5.270  31.103 104.076  1.00  0.00     0.190 C 
BRANCH   2   3
ATOM      3  O   UNL     1      -4.352  30.946 105.124  1.00  0.00    -0.394 OA
ATOM      4  H   UNL     1      -4.659  31.549 105.851  1.00  0.00     0.210 HD
ENDBRANCH   2   3
ENDBRANCH   1   2
BRANCH   1   5
ATOM      5  C   UNL     1      -6.764  30.129 105.955  1.00  0.00     0.181 C 
BRANCH   5   6
ATOM      6  C   UNL     1      -7.951  29.164 106.253  1.00  0.00     0.209 C 
BRANCH   6   7
ATOM      7  C   UNL     1      -9.154  29.878 106.817  1.00  0.00     0.258 C 
ATOM      8  O   UNL     1      -9.622  30.842 106.232  1.00  0.00    -0.300 OA
ENDBRANCH   6   7
BRANCH   6   9
ATOM      9  O   UNL     1      -8.333  28.466 105.094  1.00  0.00    -0.383 OA
ATOM     10  H   UNL     1      -8.285  29.103 104.331  1.00  0.00     0.211 HD
ENDBRANCH   6   9
ENDBRANCH   5   6
BRANCH   5  11
ATOM     11  O   UNL     1      -6.968  31.337 106.649  1.00  0.00    -0.387 OA
ATOM     12  H   UNL     1      -6.344  31.344 107.423  1.00  0.00     0.211 HD
ENDBRANCH   5  11
ENDBRANCH   1   5
BRANCH   1  13
ATOM     13  O   UNL     1      -7.653  31.367 104.095  1.00  0.00    -0.388 OA
ATOM     14  H   UNL     1      -8.259  31.436 104.879  1.00  0.00     0.211 HD
ENDBRANCH   1  13
TORSDOF 8
ENDMDL
MODEL 5
REMARK VINA RESULT:    -2.916      1.206      4.167
REMARK INTER + INTRA:          -4.583
REMARK INTER:                  -3.913
REMARK INTRA:                  -0.671
REMARK UNBOUND:                -0.645
REMARK SMILES O=C[C@@H](O)[C@H](O)[C@@H](O)CO
REMARK SMILES IDX 7 1 9 2 10 3 5 5 3 6 2 7 1 8 4 9 6 11 8 13
REMARK H PARENT 10 4 4 10 6 12 8 14
REMARK Flexibility Score: inf
ROOT
ATOM      1  C   UNL     1      -9.387  29.287 106.661  1.00  0.00     0.171 C 
ENDROOT
BRANCH   1   2
ATOM      2  C   UNL     1      -7.985  29.568 106.093  1.00  0.00     0.190 C 
BRANCH   2   3
ATOM      3  O   UNL     1      -8.047  30.553 105.098  1.00  0.00    -0.394 OA
ATOM      4  H   UNL     1      -7.133  30.614 104.714  1.00  0.00     0.210 HD
ENDBRANCH   2   3
ENDBRANCH   1   2
BRANCH   1   5
ATOM      5  C   UNL     1     -10.295  30.543 106.745  1.00  0.00     0.181 C 
BRANCH   5   6
ATOM      6  C   UNL     1     -11.242  30.530 107.982  1.00  0.00     0.209 C 
BRANCH   6   7
ATOM      7  C   UNL     1     -12.182  31.710 108.008  1.00  0.00     0.258 C 
ATOM      8  O   UNL     1     -11.881  32.743 107.430  1.00  0.00    -0.300 OA
ENDBRANCH   6   7
BRANCH   6   9
ATOM      9  O   UNL     1     -11.995  29.343 108.027  1.00  0.00    -0.383 OA
ATOM     10  H   UNL     1     -12.257  29.192 108.974  1.00  0.00     0.211 HD
ENDBRANCH   6   9
ENDBRANCH   5   6
BRANCH   5  11
ATOM     11  O   UNL     1     -11.071  30.581 105.571  1.00  0.00    -0.387 OA
ATOM     12  H   UNL     1     -11.106  29.657 105.208  1.00  0.00     0.211 HD
ENDBRANCH   5  11
ENDBRANCH   1   5
BRANCH   1  13
ATOM     13  O   UNL     1     -10.023  28.325 105.856  1.00  0.00    -0.388 OA
ATOM     14  H   UNL     1     -10.665  28.812 105.276  1.00  0.00     0.211 HD
ENDBRANCH   1  13
TORSDOF 8
ENDMDL
MODEL 6
REMARK VINA RESULT:    -2.896      3.163      4.392
REMARK INTER + INTRA:          -4.556
REMARK INTER:                  -3.632
REMARK INTRA:                  -0.924
REMARK UNBOUND:                -0.645
REMARK SMILES O=C[C@@H](O)[C@H](O)[C@@H](O)CO
REMARK SMILES IDX 7 1 9 2 10 3 5 5 3 6 2 7 1 8 4 9 6 11 8 13
REMARK H PARENT 10 4 4 10 6 12 8 14
REMARK Flexibility Score: inf
ROOT
ATOM      1  C   UNL     1      -6.917  29.816 106.103  1.00  0.00     0.171 C 
ENDROOT
BRANCH   1   2
ATOM      2  C   UNL     1      -8.069  28.839 106.391  1.00  0.00     0.190 C 
BRANCH   2   3
ATOM      3  O   UNL     1      -8.527  28.256 105.201  1.00  0.00    -0.394 OA
ATOM      4  H   UNL     1      -8.632  29.001 104.552  1.00  0.00     0.210 HD
ENDBRANCH   2   3
ENDBRANCH   1   2
BRANCH   1   5
ATOM      5  C   UNL     1      -6.872  30.322 104.636  1.00  0.00     0.181 C 
BRANCH   5   6
ATOM      6  C   UNL     1      -5.527  31.021 104.271  1.00  0.00     0.209 C 
BRANCH   6   7
ATOM      7  C   UNL     1      -5.649  32.523 104.210  1.00  0.00     0.258 C 
ATOM      8  O   UNL     1      -5.887  33.158 105.226  1.00  0.00    -0.300 OA
ENDBRANCH   6   7
BRANCH   6   9
ATOM      9  O   UNL     1      -4.518  30.679 105.189  1.00  0.00    -0.383 OA
ATOM     10  H   UNL     1      -3.672  30.575 104.677  1.00  0.00     0.211 HD
ENDBRANCH   6   9
ENDBRANCH   5   6
BRANCH   5  11
ATOM     11  O   UNL     1      -7.926  31.241 104.474  1.00  0.00    -0.387 OA
ATOM     12  H   UNL     1      -7.676  32.069 104.962  1.00  0.00     0.211 HD
ENDBRANCH   5  11
ENDBRANCH   1   5
BRANCH   1  13
ATOM     13  O   UNL     1      -7.033  30.926 106.958  1.00  0.00    -0.388 OA
ATOM     14  H   UNL     1      -8.000  31.045 107.149  1.00  0.00     0.211 HD
ENDBRANCH   1  13
TORSDOF 8
ENDMDL
MODEL 7
REMARK VINA RESULT:    -2.848      1.743      3.788
REMARK INTER + INTRA:          -4.492
REMARK INTER:                  -3.743
REMARK INTRA:                  -0.749
REMARK UNBOUND:                -0.645
REMARK SMILES O=C[C@@H](O)[C@H](O)[C@@H](O)CO
REMARK SMILES IDX 7 1 9 2 10 3 5 5 3 6 2 7 1 8 4 9 6 11 8 13
REMARK H PARENT 10 4 4 10 6 12 8 14
REMARK Flexibility Score: inf
ROOT
ATOM      1  C   UNL     1      -8.986  29.687 106.635  1.00  0.00     0.171 C 
ENDROOT
BRANCH   1   2
ATOM      2  C   UNL     1      -8.071  28.618 106.013  1.00  0.00     0.190 C 
BRANCH   2   3
ATOM      3  O   UNL     1      -8.822  27.709 105.255  1.00  0.00    -0.394 OA
ATOM      4  H   UNL     1      -8.235  27.423 104.507  1.00  0.00     0.210 HD
ENDBRANCH   2   3
ENDBRANCH   1   2
BRANCH   1   5
ATOM      5  C   UNL     1      -8.510  31.144 106.390  1.00  0.00     0.181 C 
BRANCH   5   6
ATOM      6  C   UNL     1      -9.414  32.206 107.084  1.00  0.00     0.209 C 
BRANCH   6   7
ATOM      7  C   UNL     1     -10.300  32.942 106.111  1.00  0.00     0.258 C 
ATOM      8  O   UNL     1     -11.199  32.349 105.534  1.00  0.00    -0.300 OA
ENDBRANCH   6   7
BRANCH   6   9
ATOM      9  O   UNL     1     -10.215  31.614 108.077  1.00  0.00    -0.383 OA
ATOM     10  H   UNL     1     -10.931  31.101 107.615  1.00  0.00     0.211 HD
ENDBRANCH   6   9
ENDBRANCH   5   6
BRANCH   5  11
ATOM     11  O   UNL     1      -8.526  31.364 105.000  1.00  0.00    -0.387 OA
ATOM     12  H   UNL     1      -8.865  30.535 104.571  1.00  0.00     0.211 HD
ENDBRANCH   5  11
ENDBRANCH   1   5
BRANCH   1  13
ATOM     13  O   UNL     1     -10.282  29.542 106.109  1.00  0.00    -0.388 OA
ATOM     14  H   UNL     1     -10.886  30.097 106.669  1.00  0.00     0.211 HD
ENDBRANCH   1  13
TORSDOF 8
ENDMDL
MODEL 8
REMARK VINA RESULT:    -2.813     18.644     19.675
REMARK INTER + INTRA:          -4.445
REMARK INTER:                  -3.470
REMARK INTRA:                  -0.974
REMARK UNBOUND:                -0.645
REMARK SMILES O=C[C@@H](O)[C@H](O)[C@@H](O)CO
REMARK SMILES IDX 7 1 9 2 10 3 5 5 3 6 2 7 1 8 4 9 6 11 8 13
REMARK H PARENT 10 4 4 10 6 12 8 14
REMARK Flexibility Score: inf
ROOT
ATOM      1  C   UNL     1     -19.351  36.503  89.939  1.00  0.00     0.171 C 
ENDROOT
BRANCH   1   2
ATOM      2  C   UNL     1     -18.061  35.725  89.634  1.00  0.00     0.190 C 
BRANCH   2   3
ATOM      3  O   UNL     1     -17.045  36.600  89.224  1.00  0.00    -0.394 OA
ATOM      4  H   UNL     1     -17.449  37.507  89.220  1.00  0.00     0.210 HD
ENDBRANCH   2   3
ENDBRANCH   1   2
BRANCH   1   5
ATOM      5  C   UNL     1     -19.298  37.317  91.259  1.00  0.00     0.181 C 
BRANCH   5   6
ATOM      6  C   UNL     1     -19.221  38.856  91.026  1.00  0.00     0.209 C 
BRANCH   6   7
ATOM      7  C   UNL     1     -19.301  39.645  92.308  1.00  0.00     0.258 C 
ATOM      8  O   UNL     1     -18.328  39.718  93.042  1.00  0.00    -0.300 OA
ENDBRANCH   6   7
BRANCH   6   9
ATOM      9  O   UNL     1     -18.039  39.203  90.347  1.00  0.00    -0.383 OA
ATOM     10  H   UNL     1     -18.215  40.048  89.853  1.00  0.00     0.211 HD
ENDBRANCH   6   9
ENDBRANCH   5   6
BRANCH   5  11
ATOM     11  O   UNL     1     -18.153  36.902  91.966  1.00  0.00    -0.387 OA
ATOM     12  H   UNL     1     -17.438  36.733  91.298  1.00  0.00     0.211 HD
ENDBRANCH   5  11
ENDBRANCH   1   5
BRANCH   1  13
ATOM     13  O   UNL     1     -19.617  37.385  88.877  1.00  0.00    -0.388 OA
ATOM     14  H   UNL     1     -19.222  36.981  88.059  1.00  0.00     0.211 HD
ENDBRANCH   1  13
TORSDOF 8
ENDMDL
MODEL 9
REMARK VINA RESULT:    -2.811      2.531      3.771
REMARK INTER + INTRA:          -4.442
REMARK INTER:                  -3.501
REMARK INTRA:                  -0.941
REMARK UNBOUND:                -0.645
REMARK SMILES O=C[C@@H](O)[C@H](O)[C@@H](O)CO
REMARK SMILES IDX 7 1 9 2 10 3 5 5 3 6 2 7 1 8 4 9 6 11 8 13
REMARK H PARENT 10 4 4 10 6 12 8 14
REMARK Flexibility Score: inf
ROOT
ATOM      1  C   UNL     1      -8.120  29.913 106.522  1.00  0.00     0.171 C 
ENDROOT
BRANCH   1   2
ATOM      2  C   UNL     1      -8.080  28.376 106.487  1.00  0.00     0.190 C 
BRANCH   2   3
ATOM      3  O   UNL     1      -8.742  27.894 105.349  1.00  0.00    -0.394 OA
ATOM      4  H   UNL     1      -8.226  27.101 105.045  1.00  0.00     0.210 HD
ENDBRANCH   2   3
ENDBRANCH   1   2
BRANCH   1   5
ATOM      5  C   UNL     1      -6.980  30.592 105.718  1.00  0.00     0.181 C 
BRANCH   5   6
ATOM      6  C   UNL     1      -6.990  32.146 105.836  1.00  0.00     0.209 C 
BRANCH   6   7
ATOM      7  C   UNL     1      -7.493  32.822 104.585  1.00  0.00     0.258 C 
ATOM      8  O   UNL     1      -8.647  32.652 104.221  1.00  0.00    -0.300 OA
ENDBRANCH   6   7
BRANCH   6   9
ATOM      9  O   UNL     1      -7.772  32.562 106.928  1.00  0.00    -0.383 OA
ATOM     10  H   UNL     1      -7.545  31.974 107.698  1.00  0.00     0.211 HD
ENDBRANCH   6   9
ENDBRANCH   5   6
BRANCH   5  11
ATOM     11  O   UNL     1      -7.146  30.232 104.366  1.00  0.00    -0.387 OA
ATOM     12  H   UNL     1      -7.947  29.648 104.311  1.00  0.00     0.211 HD
ENDBRANCH   5  11
ENDBRANCH   1   5
BRANCH   1  13
ATOM     13  O   UNL     1      -9.355  30.350 106.011  1.00  0.00    -0.388 OA
ATOM     14  H   UNL     1      -9.158  31.061 105.346  1.00  0.00     0.211 HD
ENDBRANCH   1  13
TORSDOF 8
ENDMDL
