MODEL 1
REMARK VINA RESULT:    -2.481      0.000      0.000
REMARK INTER + INTRA:          -4.085
REMARK INTER:                  -3.786
REMARK INTRA:                  -0.299
REMARK UNBOUND:                -0.299
REMARK SMILES CC1=CCC[C@H](C)C(=O)C[C@H](C(C)C)C(=O)C1
REMARK SMILES IDX 8 1 9 2 6 3 7 4 5 5 4 6 3 7 2 8 1 9 10 11 11 12 15 13 16 14
REMARK SMILES IDX 17 15 12 17 13 18 14 19
REMARK H PARENT
REMARK Flexibility Score: 70.00
ROOT
ATOM      1  C   UNL     1      61.015  16.936  -0.054  1.00  0.00     0.136 C 
ATOM      2  O   UNL     1      60.758  18.106  -0.296  1.00  0.00    -0.299 OA
ENDROOT
BRANCH   1   3
ATOM      3  C   UNL     1      60.217  16.222   1.023  1.00  0.00     0.053 C 
ATOM      4  C   UNL     1      59.526  17.231   1.947  1.00  0.00     0.016 C 
BRANCH   3   5
ATOM      5  C   UNL     1      59.201  15.236   0.418  1.00  0.00     0.015 C 
BRANCH   5   6
ATOM      6  C   UNL     1      59.500  13.780   0.816  1.00  0.00     0.028 C 
BRANCH   6   7
ATOM      7  C   UNL     1      59.578  12.900  -0.405  1.00  0.00    -0.028 C 
ATOM      8  C   UNL     1      60.726  12.400  -0.919  1.00  0.00    -0.070 CG0
ATOM      9  C   UNL     1      60.639  11.592  -2.189  1.00  0.00     0.039 C 
ATOM     10  G   UNL     1      62.083  12.604  -0.264  1.00  0.00     0.000 G0
ENDBRANCH   6   7
ENDBRANCH   5   6
ENDBRANCH   3   5
ENDBRANCH   1   3
BRANCH   1  11
ATOM     11  C   UNL     1      62.093  16.247  -0.860  1.00  0.00     0.087 C 
BRANCH  11  12
ATOM     12  C   UNL     1      62.803  15.125  -0.057  1.00  0.00     0.066 C 
BRANCH  12  13
ATOM     13  C   UNL     1      62.810  13.809  -0.825  1.00  0.00     0.140 C 
ATOM     14  O   UNL     1      63.446  13.716  -1.865  1.00  0.00    -0.299 OA
BRANCH  13  15
ATOM     15  C   UNL     1      62.098  12.591  -0.289  1.00  0.00     0.106 CG0
ATOM     16  G   UNL     1      60.733  12.395  -0.929  1.00  0.00     0.000 G0
ENDBRANCH  13  15
ENDBRANCH  12  13
BRANCH  12  17
ATOM     17  C   UNL     1      64.233  15.552   0.400  1.00  0.00    -0.006 C 
ATOM     18  C   UNL     1      64.826  16.622  -0.529  1.00  0.00     0.008 C 
ATOM     19  C   UNL     1      64.310  16.019   1.864  1.00  0.00     0.008 C 
ENDBRANCH  12  17
ENDBRANCH  11  12
ENDBRANCH   1  11
TORSDOF 1
ENDMDL
MODEL 2
REMARK VINA RESULT:    -2.383      2.286      4.763
REMARK INTER + INTRA:          -3.936
REMARK INTER:                  -3.485
REMARK INTRA:                  -0.451
REMARK UNBOUND:                -0.299
REMARK SMILES CC1=CCC[C@H](C)C(=O)C[C@H](C(C)C)C(=O)C1
REMARK SMILES IDX 8 1 9 2 6 3 7 4 5 5 4 6 3 7 2 8 1 9 10 11 11 12 15 13 16 14
REMARK SMILES IDX 17 15 12 17 13 18 14 19
REMARK H PARENT
REMARK Flexibility Score: 70.00
ROOT
ATOM      1  C   UNL     1      61.641  15.462  -0.982  1.00  0.00     0.136 C 
ATOM      2  O   UNL     1      61.164  16.552  -1.263  1.00  0.00    -0.299 OA
ENDROOT
BRANCH   1   3
ATOM      3  C   UNL     1      63.051  15.142  -1.448  1.00  0.00     0.053 C 
ATOM      4  C   UNL     1      63.163  15.274  -2.972  1.00  0.00     0.016 C 
BRANCH   3   5
ATOM      5  C   UNL     1      64.097  16.019  -0.737  1.00  0.00     0.015 C 
BRANCH   5   6
ATOM      6  C   UNL     1      64.652  15.344   0.530  1.00  0.00     0.028 C 
BRANCH   6   7
ATOM      7  C   UNL     1      64.026  15.937   1.766  1.00  0.00    -0.028 C 
ATOM      8  C   UNL     1      63.290  15.240   2.663  1.00  0.00    -0.070 CG0
ATOM      9  C   UNL     1      62.675  15.998   3.813  1.00  0.00     0.039 C 
ATOM     10  G   UNL     1      63.075  13.738   2.568  1.00  0.00     0.000 G0
ENDBRANCH   6   7
ENDBRANCH   5   6
ENDBRANCH   3   5
ENDBRANCH   1   3
BRANCH   1  11
ATOM     11  C   UNL     1      60.817  14.497  -0.160  1.00  0.00     0.087 C 
BRANCH  11  12
ATOM     12  C   UNL     1      61.661  13.310   0.377  1.00  0.00     0.066 C 
BRANCH  12  13
ATOM     13  C   UNL     1      61.777  13.351   1.896  1.00  0.00     0.140 C 
ATOM     14  O   UNL     1      60.824  13.024   2.587  1.00  0.00    -0.299 OA
BRANCH  13  15
ATOM     15  C   UNL     1      63.077  13.725   2.567  1.00  0.00     0.106 CG0
ATOM     16  G   UNL     1      63.263  15.231   2.661  1.00  0.00     0.000 G0
ENDBRANCH  13  15
ENDBRANCH  12  13
BRANCH  12  17
ATOM     17  C   UNL     1      61.128  11.938  -0.140  1.00  0.00    -0.006 C 
ATOM     18  C   UNL     1      60.712  12.014  -1.616  1.00  0.00     0.008 C 
ATOM     19  C   UNL     1      62.102  10.766   0.077  1.00  0.00     0.008 C 
ENDBRANCH  12  17
ENDBRANCH  11  12
ENDBRANCH   1  11
TORSDOF 1
ENDMDL
MODEL 3
REMARK VINA RESULT:    -2.354      1.735      4.046
REMARK INTER + INTRA:          -3.891
REMARK INTER:                  -3.883
REMARK INTRA:                  -0.008
REMARK UNBOUND:                -0.299
REMARK SMILES CC1=CCC[C@H](C)C(=O)C[C@H](C(C)C)C(=O)C1
REMARK SMILES IDX 8 1 9 2 6 3 7 4 5 5 4 6 3 7 2 8 1 9 10 11 11 12 15 13 16 14
REMARK SMILES IDX 17 15 12 17 13 18 14 19
REMARK H PARENT
REMARK Flexibility Score: 70.00
ROOT
ATOM      1  C   UNL     1      62.338  13.549  -1.185  1.00  0.00     0.136 C 
ATOM      2  O   UNL     1      63.216  13.603  -2.034  1.00  0.00    -0.299 OA
ENDROOT
BRANCH   1   3
ATOM      3  C   UNL     1      61.067  12.779  -1.497  1.00  0.00     0.053 C 
ATOM      4  C   UNL     1      61.379  11.301  -1.766  1.00  0.00     0.016 C 
BRANCH   3   5
ATOM      5  C   UNL     1      60.022  12.930  -0.377  1.00  0.00     0.015 C 
BRANCH   5   6
ATOM      6  C   UNL     1      58.945  13.973  -0.728  1.00  0.00     0.028 C 
BRANCH   6   7
ATOM      7  C   UNL     1      58.541  14.753   0.496  1.00  0.00    -0.028 C 
ATOM      8  C   UNL     1      59.128  15.903   0.902  1.00  0.00    -0.070 CG0
ATOM      9  C   UNL     1      58.650  16.524   2.191  1.00  0.00     0.039 C 
ATOM     10  G   UNL     1      60.227  16.595   0.111  1.00  0.00     0.000 G0
ENDBRANCH   6   7
ENDBRANCH   5   6
ENDBRANCH   3   5
ENDBRANCH   1   3
BRANCH   1  11
ATOM     11  C   UNL     1      62.573  14.227   0.147  1.00  0.00     0.087 C 
BRANCH  11  12
ATOM     12  C   UNL     1      62.720  15.765   0.007  1.00  0.00     0.066 C 
BRANCH  12  13
ATOM     13  C   UNL     1      61.592  16.500   0.722  1.00  0.00     0.140 C 
ATOM     14  O   UNL     1      61.808  17.051   1.791  1.00  0.00    -0.299 OA
BRANCH  13  15
ATOM     15  C   UNL     1      60.222  16.619   0.098  1.00  0.00     0.106 CG0
ATOM     16  G   UNL     1      59.154  15.915   0.920  1.00  0.00     0.000 G0
ENDBRANCH  13  15
ENDBRANCH  12  13
BRANCH  12  17
ATOM     17  C   UNL     1      64.129  16.258   0.460  1.00  0.00    -0.006 C 
ATOM     18  C   UNL     1      64.718  15.354   1.553  1.00  0.00     0.008 C 
ATOM     19  C   UNL     1      65.136  16.423  -0.692  1.00  0.00     0.008 C 
ENDBRANCH  12  17
ENDBRANCH  11  12
ENDBRANCH   1  11
TORSDOF 1
ENDMDL
MODEL 4
REMARK VINA RESULT:    -2.273      2.392      4.602
REMARK INTER + INTRA:          -3.767
REMARK INTER:                  -3.330
REMARK INTRA:                  -0.437
REMARK UNBOUND:                -0.299
REMARK SMILES CC1=CCC[C@H](C)C(=O)C[C@H](C(C)C)C(=O)C1
REMARK SMILES IDX 8 1 9 2 6 3 7 4 5 5 4 6 3 7 2 8 1 9 10 11 11 12 15 13 16 14
REMARK SMILES IDX 17 15 12 17 13 18 14 19
REMARK H PARENT
REMARK Flexibility Score: 70.00
ROOT
ATOM      1  C   UNL     1      64.338  16.284   0.660  1.00  0.00     0.136 C 
ATOM      2  O   UNL     1      65.358  16.900   0.386  1.00  0.00    -0.299 OA
ENDROOT
BRANCH   1   3
ATOM      3  C   UNL     1      64.180  15.722   2.061  1.00  0.00     0.053 C 
ATOM      4  C   UNL     1      65.296  14.719   2.374  1.00  0.00     0.016 C 
BRANCH   3   5
ATOM      5  C   UNL     1      64.125  16.839   3.119  1.00  0.00     0.015 C 
BRANCH   5   6
ATOM      6  C   UNL     1      62.785  17.596   3.092  1.00  0.00     0.028 C 
BRANCH   6   7
ATOM      7  C   UNL     1      61.646  16.672   3.434  1.00  0.00    -0.028 C 
ATOM      8  C   UNL     1      60.644  16.341   2.586  1.00  0.00    -0.070 CG0
ATOM      9  C   UNL     1      59.540  15.456   3.107  1.00  0.00     0.039 C 
ATOM     10  G   UNL     1      60.597  16.808   1.140  1.00  0.00     0.000 G0
ENDBRANCH   6   7
ENDBRANCH   5   6
ENDBRANCH   3   5
ENDBRANCH   1   3
BRANCH   1  11
ATOM     11  C   UNL     1      63.270  16.140  -0.401  1.00  0.00     0.087 C 
BRANCH  11  12
ATOM     12  C   UNL     1      62.202  15.079  -0.021  1.00  0.00     0.066 C 
BRANCH  12  13
ATOM     13  C   UNL     1      60.824  15.709   0.140  1.00  0.00     0.140 C 
ATOM     14  O   UNL     1      59.879  15.276  -0.502  1.00  0.00    -0.299 OA
BRANCH  13  15
ATOM     15  C   UNL     1      60.588  16.822   1.134  1.00  0.00     0.106 CG0
ATOM     16  G   UNL     1      60.661  16.333   2.572  1.00  0.00     0.000 G0
ENDBRANCH  13  15
ENDBRANCH  12  13
BRANCH  12  17
ATOM     17  C   UNL     1      62.192  13.881  -1.020  1.00  0.00    -0.006 C 
ATOM     18  C   UNL     1      63.141  14.124  -2.203  1.00  0.00     0.008 C 
ATOM     19  C   UNL     1      62.494  12.520  -0.370  1.00  0.00     0.008 C 
ENDBRANCH  12  17
ENDBRANCH  11  12
ENDBRANCH   1  11
TORSDOF 1
ENDMDL
MODEL 5
REMARK VINA RESULT:    -2.188     11.261     12.648
REMARK INTER + INTRA:          -3.639
REMARK INTER:                  -3.153
REMARK INTRA:                  -0.486
REMARK UNBOUND:                -0.299
REMARK SMILES CC1=CCC[C@H](C)C(=O)C[C@H](C(C)C)C(=O)C1
REMARK SMILES IDX 8 1 9 2 6 3 7 4 5 5 4 6 3 7 2 8 1 9 10 11 11 12 15 13 16 14
REMARK SMILES IDX 17 15 12 17 13 18 14 19
REMARK H PARENT
REMARK Flexibility Score: 70.00
ROOT
ATOM      1  C   UNL     1      57.644   5.867   5.242  1.00  0.00     0.136 C 
ATOM      2  O   UNL     1      58.146   6.954   4.995  1.00  0.00    -0.299 OA
ENDROOT
BRANCH   1   3
ATOM      3  C   UNL     1      56.611   5.775   6.351  1.00  0.00     0.053 C 
ATOM      4  C   UNL     1      57.261   6.012   7.720  1.00  0.00     0.016 C 
BRANCH   3   5
ATOM      5  C   UNL     1      55.440   6.746   6.117  1.00  0.00     0.015 C 
BRANCH   5   6
ATOM      6  C   UNL     1      54.280   6.081   5.354  1.00  0.00     0.028 C 
BRANCH   6   7
ATOM      7  C   UNL     1      54.353   6.409   3.885  1.00  0.00    -0.028 C 
ATOM      8  C   UNL     1      54.587   5.504   2.907  1.00  0.00    -0.070 CG0
ATOM      9  C   UNL     1      54.698   6.007   1.490  1.00  0.00     0.039 C 
ATOM     10  G   UNL     1      54.724   4.013   3.175  1.00  0.00     0.000 G0
ENDBRANCH   6   7
ENDBRANCH   5   6
ENDBRANCH   3   5
ENDBRANCH   1   3
BRANCH   1  11
ATOM     11  C   UNL     1      58.054   4.672   4.411  1.00  0.00     0.087 C 
BRANCH  11  12
ATOM     12  C   UNL     1      56.986   3.546   4.431  1.00  0.00     0.066 C 
BRANCH  12  13
ATOM     13  C   UNL     1      56.156   3.542   3.153  1.00  0.00     0.140 C 
ATOM     14  O   UNL     1      56.638   3.108   2.117  1.00  0.00    -0.299 OA
BRANCH  13  15
ATOM     15  C   UNL     1      54.719   4.004   3.157  1.00  0.00     0.106 CG0
ATOM     16  G   UNL     1      54.595   5.499   2.906  1.00  0.00     0.000 G0
ENDBRANCH  13  15
ENDBRANCH  12  13
BRANCH  12  17
ATOM     17  C   UNL     1      57.618   2.151   4.732  1.00  0.00    -0.006 C 
ATOM     18  C   UNL     1      58.599   2.218   5.911  1.00  0.00     0.008 C 
ATOM     19  C   UNL     1      56.586   1.033   4.963  1.00  0.00     0.008 C 
ENDBRANCH  12  17
ENDBRANCH  11  12
ENDBRANCH   1  11
TORSDOF 1
ENDMDL
MODEL 6
REMARK VINA RESULT:    -2.182     11.444     13.669
REMARK INTER + INTRA:          -3.629
REMARK INTER:                  -3.288
REMARK INTRA:                  -0.341
REMARK UNBOUND:                -0.299
REMARK SMILES CC1=CCC[C@H](C)C(=O)C[C@H](C(C)C)C(=O)C1
REMARK SMILES IDX 8 1 9 2 6 3 7 4 5 5 4 6 3 7 2 8 1 9 10 11 11 12 15 13 16 14
REMARK SMILES IDX 17 15 12 17 13 18 14 19
REMARK H PARENT
REMARK Flexibility Score: 70.00
ROOT
ATOM      1  C   UNL     1      53.918   5.174   4.535  1.00  0.00     0.136 C 
ATOM      2  O   UNL     1      54.068   5.713   5.622  1.00  0.00    -0.299 OA
ENDROOT
BRANCH   1   3
ATOM      3  C   UNL     1      54.046   6.016   3.278  1.00  0.00     0.053 C 
ATOM      4  C   UNL     1      52.867   6.987   3.151  1.00  0.00     0.016 C 
BRANCH   3   5
ATOM      5  C   UNL     1      55.390   6.766   3.233  1.00  0.00     0.015 C 
BRANCH   5   6
ATOM      6  C   UNL     1      56.520   5.895   2.656  1.00  0.00     0.028 C 
BRANCH   6   7
ATOM      7  C   UNL     1      57.413   5.384   3.757  1.00  0.00    -0.028 C 
ATOM      8  C   UNL     1      57.617   4.076   4.036  1.00  0.00    -0.070 CG0
ATOM      9  C   UNL     1      58.488   3.732   5.218  1.00  0.00     0.039 C 
ATOM     10  G   UNL     1      57.022   2.950   3.204  1.00  0.00     0.000 G0
ENDBRANCH   6   7
ENDBRANCH   5   6
ENDBRANCH   3   5
ENDBRANCH   1   3
BRANCH   1  11
ATOM     11  C   UNL     1      53.641   3.688   4.494  1.00  0.00     0.087 C 
BRANCH  11  12
ATOM     12  C   UNL     1      54.387   2.981   3.331  1.00  0.00     0.066 C 
BRANCH  12  13
ATOM     13  C   UNL     1      55.724   2.413   3.790  1.00  0.00     0.140 C 
ATOM     14  O   UNL     1      55.749   1.490   4.591  1.00  0.00    -0.299 OA
BRANCH  13  15
ATOM     15  C   UNL     1      57.025   2.925   3.220  1.00  0.00     0.106 CG0
ATOM     16  G   UNL     1      57.606   4.062   4.045  1.00  0.00     0.000 G0
ENDBRANCH  13  15
ENDBRANCH  12  13
BRANCH  12  17
ATOM     17  C   UNL     1      53.494   1.907   2.635  1.00  0.00    -0.006 C 
ATOM     18  C   UNL     1      52.551   1.223   3.636  1.00  0.00     0.008 C 
ATOM     19  C   UNL     1      52.695   2.440   1.432  1.00  0.00     0.008 C 
ENDBRANCH  12  17
ENDBRANCH  11  12
ENDBRANCH   1  11
TORSDOF 1
ENDMDL
MODEL 7
REMARK VINA RESULT:    -2.098     11.959     13.372
REMARK INTER + INTRA:          -3.501
REMARK INTER:                  -3.143
REMARK INTRA:                  -0.358
REMARK UNBOUND:                -0.299
REMARK SMILES CC1=CCC[C@H](C)C(=O)C[C@H](C(C)C)C(=O)C1
REMARK SMILES IDX 8 1 9 2 6 3 7 4 5 5 4 6 3 7 2 8 1 9 10 11 11 12 15 13 16 14
REMARK SMILES IDX 17 15 12 17 13 18 14 19
REMARK H PARENT
REMARK Flexibility Score: 70.00
ROOT
ATOM      1  C   UNL     1      56.727   4.166   4.127  1.00  0.00     0.136 C 
ATOM      2  O   UNL     1      56.875   4.092   2.916  1.00  0.00    -0.299 OA
ENDROOT
BRANCH   1   3
ATOM      3  C   UNL     1      55.910   3.096   4.829  1.00  0.00     0.053 C 
ATOM      4  C   UNL     1      54.435   3.181   4.419  1.00  0.00     0.016 C 
BRANCH   3   5
ATOM      5  C   UNL     1      56.477   1.688   4.569  1.00  0.00     0.015 C 
BRANCH   5   6
ATOM      6  C   UNL     1      57.484   1.261   5.653  1.00  0.00     0.028 C 
BRANCH   6   7
ATOM      7  C   UNL     1      58.887   1.262   5.104  1.00  0.00    -0.028 C 
ATOM      8  C   UNL     1      59.882   2.069   5.543  1.00  0.00    -0.070 CG0
ATOM      9  C   UNL     1      61.214   1.993   4.840  1.00  0.00     0.039 C 
ATOM     10  G   UNL     1      59.717   3.025   6.713  1.00  0.00     0.000 G0
ENDBRANCH   6   7
ENDBRANCH   5   6
ENDBRANCH   3   5
ENDBRANCH   1   3
BRANCH   1  11
ATOM     11  C   UNL     1      57.388   5.305   4.871  1.00  0.00     0.087 C 
BRANCH  11  12
ATOM     12  C   UNL     1      57.875   4.881   6.283  1.00  0.00     0.066 C 
BRANCH  12  13
ATOM     13  C   UNL     1      59.326   4.418   6.256  1.00  0.00     0.140 C 
ATOM     14  O   UNL     1      60.206   5.196   5.918  1.00  0.00    -0.299 OA
BRANCH  13  15
ATOM     15  C   UNL     1      59.709   3.028   6.705  1.00  0.00     0.106 CG0
ATOM     16  G   UNL     1      59.883   2.073   5.535  1.00  0.00     0.000 G0
ENDBRANCH  13  15
ENDBRANCH  12  13
BRANCH  12  17
ATOM     17  C   UNL     1      57.630   6.000   7.342  1.00  0.00    -0.006 C 
ATOM     18  C   UNL     1      56.347   6.789   7.042  1.00  0.00     0.008 C 
ATOM     19  C   UNL     1      57.613   5.494   8.796  1.00  0.00     0.008 C 
ENDBRANCH  12  17
ENDBRANCH  11  12
ENDBRANCH   1  11
TORSDOF 1
ENDMDL
MODEL 8
REMARK VINA RESULT:    -2.063     10.226     12.330
REMARK INTER + INTRA:          -3.447
REMARK INTER:                  -3.317
REMARK INTRA:                  -0.131
REMARK UNBOUND:                -0.299
REMARK SMILES CC1=CCC[C@H](C)C(=O)C[C@H](C(C)C)C(=O)C1
REMARK SMILES IDX 8 1 9 2 6 3 7 4 5 5 4 6 3 7 2 8 1 9 10 11 11 12 15 13 16 14
REMARK SMILES IDX 17 15 12 17 13 18 14 19
REMARK H PARENT
REMARK Flexibility Score: 70.00
ROOT
ATOM      1  C   UNL     1      58.406   5.414   7.927  1.00  0.00     0.136 C 
ATOM      2  O   UNL     1      59.595   5.645   7.762  1.00  0.00    -0.299 OA
ENDROOT
BRANCH   1   3
ATOM      3  C   UNL     1      57.791   5.693   9.287  1.00  0.00     0.053 C 
ATOM      4  C   UNL     1      58.303   4.694  10.331  1.00  0.00     0.016 C 
BRANCH   3   5
ATOM      5  C   UNL     1      58.043   7.144   9.737  1.00  0.00     0.015 C 
BRANCH   5   6
ATOM      6  C   UNL     1      57.135   8.144   9.000  1.00  0.00     0.028 C 
BRANCH   6   7
ATOM      7  C   UNL     1      57.959   9.136   8.221  1.00  0.00    -0.028 C 
ATOM      8  C   UNL     1      57.896   9.302   6.879  1.00  0.00    -0.070 CG0
ATOM      9  C   UNL     1      58.839  10.292   6.243  1.00  0.00     0.039 C 
ATOM     10  G   UNL     1      56.910   8.550   5.999  1.00  0.00     0.000 G0
ENDBRANCH   6   7
ENDBRANCH   5   6
ENDBRANCH   3   5
ENDBRANCH   1   3
BRANCH   1  11
ATOM     11  C   UNL     1      57.598   4.891   6.761  1.00  0.00     0.087 C 
BRANCH  11  12
ATOM     12  C   UNL     1      56.611   5.951   6.205  1.00  0.00     0.066 C 
BRANCH  12  13
ATOM     13  C   UNL     1      57.349   7.166   5.656  1.00  0.00     0.140 C 
ATOM     14  O   UNL     1      58.290   7.012   4.892  1.00  0.00    -0.299 OA
BRANCH  13  15
ATOM     15  C   UNL     1      56.895   8.567   5.988  1.00  0.00     0.106 CG0
ATOM     16  G   UNL     1      57.891   9.300   6.873  1.00  0.00     0.000 G0
ENDBRANCH  13  15
ENDBRANCH  12  13
BRANCH  12  17
ATOM     17  C   UNL     1      55.624   5.337   5.163  1.00  0.00    -0.006 C 
ATOM     18  C   UNL     1      55.710   3.804   5.141  1.00  0.00     0.008 C 
ATOM     19  C   UNL     1      54.163   5.784   5.345  1.00  0.00     0.008 C 
ENDBRANCH  12  17
ENDBRANCH  11  12
ENDBRANCH   1  11
TORSDOF 1
ENDMDL
MODEL 9
REMARK VINA RESULT:    -2.018     10.103     11.929
REMARK INTER + INTRA:          -3.378
REMARK INTER:                  -3.001
REMARK INTRA:                  -0.377
REMARK UNBOUND:                -0.299
REMARK SMILES CC1=CCC[C@H](C)C(=O)C[C@H](C(C)C)C(=O)C1
REMARK SMILES IDX 8 1 9 2 6 3 7 4 5 5 4 6 3 7 2 8 1 9 10 11 11 12 15 13 16 14
REMARK SMILES IDX 17 15 12 17 13 18 14 19
REMARK H PARENT
REMARK Flexibility Score: 70.00
ROOT
ATOM      1  C   UNL     1      57.509   7.598   6.164  1.00  0.00     0.136 C 
ATOM      2  O   UNL     1      58.390   7.095   5.482  1.00  0.00    -0.299 OA
ENDROOT
BRANCH   1   3
ATOM      3  C   UNL     1      56.577   6.684   6.940  1.00  0.00     0.053 C 
ATOM      4  C   UNL     1      55.692   5.873   5.986  1.00  0.00     0.016 C 
BRANCH   3   5
ATOM      5  C   UNL     1      57.353   5.761   7.897  1.00  0.00     0.015 C 
BRANCH   5   6
ATOM      6  C   UNL     1      57.384   6.312   9.334  1.00  0.00     0.028 C 
BRANCH   6   7
ATOM      7  C   UNL     1      58.764   6.807   9.684  1.00  0.00    -0.028 C 
ATOM      8  C   UNL     1      59.081   8.104   9.906  1.00  0.00    -0.070 CG0
ATOM      9  C   UNL     1      60.525   8.442  10.178  1.00  0.00     0.039 C 
ATOM     10  G   UNL     1      58.047   9.219   9.908  1.00  0.00     0.000 G0
ENDBRANCH   6   7
ENDBRANCH   5   6
ENDBRANCH   3   5
ENDBRANCH   1   3
BRANCH   1  11
ATOM     11  C   UNL     1      57.410   9.105   6.227  1.00  0.00     0.087 C 
BRANCH  11  12
ATOM     12  C   UNL     1      56.848   9.603   7.586  1.00  0.00     0.066 C 
BRANCH  12  13
ATOM     13  C   UNL     1      57.969   9.926   8.567  1.00  0.00     0.140 C 
ATOM     14  O   UNL     1      58.784  10.795   8.293  1.00  0.00    -0.299 OA
BRANCH  13  15
ATOM     15  C   UNL     1      58.053   9.236   9.907  1.00  0.00     0.106 CG0
ATOM     16  G   UNL     1      59.078   8.113   9.912  1.00  0.00     0.000 G0
ENDBRANCH  13  15
ENDBRANCH  12  13
BRANCH  12  17
ATOM     17  C   UNL     1      55.858  10.794   7.404  1.00  0.00    -0.006 C 
ATOM     18  C   UNL     1      55.113  10.710   6.064  1.00  0.00     0.008 C 
ATOM     19  C   UNL     1      54.854  10.957   8.559  1.00  0.00     0.008 C 
ENDBRANCH  12  17
ENDBRANCH  11  12
ENDBRANCH   1  11
TORSDOF 1
ENDMDL
