MODEL 1
REMARK VINA RESULT:    -4.766      0.000      0.000
REMARK INTER + INTRA:         -15.647
REMARK INTER:                 -12.011
REMARK INTRA:                  -3.636
REMARK UNBOUND:                -3.636
REMARK SMILES CCCCCCCCCCCCCCCCCCCCCCCCCCCC(=O)[O-]
REMARK SMILES IDX 15 1 16 2 17 3 18 4 19 5 20 6 21 7 22 8 23 9 24 10 25 11
REMARK SMILES IDX 26 12 27 13 28 14 29 15 30 16 14 17 13 18 12 19 11 20 10 21
REMARK SMILES IDX 9 22 8 23 7 24 6 25 5 26 4 27 3 28 2 29 1 30
REMARK H PARENT
REMARK Flexibility Score: inf
ROOT
ATOM      1  C   UNL     1       7.266  78.280  64.896  1.00  0.00     0.000 C 
ENDROOT
BRANCH   1   2
ATOM      2  C   UNL     1       5.849  78.068  64.325  1.00  0.00     0.000 C 
BRANCH   2   3
ATOM      3  C   UNL     1       5.261  79.315  63.633  1.00  0.00     0.000 C 
BRANCH   3   4
ATOM      4  C   UNL     1       3.727  79.256  63.529  1.00  0.00     0.000 C 
BRANCH   4   5
ATOM      5  C   UNL     1       3.104  80.613  63.165  1.00  0.00     0.000 C 
BRANCH   5   6
ATOM      6  C   UNL     1       4.073  81.785  63.380  1.00  0.00     0.000 C 
BRANCH   6   7
ATOM      7  C   UNL     1       3.544  82.751  64.448  1.00  0.00     0.000 C 
BRANCH   7   8
ATOM      8  C   UNL     1       4.234  84.119  64.338  1.00  0.00     0.000 C 
BRANCH   8   9
ATOM      9  C   UNL     1       3.747  84.936  63.131  1.00  0.00     0.000 C 
BRANCH   9  10
ATOM     10  C   UNL     1       4.898  85.395  62.223  1.00  0.00     0.000 C 
BRANCH  10  11
ATOM     11  C   UNL     1       4.528  86.684  61.478  1.00  0.00     0.000 C 
BRANCH  11  12
ATOM     12  C   UNL     1       3.591  87.561  62.321  1.00  0.00     0.006 C 
BRANCH  12  13
ATOM     13  C   UNL     1       3.287  88.903  61.643  1.00  0.00     0.053 C 
BRANCH  13  14
ATOM     14  C   UNL     1       1.820  89.082  61.401  1.00  0.00     0.041 C 
ATOM     15  O   UNL     1       1.018  89.138  62.370  1.00  0.00    -0.550 OA
ATOM     16  O   UNL     1       1.342  89.215  60.103  1.00  0.00    -0.550 OA
ENDBRANCH  13  14
ENDBRANCH  12  13
ENDBRANCH  11  12
ENDBRANCH  10  11
ENDBRANCH   9  10
ENDBRANCH   8   9
ENDBRANCH   7   8
ENDBRANCH   6   7
ENDBRANCH   5   6
ENDBRANCH   4   5
ENDBRANCH   3   4
ENDBRANCH   2   3
ENDBRANCH   1   2
BRANCH   1  17
ATOM     17  C   UNL     1       7.466  77.712  66.318  1.00  0.00     0.000 C 
BRANCH  17  18
ATOM     18  C   UNL     1       6.349  76.759  66.794  1.00  0.00     0.000 C 
BRANCH  18  19
ATOM     19  C   UNL     1       5.489  77.280  67.962  1.00  0.00     0.000 C 
BRANCH  19  20
ATOM     20  C   UNL     1       5.796  78.737  68.341  1.00  0.00     0.000 C 
BRANCH  20  21
ATOM     21  C   UNL     1       4.505  79.565  68.437  1.00  0.00     0.000 C 
BRANCH  21  22
ATOM     22  C   UNL     1       3.755  79.648  67.097  1.00  0.00    -0.000 C 
BRANCH  22  23
ATOM     23  C   UNL     1       2.467  80.486  67.197  1.00  0.00    -0.000 C 
BRANCH  23  24
ATOM     24  C   UNL     1       1.305  79.878  66.383  1.00  0.00    -0.000 C 
BRANCH  24  25
ATOM     25  C   UNL     1       0.772  78.551  66.956  1.00  0.00    -0.000 C 
BRANCH  25  26
ATOM     26  C   UNL     1       0.496  78.563  68.470  1.00  0.00    -0.000 C 
BRANCH  26  27
ATOM     27  C   UNL     1       1.233  77.473  69.276  1.00  0.00    -0.000 C 
BRANCH  27  28
ATOM     28  C   UNL     1       2.201  76.595  68.459  1.00  0.00    -0.000 C 
BRANCH  28  29
ATOM     29  C   UNL     1       1.878  75.091  68.473  1.00  0.00    -0.003 C 
ATOM     30  C   UNL     1       3.045  74.229  67.996  1.00  0.00     0.004 C 
ENDBRANCH  28  29
ENDBRANCH  27  28
ENDBRANCH  26  27
ENDBRANCH  25  26
ENDBRANCH  24  25
ENDBRANCH  23  24
ENDBRANCH  22  23
ENDBRANCH  21  22
ENDBRANCH  20  21
ENDBRANCH  19  20
ENDBRANCH  18  19
ENDBRANCH  17  18
ENDBRANCH   1  17
TORSDOF 26
ENDMDL
MODEL 2
REMARK VINA RESULT:    -4.691      3.141      9.223
REMARK INTER + INTRA:         -15.458
REMARK INTER:                 -12.196
REMARK INTRA:                  -3.261
REMARK UNBOUND:                -3.636
REMARK SMILES CCCCCCCCCCCCCCCCCCCCCCCCCCCC(=O)[O-]
REMARK SMILES IDX 15 1 16 2 17 3 18 4 19 5 20 6 21 7 22 8 23 9 24 10 25 11
REMARK SMILES IDX 26 12 27 13 28 14 29 15 30 16 14 17 13 18 12 19 11 20 10 21
REMARK SMILES IDX 9 22 8 23 7 24 6 25 5 26 4 27 3 28 2 29 1 30
REMARK H PARENT
REMARK Flexibility Score: inf
ROOT
ATOM      1  C   UNL     1       3.740  82.429  63.665  1.00  0.00     0.000 C 
ENDROOT
BRANCH   1   2
ATOM      2  C   UNL     1       2.839  81.254  64.096  1.00  0.00     0.000 C 
BRANCH   2   3
ATOM      3  C   UNL     1       3.273  79.890  63.522  1.00  0.00     0.000 C 
BRANCH   3   4
ATOM      4  C   UNL     1       4.569  79.370  64.168  1.00  0.00     0.000 C 
BRANCH   4   5
ATOM      5  C   UNL     1       5.192  78.200  63.391  1.00  0.00     0.000 C 
BRANCH   5   6
ATOM      6  C   UNL     1       6.488  77.685  64.035  1.00  0.00     0.000 C 
BRANCH   6   7
ATOM      7  C   UNL     1       6.246  77.242  65.484  1.00  0.00     0.000 C 
BRANCH   7   8
ATOM      8  C   UNL     1       7.227  77.939  66.439  1.00  0.00     0.000 C 
BRANCH   8   9
ATOM      9  C   UNL     1       6.660  78.105  67.858  1.00  0.00     0.000 C 
BRANCH   9  10
ATOM     10  C   UNL     1       5.426  77.226  68.109  1.00  0.00     0.000 C 
BRANCH  10  11
ATOM     11  C   UNL     1       4.285  78.046  68.724  1.00  0.00     0.000 C 
BRANCH  11  12
ATOM     12  C   UNL     1       3.363  78.615  67.636  1.00  0.00     0.006 C 
BRANCH  12  13
ATOM     13  C   UNL     1       3.391  80.149  67.597  1.00  0.00     0.053 C 
BRANCH  13  14
ATOM     14  C   UNL     1       2.182  80.742  68.252  1.00  0.00     0.041 C 
ATOM     15  O   UNL     1       1.346  81.393  67.572  1.00  0.00    -0.550 OA
ATOM     16  O   UNL     1       1.966  80.552  69.611  1.00  0.00    -0.550 OA
ENDBRANCH  13  14
ENDBRANCH  12  13
ENDBRANCH  11  12
ENDBRANCH  10  11
ENDBRANCH   9  10
ENDBRANCH   8   9
ENDBRANCH   7   8
ENDBRANCH   6   7
ENDBRANCH   5   6
ENDBRANCH   4   5
ENDBRANCH   3   4
ENDBRANCH   2   3
ENDBRANCH   1   2
BRANCH   1  17
ATOM     17  C   UNL     1       3.723  83.629  64.636  1.00  0.00     0.000 C 
BRANCH  17  18
ATOM     18  C   UNL     1       4.581  84.832  64.189  1.00  0.00     0.000 C 
BRANCH  18  19
ATOM     19  C   UNL     1       3.860  85.864  63.300  1.00  0.00     0.000 C 
BRANCH  19  20
ATOM     20  C   UNL     1       4.355  85.866  61.846  1.00  0.00     0.000 C 
BRANCH  20  21
ATOM     21  C   UNL     1       4.409  87.296  61.284  1.00  0.00     0.000 C 
BRANCH  21  22
ATOM     22  C   UNL     1       3.571  88.287  62.109  1.00  0.00    -0.000 C 
BRANCH  22  23
ATOM     23  C   UNL     1       3.078  89.479  61.269  1.00  0.00    -0.000 C 
BRANCH  23  24
ATOM     24  C   UNL     1       1.538  89.572  61.224  1.00  0.00    -0.000 C 
BRANCH  24  25
ATOM     25  C   UNL     1       0.838  88.859  62.396  1.00  0.00    -0.000 C 
BRANCH  25  26
ATOM     26  C   UNL     1      -0.109  87.715  61.987  1.00  0.00    -0.000 C 
BRANCH  26  27
ATOM     27  C   UNL     1      -0.476  86.736  63.121  1.00  0.00    -0.000 C 
BRANCH  27  28
ATOM     28  C   UNL     1       0.480  85.539  63.289  1.00  0.00    -0.000 C 
BRANCH  28  29
ATOM     29  C   UNL     1      -0.206  84.210  63.652  1.00  0.00    -0.003 C 
ATOM     30  C   UNL     1       0.097  83.757  65.079  1.00  0.00     0.004 C 
ENDBRANCH  28  29
ENDBRANCH  27  28
ENDBRANCH  26  27
ENDBRANCH  25  26
ENDBRANCH  24  25
ENDBRANCH  23  24
ENDBRANCH  22  23
ENDBRANCH  21  22
ENDBRANCH  20  21
ENDBRANCH  19  20
ENDBRANCH  18  19
ENDBRANCH  17  18
ENDBRANCH   1  17
TORSDOF 26
ENDMDL
MODEL 3
REMARK VINA RESULT:    -4.656      1.162      2.317
REMARK INTER + INTRA:         -15.369
REMARK INTER:                 -11.375
REMARK INTRA:                  -3.994
REMARK UNBOUND:                -3.636
REMARK SMILES CCCCCCCCCCCCCCCCCCCCCCCCCCCC(=O)[O-]
REMARK SMILES IDX 15 1 16 2 17 3 18 4 19 5 20 6 21 7 22 8 23 9 24 10 25 11
REMARK SMILES IDX 26 12 27 13 28 14 29 15 30 16 14 17 13 18 12 19 11 20 10 21
REMARK SMILES IDX 9 22 8 23 7 24 6 25 5 26 4 27 3 28 2 29 1 30
REMARK H PARENT
REMARK Flexibility Score: inf
ROOT
ATOM      1  C   UNL     1       5.341  78.061  63.817  1.00  0.00     0.000 C 
ENDROOT
BRANCH   1   2
ATOM      2  C   UNL     1       4.595  79.118  64.655  1.00  0.00     0.000 C 
BRANCH   2   3
ATOM      3  C   UNL     1       4.074  80.314  63.832  1.00  0.00     0.000 C 
BRANCH   3   4
ATOM      4  C   UNL     1       2.757  79.993  63.104  1.00  0.00     0.000 C 
BRANCH   4   5
ATOM      5  C   UNL     1       1.809  81.201  63.030  1.00  0.00     0.000 C 
BRANCH   5   6
ATOM      6  C   UNL     1       2.552  82.521  62.778  1.00  0.00     0.000 C 
BRANCH   6   7
ATOM      7  C   UNL     1       2.157  83.583  63.811  1.00  0.00     0.000 C 
BRANCH   7   8
ATOM      8  C   UNL     1       3.297  83.821  64.815  1.00  0.00     0.000 C 
BRANCH   8   9
ATOM      9  C   UNL     1       4.418  84.703  64.244  1.00  0.00     0.000 C 
BRANCH   9  10
ATOM     10  C   UNL     1       3.883  85.854  63.380  1.00  0.00     0.000 C 
BRANCH  10  11
ATOM     11  C   UNL     1       4.640  85.937  62.047  1.00  0.00     0.000 C 
BRANCH  11  12
ATOM     12  C   UNL     1       4.187  87.155  61.230  1.00  0.00     0.006 C 
BRANCH  12  13
ATOM     13  C   UNL     1       3.431  88.180  62.085  1.00  0.00     0.053 C 
BRANCH  13  14
ATOM     14  C   UNL     1       2.371  88.886  61.297  1.00  0.00     0.041 C 
ATOM     15  O   UNL     1       2.504  89.047  60.055  1.00  0.00    -0.550 OA
ATOM     16  O   UNL     1       1.222  89.341  61.931  1.00  0.00    -0.550 OA
ENDBRANCH  13  14
ENDBRANCH  12  13
ENDBRANCH  11  12
ENDBRANCH  10  11
ENDBRANCH   9  10
ENDBRANCH   8   9
ENDBRANCH   7   8
ENDBRANCH   6   7
ENDBRANCH   5   6
ENDBRANCH   4   5
ENDBRANCH   3   4
ENDBRANCH   2   3
ENDBRANCH   1   2
BRANCH   1  17
ATOM     17  C   UNL     1       6.344  77.207  64.623  1.00  0.00     0.000 C 
BRANCH  17  18
ATOM     18  C   UNL     1       7.316  78.019  65.506  1.00  0.00     0.000 C 
BRANCH  18  19
ATOM     19  C   UNL     1       7.133  77.842  67.026  1.00  0.00     0.000 C 
BRANCH  19  20
ATOM     20  C   UNL     1       6.800  76.399  67.434  1.00  0.00     0.000 C 
BRANCH  20  21
ATOM     21  C   UNL     1       5.579  76.358  68.367  1.00  0.00     0.000 C 
BRANCH  21  22
ATOM     22  C   UNL     1       4.430  77.253  67.875  1.00  0.00    -0.000 C 
BRANCH  22  23
ATOM     23  C   UNL     1       4.101  78.384  68.866  1.00  0.00    -0.000 C 
BRANCH  23  24
ATOM     24  C   UNL     1       4.240  79.784  68.231  1.00  0.00    -0.000 C 
BRANCH  24  25
ATOM     25  C   UNL     1       2.975  80.652  68.357  1.00  0.00    -0.000 C 
BRANCH  25  26
ATOM     26  C   UNL     1       2.190  80.849  67.047  1.00  0.00    -0.000 C 
BRANCH  26  27
ATOM     27  C   UNL     1       1.293  79.662  66.640  1.00  0.00    -0.000 C 
BRANCH  27  28
ATOM     28  C   UNL     1       0.614  78.922  67.810  1.00  0.00    -0.000 C 
BRANCH  28  29
ATOM     29  C   UNL     1       0.642  77.386  67.707  1.00  0.00    -0.003 C 
ATOM     30  C   UNL     1       0.858  76.705  69.057  1.00  0.00     0.004 C 
ENDBRANCH  28  29
ENDBRANCH  27  28
ENDBRANCH  26  27
ENDBRANCH  25  26
ENDBRANCH  24  25
ENDBRANCH  23  24
ENDBRANCH  22  23
ENDBRANCH  21  22
ENDBRANCH  20  21
ENDBRANCH  19  20
ENDBRANCH  18  19
ENDBRANCH  17  18
ENDBRANCH   1  17
TORSDOF 26
ENDMDL
MODEL 4
REMARK VINA RESULT:    -4.635      1.512      3.940
REMARK INTER + INTRA:         -15.316
REMARK INTER:                 -11.006
REMARK INTRA:                  -4.310
REMARK UNBOUND:                -3.636
REMARK SMILES CCCCCCCCCCCCCCCCCCCCCCCCCCCC(=O)[O-]
REMARK SMILES IDX 15 1 16 2 17 3 18 4 19 5 20 6 21 7 22 8 23 9 24 10 25 11
REMARK SMILES IDX 26 12 27 13 28 14 29 15 30 16 14 17 13 18 12 19 11 20 10 21
REMARK SMILES IDX 9 22 8 23 7 24 6 25 5 26 4 27 3 28 2 29 1 30
REMARK H PARENT
REMARK Flexibility Score: inf
ROOT
ATOM      1  C   UNL     1       3.961  81.483  60.899  1.00  0.00     0.000 C 
ENDROOT
BRANCH   1   2
ATOM      2  C   UNL     1       2.514  81.945  61.162  1.00  0.00     0.000 C 
BRANCH   2   3
ATOM      3  C   UNL     1       2.224  83.388  60.702  1.00  0.00     0.000 C 
BRANCH   3   4
ATOM      4  C   UNL     1       1.319  84.145  61.689  1.00  0.00     0.000 C 
BRANCH   4   5
ATOM      5  C   UNL     1       1.272  83.486  63.077  1.00  0.00     0.000 C 
BRANCH   5   6
ATOM      6  C   UNL     1       1.726  84.434  64.197  1.00  0.00     0.000 C 
BRANCH   6   7
ATOM      7  C   UNL     1       3.170  84.136  64.622  1.00  0.00     0.000 C 
BRANCH   7   8
ATOM      8  C   UNL     1       4.125  85.225  64.108  1.00  0.00     0.000 C 
BRANCH   8   9
ATOM      9  C   UNL     1       4.934  84.776  62.881  1.00  0.00     0.000 C 
BRANCH   9  10
ATOM     10  C   UNL     1       4.867  85.785  61.726  1.00  0.00     0.000 C 
BRANCH  10  11
ATOM     11  C   UNL     1       4.014  87.002  62.109  1.00  0.00     0.000 C 
BRANCH  11  12
ATOM     12  C   UNL     1       3.404  87.663  60.866  1.00  0.00     0.006 C 
BRANCH  12  13
ATOM     13  C   UNL     1       1.873  87.741  60.942  1.00  0.00     0.053 C 
BRANCH  13  14
ATOM     14  C   UNL     1       1.408  89.095  61.379  1.00  0.00     0.041 C 
ATOM     15  O   UNL     1       0.839  89.243  62.493  1.00  0.00    -0.550 OA
ATOM     16  O   UNL     1       1.628  90.200  60.567  1.00  0.00    -0.550 OA
ENDBRANCH  13  14
ENDBRANCH  12  13
ENDBRANCH  11  12
ENDBRANCH  10  11
ENDBRANCH   9  10
ENDBRANCH   8   9
ENDBRANCH   7   8
ENDBRANCH   6   7
ENDBRANCH   5   6
ENDBRANCH   4   5
ENDBRANCH   3   4
ENDBRANCH   2   3
ENDBRANCH   1   2
BRANCH   1  17
ATOM     17  C   UNL     1       4.743  81.097  62.173  1.00  0.00     0.000 C 
BRANCH  17  18
ATOM     18  C   UNL     1       3.860  80.658  63.362  1.00  0.00     0.000 C 
BRANCH  18  19
ATOM     19  C   UNL     1       4.475  79.585  64.281  1.00  0.00     0.000 C 
BRANCH  19  20
ATOM     20  C   UNL     1       5.015  78.366  63.516  1.00  0.00     0.000 C 
BRANCH  20  21
ATOM     21  C   UNL     1       5.649  77.349  64.477  1.00  0.00     0.000 C 
BRANCH  21  22
ATOM     22  C   UNL     1       7.164  77.556  64.642  1.00  0.00    -0.000 C 
BRANCH  22  23
ATOM     23  C   UNL     1       7.534  78.096  66.035  1.00  0.00    -0.000 C 
BRANCH  23  24
ATOM     24  C   UNL     1       6.552  77.626  67.130  1.00  0.00    -0.000 C 
BRANCH  24  25
ATOM     25  C   UNL     1       6.190  78.719  68.153  1.00  0.00    -0.000 C 
BRANCH  25  26
ATOM     26  C   UNL     1       4.745  79.242  68.059  1.00  0.00    -0.000 C 
BRANCH  26  27
ATOM     27  C   UNL     1       3.700  78.196  67.621  1.00  0.00    -0.000 C 
BRANCH  27  28
ATOM     28  C   UNL     1       2.929  77.519  68.772  1.00  0.00    -0.000 C 
BRANCH  28  29
ATOM     29  C   UNL     1       2.682  76.011  68.586  1.00  0.00    -0.003 C 
ATOM     30  C   UNL     1       3.767  75.332  67.752  1.00  0.00     0.004 C 
ENDBRANCH  28  29
ENDBRANCH  27  28
ENDBRANCH  26  27
ENDBRANCH  25  26
ENDBRANCH  24  25
ENDBRANCH  23  24
ENDBRANCH  22  23
ENDBRANCH  21  22
ENDBRANCH  20  21
ENDBRANCH  19  20
ENDBRANCH  18  19
ENDBRANCH  17  18
ENDBRANCH   1  17
TORSDOF 26
ENDMDL
MODEL 5
REMARK VINA RESULT:    -4.618      4.299      9.820
REMARK INTER + INTRA:         -15.272
REMARK INTER:                 -12.140
REMARK INTRA:                  -3.132
REMARK UNBOUND:                -3.636
REMARK SMILES CCCCCCCCCCCCCCCCCCCCCCCCCCCC(=O)[O-]
REMARK SMILES IDX 15 1 16 2 17 3 18 4 19 5 20 6 21 7 22 8 23 9 24 10 25 11
REMARK SMILES IDX 26 12 27 13 28 14 29 15 30 16 14 17 13 18 12 19 11 20 10 21
REMARK SMILES IDX 9 22 8 23 7 24 6 25 5 26 4 27 3 28 2 29 1 30
REMARK H PARENT
REMARK Flexibility Score: inf
ROOT
ATOM      1  C   UNL     1       7.384  78.255  64.234  1.00  0.00     0.000 C 
ENDROOT
BRANCH   1   2
ATOM      2  C   UNL     1       6.665  77.539  65.395  1.00  0.00     0.000 C 
BRANCH   2   3
ATOM      3  C   UNL     1       7.182  77.939  66.793  1.00  0.00     0.000 C 
BRANCH   3   4
ATOM      4  C   UNL     1       6.061  78.478  67.698  1.00  0.00     0.000 C 
BRANCH   4   5
ATOM      5  C   UNL     1       4.685  78.460  67.013  1.00  0.00     0.000 C 
BRANCH   5   6
ATOM      6  C   UNL     1       4.113  79.869  66.798  1.00  0.00     0.000 C 
BRANCH   6   7
ATOM      7  C   UNL     1       2.786  80.047  67.546  1.00  0.00     0.000 C 
BRANCH   7   8
ATOM      8  C   UNL     1       3.029  80.554  68.977  1.00  0.00     0.000 C 
BRANCH   8   9
ATOM      9  C   UNL     1       1.943  80.095  69.963  1.00  0.00     0.000 C 
BRANCH   9  10
ATOM     10  C   UNL     1       1.964  78.579  70.202  1.00  0.00     0.000 C 
BRANCH  10  11
ATOM     11  C   UNL     1       0.584  77.962  69.936  1.00  0.00     0.000 C 
BRANCH  11  12
ATOM     12  C   UNL     1       0.713  76.528  69.403  1.00  0.00     0.006 C 
BRANCH  12  13
ATOM     13  C   UNL     1       2.068  76.280  68.727  1.00  0.00     0.053 C 
BRANCH  13  14
ATOM     14  C   UNL     1       2.090  74.974  67.994  1.00  0.00     0.041 C 
ATOM     15  O   UNL     1       1.016  74.450  67.596  1.00  0.00    -0.550 OA
ATOM     16  O   UNL     1       3.302  74.349  67.726  1.00  0.00    -0.550 OA
ENDBRANCH  13  14
ENDBRANCH  12  13
ENDBRANCH  11  12
ENDBRANCH  10  11
ENDBRANCH   9  10
ENDBRANCH   8   9
ENDBRANCH   7   8
ENDBRANCH   6   7
ENDBRANCH   5   6
ENDBRANCH   4   5
ENDBRANCH   3   4
ENDBRANCH   2   3
ENDBRANCH   1   2
BRANCH   1  17
ATOM     17  C   UNL     1       6.448  79.072  63.318  1.00  0.00     0.000 C 
BRANCH  17  18
ATOM     18  C   UNL     1       5.118  78.369  62.966  1.00  0.00     0.000 C 
BRANCH  18  19
ATOM     19  C   UNL     1       3.847  79.212  63.187  1.00  0.00     0.000 C 
BRANCH  19  20
ATOM     20  C   UNL     1       4.110  80.726  63.167  1.00  0.00     0.000 C 
BRANCH  20  21
ATOM     21  C   UNL     1       2.891  81.490  62.627  1.00  0.00     0.000 C 
BRANCH  21  22
ATOM     22  C   UNL     1       2.325  82.494  63.645  1.00  0.00    -0.000 C 
BRANCH  22  23
ATOM     23  C   UNL     1       3.373  82.927  64.687  1.00  0.00    -0.000 C 
BRANCH  23  24
ATOM     24  C   UNL     1       3.625  84.450  64.672  1.00  0.00    -0.000 C 
BRANCH  24  25
ATOM     25  C   UNL     1       4.603  84.907  63.573  1.00  0.00    -0.000 C 
BRANCH  25  26
ATOM     26  C   UNL     1       3.937  85.377  62.267  1.00  0.00    -0.000 C 
BRANCH  26  27
ATOM     27  C   UNL     1       4.467  86.714  61.709  1.00  0.00    -0.000 C 
BRANCH  27  28
ATOM     28  C   UNL     1       3.561  87.935  61.963  1.00  0.00    -0.000 C 
BRANCH  28  29
ATOM     29  C   UNL     1       3.380  88.869  60.753  1.00  0.00    -0.003 C 
ATOM     30  C   UNL     1       3.682  90.330  61.082  1.00  0.00     0.004 C 
ENDBRANCH  28  29
ENDBRANCH  27  28
ENDBRANCH  26  27
ENDBRANCH  25  26
ENDBRANCH  24  25
ENDBRANCH  23  24
ENDBRANCH  22  23
ENDBRANCH  21  22
ENDBRANCH  20  21
ENDBRANCH  19  20
ENDBRANCH  18  19
ENDBRANCH  17  18
ENDBRANCH   1  17
TORSDOF 26
ENDMDL
MODEL 6
REMARK VINA RESULT:    -4.617      3.580      9.418
REMARK INTER + INTRA:         -15.270
REMARK INTER:                 -11.133
REMARK INTRA:                  -4.137
REMARK UNBOUND:                -3.636
REMARK SMILES CCCCCCCCCCCCCCCCCCCCCCCCCCCC(=O)[O-]
REMARK SMILES IDX 15 1 16 2 17 3 18 4 19 5 20 6 21 7 22 8 23 9 24 10 25 11
REMARK SMILES IDX 26 12 27 13 28 14 29 15 30 16 14 17 13 18 12 19 11 20 10 21
REMARK SMILES IDX 9 22 8 23 7 24 6 25 5 26 4 27 3 28 2 29 1 30
REMARK H PARENT
REMARK Flexibility Score: inf
ROOT
ATOM      1  C   UNL     1       2.604  81.844  61.559  1.00  0.00     0.000 C 
ENDROOT
BRANCH   1   2
ATOM      2  C   UNL     1       4.006  81.259  61.296  1.00  0.00     0.000 C 
BRANCH   2   3
ATOM      3  C   UNL     1       4.168  79.794  61.751  1.00  0.00     0.000 C 
BRANCH   3   4
ATOM      4  C   UNL     1       3.735  79.586  63.213  1.00  0.00     0.000 C 
BRANCH   4   5
ATOM      5  C   UNL     1       4.892  79.130  64.116  1.00  0.00     0.000 C 
BRANCH   5   6
ATOM      6  C   UNL     1       6.233  79.065  63.371  1.00  0.00     0.000 C 
BRANCH   6   7
ATOM      7  C   UNL     1       7.156  78.005  63.985  1.00  0.00     0.000 C 
BRANCH   7   8
ATOM      8  C   UNL     1       6.478  77.317  65.181  1.00  0.00     0.000 C 
BRANCH   8   9
ATOM      9  C   UNL     1       7.228  77.546  66.503  1.00  0.00     0.000 C 
BRANCH   9  10
ATOM     10  C   UNL     1       6.455  78.451  67.473  1.00  0.00     0.000 C 
BRANCH  10  11
ATOM     11  C   UNL     1       5.134  77.797  67.898  1.00  0.00     0.000 C 
BRANCH  11  12
ATOM     12  C   UNL     1       3.944  78.729  67.629  1.00  0.00     0.006 C 
BRANCH  12  13
ATOM     13  C   UNL     1       3.770  79.780  68.733  1.00  0.00     0.053 C 
BRANCH  13  14
ATOM     14  C   UNL     1       2.351  79.860  69.204  1.00  0.00     0.041 C 
ATOM     15  O   UNL     1       1.402  79.667  68.398  1.00  0.00    -0.550 OA
ATOM     16  O   UNL     1       2.076  80.119  70.541  1.00  0.00    -0.550 OA
ENDBRANCH  13  14
ENDBRANCH  12  13
ENDBRANCH  11  12
ENDBRANCH  10  11
ENDBRANCH   9  10
ENDBRANCH   8   9
ENDBRANCH   7   8
ENDBRANCH   6   7
ENDBRANCH   5   6
ENDBRANCH   4   5
ENDBRANCH   3   4
ENDBRANCH   2   3
ENDBRANCH   1   2
BRANCH   1  17
ATOM     17  C   UNL     1       2.280  83.106  60.730  1.00  0.00     0.000 C 
BRANCH  17  18
ATOM     18  C   UNL     1       1.454  84.174  61.480  1.00  0.00     0.000 C 
BRANCH  18  19
ATOM     19  C   UNL     1       0.999  83.781  62.899  1.00  0.00     0.000 C 
BRANCH  19  20
ATOM     20  C   UNL     1       1.687  84.596  64.005  1.00  0.00     0.000 C 
BRANCH  20  21
ATOM     21  C   UNL     1       2.562  83.694  64.890  1.00  0.00     0.000 C 
BRANCH  21  22
ATOM     22  C   UNL     1       3.986  83.525  64.337  1.00  0.00    -0.000 C 
BRANCH  22  23
ATOM     23  C   UNL     1       4.603  84.863  63.889  1.00  0.00    -0.000 C 
BRANCH  23  24
ATOM     24  C   UNL     1       5.018  84.852  62.402  1.00  0.00    -0.000 C 
BRANCH  24  25
ATOM     25  C   UNL     1       4.635  86.134  61.640  1.00  0.00    -0.000 C 
BRANCH  25  26
ATOM     26  C   UNL     1       3.934  87.209  62.490  1.00  0.00    -0.000 C 
BRANCH  26  27
ATOM     27  C   UNL     1       3.088  88.223  61.693  1.00  0.00    -0.000 C 
BRANCH  27  28
ATOM     28  C   UNL     1       1.652  87.766  61.368  1.00  0.00    -0.000 C 
BRANCH  28  29
ATOM     29  C   UNL     1       0.559  88.391  62.253  1.00  0.00    -0.003 C 
ATOM     30  C   UNL     1      -0.362  87.349  62.882  1.00  0.00     0.004 C 
ENDBRANCH  28  29
ENDBRANCH  27  28
ENDBRANCH  26  27
ENDBRANCH  25  26
ENDBRANCH  24  25
ENDBRANCH  23  24
ENDBRANCH  22  23
ENDBRANCH  21  22
ENDBRANCH  20  21
ENDBRANCH  19  20
ENDBRANCH  18  19
ENDBRANCH  17  18
ENDBRANCH   1  17
TORSDOF 26
ENDMDL
MODEL 7
REMARK VINA RESULT:    -4.608      3.522      9.920
REMARK INTER + INTRA:         -15.248
REMARK INTER:                 -11.896
REMARK INTRA:                  -3.351
REMARK UNBOUND:                -3.636
REMARK SMILES CCCCCCCCCCCCCCCCCCCCCCCCCCCC(=O)[O-]
REMARK SMILES IDX 15 1 16 2 17 3 18 4 19 5 20 6 21 7 22 8 23 9 24 10 25 11
REMARK SMILES IDX 26 12 27 13 28 14 29 15 30 16 14 17 13 18 12 19 11 20 10 21
REMARK SMILES IDX 9 22 8 23 7 24 6 25 5 26 4 27 3 28 2 29 1 30
REMARK H PARENT
REMARK Flexibility Score: inf
ROOT
ATOM      1  C   UNL     1       1.711  79.753  64.818  1.00  0.00     0.000 C 
ENDROOT
BRANCH   1   2
ATOM      2  C   UNL     1       2.340  79.515  66.205  1.00  0.00     0.000 C 
BRANCH   2   3
ATOM      3  C   UNL     1       3.716  80.186  66.391  1.00  0.00     0.000 C 
BRANCH   3   4
ATOM      4  C   UNL     1       4.338  79.873  67.763  1.00  0.00     0.000 C 
BRANCH   4   5
ATOM      5  C   UNL     1       3.954  78.479  68.285  1.00  0.00     0.000 C 
BRANCH   5   6
ATOM      6  C   UNL     1       5.152  77.520  68.347  1.00  0.00     0.000 C 
BRANCH   6   7
ATOM      7  C   UNL     1       6.455  78.240  67.975  1.00  0.00     0.000 C 
BRANCH   7   8
ATOM      8  C   UNL     1       7.201  77.483  66.865  1.00  0.00     0.000 C 
BRANCH   8   9
ATOM      9  C   UNL     1       6.862  78.002  65.459  1.00  0.00     0.000 C 
BRANCH   9  10
ATOM     10  C   UNL     1       5.621  77.325  64.861  1.00  0.00     0.000 C 
BRANCH  10  11
ATOM     11  C   UNL     1       5.255  77.948  63.507  1.00  0.00     0.000 C 
BRANCH  11  12
ATOM     12  C   UNL     1       6.022  79.258  63.276  1.00  0.00     0.006 C 
BRANCH  12  13
ATOM     13  C   UNL     1       6.661  79.319  61.883  1.00  0.00     0.053 C 
BRANCH  13  14
ATOM     14  C   UNL     1       8.139  79.546  61.960  1.00  0.00     0.041 C 
ATOM     15  O   UNL     1       8.683  80.436  61.253  1.00  0.00    -0.550 OA
ATOM     16  O   UNL     1       8.912  78.793  62.834  1.00  0.00    -0.550 OA
ENDBRANCH  13  14
ENDBRANCH  12  13
ENDBRANCH  11  12
ENDBRANCH  10  11
ENDBRANCH   9  10
ENDBRANCH   8   9
ENDBRANCH   7   8
ENDBRANCH   6   7
ENDBRANCH   5   6
ENDBRANCH   4   5
ENDBRANCH   3   4
ENDBRANCH   2   3
ENDBRANCH   1   2
BRANCH   1  17
ATOM     17  C   UNL     1       2.575  80.613  63.870  1.00  0.00     0.000 C 
BRANCH  17  18
ATOM     18  C   UNL     1       1.827  81.792  63.209  1.00  0.00     0.000 C 
BRANCH  18  19
ATOM     19  C   UNL     1       2.112  83.179  63.818  1.00  0.00     0.000 C 
BRANCH  19  20
ATOM     20  C   UNL     1       3.554  83.335  64.327  1.00  0.00     0.000 C 
BRANCH  20  21
ATOM     21  C   UNL     1       4.002  84.804  64.269  1.00  0.00     0.000 C 
BRANCH  21  22
ATOM     22  C   UNL     1       4.938  85.089  63.083  1.00  0.00    -0.000 C 
BRANCH  22  23
ATOM     23  C   UNL     1       4.179  85.607  61.847  1.00  0.00    -0.000 C 
BRANCH  23  24
ATOM     24  C   UNL     1       4.316  87.134  61.670  1.00  0.00    -0.000 C 
BRANCH  24  25
ATOM     25  C   UNL     1       2.982  87.895  61.788  1.00  0.00    -0.000 C 
BRANCH  25  26
ATOM     26  C   UNL     1       3.118  89.400  62.082  1.00  0.00    -0.000 C 
BRANCH  26  27
ATOM     27  C   UNL     1       2.837  90.327  60.881  1.00  0.00    -0.000 C 
BRANCH  27  28
ATOM     28  C   UNL     1       3.687  90.051  59.626  1.00  0.00    -0.000 C 
BRANCH  28  29
ATOM     29  C   UNL     1       5.186  90.369  59.777  1.00  0.00    -0.003 C 
ATOM     30  C   UNL     1       6.079  89.386  59.023  1.00  0.00     0.004 C 
ENDBRANCH  28  29
ENDBRANCH  27  28
ENDBRANCH  26  27
ENDBRANCH  25  26
ENDBRANCH  24  25
ENDBRANCH  23  24
ENDBRANCH  22  23
ENDBRANCH  21  22
ENDBRANCH  20  21
ENDBRANCH  19  20
ENDBRANCH  18  19
ENDBRANCH  17  18
ENDBRANCH   1  17
TORSDOF 26
ENDMDL
MODEL 8
REMARK VINA RESULT:    -4.576      1.085      2.764
REMARK INTER + INTRA:         -15.168
REMARK INTER:                 -11.149
REMARK INTRA:                  -4.020
REMARK UNBOUND:                -3.636
REMARK SMILES CCCCCCCCCCCCCCCCCCCCCCCCCCCC(=O)[O-]
REMARK SMILES IDX 15 1 16 2 17 3 18 4 19 5 20 6 21 7 22 8 23 9 24 10 25 11
REMARK SMILES IDX 26 12 27 13 28 14 29 15 30 16 14 17 13 18 12 19 11 20 10 21
REMARK SMILES IDX 9 22 8 23 7 24 6 25 5 26 4 27 3 28 2 29 1 30
REMARK H PARENT
REMARK Flexibility Score: inf
ROOT
ATOM      1  C   UNL     1       6.758  77.331  65.172  1.00  0.00     0.000 C 
ENDROOT
BRANCH   1   2
ATOM      2  C   UNL     1       7.379  78.299  64.145  1.00  0.00     0.000 C 
BRANCH   2   3
ATOM      3  C   UNL     1       6.342  79.036  63.273  1.00  0.00     0.000 C 
BRANCH   3   4
ATOM      4  C   UNL     1       4.898  78.777  63.739  1.00  0.00     0.000 C 
BRANCH   4   5
ATOM      5  C   UNL     1       3.861  79.561  62.919  1.00  0.00     0.000 C 
BRANCH   5   6
ATOM      6  C   UNL     1       4.144  81.070  62.894  1.00  0.00     0.000 C 
BRANCH   6   7
ATOM      7  C   UNL     1       2.956  81.864  63.454  1.00  0.00     0.000 C 
BRANCH   7   8
ATOM      8  C   UNL     1       3.396  82.747  64.632  1.00  0.00     0.000 C 
BRANCH   8   9
ATOM      9  C   UNL     1       3.014  84.223  64.444  1.00  0.00     0.000 C 
BRANCH   9  10
ATOM     10  C   UNL     1       4.238  85.131  64.250  1.00  0.00     0.000 C 
BRANCH  10  11
ATOM     11  C   UNL     1       4.902  84.872  62.891  1.00  0.00     0.000 C 
BRANCH  11  12
ATOM     12  C   UNL     1       4.319  85.790  61.807  1.00  0.00     0.006 C 
BRANCH  12  13
ATOM     13  C   UNL     1       3.875  87.146  62.372  1.00  0.00     0.053 C 
BRANCH  13  14
ATOM     14  C   UNL     1       2.472  87.480  61.972  1.00  0.00     0.041 C 
ATOM     15  O   UNL     1       1.629  86.563  61.781  1.00  0.00    -0.550 OA
ATOM     16  O   UNL     1       2.086  88.808  61.836  1.00  0.00    -0.550 OA
ENDBRANCH  13  14
ENDBRANCH  12  13
ENDBRANCH  11  12
ENDBRANCH  10  11
ENDBRANCH   9  10
ENDBRANCH   8   9
ENDBRANCH   7   8
ENDBRANCH   6   7
ENDBRANCH   5   6
ENDBRANCH   4   5
ENDBRANCH   3   4
ENDBRANCH   2   3
ENDBRANCH   1   2
BRANCH   1  17
ATOM     17  C   UNL     1       7.118  77.650  66.639  1.00  0.00     0.000 C 
BRANCH  17  18
ATOM     18  C   UNL     1       6.842  76.501  67.634  1.00  0.00     0.000 C 
BRANCH  18  19
ATOM     19  C   UNL     1       5.535  76.627  68.442  1.00  0.00     0.000 C 
BRANCH  19  20
ATOM     20  C   UNL     1       4.312  76.046  67.715  1.00  0.00     0.000 C 
BRANCH  20  21
ATOM     21  C   UNL     1       3.118  75.906  68.671  1.00  0.00     0.000 C 
BRANCH  21  22
ATOM     22  C   UNL     1       1.895  75.262  67.999  1.00  0.00    -0.000 C 
BRANCH  22  23
ATOM     23  C   UNL     1       0.693  76.222  67.922  1.00  0.00    -0.000 C 
BRANCH  23  24
ATOM     24  C   UNL     1       0.799  77.379  68.938  1.00  0.00    -0.000 C 
BRANCH  24  25
ATOM     25  C   UNL     1       0.403  78.751  68.361  1.00  0.00    -0.000 C 
BRANCH  25  26
ATOM     26  C   UNL     1       0.582  78.890  66.838  1.00  0.00    -0.000 C 
BRANCH  26  27
ATOM     27  C   UNL     1       1.735  79.815  66.399  1.00  0.00    -0.000 C 
BRANCH  27  28
ATOM     28  C   UNL     1       3.149  79.224  66.565  1.00  0.00    -0.000 C 
BRANCH  28  29
ATOM     29  C   UNL     1       4.087  80.036  67.477  1.00  0.00    -0.003 C 
ATOM     30  C   UNL     1       3.703  79.946  68.952  1.00  0.00     0.004 C 
ENDBRANCH  28  29
ENDBRANCH  27  28
ENDBRANCH  26  27
ENDBRANCH  25  26
ENDBRANCH  24  25
ENDBRANCH  23  24
ENDBRANCH  22  23
ENDBRANCH  21  22
ENDBRANCH  20  21
ENDBRANCH  19  20
ENDBRANCH  18  19
ENDBRANCH  17  18
ENDBRANCH   1  17
TORSDOF 26
ENDMDL
MODEL 9
REMARK VINA RESULT:    -4.538      4.090     10.114
REMARK INTER + INTRA:         -15.072
REMARK INTER:                 -10.847
REMARK INTRA:                  -4.225
REMARK UNBOUND:                -3.636
REMARK SMILES CCCCCCCCCCCCCCCCCCCCCCCCCCCC(=O)[O-]
REMARK SMILES IDX 15 1 16 2 17 3 18 4 19 5 20 6 21 7 22 8 23 9 24 10 25 11
REMARK SMILES IDX 26 12 27 13 28 14 29 15 30 16 14 17 13 18 12 19 11 20 10 21
REMARK SMILES IDX 9 22 8 23 7 24 6 25 5 26 4 27 3 28 2 29 1 30
REMARK H PARENT
REMARK Flexibility Score: inf
ROOT
ATOM      1  C   UNL     1       4.865  84.790  62.510  1.00  0.00     0.000 C 
ENDROOT
BRANCH   1   2
ATOM      2  C   UNL     1       4.025  85.054  63.776  1.00  0.00     0.000 C 
BRANCH   2   3
ATOM      3  C   UNL     1       3.724  83.787  64.602  1.00  0.00     0.000 C 
BRANCH   3   4
ATOM      4  C   UNL     1       2.360  83.862  65.311  1.00  0.00     0.000 C 
BRANCH   4   5
ATOM      5  C   UNL     1       1.545  82.567  65.169  1.00  0.00     0.000 C 
BRANCH   5   6
ATOM      6  C   UNL     1       2.183  81.384  65.914  1.00  0.00     0.000 C 
BRANCH   6   7
ATOM      7  C   UNL     1       2.524  80.243  64.947  1.00  0.00     0.000 C 
BRANCH   7   8
ATOM      8  C   UNL     1       4.009  79.859  65.057  1.00  0.00     0.000 C 
BRANCH   8   9
ATOM      9  C   UNL     1       4.514  79.077  63.835  1.00  0.00     0.000 C 
BRANCH   9  10
ATOM     10  C   UNL     1       5.947  78.558  64.015  1.00  0.00     0.000 C 
BRANCH  10  11
ATOM     11  C   UNL     1       6.014  77.508  65.131  1.00  0.00     0.000 C 
BRANCH  11  12
ATOM     12  C   UNL     1       7.135  77.832  66.129  1.00  0.00     0.006 C 
BRANCH  12  13
ATOM     13  C   UNL     1       6.589  78.295  67.485  1.00  0.00     0.053 C 
BRANCH  13  14
ATOM     14  C   UNL     1       5.504  77.392  67.984  1.00  0.00     0.041 C 
ATOM     15  O   UNL     1       5.783  76.244  68.420  1.00  0.00    -0.550 OA
ATOM     16  O   UNL     1       4.186  77.830  67.993  1.00  0.00    -0.550 OA
ENDBRANCH  13  14
ENDBRANCH  12  13
ENDBRANCH  11  12
ENDBRANCH  10  11
ENDBRANCH   9  10
ENDBRANCH   8   9
ENDBRANCH   7   8
ENDBRANCH   6   7
ENDBRANCH   5   6
ENDBRANCH   4   5
ENDBRANCH   3   4
ENDBRANCH   2   3
ENDBRANCH   1   2
BRANCH   1  17
ATOM     17  C   UNL     1       4.891  85.968  61.511  1.00  0.00     0.000 C 
BRANCH  17  18
ATOM     18  C   UNL     1       4.148  87.234  61.989  1.00  0.00     0.000 C 
BRANCH  18  19
ATOM     19  C   UNL     1       3.895  88.300  60.906  1.00  0.00     0.000 C 
BRANCH  19  20
ATOM     20  C   UNL     1       3.423  89.647  61.476  1.00  0.00     0.000 C 
BRANCH  20  21
ATOM     21  C   UNL     1       2.407  90.317  60.537  1.00  0.00     0.000 C 
BRANCH  21  22
ATOM     22  C   UNL     1       0.952  90.046  60.951  1.00  0.00    -0.000 C 
BRANCH  22  23
ATOM     23  C   UNL     1       0.237  89.083  59.986  1.00  0.00    -0.000 C 
BRANCH  23  24
ATOM     24  C   UNL     1      -0.120  87.738  60.654  1.00  0.00    -0.000 C 
BRANCH  24  25
ATOM     25  C   UNL     1       0.233  87.674  62.152  1.00  0.00    -0.000 C 
BRANCH  25  26
ATOM     26  C   UNL     1       0.701  86.294  62.650  1.00  0.00    -0.000 C 
BRANCH  26  27
ATOM     27  C   UNL     1       1.095  85.299  61.539  1.00  0.00    -0.000 C 
BRANCH  27  28
ATOM     28  C   UNL     1       0.808  83.817  61.854  1.00  0.00    -0.000 C 
BRANCH  28  29
ATOM     29  C   UNL     1       1.509  82.812  60.924  1.00  0.00    -0.003 C 
ATOM     30  C   UNL     1       2.586  81.996  61.637  1.00  0.00     0.004 C 
ENDBRANCH  28  29
ENDBRANCH  27  28
ENDBRANCH  26  27
ENDBRANCH  25  26
ENDBRANCH  24  25
ENDBRANCH  23  24
ENDBRANCH  22  23
ENDBRANCH  21  22
ENDBRANCH  20  21
ENDBRANCH  19  20
ENDBRANCH  18  19
ENDBRANCH  17  18
ENDBRANCH   1  17
TORSDOF 26
ENDMDL
