MODEL 1
REMARK VINA RESULT:    -3.776      0.000      0.000
REMARK INTER + INTRA:          -4.356
REMARK INTER:                  -4.107
REMARK INTRA:                  -0.249
REMARK UNBOUND:                -0.249
REMARK SMILES O=C([O-])c1ccccc1O
REMARK SMILES IDX 4 1 9 2 5 3 8 4 6 5 7 6 2 7 1 8 3 9 10 10
REMARK H PARENT 10 11
REMARK Flexibility Score: inf
ROOT
ATOM      1  C   UNL     1       0.395  27.600  30.248  1.00  0.00     0.039 A 
ATOM      2  C   UNL     1       0.131  26.459  29.452  1.00  0.00     0.124 A 
ATOM      3  C   UNL     1       0.393  28.869  29.634  1.00  0.00     0.014 A 
ATOM      4  C   UNL     1      -0.125  26.607  28.081  1.00  0.00     0.047 A 
ATOM      5  C   UNL     1       0.136  29.001  28.268  1.00  0.00     0.001 A 
ATOM      6  C   UNL     1      -0.123  27.872  27.492  1.00  0.00     0.004 A 
ENDROOT
BRANCH   1   7
ATOM      7  C   UNL     1       0.671  27.491  31.704  1.00  0.00     0.075 C 
ATOM      8  O   UNL     1      -0.046  26.757  32.434  1.00  0.00    -0.545 OA
ATOM      9  O   UNL     1       1.720  28.190  32.289  1.00  0.00    -0.545 OA
ENDBRANCH   1   7
BRANCH   2  10
ATOM     10  O   UNL     1       0.122  25.183  30.015  1.00  0.00    -0.507 OA
ATOM     11  H   UNL     1       0.596  24.403  29.575  1.00  0.00     0.293 HD
ENDBRANCH   2  10
TORSDOF 2
ENDMDL
MODEL 2
REMARK VINA RESULT:    -2.987      1.905      4.387
REMARK INTER + INTRA:          -3.498
REMARK INTER:                  -3.244
REMARK INTRA:                  -0.254
REMARK UNBOUND:                -0.249
REMARK SMILES O=C([O-])c1ccccc1O
REMARK SMILES IDX 4 1 9 2 5 3 8 4 6 5 7 6 2 7 1 8 3 9 10 10
REMARK H PARENT 10 11
REMARK Flexibility Score: inf
ROOT
ATOM      1  C   UNL     1       0.753  27.389  31.532  1.00  0.00     0.039 A 
ATOM      2  C   UNL     1       1.700  28.216  32.182  1.00  0.00     0.124 A 
ATOM      3  C   UNL     1      -0.125  26.616  32.318  1.00  0.00     0.014 A 
ATOM      4  C   UNL     1       1.751  28.253  33.583  1.00  0.00     0.047 A 
ATOM      5  C   UNL     1      -0.063  26.663  33.712  1.00  0.00     0.001 A 
ATOM      6  C   UNL     1       0.872  27.480  34.344  1.00  0.00     0.004 A 
ENDROOT
BRANCH   1   7
ATOM      7  C   UNL     1       0.664  27.318  30.050  1.00  0.00     0.075 C 
ATOM      8  O   UNL     1       0.625  26.202  29.468  1.00  0.00    -0.545 OA
ATOM      9  O   UNL     1       0.623  28.472  29.277  1.00  0.00    -0.545 OA
ENDBRANCH   1   7
BRANCH   2  10
ATOM     10  O   UNL     1       2.590  28.999  31.445  1.00  0.00    -0.507 OA
ATOM     11  H   UNL     1       3.578  29.034  31.667  1.00  0.00     0.293 HD
ENDBRANCH   2  10
TORSDOF 2
ENDMDL
MODEL 3
REMARK VINA RESULT:    -2.747      1.980      3.525
REMARK INTER + INTRA:          -3.237
REMARK INTER:                  -3.113
REMARK INTRA:                  -0.124
REMARK UNBOUND:                -0.249
REMARK SMILES O=C([O-])c1ccccc1O
REMARK SMILES IDX 4 1 9 2 5 3 8 4 6 5 7 6 2 7 1 8 3 9 10 10
REMARK H PARENT 10 11
REMARK Flexibility Score: inf
ROOT
ATOM      1  C   UNL     1      -0.007  27.519  29.797  1.00  0.00     0.039 A 
ATOM      2  C   UNL     1      -0.082  26.232  30.380  1.00  0.00     0.124 A 
ATOM      3  C   UNL     1       0.024  28.646  30.643  1.00  0.00     0.014 A 
ATOM      4  C   UNL     1      -0.124  26.098  31.776  1.00  0.00     0.047 A 
ATOM      5  C   UNL     1      -0.019  28.497  32.031  1.00  0.00     0.001 A 
ATOM      6  C   UNL     1      -0.092  27.226  32.597  1.00  0.00     0.004 A 
ENDROOT
BRANCH   1   7
ATOM      7  C   UNL     1       0.040  27.708  28.324  1.00  0.00     0.075 C 
ATOM      8  O   UNL     1       0.225  28.854  27.835  1.00  0.00    -0.545 OA
ATOM      9  O   UNL     1      -0.120  26.634  27.457  1.00  0.00    -0.545 OA
ENDBRANCH   1   7
BRANCH   2  10
ATOM     10  O   UNL     1      -0.115  25.087  29.583  1.00  0.00    -0.507 OA
ATOM     11  H   UNL     1      -0.978  24.586  29.406  1.00  0.00     0.293 HD
ENDBRANCH   2  10
TORSDOF 2
ENDMDL
MODEL 4
REMARK VINA RESULT:    -2.621      1.704      2.408
REMARK INTER + INTRA:          -3.100
REMARK INTER:                  -2.899
REMARK INTRA:                  -0.200
REMARK UNBOUND:                -0.249
REMARK SMILES O=C([O-])c1ccccc1O
REMARK SMILES IDX 4 1 9 2 5 3 8 4 6 5 7 6 2 7 1 8 3 9 10 10
REMARK H PARENT 10 11
REMARK Flexibility Score: inf
ROOT
ATOM      1  C   UNL     1       0.454  27.361  30.262  1.00  0.00     0.039 A 
ATOM      2  C   UNL     1       0.229  27.874  28.963  1.00  0.00     0.124 A 
ATOM      3  C   UNL     1       0.383  25.967  30.463  1.00  0.00     0.014 A 
ATOM      4  C   UNL     1      -0.059  26.998  27.906  1.00  0.00     0.047 A 
ATOM      5  C   UNL     1       0.095  25.107  29.401  1.00  0.00     0.001 A 
ATOM      6  C   UNL     1      -0.125  25.621  28.124  1.00  0.00     0.004 A 
ENDROOT
BRANCH   1   7
ATOM      7  C   UNL     1       0.762  28.251  31.412  1.00  0.00     0.075 C 
ATOM      8  O   UNL     1      -0.125  29.012  31.883  1.00  0.00    -0.545 OA
ATOM      9  O   UNL     1       2.025  28.266  31.990  1.00  0.00    -0.545 OA
ENDBRANCH   1   7
BRANCH   2  10
ATOM     10  O   UNL     1       0.289  29.246  28.716  1.00  0.00    -0.507 OA
ATOM     11  H   UNL     1       1.131  29.688  28.367  1.00  0.00     0.293 HD
ENDBRANCH   2  10
TORSDOF 2
ENDMDL
MODEL 5
REMARK VINA RESULT:    -2.441      2.077      3.917
REMARK INTER + INTRA:          -2.904
REMARK INTER:                  -2.671
REMARK INTRA:                  -0.233
REMARK UNBOUND:                -0.249
REMARK SMILES O=C([O-])c1ccccc1O
REMARK SMILES IDX 4 1 9 2 5 3 8 4 6 5 7 6 2 7 1 8 3 9 10 10
REMARK H PARENT 10 11
REMARK Flexibility Score: inf
ROOT
ATOM      1  C   UNL     1       0.295  27.944  31.558  1.00  0.00     0.039 A 
ATOM      2  C   UNL     1       0.061  26.757  32.292  1.00  0.00     0.124 A 
ATOM      3  C   UNL     1       0.468  29.154  32.261  1.00  0.00     0.014 A 
ATOM      4  C   UNL     1       0.004  26.802  33.693  1.00  0.00     0.047 A 
ATOM      5  C   UNL     1       0.410  29.182  33.656  1.00  0.00     0.001 A 
ATOM      6  C   UNL     1       0.179  28.008  34.371  1.00  0.00     0.004 A 
ENDROOT
BRANCH   1   7
ATOM      7  C   UNL     1       0.362  27.945  30.073  1.00  0.00     0.075 C 
ATOM      8  O   UNL     1       0.864  26.967  29.459  1.00  0.00    -0.545 OA
ATOM      9  O   UNL     1      -0.124  29.016  29.333  1.00  0.00    -0.545 OA
ENDBRANCH   1   7
BRANCH   2  10
ATOM     10  O   UNL     1      -0.117  25.537  31.639  1.00  0.00    -0.507 OA
ATOM     11  H   UNL     1      -0.728  24.818  32.010  1.00  0.00     0.293 HD
ENDBRANCH   2  10
TORSDOF 2
ENDMDL
MODEL 6
REMARK VINA RESULT:    -1.682      3.037      4.316
REMARK INTER + INTRA:          -2.079
REMARK INTER:                  -1.955
REMARK INTRA:                  -0.124
REMARK UNBOUND:                -0.249
REMARK SMILES O=C([O-])c1ccccc1O
REMARK SMILES IDX 4 1 9 2 5 3 8 4 6 5 7 6 2 7 1 8 3 9 10 10
REMARK H PARENT 10 11
REMARK Flexibility Score: inf
ROOT
ATOM      1  C   UNL     1      -0.061  28.539  33.441  1.00  0.00     0.039 A 
ATOM      2  C   UNL     1      -0.101  28.305  32.046  1.00  0.00     0.124 A 
ATOM      3  C   UNL     1      -0.045  27.432  34.314  1.00  0.00     0.014 A 
ATOM      4  C   UNL     1      -0.125  26.990  31.558  1.00  0.00     0.047 A 
ATOM      5  C   UNL     1      -0.069  26.129  33.814  1.00  0.00     0.001 A 
ATOM      6  C   UNL     1      -0.108  25.908  32.438  1.00  0.00     0.004 A 
ENDROOT
BRANCH   1   7
ATOM      7  C   UNL     1      -0.035  29.915  34.003  1.00  0.00     0.075 C 
ATOM      8  O   UNL     1      -0.125  30.096  35.246  1.00  0.00    -0.545 OA
ATOM      9  O   UNL     1       0.086  31.025  33.176  1.00  0.00    -0.545 OA
ENDBRANCH   1   7
BRANCH   2  10
ATOM     10  O   UNL     1      -0.118  29.369  31.144  1.00  0.00    -0.507 OA
ATOM     11  H   UNL     1       0.736  29.812  30.825  1.00  0.00     0.293 HD
ENDBRANCH   2  10
TORSDOF 2
ENDMDL
MODEL 7
REMARK VINA RESULT:    -1.132     18.497     18.904
REMARK INTER + INTRA:          -1.480
REMARK INTER:                  -1.289
REMARK INTRA:                  -0.191
REMARK UNBOUND:                -0.249
REMARK SMILES O=C([O-])c1ccccc1O
REMARK SMILES IDX 4 1 9 2 5 3 8 4 6 5 7 6 2 7 1 8 3 9 10 10
REMARK H PARENT 10 11
REMARK Flexibility Score: inf
ROOT
ATOM      1  C   UNL     1      18.469  23.532  27.991  1.00  0.00     0.039 A 
ATOM      2  C   UNL     1      17.762  22.383  27.564  1.00  0.00     0.124 A 
ATOM      3  C   UNL     1      19.655  23.361  28.734  1.00  0.00     0.014 A 
ATOM      4  C   UNL     1      18.246  21.105  27.882  1.00  0.00     0.047 A 
ATOM      5  C   UNL     1      20.125  22.083  29.044  1.00  0.00     0.001 A 
ATOM      6  C   UNL     1      19.422  20.957  28.618  1.00  0.00     0.004 A 
ENDROOT
BRANCH   1   7
ATOM      7  C   UNL     1      17.994  24.904  27.677  1.00  0.00     0.075 C 
ATOM      8  O   UNL     1      18.653  25.644  26.899  1.00  0.00    -0.545 OA
ATOM      9  O   UNL     1      16.820  25.401  28.230  1.00  0.00    -0.545 OA
ENDBRANCH   1   7
BRANCH   2  10
ATOM     10  O   UNL     1      16.584  22.503  26.826  1.00  0.00    -0.507 OA
ATOM     11  H   UNL     1      16.574  22.912  25.899  1.00  0.00     0.293 HD
ENDBRANCH   2  10
TORSDOF 2
ENDMDL
MODEL 8
REMARK VINA RESULT:    -1.058     10.211     11.445
REMARK INTER + INTRA:          -1.400
REMARK INTER:                  -1.315
REMARK INTRA:                  -0.085
REMARK UNBOUND:                -0.249
REMARK SMILES O=C([O-])c1ccccc1O
REMARK SMILES IDX 4 1 9 2 5 3 8 4 6 5 7 6 2 7 1 8 3 9 10 10
REMARK H PARENT 10 11
REMARK Flexibility Score: inf
ROOT
ATOM      1  C   UNL     1       0.730  33.278  39.256  1.00  0.00     0.039 A 
ATOM      2  C   UNL     1       2.130  33.490  39.253  1.00  0.00     0.124 A 
ATOM      3  C   UNL     1      -0.125  34.399  39.250  1.00  0.00     0.014 A 
ATOM      4  C   UNL     1       2.639  34.797  39.245  1.00  0.00     0.047 A 
ATOM      5  C   UNL     1       0.397  35.695  39.242  1.00  0.00     0.001 A 
ATOM      6  C   UNL     1       1.777  35.893  39.238  1.00  0.00     0.004 A 
ENDROOT
BRANCH   1   7
ATOM      7  C   UNL     1       0.146  31.912  39.265  1.00  0.00     0.075 C 
ATOM      8  O   UNL     1      -0.123  31.343  40.356  1.00  0.00    -0.545 OA
ATOM      9  O   UNL     1      -0.115  31.235  38.080  1.00  0.00    -0.545 OA
ENDBRANCH   1   7
BRANCH   2  10
ATOM     10  O   UNL     1       3.015  32.411  39.258  1.00  0.00    -0.507 OA
ATOM     11  H   UNL     1       2.709  31.472  39.485  1.00  0.00     0.293 HD
ENDBRANCH   2  10
TORSDOF 2
ENDMDL
