MODEL 1
REMARK VINA RESULT:    -5.162      0.000      0.000
REMARK INTER + INTRA:          -5.884
REMARK INTER:                  -5.917
REMARK INTRA:                   0.033
REMARK UNBOUND:                 0.033
REMARK SMILES COc1cc(C(=O)[O-])ccc1O
REMARK SMILES IDX 5 1 9 2 4 3 10 4 3 5 11 6 6 7 7 8 8 9 2 10 1 11 12 12
REMARK H PARENT 12 13
REMARK Flexibility Score: inf
ROOT
ATOM      1  C   UNL     1      24.390  28.835  17.779  1.00  0.00     0.001 A 
ATOM      2  C   UNL     1      24.914  29.366  16.590  1.00  0.00     0.014 A 
ATOM      3  C   UNL     1      24.983  27.689  18.336  1.00  0.00     0.060 A 
ATOM      4  C   UNL     1      26.009  28.764  15.970  1.00  0.00     0.051 A 
ATOM      5  C   UNL     1      26.091  27.076  17.714  1.00  0.00     0.161 A 
ATOM      6  C   UNL     1      26.599  27.625  16.523  1.00  0.00     0.157 A 
ENDROOT
BRANCH   1   7
ATOM      7  C   UNL     1      23.228  29.478  18.433  1.00  0.00     0.072 C 
ATOM      8  O   UNL     1      22.078  29.398  17.923  1.00  0.00    -0.545 OA
ATOM      9  O   UNL     1      23.388  30.182  19.622  1.00  0.00    -0.545 OA
ENDBRANCH   1   7
BRANCH   5  10
ATOM     10  O   UNL     1      26.704  25.931  18.247  1.00  0.00    -0.493 OA
ATOM     11  C   UNL     1      26.593  24.622  17.694  1.00  0.00     0.278 C 
ENDBRANCH   5  10
BRANCH   6  12
ATOM     12  O   UNL     1      27.693  27.051  15.875  1.00  0.00    -0.504 OA
ATOM     13  H   UNL     1      28.326  27.593  15.299  1.00  0.00     0.293 HD
ENDBRANCH   6  12
TORSDOF 3
ENDMDL
MODEL 2
REMARK VINA RESULT:    -5.143     17.346     18.203
REMARK INTER + INTRA:          -5.862
REMARK INTER:                  -5.766
REMARK INTRA:                  -0.096
REMARK UNBOUND:                 0.033
REMARK SMILES COc1cc(C(=O)[O-])ccc1O
REMARK SMILES IDX 5 1 9 2 4 3 10 4 3 5 11 6 6 7 7 8 8 9 2 10 1 11 12 12
REMARK H PARENT 12 13
REMARK Flexibility Score: inf
ROOT
ATOM      1  C   UNL     1      29.967  25.715  34.992  1.00  0.00     0.001 A 
ATOM      2  C   UNL     1      29.176  26.809  35.378  1.00  0.00     0.014 A 
ATOM      3  C   UNL     1      31.082  25.936  34.165  1.00  0.00     0.060 A 
ATOM      4  C   UNL     1      29.494  28.098  34.947  1.00  0.00     0.051 A 
ATOM      5  C   UNL     1      31.408  27.236  33.726  1.00  0.00     0.161 A 
ATOM      6  C   UNL     1      30.602  28.317  34.125  1.00  0.00     0.157 A 
ENDROOT
BRANCH   1   7
ATOM      7  C   UNL     1      29.625  24.350  35.452  1.00  0.00     0.072 C 
ATOM      8  O   UNL     1      28.477  23.873  35.248  1.00  0.00    -0.545 OA
ATOM      9  O   UNL     1      30.568  23.575  36.119  1.00  0.00    -0.545 OA
ENDBRANCH   1   7
BRANCH   5  10
ATOM     10  O   UNL     1      32.516  27.487  32.900  1.00  0.00    -0.493 OA
ATOM     11  C   UNL     1      33.874  27.414  33.323  1.00  0.00     0.278 C 
ENDBRANCH   5  10
BRANCH   6  12
ATOM     12  O   UNL     1      30.888  29.619  33.715  1.00  0.00    -0.504 OA
ATOM     13  H   UNL     1      31.382  29.818  32.852  1.00  0.00     0.293 HD
ENDBRANCH   6  12
TORSDOF 3
ENDMDL
MODEL 3
REMARK VINA RESULT:    -5.119      2.526      5.633
REMARK INTER + INTRA:          -5.835
REMARK INTER:                  -5.762
REMARK INTRA:                  -0.073
REMARK UNBOUND:                 0.033
REMARK SMILES COc1cc(C(=O)[O-])ccc1O
REMARK SMILES IDX 5 1 9 2 4 3 10 4 3 5 11 6 6 7 7 8 8 9 2 10 1 11 12 12
REMARK H PARENT 12 13
REMARK Flexibility Score: inf
ROOT
ATOM      1  C   UNL     1      23.820  29.677  18.015  1.00  0.00     0.001 A 
ATOM      2  C   UNL     1      23.400  30.134  16.756  1.00  0.00     0.014 A 
ATOM      3  C   UNL     1      23.269  30.257  19.171  1.00  0.00     0.060 A 
ATOM      4  C   UNL     1      22.448  31.149  16.654  1.00  0.00     0.051 A 
ATOM      5  C   UNL     1      22.306  31.283  19.075  1.00  0.00     0.161 A 
ATOM      6  C   UNL     1      21.900  31.725  17.803  1.00  0.00     0.157 A 
ENDROOT
BRANCH   1   7
ATOM      7  C   UNL     1      24.830  28.600  18.117  1.00  0.00     0.072 C 
ATOM      8  O   UNL     1      24.627  27.598  18.853  1.00  0.00    -0.545 OA
ATOM      9  O   UNL     1      26.019  28.678  17.400  1.00  0.00    -0.545 OA
ENDBRANCH   1   7
BRANCH   5  10
ATOM     10  O   UNL     1      21.739  31.880  20.212  1.00  0.00    -0.493 OA
ATOM     11  C   UNL     1      22.227  33.067  20.831  1.00  0.00     0.278 C 
ENDBRANCH   5  10
BRANCH   6  12
ATOM     12  O   UNL     1      20.951  32.737  17.661  1.00  0.00    -0.504 OA
ATOM     13  H   UNL     1      19.986  32.618  17.946  1.00  0.00     0.293 HD
ENDBRANCH   6  12
TORSDOF 3
ENDMDL
MODEL 4
REMARK VINA RESULT:    -5.084     17.637     18.410
REMARK INTER + INTRA:          -5.794
REMARK INTER:                  -5.690
REMARK INTRA:                  -0.103
REMARK UNBOUND:                 0.033
REMARK SMILES COc1cc(C(=O)[O-])ccc1O
REMARK SMILES IDX 5 1 9 2 4 3 10 4 3 5 11 6 6 7 7 8 8 9 2 10 1 11 12 12
REMARK H PARENT 12 13
REMARK Flexibility Score: inf
ROOT
ATOM      1  C   UNL     1      32.764  27.229  34.037  1.00  0.00     0.001 A 
ATOM      2  C   UNL     1      32.334  28.551  34.232  1.00  0.00     0.014 A 
ATOM      3  C   UNL     1      31.817  26.190  34.067  1.00  0.00     0.060 A 
ATOM      4  C   UNL     1      30.985  28.830  34.452  1.00  0.00     0.051 A 
ATOM      5  C   UNL     1      30.452  26.466  34.289  1.00  0.00     0.161 A 
ATOM      6  C   UNL     1      30.043  27.798  34.482  1.00  0.00     0.157 A 
ENDROOT
BRANCH   1   7
ATOM      7  C   UNL     1      34.197  26.938  33.804  1.00  0.00     0.072 C 
ATOM      8  O   UNL     1      35.028  27.876  33.669  1.00  0.00    -0.545 OA
ATOM      9  O   UNL     1      34.647  25.625  33.731  1.00  0.00    -0.545 OA
ENDBRANCH   1   7
BRANCH   5  10
ATOM     10  O   UNL     1      29.483  25.449  34.324  1.00  0.00    -0.493 OA
ATOM     11  C   UNL     1      29.284  24.560  35.419  1.00  0.00     0.278 C 
ENDBRANCH   5  10
BRANCH   6  12
ATOM     12  O   UNL     1      28.703  28.115  34.704  1.00  0.00    -0.504 OA
ATOM     13  H   UNL     1      28.285  28.970  34.356  1.00  0.00     0.293 HD
ENDBRANCH   6  12
TORSDOF 3
ENDMDL
MODEL 5
REMARK VINA RESULT:    -4.804      3.940      7.375
REMARK INTER + INTRA:          -5.473
REMARK INTER:                  -5.390
REMARK INTRA:                  -0.083
REMARK UNBOUND:                 0.033
REMARK SMILES COc1cc(C(=O)[O-])ccc1O
REMARK SMILES IDX 5 1 9 2 4 3 10 4 3 5 11 6 6 7 7 8 8 9 2 10 1 11 12 12
REMARK H PARENT 12 13
REMARK Flexibility Score: inf
ROOT
ATOM      1  C   UNL     1      22.642  31.471  19.006  1.00  0.00     0.001 A 
ATOM      2  C   UNL     1      22.464  31.628  20.389  1.00  0.00     0.014 A 
ATOM      3  C   UNL     1      22.159  32.466  18.137  1.00  0.00     0.060 A 
ATOM      4  C   UNL     1      21.816  32.756  20.895  1.00  0.00     0.051 A 
ATOM      5  C   UNL     1      21.504  33.608  18.642  1.00  0.00     0.161 A 
ATOM      6  C   UNL     1      21.336  33.744  20.032  1.00  0.00     0.157 A 
ENDROOT
BRANCH   1   7
ATOM      7  C   UNL     1      23.330  30.273  18.475  1.00  0.00     0.072 C 
ATOM      8  O   UNL     1      23.810  29.409  19.257  1.00  0.00    -0.545 OA
ATOM      9  O   UNL     1      23.457  30.083  17.103  1.00  0.00    -0.545 OA
ENDBRANCH   1   7
BRANCH   5  10
ATOM     10  O   UNL     1      21.011  34.617  17.799  1.00  0.00    -0.493 OA
ATOM     11  C   UNL     1      21.550  34.936  16.519  1.00  0.00     0.278 C 
ENDBRANCH   5  10
BRANCH   6  12
ATOM     12  O   UNL     1      20.694  34.858  20.574  1.00  0.00    -0.504 OA
ATOM     13  H   UNL     1      21.133  35.770  20.610  1.00  0.00     0.293 HD
ENDBRANCH   6  12
TORSDOF 3
ENDMDL
MODEL 6
REMARK VINA RESULT:    -4.778     13.131     15.245
REMARK INTER + INTRA:          -5.443
REMARK INTER:                  -5.350
REMARK INTRA:                  -0.093
REMARK UNBOUND:                 0.033
REMARK SMILES COc1cc(C(=O)[O-])ccc1O
REMARK SMILES IDX 5 1 9 2 4 3 10 4 3 5 11 6 6 7 7 8 8 9 2 10 1 11 12 12
REMARK H PARENT 12 13
REMARK Flexibility Score: inf
ROOT
ATOM      1  C   UNL     1      19.389  32.042  31.248  1.00  0.00     0.001 A 
ATOM      2  C   UNL     1      20.286  31.766  32.292  1.00  0.00     0.014 A 
ATOM      3  C   UNL     1      19.783  32.917  30.221  1.00  0.00     0.060 A 
ATOM      4  C   UNL     1      21.552  32.354  32.310  1.00  0.00     0.051 A 
ATOM      5  C   UNL     1      21.061  33.514  30.233  1.00  0.00     0.161 A 
ATOM      6  C   UNL     1      21.943  33.224  31.289  1.00  0.00     0.157 A 
ENDROOT
BRANCH   1   7
ATOM      7  C   UNL     1      18.048  31.415  31.234  1.00  0.00     0.072 C 
ATOM      8  O   UNL     1      17.070  31.980  31.794  1.00  0.00    -0.545 OA
ATOM      9  O   UNL     1      17.847  30.193  30.602  1.00  0.00    -0.545 OA
ENDBRANCH   1   7
BRANCH   5  10
ATOM     10  O   UNL     1      21.482  34.392  29.221  1.00  0.00    -0.493 OA
ATOM     11  C   UNL     1      21.787  34.001  27.886  1.00  0.00     0.278 C 
ENDBRANCH   5  10
BRANCH   6  12
ATOM     12  O   UNL     1      23.216  33.792  31.340  1.00  0.00    -0.504 OA
ATOM     13  H   UNL     1      23.691  34.130  30.512  1.00  0.00     0.293 HD
ENDBRANCH   6  12
TORSDOF 3
ENDMDL
MODEL 7
REMARK VINA RESULT:    -4.722      2.594      3.980
REMARK INTER + INTRA:          -5.380
REMARK INTER:                  -5.284
REMARK INTRA:                  -0.096
REMARK UNBOUND:                 0.033
REMARK SMILES COc1cc(C(=O)[O-])ccc1O
REMARK SMILES IDX 5 1 9 2 4 3 10 4 3 5 11 6 6 7 7 8 8 9 2 10 1 11 12 12
REMARK H PARENT 12 13
REMARK Flexibility Score: inf
ROOT
ATOM      1  C   UNL     1      22.623  31.384  17.195  1.00  0.00     0.001 A 
ATOM      2  C   UNL     1      22.494  31.280  18.589  1.00  0.00     0.014 A 
ATOM      3  C   UNL     1      23.389  30.427  16.506  1.00  0.00     0.060 A 
ATOM      4  C   UNL     1      23.119  30.242  19.281  1.00  0.00     0.051 A 
ATOM      5  C   UNL     1      24.023  29.375  17.200  1.00  0.00     0.161 A 
ATOM      6  C   UNL     1      23.881  29.291  18.597  1.00  0.00     0.157 A 
ENDROOT
BRANCH   1   7
ATOM      7  C   UNL     1      21.957  32.487  16.467  1.00  0.00     0.072 C 
ATOM      8  O   UNL     1      20.766  32.369  16.072  1.00  0.00    -0.545 OA
ATOM      9  O   UNL     1      22.639  33.671  16.206  1.00  0.00    -0.545 OA
ENDBRANCH   1   7
BRANCH   5  10
ATOM     10  O   UNL     1      24.794  28.406  16.538  1.00  0.00    -0.493 OA
ATOM     11  C   UNL     1      26.158  28.575  16.164  1.00  0.00     0.278 C 
ENDBRANCH   5  10
BRANCH   6  12
ATOM     12  O   UNL     1      24.490  28.268  19.322  1.00  0.00    -0.504 OA
ATOM     13  H   UNL     1      25.495  28.139  19.337  1.00  0.00     0.293 HD
ENDBRANCH   6  12
TORSDOF 3
ENDMDL
MODEL 8
REMARK VINA RESULT:    -4.665     17.198     18.226
REMARK INTER + INTRA:          -5.313
REMARK INTER:                  -5.280
REMARK INTRA:                  -0.033
REMARK UNBOUND:                 0.033
REMARK SMILES COc1cc(C(=O)[O-])ccc1O
REMARK SMILES IDX 5 1 9 2 4 3 10 4 3 5 11 6 6 7 7 8 8 9 2 10 1 11 12 12
REMARK H PARENT 12 13
REMARK Flexibility Score: inf
ROOT
ATOM      1  C   UNL     1      30.545  27.230  34.336  1.00  0.00     0.001 A 
ATOM      2  C   UNL     1      31.485  26.190  34.259  1.00  0.00     0.014 A 
ATOM      3  C   UNL     1      29.292  26.978  34.921  1.00  0.00     0.060 A 
ATOM      4  C   UNL     1      31.179  24.923  34.758  1.00  0.00     0.051 A 
ATOM      5  C   UNL     1      28.977  25.700  35.427  1.00  0.00     0.161 A 
ATOM      6  C   UNL     1      29.934  24.672  35.340  1.00  0.00     0.157 A 
ENDROOT
BRANCH   1   7
ATOM      7  C   UNL     1      30.875  28.572  33.805  1.00  0.00     0.072 C 
ATOM      8  O   UNL     1      30.934  28.774  32.563  1.00  0.00    -0.545 OA
ATOM      9  O   UNL     1      31.126  29.630  34.672  1.00  0.00    -0.545 OA
ENDBRANCH   1   7
BRANCH   5  10
ATOM     10  O   UNL     1      27.734  25.418  36.017  1.00  0.00    -0.493 OA
ATOM     11  C   UNL     1      26.652  24.770  35.354  1.00  0.00     0.278 C 
ENDBRANCH   5  10
BRANCH   6  12
ATOM     12  O   UNL     1      29.664  23.394  35.827  1.00  0.00    -0.504 OA
ATOM     13  H   UNL     1      29.077  23.237  36.638  1.00  0.00     0.293 HD
ENDBRANCH   6  12
TORSDOF 3
ENDMDL
MODEL 9
REMARK VINA RESULT:    -4.622     10.136     10.851
REMARK INTER + INTRA:          -5.265
REMARK INTER:                  -5.174
REMARK INTRA:                  -0.091
REMARK UNBOUND:                 0.033
REMARK SMILES COc1cc(C(=O)[O-])ccc1O
REMARK SMILES IDX 5 1 9 2 4 3 10 4 3 5 11 6 6 7 7 8 8 9 2 10 1 11 12 12
REMARK H PARENT 12 13
REMARK Flexibility Score: inf
ROOT
ATOM      1  C   UNL     1      31.503  34.699  23.433  1.00  0.00     0.001 A 
ATOM      2  C   UNL     1      32.118  33.478  23.114  1.00  0.00     0.014 A 
ATOM      3  C   UNL     1      31.151  35.580  22.396  1.00  0.00     0.060 A 
ATOM      4  C   UNL     1      32.375  33.144  21.783  1.00  0.00     0.051 A 
ATOM      5  C   UNL     1      31.408  35.248  21.050  1.00  0.00     0.161 A 
ATOM      6  C   UNL     1      32.025  34.019  20.752  1.00  0.00     0.157 A 
ENDROOT
BRANCH   1   7
ATOM      7  C   UNL     1      31.232  35.048  24.846  1.00  0.00     0.072 C 
ATOM      8  O   UNL     1      31.772  36.059  25.372  1.00  0.00    -0.545 OA
ATOM      9  O   UNL     1      30.378  34.265  25.615  1.00  0.00    -0.545 OA
ENDBRANCH   1   7
BRANCH   5  10
ATOM     10  O   UNL     1      31.068  36.107  19.993  1.00  0.00    -0.493 OA
ATOM     11  C   UNL     1      29.801  36.125  19.341  1.00  0.00     0.278 C 
ENDBRANCH   5  10
BRANCH   6  12
ATOM     12  O   UNL     1      32.298  33.651  19.435  1.00  0.00    -0.504 OA
ATOM     13  H   UNL     1      33.120  33.977  18.941  1.00  0.00     0.293 HD
ENDBRANCH   6  12
TORSDOF 3
ENDMDL
