MODEL 1
REMARK VINA RESULT:    -3.192      0.000      0.000
REMARK INTER + INTRA:          -5.971
REMARK INTER:                  -4.592
REMARK INTRA:                  -1.379
REMARK UNBOUND:                -1.379
REMARK SMILES O=C(CO)[C@@H](O)[C@H](O)[C@@H](O)CO
REMARK SMILES IDX 7 1 9 2 11 3 12 4 10 6 5 8 2 9 1 10 3 11 4 12 6 14 8 16
REMARK H PARENT 12 5 10 7 4 13 6 15 8 17
REMARK Flexibility Score: inf
ROOT
ATOM      1  C   UNL     1      -8.433  22.694  -6.926  1.00  0.00     0.181 C 
ENDROOT
BRANCH   1   2
ATOM      2  C   UNL     1      -7.014  22.079  -6.784  1.00  0.00     0.171 C 
BRANCH   2   3
ATOM      3  C   UNL     1      -6.937  20.639  -7.330  1.00  0.00     0.190 C 
BRANCH   3   4
ATOM      4  O   UNL     1      -8.219  20.125  -7.576  1.00  0.00    -0.394 OA
ATOM      5  H   UNL     1      -8.271  19.253  -7.105  1.00  0.00     0.210 HD
ENDBRANCH   3   4
ENDBRANCH   2   3
BRANCH   2   6
ATOM      6  O   UNL     1      -6.570  22.114  -5.449  1.00  0.00    -0.388 OA
ATOM      7  H   UNL     1      -5.612  22.374  -5.454  1.00  0.00     0.211 HD
ENDBRANCH   2   6
ENDBRANCH   1   2
BRANCH   1   8
ATOM      8  C   UNL     1      -8.377  24.228  -7.141  1.00  0.00     0.214 C 
BRANCH   8   9
ATOM      9  C   UNL     1      -9.119  24.964  -6.042  1.00  0.00     0.189 C 
ATOM     10  O   UNL     1     -10.333  25.085  -6.130  1.00  0.00    -0.294 OA
BRANCH   9  11
ATOM     11  C   UNL     1      -8.396  25.561  -4.859  1.00  0.00     0.234 C 
BRANCH  11  12
ATOM     12  O   UNL     1      -7.523  24.632  -4.273  1.00  0.00    -0.388 OA
ATOM     13  H   UNL     1      -6.603  24.910  -4.521  1.00  0.00     0.211 HD
ENDBRANCH  11  12
ENDBRANCH   9  11
ENDBRANCH   8   9
BRANCH   8  14
ATOM     14  O   UNL     1      -7.054  24.695  -7.275  1.00  0.00    -0.382 OA
ATOM     15  H   UNL     1      -6.628  24.676  -6.379  1.00  0.00     0.211 HD
ENDBRANCH   8  14
ENDBRANCH   1   8
BRANCH   1  16
ATOM     16  O   UNL     1      -9.220  22.398  -5.797  1.00  0.00    -0.387 OA
ATOM     17  H   UNL     1      -9.089  23.134  -5.146  1.00  0.00     0.211 HD
ENDBRANCH   1  16
TORSDOF 10
ENDMDL
MODEL 2
REMARK VINA RESULT:    -3.178      1.585      4.213
REMARK INTER + INTRA:          -5.950
REMARK INTER:                  -4.852
REMARK INTRA:                  -1.098
REMARK UNBOUND:                -1.379
REMARK SMILES O=C(CO)[C@@H](O)[C@H](O)[C@@H](O)CO
REMARK SMILES IDX 7 1 9 2 11 3 12 4 10 6 5 8 2 9 1 10 3 11 4 12 6 14 8 16
REMARK H PARENT 12 5 10 7 4 13 6 15 8 17
REMARK Flexibility Score: inf
ROOT
ATOM      1  C   UNL     1      -8.571  23.504  -7.021  1.00  0.00     0.181 C 
ENDROOT
BRANCH   1   2
ATOM      2  C   UNL     1      -8.477  23.523  -5.470  1.00  0.00     0.171 C 
BRANCH   2   3
ATOM      3  C   UNL     1      -8.464  24.955  -4.897  1.00  0.00     0.190 C 
BRANCH   3   4
ATOM      4  O   UNL     1      -7.494  25.085  -3.892  1.00  0.00    -0.394 OA
ATOM      5  H   UNL     1      -6.806  25.709  -4.241  1.00  0.00     0.210 HD
ENDBRANCH   3   4
ENDBRANCH   2   3
BRANCH   2   6
ATOM      6  O   UNL     1      -7.354  22.810  -5.015  1.00  0.00    -0.388 OA
ATOM      7  H   UNL     1      -7.625  22.299  -4.208  1.00  0.00     0.211 HD
ENDBRANCH   2   6
ENDBRANCH   1   2
BRANCH   1   8
ATOM      8  C   UNL     1      -9.157  22.169  -7.546  1.00  0.00     0.214 C 
BRANCH   8   9
ATOM      9  C   UNL     1      -8.126  21.392  -8.341  1.00  0.00     0.189 C 
ATOM     10  O   UNL     1      -8.004  21.626  -9.535  1.00  0.00    -0.294 OA
BRANCH   9  11
ATOM     11  C   UNL     1      -7.264  20.332  -7.699  1.00  0.00     0.234 C 
BRANCH  11  12
ATOM     12  O   UNL     1      -6.244  20.904  -6.924  1.00  0.00    -0.388 OA
ATOM     13  H   UNL     1      -5.497  20.249  -6.908  1.00  0.00     0.211 HD
ENDBRANCH  11  12
ENDBRANCH   9  11
ENDBRANCH   8   9
BRANCH   8  14
ATOM     14  O   UNL     1      -9.706  21.389  -6.509  1.00  0.00    -0.382 OA
ATOM     15  H   UNL     1      -9.412  20.450  -6.639  1.00  0.00     0.211 HD
ENDBRANCH   8  14
ENDBRANCH   1   8
BRANCH   1  16
ATOM     16  O   UNL     1      -7.308  23.733  -7.599  1.00  0.00    -0.387 OA
ATOM     17  H   UNL     1      -7.166  24.714  -7.617  1.00  0.00     0.211 HD
ENDBRANCH   1  16
TORSDOF 10
ENDMDL
MODEL 3
REMARK VINA RESULT:    -3.149      2.645      4.055
REMARK INTER + INTRA:          -5.908
REMARK INTER:                  -4.927
REMARK INTRA:                  -0.981
REMARK UNBOUND:                -1.379
REMARK SMILES O=C(CO)[C@@H](O)[C@H](O)[C@@H](O)CO
REMARK SMILES IDX 7 1 9 2 11 3 12 4 10 6 5 8 2 9 1 10 3 11 4 12 6 14 8 16
REMARK H PARENT 12 5 10 7 4 13 6 15 8 17
REMARK Flexibility Score: inf
ROOT
ATOM      1  C   UNL     1      -7.763  20.385  -9.129  1.00  0.00     0.181 C 
ENDROOT
BRANCH   1   2
ATOM      2  C   UNL     1      -7.729  18.853  -9.385  1.00  0.00     0.171 C 
BRANCH   2   3
ATOM      3  C   UNL     1      -8.552  18.443 -10.623  1.00  0.00     0.190 C 
BRANCH   3   4
ATOM      4  O   UNL     1      -9.898  18.808 -10.476  1.00  0.00    -0.394 OA
ATOM      5  H   UNL     1     -10.235  19.023 -11.384  1.00  0.00     0.210 HD
ENDBRANCH   3   4
ENDBRANCH   2   3
BRANCH   2   6
ATOM      6  O   UNL     1      -8.163  18.134  -8.257  1.00  0.00    -0.388 OA
ATOM      7  H   UNL     1      -9.102  18.397  -8.071  1.00  0.00     0.211 HD
ENDBRANCH   2   6
ENDBRANCH   1   2
BRANCH   1   8
ATOM      8  C   UNL     1      -6.605  20.840  -8.205  1.00  0.00     0.214 C 
BRANCH   8   9
ATOM      9  C   UNL     1      -7.031  21.997  -7.321  1.00  0.00     0.189 C 
ATOM     10  O   UNL     1      -7.306  23.067  -7.844  1.00  0.00    -0.294 OA
BRANCH   9  11
ATOM     11  C   UNL     1      -7.107  21.861  -5.819  1.00  0.00     0.234 C 
BRANCH  11  12
ATOM     12  O   UNL     1      -5.842  21.611  -5.265  1.00  0.00    -0.388 OA
ATOM     13  H   UNL     1      -5.725  20.625  -5.256  1.00  0.00     0.211 HD
ENDBRANCH  11  12
ENDBRANCH   9  11
ENDBRANCH   8   9
BRANCH   8  14
ATOM     14  O   UNL     1      -6.084  19.773  -7.446  1.00  0.00    -0.382 OA
ATOM     15  H   UNL     1      -6.048  18.969  -8.027  1.00  0.00     0.211 HD
ENDBRANCH   8  14
ENDBRANCH   1   8
BRANCH   1  16
ATOM     16  O   UNL     1      -8.998  20.770  -8.575  1.00  0.00    -0.387 OA
ATOM     17  H   UNL     1      -9.531  21.183  -9.302  1.00  0.00     0.211 HD
ENDBRANCH   1  16
TORSDOF 10
ENDMDL
MODEL 4
REMARK VINA RESULT:    -3.139      1.502      2.446
REMARK INTER + INTRA:          -5.894
REMARK INTER:                  -4.697
REMARK INTRA:                  -1.197
REMARK UNBOUND:                -1.379
REMARK SMILES O=C(CO)[C@@H](O)[C@H](O)[C@@H](O)CO
REMARK SMILES IDX 7 1 9 2 11 3 12 4 10 6 5 8 2 9 1 10 3 11 4 12 6 14 8 16
REMARK H PARENT 12 5 10 7 4 13 6 15 8 17
REMARK Flexibility Score: inf
ROOT
ATOM      1  C   UNL     1      -7.551  21.561  -6.537  1.00  0.00     0.181 C 
ENDROOT
BRANCH   1   2
ATOM      2  C   UNL     1      -7.829  20.676  -7.782  1.00  0.00     0.171 C 
BRANCH   2   3
ATOM      3  C   UNL     1      -6.579  19.903  -8.249  1.00  0.00     0.190 C 
BRANCH   3   4
ATOM      4  O   UNL     1      -5.606  20.780  -8.753  1.00  0.00    -0.394 OA
ATOM      5  H   UNL     1      -6.094  21.514  -9.209  1.00  0.00     0.210 HD
ENDBRANCH   3   4
ENDBRANCH   2   3
BRANCH   2   6
ATOM      6  O   UNL     1      -8.353  21.435  -8.845  1.00  0.00    -0.388 OA
ATOM      7  H   UNL     1      -8.476  22.365  -8.522  1.00  0.00     0.211 HD
ENDBRANCH   2   6
ENDBRANCH   1   2
BRANCH   1   8
ATOM      8  C   UNL     1      -8.856  22.165  -5.957  1.00  0.00     0.214 C 
BRANCH   8   9
ATOM      9  C   UNL     1      -8.964  23.644  -6.274  1.00  0.00     0.189 C 
ATOM     10  O   UNL     1      -9.214  23.983  -7.422  1.00  0.00    -0.294 OA
BRANCH   9  11
ATOM     11  C   UNL     1      -8.755  24.700  -5.215  1.00  0.00     0.234 C 
BRANCH  11  12
ATOM     12  O   UNL     1      -7.584  24.461  -4.482  1.00  0.00    -0.388 OA
ATOM     13  H   UNL     1      -7.528  25.176  -3.795  1.00  0.00     0.211 HD
ENDBRANCH  11  12
ENDBRANCH   9  11
ENDBRANCH   8   9
BRANCH   8  14
ATOM     14  O   UNL     1      -9.999  21.460  -6.382  1.00  0.00    -0.382 OA
ATOM     15  H   UNL     1     -10.798  22.009  -6.170  1.00  0.00     0.211 HD
ENDBRANCH   8  14
ENDBRANCH   1   8
BRANCH   1  16
ATOM     16  O   UNL     1      -6.645  22.591  -6.850  1.00  0.00    -0.387 OA
ATOM     17  H   UNL     1      -7.070  23.448  -6.586  1.00  0.00     0.211 HD
ENDBRANCH   1  16
TORSDOF 10
ENDMDL
MODEL 5
REMARK VINA RESULT:    -3.048      8.753      9.823
REMARK INTER + INTRA:          -5.762
REMARK INTER:                  -4.779
REMARK INTRA:                  -0.983
REMARK UNBOUND:                -1.379
REMARK SMILES O=C(CO)[C@@H](O)[C@H](O)[C@@H](O)CO
REMARK SMILES IDX 7 1 9 2 11 3 12 4 10 6 5 8 2 9 1 10 3 11 4 12 6 14 8 16
REMARK H PARENT 12 5 10 7 4 13 6 15 8 17
REMARK Flexibility Score: inf
ROOT
ATOM      1  C   UNL     1       1.753  23.838 -10.472  1.00  0.00     0.181 C 
ENDROOT
BRANCH   1   2
ATOM      2  C   UNL     1       2.171  22.343 -10.407  1.00  0.00     0.171 C 
BRANCH   2   3
ATOM      3  C   UNL     1       1.281  21.442 -11.288  1.00  0.00     0.190 C 
BRANCH   3   4
ATOM      4  O   UNL     1      -0.034  21.406 -10.802  1.00  0.00    -0.394 OA
ATOM      5  H   UNL     1      -0.108  20.588 -10.244  1.00  0.00     0.210 HD
ENDBRANCH   3   4
ENDBRANCH   2   3
BRANCH   2   6
ATOM      6  O   UNL     1       2.178  21.869  -9.083  1.00  0.00    -0.388 OA
ATOM      7  H   UNL     1       1.419  21.238  -8.982  1.00  0.00     0.211 HD
ENDBRANCH   2   6
ENDBRANCH   1   2
BRANCH   1   8
ATOM      8  C   UNL     1       1.020  24.287  -9.182  1.00  0.00     0.214 C 
BRANCH   8   9
ATOM      9  C   UNL     1       0.693  25.768  -9.225  1.00  0.00     0.189 C 
ATOM     10  O   UNL     1       1.501  26.535  -9.728  1.00  0.00    -0.294 OA
BRANCH   9  11
ATOM     11  C   UNL     1      -0.591  26.313  -8.649  1.00  0.00     0.234 C 
BRANCH  11  12
ATOM     12  O   UNL     1      -0.350  27.069  -7.492  1.00  0.00    -0.388 OA
ATOM     13  H   UNL     1      -0.886  27.901  -7.579  1.00  0.00     0.211 HD
ENDBRANCH  11  12
ENDBRANCH   9  11
ENDBRANCH   8   9
BRANCH   8  14
ATOM     14  O   UNL     1      -0.128  23.511  -8.929  1.00  0.00    -0.382 OA
ATOM     15  H   UNL     1       0.037  22.973  -8.112  1.00  0.00     0.211 HD
ENDBRANCH   8  14
ENDBRANCH   1   8
BRANCH   1  16
ATOM     16  O   UNL     1       0.938  24.079 -11.594  1.00  0.00    -0.387 OA
ATOM     17  H   UNL     1       1.311  24.870 -12.063  1.00  0.00     0.211 HD
ENDBRANCH   1  16
TORSDOF 10
ENDMDL
MODEL 6
REMARK VINA RESULT:    -3.034      7.907      9.040
REMARK INTER + INTRA:          -5.743
REMARK INTER:                  -4.631
REMARK INTRA:                  -1.112
REMARK UNBOUND:                -1.379
REMARK SMILES O=C(CO)[C@@H](O)[C@H](O)[C@@H](O)CO
REMARK SMILES IDX 7 1 9 2 11 3 12 4 10 6 5 8 2 9 1 10 3 11 4 12 6 14 8 16
REMARK H PARENT 12 5 10 7 4 13 6 15 8 17
REMARK Flexibility Score: inf
ROOT
ATOM      1  C   UNL     1       0.049  25.976  -9.314  1.00  0.00     0.181 C 
ENDROOT
BRANCH   1   2
ATOM      2  C   UNL     1       1.570  26.288  -9.266  1.00  0.00     0.171 C 
BRANCH   2   3
ATOM      3  C   UNL     1       2.272  25.628  -8.063  1.00  0.00     0.190 C 
BRANCH   3   4
ATOM      4  O   UNL     1       1.885  26.236  -6.859  1.00  0.00    -0.394 OA
ATOM      5  H   UNL     1       1.908  27.216  -7.016  1.00  0.00     0.210 HD
ENDBRANCH   3   4
ENDBRANCH   2   3
BRANCH   2   6
ATOM      6  O   UNL     1       1.810  27.675  -9.265  1.00  0.00    -0.388 OA
ATOM      7  H   UNL     1       1.030  28.118  -9.690  1.00  0.00     0.211 HD
ENDBRANCH   2   6
ENDBRANCH   1   2
BRANCH   1   8
ATOM      8  C   UNL     1      -0.798  27.152  -8.763  1.00  0.00     0.214 C 
BRANCH   8   9
ATOM      9  C   UNL     1      -2.245  27.038  -9.201  1.00  0.00     0.189 C 
ATOM     10  O   UNL     1      -2.534  26.232 -10.074  1.00  0.00    -0.294 OA
BRANCH   9  11
ATOM     11  C   UNL     1      -3.326  27.902  -8.600  1.00  0.00     0.234 C 
BRANCH  11  12
ATOM     12  O   UNL     1      -3.455  27.673  -7.222  1.00  0.00    -0.388 OA
ATOM     13  H   UNL     1      -2.533  27.600  -6.859  1.00  0.00     0.211 HD
ENDBRANCH  11  12
ENDBRANCH   9  11
ENDBRANCH   8   9
BRANCH   8  14
ATOM     14  O   UNL     1      -0.689  27.272  -7.364  1.00  0.00    -0.382 OA
ATOM     15  H   UNL     1      -1.042  26.440  -6.954  1.00  0.00     0.211 HD
ENDBRANCH   8  14
ENDBRANCH   1   8
BRANCH   1  16
ATOM     16  O   UNL     1      -0.241  24.800  -8.597  1.00  0.00    -0.387 OA
ATOM     17  H   UNL     1       0.080  24.037  -9.143  1.00  0.00     0.211 HD
ENDBRANCH   1  16
TORSDOF 10
ENDMDL
MODEL 7
REMARK VINA RESULT:    -3.002      2.236      5.133
REMARK INTER + INTRA:          -5.696
REMARK INTER:                  -4.483
REMARK INTRA:                  -1.213
REMARK UNBOUND:                -1.379
REMARK SMILES O=C(CO)[C@@H](O)[C@H](O)[C@@H](O)CO
REMARK SMILES IDX 7 1 9 2 11 3 12 4 10 6 5 8 2 9 1 10 3 11 4 12 6 14 8 16
REMARK H PARENT 12 5 10 7 4 13 6 15 8 17
REMARK Flexibility Score: inf
ROOT
ATOM      1  C   UNL     1      -7.563  21.649  -7.790  1.00  0.00     0.181 C 
ENDROOT
BRANCH   1   2
ATOM      2  C   UNL     1      -8.680  22.016  -6.776  1.00  0.00     0.171 C 
BRANCH   2   3
ATOM      3  C   UNL     1      -8.187  22.978  -5.676  1.00  0.00     0.190 C 
BRANCH   3   4
ATOM      4  O   UNL     1      -7.051  22.466  -5.033  1.00  0.00    -0.394 OA
ATOM      5  H   UNL     1      -6.391  22.258  -5.745  1.00  0.00     0.210 HD
ENDBRANCH   3   4
ENDBRANCH   2   3
BRANCH   2   6
ATOM      6  O   UNL     1      -9.245  20.866  -6.195  1.00  0.00    -0.388 OA
ATOM      7  H   UNL     1      -8.588  20.499  -5.547  1.00  0.00     0.211 HD
ENDBRANCH   2   6
ENDBRANCH   1   2
BRANCH   1   8
ATOM      8  C   UNL     1      -8.146  21.078  -9.108  1.00  0.00     0.214 C 
BRANCH   8   9
ATOM      9  C   UNL     1      -7.305  19.927  -9.626  1.00  0.00     0.189 C 
ATOM     10  O   UNL     1      -6.227  20.173 -10.147  1.00  0.00    -0.294 OA
BRANCH   9  11
ATOM     11  C   UNL     1      -7.774  18.496  -9.528  1.00  0.00     0.234 C 
BRANCH  11  12
ATOM     12  O   UNL     1      -8.088  18.151  -8.205  1.00  0.00    -0.388 OA
ATOM     13  H   UNL     1      -7.248  18.237  -7.682  1.00  0.00     0.211 HD
ENDBRANCH  11  12
ENDBRANCH   9  11
ENDBRANCH   8   9
BRANCH   8  14
ATOM     14  O   UNL     1      -9.499  20.710  -8.971  1.00  0.00    -0.382 OA
ATOM     15  H   UNL     1      -9.854  20.497  -9.873  1.00  0.00     0.211 HD
ENDBRANCH   8  14
ENDBRANCH   1   8
BRANCH   1  16
ATOM     16  O   UNL     1      -6.661  20.727  -7.226  1.00  0.00    -0.387 OA
ATOM     17  H   UNL     1      -7.185  20.127  -6.635  1.00  0.00     0.211 HD
ENDBRANCH   1  16
TORSDOF 10
ENDMDL
MODEL 8
REMARK VINA RESULT:    -2.988      8.454     10.135
REMARK INTER + INTRA:          -5.676
REMARK INTER:                  -4.975
REMARK INTRA:                  -0.702
REMARK UNBOUND:                -1.379
REMARK SMILES O=C(CO)[C@@H](O)[C@H](O)[C@@H](O)CO
REMARK SMILES IDX 7 1 9 2 11 3 12 4 10 6 5 8 2 9 1 10 3 11 4 12 6 14 8 16
REMARK H PARENT 12 5 10 7 4 13 6 15 8 17
REMARK Flexibility Score: inf
ROOT
ATOM      1  C   UNL     1       0.271  26.986  -9.712  1.00  0.00     0.181 C 
ENDROOT
BRANCH   1   2
ATOM      2  C   UNL     1      -0.162  26.518  -8.296  1.00  0.00     0.171 C 
BRANCH   2   3
ATOM      3  C   UNL     1      -1.333  27.349  -7.731  1.00  0.00     0.190 C 
BRANCH   3   4
ATOM      4  O   UNL     1      -1.099  27.702  -6.394  1.00  0.00    -0.394 OA
ATOM      5  H   UNL     1      -0.341  28.342  -6.397  1.00  0.00     0.210 HD
ENDBRANCH   3   4
ENDBRANCH   2   3
BRANCH   2   6
ATOM      6  O   UNL     1       0.919  26.534  -7.396  1.00  0.00    -0.388 OA
ATOM      7  H   UNL     1       1.732  26.794  -7.903  1.00  0.00     0.211 HD
ENDBRANCH   2   6
ENDBRANCH   1   2
BRANCH   1   8
ATOM      8  C   UNL     1       0.373  25.799 -10.704  1.00  0.00     0.214 C 
BRANCH   8   9
ATOM      9  C   UNL     1       1.251  24.694 -10.148  1.00  0.00     0.189 C 
ATOM     10  O   UNL     1       2.384  24.970  -9.781  1.00  0.00    -0.294 OA
BRANCH   9  11
ATOM     11  C   UNL     1       0.765  23.268 -10.053  1.00  0.00     0.234 C 
BRANCH  11  12
ATOM     12  O   UNL     1      -0.221  23.129  -9.065  1.00  0.00    -0.388 OA
ATOM     13  H   UNL     1      -1.015  23.634  -9.383  1.00  0.00     0.211 HD
ENDBRANCH  11  12
ENDBRANCH   9  11
ENDBRANCH   8   9
BRANCH   8  14
ATOM     14  O   UNL     1      -0.895  25.313 -11.079  1.00  0.00    -0.382 OA
ATOM     15  H   UNL     1      -0.809  24.875 -11.965  1.00  0.00     0.211 HD
ENDBRANCH   8  14
ENDBRANCH   1   8
BRANCH   1  16
ATOM     16  O   UNL     1       1.499  27.671  -9.657  1.00  0.00    -0.387 OA
ATOM     17  H   UNL     1       1.386  28.426  -9.024  1.00  0.00     0.211 HD
ENDBRANCH   1  16
TORSDOF 10
ENDMDL
MODEL 9
REMARK VINA RESULT:    -2.949      8.286     10.003
REMARK INTER + INTRA:          -5.621
REMARK INTER:                  -4.488
REMARK INTRA:                  -1.133
REMARK UNBOUND:                -1.379
REMARK SMILES O=C(CO)[C@@H](O)[C@H](O)[C@@H](O)CO
REMARK SMILES IDX 7 1 9 2 11 3 12 4 10 6 5 8 2 9 1 10 3 11 4 12 6 14 8 16
REMARK H PARENT 12 5 10 7 4 13 6 15 8 17
REMARK Flexibility Score: inf
ROOT
ATOM      1  C   UNL     1      -0.432  24.681 -10.582  1.00  0.00     0.181 C 
ENDROOT
BRANCH   1   2
ATOM      2  C   UNL     1      -0.198  25.114  -9.108  1.00  0.00     0.171 C 
BRANCH   2   3
ATOM      3  C   UNL     1      -0.343  26.636  -8.910  1.00  0.00     0.190 C 
BRANCH   3   4
ATOM      4  O   UNL     1      -0.180  26.985  -7.561  1.00  0.00    -0.394 OA
ATOM      5  H   UNL     1      -1.092  27.091  -7.183  1.00  0.00     0.210 HD
ENDBRANCH   3   4
ENDBRANCH   2   3
BRANCH   2   6
ATOM      6  O   UNL     1       1.056  24.682  -8.639  1.00  0.00    -0.388 OA
ATOM      7  H   UNL     1       0.899  23.959  -7.976  1.00  0.00     0.211 HD
ENDBRANCH   2   6
ENDBRANCH   1   2
BRANCH   1   8
ATOM      8  C   UNL     1      -0.935  23.218 -10.679  1.00  0.00     0.214 C 
BRANCH   8   9
ATOM      9  C   UNL     1      -0.072  22.403 -11.623  1.00  0.00     0.189 C 
ATOM     10  O   UNL     1      -0.266  22.497 -12.827  1.00  0.00    -0.294 OA
BRANCH   9  11
ATOM     11  C   UNL     1       1.001  21.473 -11.113  1.00  0.00     0.234 C 
BRANCH  11  12
ATOM     12  O   UNL     1       1.631  21.997  -9.975  1.00  0.00    -0.388 OA
ATOM     13  H   UNL     1       1.275  21.495  -9.196  1.00  0.00     0.211 HD
ENDBRANCH  11  12
ENDBRANCH   9  11
ENDBRANCH   8   9
BRANCH   8  14
ATOM     14  O   UNL     1      -1.035  22.608  -9.413  1.00  0.00    -0.382 OA
ATOM     15  H   UNL     1      -1.993  22.423  -9.234  1.00  0.00     0.211 HD
ENDBRANCH   8  14
ENDBRANCH   1   8
BRANCH   1  16
ATOM     16  O   UNL     1       0.745  24.834 -11.338  1.00  0.00    -0.387 OA
ATOM     17  H   UNL     1       0.476  24.908 -12.290  1.00  0.00     0.211 HD
ENDBRANCH   1  16
TORSDOF 10
ENDMDL
