MODEL 1
REMARK VINA RESULT:    -5.256      0.000      0.000
REMARK INTER + INTRA:          -7.623
REMARK INTER:                  -7.100
REMARK INTRA:                  -0.524
REMARK UNBOUND:                -0.524
REMARK SMILES COc1ccc(-c2cc(=O)c3c(OC)c(OC)c(OC)c(OC)c3o2)cc1
REMARK SMILES IDX 7 1 8 2 9 3 10 4 11 5 24 6 25 7 21 8 18 9 15 10 12 11 6 12
REMARK SMILES IDX 3 13 4 14 27 15 5 16 26 17 2 18 1 19 22 20 23 21 13 22 14 23
REMARK SMILES IDX 19 24 20 25 16 26 17 27
REMARK H PARENT
REMARK Flexibility Score: inf
ROOT
ATOM      1  C   UNL     1      19.731 -19.488   0.477  1.00  0.00     0.138 A 
ATOM      2  C   UNL     1      20.792 -18.937   1.198  1.00  0.00     0.100 A 
ATOM      3  C   UNL     1      22.092 -19.114   0.737  1.00  0.00     0.197 A 
ATOM      4  O   UNL     1      23.035 -18.605   1.402  1.00  0.00    -0.289 OA
ATOM      5  C   UNL     1      22.327 -19.850  -0.451  1.00  0.00     0.115 A 
ATOM      6  C   UNL     1      21.202 -20.373  -1.131  1.00  0.00     0.188 A 
ATOM      7  O   UNL     1      19.980 -20.162  -0.641  1.00  0.00    -0.452 OA
ATOM      8  C   UNL     1      21.366 -21.127  -2.317  1.00  0.00     0.209 A 
ATOM      9  C   UNL     1      22.672 -21.367  -2.818  1.00  0.00     0.211 A 
ATOM     10  C   UNL     1      23.802 -20.822  -2.150  1.00  0.00     0.208 A 
ATOM     11  C   UNL     1      23.629 -20.070  -0.960  1.00  0.00     0.179 A 
ENDROOT
BRANCH   1  12
ATOM     12  C   UNL     1      18.326 -19.330   0.929  1.00  0.00     0.018 A 
ATOM     13  C   UNL     1      15.667 -18.995   1.815  1.00  0.00     0.118 A 
ATOM     14  C   UNL     1      15.932 -19.603   0.575  1.00  0.00     0.047 A 
ATOM     15  C   UNL     1      16.737 -18.554   2.600  1.00  0.00     0.047 A 
ATOM     16  C   UNL     1      17.249 -19.767   0.135  1.00  0.00     0.016 A 
ATOM     17  C   UNL     1      18.055 -18.716   2.161  1.00  0.00     0.016 A 
BRANCH  13  18
ATOM     18  O   UNL     1      14.363 -18.810   2.301  1.00  0.00    -0.497 OA
ATOM     19  C   UNL     1      14.018 -17.910   3.349  1.00  0.00     0.278 C 
ENDBRANCH  13  18
ENDBRANCH   1  12
BRANCH   8  20
ATOM     20  O   UNL     1      20.271 -21.661  -3.024  1.00  0.00    -0.490 OA
ATOM     21  C   UNL     1      19.579 -21.081  -4.125  1.00  0.00     0.278 C 
ENDBRANCH   8  20
BRANCH  11  22
ATOM     22  O   UNL     1      24.713 -19.518  -0.242  1.00  0.00    -0.492 OA
ATOM     23  C   UNL     1      25.625 -18.510  -0.666  1.00  0.00     0.278 C 
ENDBRANCH  11  22
BRANCH   9  24
ATOM     24  O   UNL     1      22.901 -22.140  -3.975  1.00  0.00    -0.490 OA
ATOM     25  C   UNL     1      23.214 -23.526  -4.062  1.00  0.00     0.279 C 
ENDBRANCH   9  24
BRANCH  10  26
ATOM     26  O   UNL     1      25.116 -20.996  -2.629  1.00  0.00    -0.490 OA
ATOM     27  C   UNL     1      25.675 -20.549  -3.860  1.00  0.00     0.278 C 
ENDBRANCH  10  26
TORSDOF 6
ENDMDL
MODEL 2
REMARK VINA RESULT:    -5.041      1.528      3.809
REMARK INTER + INTRA:          -7.333
REMARK INTER:                  -6.832
REMARK INTRA:                  -0.501
REMARK UNBOUND:                -0.524
REMARK SMILES COc1ccc(-c2cc(=O)c3c(OC)c(OC)c(OC)c(OC)c3o2)cc1
REMARK SMILES IDX 7 1 8 2 9 3 10 4 11 5 24 6 25 7 21 8 18 9 15 10 12 11 6 12
REMARK SMILES IDX 3 13 4 14 27 15 5 16 26 17 2 18 1 19 22 20 23 21 13 22 14 23
REMARK SMILES IDX 19 24 20 25 16 26 17 27
REMARK H PARENT
REMARK Flexibility Score: inf
ROOT
ATOM      1  C   UNL     1      18.255 -20.214   0.435  1.00  0.00     0.138 A 
ATOM      2  C   UNL     1      17.960 -20.674  -0.850  1.00  0.00     0.100 A 
ATOM      3  C   UNL     1      18.996 -20.873  -1.756  1.00  0.00     0.197 A 
ATOM      4  O   UNL     1      18.707 -21.291  -2.910  1.00  0.00    -0.289 OA
ATOM      5  C   UNL     1      20.334 -20.606  -1.371  1.00  0.00     0.115 A 
ATOM      6  C   UNL     1      20.556 -20.149  -0.051  1.00  0.00     0.188 A 
ATOM      7  O   UNL     1      19.520 -19.986   0.773  1.00  0.00    -0.452 OA
ATOM      8  C   UNL     1      21.865 -19.852   0.396  1.00  0.00     0.209 A 
ATOM      9  C   UNL     1      22.959 -20.006  -0.495  1.00  0.00     0.211 A 
ATOM     10  C   UNL     1      22.741 -20.489  -1.814  1.00  0.00     0.208 A 
ATOM     11  C   UNL     1      21.425 -20.780  -2.254  1.00  0.00     0.179 A 
ENDROOT
BRANCH   1  12
ATOM     12  C   UNL     1      17.186 -19.983   1.437  1.00  0.00     0.018 A 
ATOM     13  C   UNL     1      15.157 -19.587   3.360  1.00  0.00     0.118 A 
ATOM     14  C   UNL     1      15.851 -18.489   2.821  1.00  0.00     0.047 A 
ATOM     15  C   UNL     1      15.489 -20.877   2.934  1.00  0.00     0.047 A 
ATOM     16  C   UNL     1      16.857 -18.685   1.871  1.00  0.00     0.016 A 
ATOM     17  C   UNL     1      16.496 -21.075   1.985  1.00  0.00     0.016 A 
BRANCH  13  18
ATOM     18  O   UNL     1      14.138 -19.441   4.314  1.00  0.00    -0.497 OA
ATOM     19  C   UNL     1      14.179 -20.001   5.623  1.00  0.00     0.278 C 
ENDBRANCH  13  18
ENDBRANCH   1  12
BRANCH   8  20
ATOM     20  O   UNL     1      22.128 -19.398   1.703  1.00  0.00    -0.490 OA
ATOM     21  C   UNL     1      21.853 -18.112   2.250  1.00  0.00     0.278 C 
ENDBRANCH   8  20
BRANCH  11  22
ATOM     22  O   UNL     1      21.142 -21.246  -3.559  1.00  0.00    -0.492 OA
ATOM     23  C   UNL     1      21.451 -22.515  -4.123  1.00  0.00     0.278 C 
ENDBRANCH  11  22
BRANCH   9  24
ATOM     24  O   UNL     1      24.283 -19.694  -0.119  1.00  0.00    -0.490 OA
ATOM     25  C   UNL     1      24.885 -18.410   0.004  1.00  0.00     0.279 C 
ENDBRANCH   9  24
BRANCH  10  26
ATOM     26  O   UNL     1      23.797 -20.698  -2.723  1.00  0.00    -0.490 OA
ATOM     27  C   UNL     1      24.765 -21.744  -2.730  1.00  0.00     0.278 C 
ENDBRANCH  10  26
TORSDOF 6
ENDMDL
MODEL 3
REMARK VINA RESULT:    -4.974      1.944      7.740
REMARK INTER + INTRA:          -7.243
REMARK INTER:                  -6.742
REMARK INTRA:                  -0.501
REMARK UNBOUND:                -0.524
REMARK SMILES COc1ccc(-c2cc(=O)c3c(OC)c(OC)c(OC)c(OC)c3o2)cc1
REMARK SMILES IDX 7 1 8 2 9 3 10 4 11 5 24 6 25 7 21 8 18 9 15 10 12 11 6 12
REMARK SMILES IDX 3 13 4 14 27 15 5 16 26 17 2 18 1 19 22 20 23 21 13 22 14 23
REMARK SMILES IDX 19 24 20 25 16 26 17 27
REMARK H PARENT
REMARK Flexibility Score: inf
ROOT
ATOM      1  C   UNL     1      22.143 -20.358  -0.570  1.00  0.00     0.138 A 
ATOM      2  C   UNL     1      22.215 -20.495   0.817  1.00  0.00     0.100 A 
ATOM      3  C   UNL     1      21.043 -20.468   1.565  1.00  0.00     0.197 A 
ATOM      4  O   UNL     1      21.131 -20.596   2.816  1.00  0.00    -0.289 OA
ATOM      5  C   UNL     1      19.794 -20.300   0.917  1.00  0.00     0.115 A 
ATOM      6  C   UNL     1      19.800 -20.174  -0.493  1.00  0.00     0.188 A 
ATOM      7  O   UNL     1      20.957 -20.216  -1.152  1.00  0.00    -0.452 OA
ATOM      8  C   UNL     1      18.589 -19.992  -1.202  1.00  0.00     0.209 A 
ATOM      9  C   UNL     1      17.364 -19.925  -0.490  1.00  0.00     0.211 A 
ATOM     10  C   UNL     1      17.353 -20.075   0.923  1.00  0.00     0.208 A 
ATOM     11  C   UNL     1      18.571 -20.254   1.628  1.00  0.00     0.179 A 
ENDROOT
BRANCH   1  12
ATOM     12  C   UNL     1      23.365 -20.378  -1.412  1.00  0.00     0.018 A 
ATOM     13  C   UNL     1      25.663 -20.428  -3.050  1.00  0.00     0.118 A 
ATOM     14  C   UNL     1      25.631 -19.628  -1.894  1.00  0.00     0.047 A 
ATOM     15  C   UNL     1      24.540 -21.193  -3.380  1.00  0.00     0.047 A 
ATOM     16  C   UNL     1      24.492 -19.602  -1.084  1.00  0.00     0.016 A 
ATOM     17  C   UNL     1      23.400 -21.167  -2.572  1.00  0.00     0.016 A 
BRANCH  13  18
ATOM     18  O   UNL     1      26.784 -20.490  -3.894  1.00  0.00    -0.497 OA
ATOM     19  C   UNL     1      27.550 -21.668  -4.125  1.00  0.00     0.278 C 
ENDBRANCH  13  18
ENDBRANCH   1  12
BRANCH   8  20
ATOM     20  O   UNL     1      18.553 -19.866  -2.605  1.00  0.00    -0.490 OA
ATOM     21  C   UNL     1      18.463 -20.909  -3.571  1.00  0.00     0.278 C 
ENDBRANCH   8  20
BRANCH  11  22
ATOM     22  O   UNL     1      18.628 -20.392   3.033  1.00  0.00    -0.492 OA
ATOM     23  C   UNL     1      18.148 -21.471   3.829  1.00  0.00     0.278 C 
ENDBRANCH  11  22
BRANCH   9  24
ATOM     24  O   UNL     1      16.129 -19.711  -1.137  1.00  0.00    -0.490 OA
ATOM     25  C   UNL     1      15.730 -18.595  -1.926  1.00  0.00     0.279 C 
ENDBRANCH   9  24
BRANCH  10  26
ATOM     26  O   UNL     1      16.161 -20.058   1.674  1.00  0.00    -0.490 OA
ATOM     27  C   UNL     1      15.496 -18.938   2.251  1.00  0.00     0.278 C 
ENDBRANCH  10  26
TORSDOF 6
ENDMDL
MODEL 4
REMARK VINA RESULT:    -4.691      1.954      7.634
REMARK INTER + INTRA:          -6.861
REMARK INTER:                  -6.588
REMARK INTRA:                  -0.273
REMARK UNBOUND:                -0.524
REMARK SMILES COc1ccc(-c2cc(=O)c3c(OC)c(OC)c(OC)c(OC)c3o2)cc1
REMARK SMILES IDX 7 1 8 2 9 3 10 4 11 5 24 6 25 7 21 8 18 9 15 10 12 11 6 12
REMARK SMILES IDX 3 13 4 14 27 15 5 16 26 17 2 18 1 19 22 20 23 21 13 22 14 23
REMARK SMILES IDX 19 24 20 25 16 26 17 27
REMARK H PARENT
REMARK Flexibility Score: inf
ROOT
ATOM      1  C   UNL     1      22.238 -20.389  -0.804  1.00  0.00     0.138 A 
ATOM      2  C   UNL     1      22.269 -20.381   0.592  1.00  0.00     0.100 A 
ATOM      3  C   UNL     1      21.072 -20.361   1.299  1.00  0.00     0.197 A 
ATOM      4  O   UNL     1      21.123 -20.357   2.559  1.00  0.00    -0.289 OA
ATOM      5  C   UNL     1      19.838 -20.346   0.601  1.00  0.00     0.115 A 
ATOM      6  C   UNL     1      19.887 -20.362  -0.813  1.00  0.00     0.188 A 
ATOM      7  O   UNL     1      21.067 -20.389  -1.431  1.00  0.00    -0.452 OA
ATOM      8  C   UNL     1      18.693 -20.336  -1.572  1.00  0.00     0.209 A 
ATOM      9  C   UNL     1      17.441 -20.284  -0.906  1.00  0.00     0.211 A 
ATOM     10  C   UNL     1      17.390 -20.293   0.514  1.00  0.00     0.208 A 
ATOM     11  C   UNL     1      18.591 -20.315   1.268  1.00  0.00     0.179 A 
ENDROOT
BRANCH   1  12
ATOM     12  C   UNL     1      23.488 -20.407  -1.603  1.00  0.00     0.018 A 
ATOM     13  C   UNL     1      25.889 -20.426  -3.088  1.00  0.00     0.118 A 
ATOM     14  C   UNL     1      24.815 -21.253  -3.463  1.00  0.00     0.047 A 
ATOM     15  C   UNL     1      25.753 -19.598  -1.969  1.00  0.00     0.047 A 
ATOM     16  C   UNL     1      23.626 -21.245  -2.726  1.00  0.00     0.016 A 
ATOM     17  C   UNL     1      24.567 -19.591  -1.230  1.00  0.00     0.016 A 
BRANCH  13  18
ATOM     18  O   UNL     1      27.100 -20.396  -3.797  1.00  0.00    -0.497 OA
ATOM     19  C   UNL     1      27.866 -21.551  -4.125  1.00  0.00     0.278 C 
ENDBRANCH  13  18
ENDBRANCH   1  12
BRANCH   8  20
ATOM     20  O   UNL     1      18.699 -20.354  -2.981  1.00  0.00    -0.490 OA
ATOM     21  C   UNL     1      19.119 -21.413  -3.836  1.00  0.00     0.278 C 
ENDBRANCH   8  20
BRANCH  11  22
ATOM     22  O   UNL     1      18.606 -20.307   2.681  1.00  0.00    -0.492 OA
ATOM     23  C   UNL     1      18.108 -21.302   3.569  1.00  0.00     0.278 C 
ENDBRANCH  11  22
BRANCH   9  24
ATOM     24  O   UNL     1      16.219 -20.222  -1.608  1.00  0.00    -0.490 OA
ATOM     25  C   UNL     1      15.725 -21.118  -2.599  1.00  0.00     0.279 C 
ENDBRANCH   9  24
BRANCH  10  26
ATOM     26  O   UNL     1      16.173 -20.283   1.224  1.00  0.00    -0.490 OA
ATOM     27  C   UNL     1      15.497 -19.172   1.807  1.00  0.00     0.278 C 
ENDBRANCH  10  26
TORSDOF 6
ENDMDL
MODEL 5
REMARK VINA RESULT:    -4.234      2.297      8.310
REMARK INTER + INTRA:          -6.243
REMARK INTER:                  -6.377
REMARK INTRA:                   0.134
REMARK UNBOUND:                -0.524
REMARK SMILES COc1ccc(-c2cc(=O)c3c(OC)c(OC)c(OC)c(OC)c3o2)cc1
REMARK SMILES IDX 7 1 8 2 9 3 10 4 11 5 24 6 25 7 21 8 18 9 15 10 12 11 6 12
REMARK SMILES IDX 3 13 4 14 27 15 5 16 26 17 2 18 1 19 22 20 23 21 13 22 14 23
REMARK SMILES IDX 19 24 20 25 16 26 17 27
REMARK H PARENT
REMARK Flexibility Score: inf
ROOT
ATOM      1  C   UNL     1      20.125 -20.408   1.249  1.00  0.00     0.138 A 
ATOM      2  C   UNL     1      20.267 -21.103   2.451  1.00  0.00     0.100 A 
ATOM      3  C   UNL     1      19.172 -21.231   3.297  1.00  0.00     0.197 A 
ATOM      4  O   UNL     1      19.322 -21.865   4.376  1.00  0.00    -0.289 OA
ATOM      5  C   UNL     1      17.928 -20.655   2.936  1.00  0.00     0.115 A 
ATOM      6  C   UNL     1      17.858 -19.971   1.699  1.00  0.00     0.188 A 
ATOM      7  O   UNL     1      18.943 -19.891   0.929  1.00  0.00    -0.452 OA
ATOM      8  C   UNL     1      16.650 -19.363   1.282  1.00  0.00     0.209 A 
ATOM      9  C   UNL     1      15.506 -19.434   2.118  1.00  0.00     0.211 A 
ATOM     10  C   UNL     1      15.567 -20.141   3.349  1.00  0.00     0.208 A 
ATOM     11  C   UNL     1      16.783 -20.745   3.762  1.00  0.00     0.179 A 
ENDROOT
BRANCH   1  12
ATOM     12  C   UNL     1      21.264 -20.242   0.313  1.00  0.00     0.018 A 
ATOM     13  C   UNL     1      23.461 -19.942  -1.434  1.00  0.00     0.118 A 
ATOM     14  C   UNL     1      22.156 -20.060  -1.946  1.00  0.00     0.047 A 
ATOM     15  C   UNL     1      23.656 -19.981  -0.050  1.00  0.00     0.047 A 
ATOM     16  C   UNL     1      21.069 -20.210  -1.080  1.00  0.00     0.016 A 
ATOM     17  C   UNL     1      22.570 -20.133   0.816  1.00  0.00     0.016 A 
BRANCH  13  18
ATOM     18  O   UNL     1      24.584 -19.787  -2.262  1.00  0.00    -0.497 OA
ATOM     19  C   UNL     1      25.170 -20.837  -3.024  1.00  0.00     0.278 C 
ENDBRANCH  13  18
ENDBRANCH   1  12
BRANCH   8  20
ATOM     20  O   UNL     1      16.540 -18.677   0.057  1.00  0.00    -0.490 OA
ATOM     21  C   UNL     1      16.193 -19.215  -1.215  1.00  0.00     0.278 C 
ENDBRANCH   8  20
BRANCH  11  22
ATOM     22  O   UNL     1      16.911 -21.446   4.982  1.00  0.00    -0.492 OA
ATOM     23  C   UNL     1      17.241 -20.923   6.265  1.00  0.00     0.278 C 
ENDBRANCH  11  22
BRANCH   9  24
ATOM     24  O   UNL     1      14.285 -18.819   1.773  1.00  0.00    -0.490 OA
ATOM     25  C   UNL     1      13.554 -17.838   2.503  1.00  0.00     0.279 C 
ENDBRANCH   9  24
BRANCH  10  26
ATOM     26  O   UNL     1      14.450 -20.275   4.197  1.00  0.00    -0.490 OA
ATOM     27  C   UNL     1      14.232 -19.682   5.474  1.00  0.00     0.278 C 
ENDBRANCH  10  26
TORSDOF 6
ENDMDL
MODEL 6
REMARK VINA RESULT:    -4.058      1.849      8.382
REMARK INTER + INTRA:          -6.005
REMARK INTER:                  -6.028
REMARK INTRA:                   0.023
REMARK UNBOUND:                -0.524
REMARK SMILES COc1ccc(-c2cc(=O)c3c(OC)c(OC)c(OC)c(OC)c3o2)cc1
REMARK SMILES IDX 7 1 8 2 9 3 10 4 11 5 24 6 25 7 21 8 18 9 15 10 12 11 6 12
REMARK SMILES IDX 3 13 4 14 27 15 5 16 26 17 2 18 1 19 22 20 23 21 13 22 14 23
REMARK SMILES IDX 19 24 20 25 16 26 17 27
REMARK H PARENT
REMARK Flexibility Score: inf
ROOT
ATOM      1  C   UNL     1      21.119 -20.372  -1.536  1.00  0.00     0.138 A 
ATOM      2  C   UNL     1      20.034 -20.703  -2.348  1.00  0.00     0.100 A 
ATOM      3  C   UNL     1      18.745 -20.407  -1.917  1.00  0.00     0.197 A 
ATOM      4  O   UNL     1      17.780 -20.713  -2.668  1.00  0.00    -0.289 OA
ATOM      5  C   UNL     1      18.546 -19.777  -0.663  1.00  0.00     0.115 A 
ATOM      6  C   UNL     1      19.695 -19.466   0.102  1.00  0.00     0.188 A 
ATOM      7  O   UNL     1      20.903 -19.769  -0.371  1.00  0.00    -0.452 OA
ATOM      8  C   UNL     1      19.568 -18.847   1.368  1.00  0.00     0.209 A 
ATOM      9  C   UNL     1      18.276 -18.548   1.874  1.00  0.00     0.211 A 
ATOM     10  C   UNL     1      17.123 -18.838   1.097  1.00  0.00     0.208 A 
ATOM     11  C   UNL     1      17.258 -19.462  -0.170  1.00  0.00     0.179 A 
ENDROOT
BRANCH   1  12
ATOM     12  C   UNL     1      22.513 -20.670  -1.949  1.00  0.00     0.018 A 
ATOM     13  C   UNL     1      25.148 -21.248  -2.778  1.00  0.00     0.118 A 
ATOM     14  C   UNL     1      24.917 -20.365  -1.708  1.00  0.00     0.047 A 
ATOM     15  C   UNL     1      24.056 -21.831  -3.428  1.00  0.00     0.047 A 
ATOM     16  C   UNL     1      23.611 -20.077  -1.299  1.00  0.00     0.016 A 
ATOM     17  C   UNL     1      22.750 -21.543  -3.022  1.00  0.00     0.016 A 
BRANCH  13  18
ATOM     18  O   UNL     1      26.440 -21.571  -3.223  1.00  0.00    -0.497 OA
ATOM     19  C   UNL     1      26.735 -22.633  -4.125  1.00  0.00     0.278 C 
ENDBRANCH  13  18
ENDBRANCH   1  12
BRANCH   8  20
ATOM     20  O   UNL     1      20.687 -18.518   2.158  1.00  0.00    -0.490 OA
ATOM     21  C   UNL     1      21.280 -17.235   2.337  1.00  0.00     0.278 C 
ENDBRANCH   8  20
BRANCH  11  22
ATOM     22  O   UNL     1      16.149 -19.791  -0.982  1.00  0.00    -0.492 OA
ATOM     23  C   UNL     1      15.490 -18.972  -1.941  1.00  0.00     0.278 C 
ENDBRANCH  11  22
BRANCH   9  24
ATOM     24  O   UNL     1      18.084 -17.964   3.144  1.00  0.00    -0.490 OA
ATOM     25  C   UNL     1      17.413 -18.512   4.274  1.00  0.00     0.279 C 
ENDBRANCH   9  24
BRANCH  10  26
ATOM     26  O   UNL     1      15.821 -18.526   1.535  1.00  0.00    -0.490 OA
ATOM     27  C   UNL     1      14.932 -19.326   2.310  1.00  0.00     0.278 C 
ENDBRANCH  10  26
TORSDOF 6
ENDMDL
MODEL 7
REMARK VINA RESULT:    -3.597      1.911      8.369
REMARK INTER + INTRA:          -5.383
REMARK INTER:                  -5.490
REMARK INTRA:                   0.107
REMARK UNBOUND:                -0.524
REMARK SMILES COc1ccc(-c2cc(=O)c3c(OC)c(OC)c(OC)c(OC)c3o2)cc1
REMARK SMILES IDX 7 1 8 2 9 3 10 4 11 5 24 6 25 7 21 8 18 9 15 10 12 11 6 12
REMARK SMILES IDX 3 13 4 14 27 15 5 16 26 17 2 18 1 19 22 20 23 21 13 22 14 23
REMARK SMILES IDX 19 24 20 25 16 26 17 27
REMARK H PARENT
REMARK Flexibility Score: inf
ROOT
ATOM      1  C   UNL     1      21.408 -21.120  -2.739  1.00  0.00     0.138 A 
ATOM      2  C   UNL     1      20.327 -21.295  -3.605  1.00  0.00     0.100 A 
ATOM      3  C   UNL     1      19.063 -20.876  -3.208  1.00  0.00     0.197 A 
ATOM      4  O   UNL     1      18.101 -21.041  -4.007  1.00  0.00    -0.289 OA
ATOM      5  C   UNL     1      18.882 -20.280  -1.935  1.00  0.00     0.115 A 
ATOM      6  C   UNL     1      20.025 -20.130  -1.114  1.00  0.00     0.188 A 
ATOM      7  O   UNL     1      21.211 -20.546  -1.556  1.00  0.00    -0.452 OA
ATOM      8  C   UNL     1      19.914 -19.554   0.173  1.00  0.00     0.209 A 
ATOM      9  C   UNL     1      18.643 -19.135   0.645  1.00  0.00     0.211 A 
ATOM     10  C   UNL     1      17.498 -19.262  -0.187  1.00  0.00     0.208 A 
ATOM     11  C   UNL     1      17.617 -19.844  -1.475  1.00  0.00     0.179 A 
ENDROOT
BRANCH   1  12
ATOM     12  C   UNL     1      22.776 -21.554  -3.114  1.00  0.00     0.018 A 
ATOM     13  C   UNL     1      25.397 -22.352  -3.795  1.00  0.00     0.118 A 
ATOM     14  C   UNL     1      24.303 -23.188  -4.080  1.00  0.00     0.047 A 
ATOM     15  C   UNL     1      25.170 -21.124  -3.165  1.00  0.00     0.047 A 
ATOM     16  C   UNL     1      23.005 -22.793  -3.741  1.00  0.00     0.016 A 
ATOM     17  C   UNL     1      23.874 -20.729  -2.824  1.00  0.00     0.016 A 
BRANCH  13  18
ATOM     18  O   UNL     1      26.718 -22.702  -4.118  1.00  0.00    -0.497 OA
ATOM     19  C   UNL     1      27.812 -21.790  -4.120  1.00  0.00     0.278 C 
ENDBRANCH  13  18
ENDBRANCH   1  12
BRANCH   8  20
ATOM     20  O   UNL     1      21.028 -19.385   1.018  1.00  0.00    -0.490 OA
ATOM     21  C   UNL     1      21.859 -20.397   1.578  1.00  0.00     0.278 C 
ENDBRANCH   8  20
BRANCH  11  22
ATOM     22  O   UNL     1      16.513 -20.014  -2.341  1.00  0.00    -0.492 OA
ATOM     23  C   UNL     1      15.669 -21.153  -2.475  1.00  0.00     0.278 C 
ENDBRANCH  11  22
BRANCH   9  24
ATOM     24  O   UNL     1      18.463 -18.586   1.932  1.00  0.00    -0.490 OA
ATOM     25  C   UNL     1      18.086 -19.255   3.131  1.00  0.00     0.279 C 
ENDBRANCH   9  24
BRANCH  10  26
ATOM     26  O   UNL     1      16.221 -18.825   0.217  1.00  0.00    -0.490 OA
ATOM     27  C   UNL     1      15.364 -19.390   1.206  1.00  0.00     0.278 C 
ENDBRANCH  10  26
TORSDOF 6
ENDMDL
MODEL 8
REMARK VINA RESULT:    -3.559      2.233      4.521
REMARK INTER + INTRA:          -5.332
REMARK INTER:                  -4.966
REMARK INTRA:                  -0.365
REMARK UNBOUND:                -0.524
REMARK SMILES COc1ccc(-c2cc(=O)c3c(OC)c(OC)c(OC)c(OC)c3o2)cc1
REMARK SMILES IDX 7 1 8 2 9 3 10 4 11 5 24 6 25 7 21 8 18 9 15 10 12 11 6 12
REMARK SMILES IDX 3 13 4 14 27 15 5 16 26 17 2 18 1 19 22 20 23 21 13 22 14 23
REMARK SMILES IDX 19 24 20 25 16 26 17 27
REMARK H PARENT
REMARK Flexibility Score: inf
ROOT
ATOM      1  C   UNL     1      17.151 -20.621   1.127  1.00  0.00     0.138 A 
ATOM      2  C   UNL     1      16.445 -21.120   0.032  1.00  0.00     0.100 A 
ATOM      3  C   UNL     1      17.111 -21.322  -1.172  1.00  0.00     0.197 A 
ATOM      4  O   UNL     1      16.454 -21.776  -2.148  1.00  0.00    -0.289 OA
ATOM      5  C   UNL     1      18.492 -21.018  -1.277  1.00  0.00     0.115 A 
ATOM      6  C   UNL     1      19.141 -20.522  -0.122  1.00  0.00     0.188 A 
ATOM      7  O   UNL     1      18.448 -20.358   1.004  1.00  0.00    -0.452 OA
ATOM      8  C   UNL     1      20.516 -20.187  -0.160  1.00  0.00     0.209 A 
ATOM      9  C   UNL     1      21.241 -20.343  -1.370  1.00  0.00     0.211 A 
ATOM     10  C   UNL     1      20.596 -20.864  -2.524  1.00  0.00     0.208 A 
ATOM     11  C   UNL     1      19.217 -21.193  -2.479  1.00  0.00     0.179 A 
ENDROOT
BRANCH   1  12
ATOM     12  C   UNL     1      16.486 -20.385   2.432  1.00  0.00     0.018 A 
ATOM     13  C   UNL     1      15.240 -19.895   4.917  1.00  0.00     0.118 A 
ATOM     14  C   UNL     1      14.695 -20.832   4.021  1.00  0.00     0.047 A 
ATOM     15  C   UNL     1      16.402 -19.206   4.559  1.00  0.00     0.047 A 
ATOM     16  C   UNL     1      15.311 -21.073   2.790  1.00  0.00     0.016 A 
ATOM     17  C   UNL     1      17.019 -19.445   3.327  1.00  0.00     0.016 A 
BRANCH  13  18
ATOM     18  O   UNL     1      14.659 -19.620   6.166  1.00  0.00    -0.497 OA
ATOM     19  C   UNL     1      15.395 -19.258   7.330  1.00  0.00     0.278 C 
ENDBRANCH  13  18
ENDBRANCH   1  12
BRANCH   8  20
ATOM     20  O   UNL     1      21.199 -19.694   0.969  1.00  0.00    -0.490 OA
ATOM     21  C   UNL     1      21.330 -20.310   2.246  1.00  0.00     0.278 C 
ENDBRANCH   8  20
BRANCH  11  22
ATOM     22  O   UNL     1      18.515 -21.699  -3.597  1.00  0.00    -0.492 OA
ATOM     23  C   UNL     1      18.539 -23.022  -4.123  1.00  0.00     0.278 C 
ENDBRANCH  11  22
BRANCH   9  24
ATOM     24  O   UNL     1      22.603 -19.994  -1.479  1.00  0.00    -0.490 OA
ATOM     25  C   UNL     1      23.744 -20.828  -1.299  1.00  0.00     0.279 C 
ENDBRANCH   9  24
BRANCH  10  26
ATOM     26  O   UNL     1      21.279 -21.076  -3.738  1.00  0.00    -0.490 OA
ATOM     27  C   UNL     1      22.069 -22.197  -4.124  1.00  0.00     0.278 C 
ENDBRANCH  10  26
TORSDOF 6
ENDMDL
