MODEL 1
REMARK VINA RESULT:    -7.640      0.000      0.000
REMARK INTER + INTRA:         -10.880
REMARK INTER:                  -9.649
REMARK INTRA:                  -1.230
REMARK UNBOUND:                -1.230
REMARK SMILES CC(C)[C@H](C)C=C[C@@H](C)[C@H]1CC[C@@H]2C3=CC=C4C[C@@H](O)CC[C@@]4(C)[C@H]3CC[C@@]21C
REMARK SMILES IDX 8 1 9 2 7 3 6 4 4 5 5 6 2 7 1 8 3 9 10 10 11 11 28 12 12 13
REMARK SMILES IDX 13 14 27 15 29 16 14 17 26 18 25 19 15 20 23 21 16 22 17 23
REMARK SMILES IDX 22 24 24 25 18 26 21 27 19 28 20 29
REMARK H PARENT 20 30
REMARK Flexibility Score: inf
ROOT
ATOM      1  C   UNL     1     110.942 116.211 125.603  1.00  0.00     0.012 C 
ATOM      2  C   UNL     1     110.378 115.091 124.700  1.00  0.00     0.012 C 
ENDROOT
BRANCH   1   3
ATOM      3  C   UNL     1     110.714 116.016 127.094  1.00  0.00    -0.028 C 
ATOM      4  C   UNL     1     111.684 116.002 128.029  1.00  0.00    -0.028 C 
BRANCH   4   5
ATOM      5  C   UNL     1     111.376 115.836 129.502  1.00  0.00     0.011 C 
ATOM      6  C   UNL     1     112.530 115.083 130.180  1.00  0.00     0.012 C 
BRANCH   5   7
ATOM      7  C   UNL     1     111.046 117.212 130.154  1.00  0.00    -0.011 C 
ATOM      8  C   UNL     1     112.248 117.870 130.855  1.00  0.00     0.008 C 
ATOM      9  C   UNL     1     109.859 117.115 131.125  1.00  0.00     0.008 C 
ENDBRANCH   5   7
ENDBRANCH   4   5
ENDBRANCH   1   3
BRANCH   1  10
ATOM     10  C   UNL     1     110.621 117.683 125.147  1.00  0.00     0.002 C 
ATOM     11  C   UNL     1     109.477 118.275 125.984  1.00  0.00     0.005 C 
ATOM     12  C   UNL     1     111.752 118.774 125.189  1.00  0.00    -0.023 C 
ATOM     13  C   UNL     1     110.111 119.231 126.996  1.00  0.00     0.009 C 
ATOM     14  C   UNL     1     111.584 119.414 126.592  1.00  0.00     0.021 C 
ATOM     15  C   UNL     1     111.549 119.827 124.027  1.00  0.00     0.008 C 
ATOM     16  C   UNL     1     113.188 118.212 125.029  1.00  0.00     0.012 C 
ATOM     17  C   UNL     1     112.001 120.871 126.618  1.00  0.00    -0.063 C 
ATOM     18  C   UNL     1     110.778 121.103 124.414  1.00  0.00     0.009 C 
ATOM     19  C   UNL     1     111.389 121.844 125.636  1.00  0.00     0.025 C 
ATOM     20  C   UNL     1     112.767 121.332 127.608  1.00  0.00    -0.000 C 
ATOM     21  C   UNL     1     112.324 123.078 125.303  1.00  0.00    -0.005 C 
ATOM     22  C   UNL     1     113.268 122.710 127.603  1.00  0.00    -0.000 C 
ATOM     23  C   UNL     1     113.112 123.519 126.540  1.00  0.00    -0.061 C 
ATOM     24  C   UNL     1     113.375 122.750 124.203  1.00  0.00     0.014 C 
ATOM     25  C   UNL     1     111.409 124.250 124.847  1.00  0.00     0.017 C 
ATOM     26  C   UNL     1     114.052 124.690 126.387  1.00  0.00     0.063 C 
ATOM     27  C   UNL     1     114.413 123.877 123.980  1.00  0.00     0.033 C 
ATOM     28  C   UNL     1     115.082 124.378 125.284  1.00  0.00     0.118 C 
BRANCH  28  29
ATOM     29  O   UNL     1     116.059 123.471 125.733  1.00  0.00    -0.393 OA
ATOM     30  H   UNL     1     115.678 122.952 126.487  1.00  0.00     0.210 HD
ENDBRANCH  28  29
ENDBRANCH   1  10
TORSDOF 5
ENDMDL
MODEL 2
REMARK VINA RESULT:    -7.383      2.746      8.227
REMARK INTER + INTRA:         -10.556
REMARK INTER:                  -9.947
REMARK INTRA:                  -0.609
REMARK UNBOUND:                -1.230
REMARK SMILES CC(C)[C@H](C)C=C[C@@H](C)[C@H]1CC[C@@H]2C3=CC=C4C[C@@H](O)CC[C@@]4(C)[C@H]3CC[C@@]21C
REMARK SMILES IDX 8 1 9 2 7 3 6 4 4 5 5 6 2 7 1 8 3 9 10 10 11 11 28 12 12 13
REMARK SMILES IDX 13 14 27 15 29 16 14 17 26 18 25 19 15 20 23 21 16 22 17 23
REMARK SMILES IDX 22 24 24 25 18 26 21 27 19 28 20 29
REMARK H PARENT 20 30
REMARK Flexibility Score: inf
ROOT
ATOM      1  C   UNL     1     114.563 123.910 124.905  1.00  0.00     0.012 C 
ATOM      2  C   UNL     1     115.755 123.966 123.922  1.00  0.00     0.012 C 
ENDROOT
BRANCH   1   3
ATOM      3  C   UNL     1     114.492 125.058 125.900  1.00  0.00    -0.028 C 
ATOM      4  C   UNL     1     115.396 126.052 125.999  1.00  0.00    -0.028 C 
BRANCH   4   5
ATOM      5  C   UNL     1     115.239 127.182 126.994  1.00  0.00     0.011 C 
ATOM      6  C   UNL     1     115.583 126.670 128.401  1.00  0.00     0.012 C 
BRANCH   5   7
ATOM      7  C   UNL     1     116.069 128.425 126.552  1.00  0.00    -0.011 C 
ATOM      8  C   UNL     1     115.211 129.585 126.018  1.00  0.00     0.008 C 
ATOM      9  C   UNL     1     117.151 128.055 125.527  1.00  0.00     0.008 C 
ENDBRANCH   5   7
ENDBRANCH   4   5
ENDBRANCH   1   3
BRANCH   1  10
ATOM     10  C   UNL     1     114.310 122.518 125.594  1.00  0.00     0.002 C 
ATOM     11  C   UNL     1     113.477 122.687 126.874  1.00  0.00     0.005 C 
ATOM     12  C   UNL     1     113.585 121.374 124.795  1.00  0.00    -0.023 C 
ATOM     13  C   UNL     1     112.050 122.249 126.540  1.00  0.00     0.009 C 
ATOM     14  C   UNL     1     112.090 121.571 125.160  1.00  0.00     0.021 C 
ATOM     15  C   UNL     1     114.125 119.958 125.242  1.00  0.00     0.008 C 
ATOM     16  C   UNL     1     113.772 121.452 123.258  1.00  0.00     0.012 C 
ATOM     17  C   UNL     1     111.315 120.269 125.146  1.00  0.00    -0.063 C 
ATOM     18  C   UNL     1     113.303 119.248 126.333  1.00  0.00     0.009 C 
ATOM     19  C   UNL     1     111.798 119.098 125.971  1.00  0.00     0.025 C 
ATOM     20  C   UNL     1     110.121 120.206 124.554  1.00  0.00    -0.000 C 
ATOM     21  C   UNL     1     111.361 117.692 125.390  1.00  0.00    -0.005 C 
ATOM     22  C   UNL     1     109.397 118.936 124.437  1.00  0.00    -0.000 C 
ATOM     23  C   UNL     1     109.959 117.763 124.777  1.00  0.00    -0.061 C 
ATOM     24  C   UNL     1     112.311 117.190 124.263  1.00  0.00     0.014 C 
ATOM     25  C   UNL     1     111.340 116.682 126.572  1.00  0.00     0.017 C 
ATOM     26  C   UNL     1     109.394 116.498 124.178  1.00  0.00     0.063 C 
ATOM     27  C   UNL     1     111.813 115.906 123.557  1.00  0.00     0.033 C 
ATOM     28  C   UNL     1     110.342 115.986 123.077  1.00  0.00     0.118 C 
BRANCH  28  29
ATOM     29  O   UNL     1     110.234 116.757 121.904  1.00  0.00    -0.393 OA
ATOM     30  H   UNL     1     109.837 116.189 121.195  1.00  0.00     0.210 HD
ENDBRANCH  28  29
ENDBRANCH   1  10
TORSDOF 5
ENDMDL
MODEL 3
REMARK VINA RESULT:    -7.086      2.897      7.303
REMARK INTER + INTRA:         -10.180
REMARK INTER:                  -8.564
REMARK INTRA:                  -1.616
REMARK UNBOUND:                -1.230
REMARK SMILES CC(C)[C@H](C)C=C[C@@H](C)[C@H]1CC[C@@H]2C3=CC=C4C[C@@H](O)CC[C@@]4(C)[C@H]3CC[C@@]21C
REMARK SMILES IDX 8 1 9 2 7 3 6 4 4 5 5 6 2 7 1 8 3 9 10 10 11 11 28 12 12 13
REMARK SMILES IDX 13 14 27 15 29 16 14 17 26 18 25 19 15 20 23 21 16 22 17 23
REMARK SMILES IDX 22 24 24 25 18 26 21 27 19 28 20 29
REMARK H PARENT 20 30
REMARK Flexibility Score: inf
ROOT
ATOM      1  C   UNL     1     115.395 123.389 125.463  1.00  0.00     0.012 C 
ATOM      2  C   UNL     1     115.627 124.912 125.585  1.00  0.00     0.012 C 
ENDROOT
BRANCH   1   3
ATOM      3  C   UNL     1     116.419 122.644 124.619  1.00  0.00    -0.028 C 
ATOM      4  C   UNL     1     117.088 121.542 125.010  1.00  0.00    -0.028 C 
BRANCH   4   5
ATOM      5  C   UNL     1     118.069 120.835 124.100  1.00  0.00     0.011 C 
ATOM      6  C   UNL     1     119.458 120.832 124.756  1.00  0.00     0.012 C 
BRANCH   5   7
ATOM      7  C   UNL     1     117.546 119.417 123.719  1.00  0.00    -0.011 C 
ATOM      8  C   UNL     1     116.627 119.406 122.485  1.00  0.00     0.008 C 
ATOM      9  C   UNL     1     116.847 118.729 124.902  1.00  0.00     0.008 C 
ENDBRANCH   5   7
ENDBRANCH   4   5
ENDBRANCH   1   3
BRANCH   1  10
ATOM     10  C   UNL     1     113.923 122.946 125.126  1.00  0.00     0.002 C 
ATOM     11  C   UNL     1     113.735 122.789 123.609  1.00  0.00     0.005 C 
ATOM     12  C   UNL     1     113.351 121.616 125.738  1.00  0.00    -0.023 C 
ATOM     13  C   UNL     1     113.751 121.288 123.309  1.00  0.00     0.009 C 
ATOM     14  C   UNL     1     113.677 120.552 124.657  1.00  0.00     0.021 C 
ATOM     15  C   UNL     1     111.797 121.747 125.994  1.00  0.00     0.008 C 
ATOM     16  C   UNL     1     113.989 121.211 127.092  1.00  0.00     0.012 C 
ATOM     17  C   UNL     1     112.664 119.425 124.631  1.00  0.00    -0.063 C 
ATOM     18  C   UNL     1     110.891 121.215 124.868  1.00  0.00     0.009 C 
ATOM     19  C   UNL     1     111.193 119.740 124.480  1.00  0.00     0.025 C 
ATOM     20  C   UNL     1     113.073 118.156 124.563  1.00  0.00    -0.000 C 
ATOM     21  C   UNL     1     110.243 118.646 125.119  1.00  0.00    -0.005 C 
ATOM     22  C   UNL     1     112.120 117.045 124.639  1.00  0.00    -0.000 C 
ATOM     23  C   UNL     1     110.822 117.240 124.932  1.00  0.00    -0.061 C 
ATOM     24  C   UNL     1     110.049 118.845 126.650  1.00  0.00     0.014 C 
ATOM     25  C   UNL     1     108.875 118.727 124.384  1.00  0.00     0.017 C 
ATOM     26  C   UNL     1     110.031 116.080 125.486  1.00  0.00     0.063 C 
ATOM     27  C   UNL     1     109.270 117.694 127.332  1.00  0.00     0.033 C 
ATOM     28  C   UNL     1     109.818 116.284 126.999  1.00  0.00     0.118 C 
BRANCH  28  29
ATOM     29  O   UNL     1     110.993 116.013 127.726  1.00  0.00    -0.393 OA
ATOM     30  H   UNL     1     110.945 115.079 128.055  1.00  0.00     0.210 HD
ENDBRANCH  28  29
ENDBRANCH   1  10
TORSDOF 5
ENDMDL
MODEL 4
REMARK VINA RESULT:    -7.078      1.818      3.791
REMARK INTER + INTRA:         -10.171
REMARK INTER:                  -9.466
REMARK INTRA:                  -0.704
REMARK UNBOUND:                -1.230
REMARK SMILES CC(C)[C@H](C)C=C[C@@H](C)[C@H]1CC[C@@H]2C3=CC=C4C[C@@H](O)CC[C@@]4(C)[C@H]3CC[C@@]21C
REMARK SMILES IDX 8 1 9 2 7 3 6 4 4 5 5 6 2 7 1 8 3 9 10 10 11 11 28 12 12 13
REMARK SMILES IDX 13 14 27 15 29 16 14 17 26 18 25 19 15 20 23 21 16 22 17 23
REMARK SMILES IDX 22 24 24 25 18 26 21 27 19 28 20 29
REMARK H PARENT 20 30
REMARK Flexibility Score: inf
ROOT
ATOM      1  C   UNL     1     109.803 116.717 127.338  1.00  0.00     0.012 C 
ATOM      2  C   UNL     1     109.251 115.872 128.509  1.00  0.00     0.012 C 
ENDROOT
BRANCH   1   3
ATOM      3  C   UNL     1     110.753 115.984 126.403  1.00  0.00    -0.028 C 
ATOM      4  C   UNL     1     110.395 115.388 125.249  1.00  0.00    -0.028 C 
BRANCH   4   5
ATOM      5  C   UNL     1     111.406 114.705 124.353  1.00  0.00     0.011 C 
ATOM      6  C   UNL     1     111.123 115.079 122.890  1.00  0.00     0.012 C 
BRANCH   5   7
ATOM      7  C   UNL     1     112.859 115.024 124.818  1.00  0.00    -0.011 C 
ATOM      8  C   UNL     1     113.481 116.245 124.117  1.00  0.00     0.008 C 
ATOM      9  C   UNL     1     113.785 113.807 124.674  1.00  0.00     0.008 C 
ENDBRANCH   5   7
ENDBRANCH   4   5
ENDBRANCH   1   3
BRANCH   1  10
ATOM     10  C   UNL     1     110.340 118.146 127.719  1.00  0.00     0.002 C 
ATOM     11  C   UNL     1     111.329 118.061 128.892  1.00  0.00     0.005 C 
ATOM     12  C   UNL     1     111.080 119.014 126.636  1.00  0.00    -0.023 C 
ATOM     13  C   UNL     1     112.734 118.209 128.305  1.00  0.00     0.009 C 
ATOM     14  C   UNL     1     112.573 118.647 126.839  1.00  0.00     0.021 C 
ATOM     15  C   UNL     1     110.807 120.552 126.878  1.00  0.00     0.008 C 
ATOM     16  C   UNL     1     110.652 118.714 125.176  1.00  0.00     0.012 C 
ATOM     17  C   UNL     1     113.503 119.790 126.485  1.00  0.00    -0.063 C 
ATOM     18  C   UNL     1     111.873 121.294 127.705  1.00  0.00     0.009 C 
ATOM     19  C   UNL     1     113.311 121.142 127.133  1.00  0.00     0.025 C 
ATOM     20  C   UNL     1     114.591 119.567 125.745  1.00  0.00    -0.000 C 
ATOM     21  C   UNL     1     113.836 122.347 126.251  1.00  0.00    -0.005 C 
ATOM     22  C   UNL     1     115.450 120.669 125.304  1.00  0.00    -0.000 C 
ATOM     23  C   UNL     1     115.107 121.956 125.489  1.00  0.00    -0.061 C 
ATOM     24  C   UNL     1     112.801 122.800 125.180  1.00  0.00     0.014 C 
ATOM     25  C   UNL     1     114.171 123.523 127.213  1.00  0.00     0.017 C 
ATOM     26  C   UNL     1     115.736 123.000 124.599  1.00  0.00     0.063 C 
ATOM     27  C   UNL     1     113.351 123.855 124.191  1.00  0.00     0.033 C 
ATOM     28  C   UNL     1     114.707 123.466 123.551  1.00  0.00     0.118 C 
BRANCH  28  29
ATOM     29  O   UNL     1     114.532 122.505 122.538  1.00  0.00    -0.393 OA
ATOM     30  H   UNL     1     114.166 121.682 122.951  1.00  0.00     0.210 HD
ENDBRANCH  28  29
ENDBRANCH   1  10
TORSDOF 5
ENDMDL
MODEL 5
REMARK VINA RESULT:    -7.034      2.017      4.462
REMARK INTER + INTRA:         -10.115
REMARK INTER:                  -8.721
REMARK INTRA:                  -1.394
REMARK UNBOUND:                -1.230
REMARK SMILES CC(C)[C@H](C)C=C[C@@H](C)[C@H]1CC[C@@H]2C3=CC=C4C[C@@H](O)CC[C@@]4(C)[C@H]3CC[C@@]21C
REMARK SMILES IDX 8 1 9 2 7 3 6 4 4 5 5 6 2 7 1 8 3 9 10 10 11 11 28 12 12 13
REMARK SMILES IDX 13 14 27 15 29 16 14 17 26 18 25 19 15 20 23 21 16 22 17 23
REMARK SMILES IDX 22 24 24 25 18 26 21 27 19 28 20 29
REMARK H PARENT 20 30
REMARK Flexibility Score: inf
ROOT
ATOM      1  C   UNL     1     110.868 117.491 128.540  1.00  0.00     0.012 C 
ATOM      2  C   UNL     1     110.370 116.978 129.910  1.00  0.00     0.012 C 
ENDROOT
BRANCH   1   3
ATOM      3  C   UNL     1     110.707 116.513 127.385  1.00  0.00    -0.028 C 
ATOM      4  C   UNL     1     110.113 116.797 126.210  1.00  0.00    -0.028 C 
BRANCH   4   5
ATOM      5  C   UNL     1     110.020 115.779 125.093  1.00  0.00     0.011 C 
ATOM      6  C   UNL     1     109.300 116.408 123.891  1.00  0.00     0.012 C 
BRANCH   5   7
ATOM      7  C   UNL     1     111.428 115.201 124.756  1.00  0.00    -0.011 C 
ATOM      8  C   UNL     1     112.218 116.044 123.739  1.00  0.00     0.008 C 
ATOM      9  C   UNL     1     111.348 113.742 124.281  1.00  0.00     0.008 C 
ENDBRANCH   5   7
ENDBRANCH   4   5
ENDBRANCH   1   3
BRANCH   1  10
ATOM     10  C   UNL     1     112.287 118.172 128.539  1.00  0.00     0.002 C 
ATOM     11  C   UNL     1     113.385 117.143 128.226  1.00  0.00     0.005 C 
ATOM     12  C   UNL     1     112.574 119.371 127.563  1.00  0.00    -0.023 C 
ATOM     13  C   UNL     1     113.802 117.363 126.771  1.00  0.00     0.009 C 
ATOM     14  C   UNL     1     113.157 118.679 126.303  1.00  0.00     0.021 C 
ATOM     15  C   UNL     1     113.600 120.381 128.214  1.00  0.00     0.008 C 
ATOM     16  C   UNL     1     111.320 120.199 127.183  1.00  0.00     0.012 C 
ATOM     17  C   UNL     1     114.143 119.559 125.562  1.00  0.00    -0.063 C 
ATOM     18  C   UNL     1     115.077 120.166 127.835  1.00  0.00     0.009 C 
ATOM     19  C   UNL     1     115.322 120.152 126.300  1.00  0.00     0.025 C 
ATOM     20  C   UNL     1     114.076 119.672 124.235  1.00  0.00    -0.000 C 
ATOM     21  C   UNL     1     115.848 121.505 125.669  1.00  0.00    -0.005 C 
ATOM     22  C   UNL     1     114.950 120.595 123.505  1.00  0.00    -0.000 C 
ATOM     23  C   UNL     1     115.744 121.475 124.141  1.00  0.00    -0.061 C 
ATOM     24  C   UNL     1     115.030 122.742 126.142  1.00  0.00     0.014 C 
ATOM     25  C   UNL     1     117.343 121.659 126.066  1.00  0.00     0.017 C 
ATOM     26  C   UNL     1     116.209 122.696 123.385  1.00  0.00     0.063 C 
ATOM     27  C   UNL     1     115.406 124.053 125.410  1.00  0.00     0.033 C 
ATOM     28  C   UNL     1     115.416 123.927 123.866  1.00  0.00     0.118 C 
BRANCH  28  29
ATOM     29  O   UNL     1     114.107 123.932 123.349  1.00  0.00    -0.393 OA
ATOM     30  H   UNL     1     113.602 123.195 123.779  1.00  0.00     0.210 HD
ENDBRANCH  28  29
ENDBRANCH   1  10
TORSDOF 5
ENDMDL
MODEL 6
REMARK VINA RESULT:    -6.944      1.862      3.099
REMARK INTER + INTRA:         -10.001
REMARK INTER:                  -8.443
REMARK INTRA:                  -1.558
REMARK UNBOUND:                -1.230
REMARK SMILES CC(C)[C@H](C)C=C[C@@H](C)[C@H]1CC[C@@H]2C3=CC=C4C[C@@H](O)CC[C@@]4(C)[C@H]3CC[C@@]21C
REMARK SMILES IDX 8 1 9 2 7 3 6 4 4 5 5 6 2 7 1 8 3 9 10 10 11 11 28 12 12 13
REMARK SMILES IDX 13 14 27 15 29 16 14 17 26 18 25 19 15 20 23 21 16 22 17 23
REMARK SMILES IDX 22 24 24 25 18 26 21 27 19 28 20 29
REMARK H PARENT 20 30
REMARK Flexibility Score: inf
ROOT
ATOM      1  C   UNL     1     113.661 116.062 126.301  1.00  0.00     0.012 C 
ATOM      2  C   UNL     1     114.363 114.710 126.040  1.00  0.00     0.012 C 
ENDROOT
BRANCH   1   3
ATOM      3  C   UNL     1     112.143 116.000 126.369  1.00  0.00    -0.028 C 
ATOM      4  C   UNL     1     111.394 116.485 127.379  1.00  0.00    -0.028 C 
BRANCH   4   5
ATOM      5  C   UNL     1     109.882 116.417 127.360  1.00  0.00     0.011 C 
ATOM      6  C   UNL     1     109.386 115.776 128.665  1.00  0.00     0.012 C 
BRANCH   5   7
ATOM      7  C   UNL     1     109.270 117.821 127.071  1.00  0.00    -0.011 C 
ATOM      8  C   UNL     1     109.119 118.137 125.573  1.00  0.00     0.008 C 
ATOM      9  C   UNL     1     110.057 118.942 127.768  1.00  0.00     0.008 C 
ENDBRANCH   5   7
ENDBRANCH   4   5
ENDBRANCH   1   3
BRANCH   1  10
ATOM     10  C   UNL     1     114.161 117.272 125.428  1.00  0.00     0.002 C 
ATOM     11  C   UNL     1     113.291 117.434 124.172  1.00  0.00     0.005 C 
ATOM     12  C   UNL     1     114.226 118.711 126.057  1.00  0.00    -0.023 C 
ATOM     13  C   UNL     1     112.355 118.618 124.426  1.00  0.00     0.009 C 
ATOM     14  C   UNL     1     112.844 119.322 125.703  1.00  0.00     0.021 C 
ATOM     15  C   UNL     1     115.418 119.537 125.430  1.00  0.00     0.008 C 
ATOM     16  C   UNL     1     114.437 118.728 127.593  1.00  0.00     0.012 C 
ATOM     17  C   UNL     1     112.902 120.826 125.532  1.00  0.00    -0.063 C 
ATOM     18  C   UNL     1     115.046 120.445 124.243  1.00  0.00     0.009 C 
ATOM     19  C   UNL     1     113.891 121.434 124.564  1.00  0.00     0.025 C 
ATOM     20  C   UNL     1     111.974 121.602 126.096  1.00  0.00    -0.000 C 
ATOM     21  C   UNL     1     114.325 122.908 124.945  1.00  0.00    -0.005 C 
ATOM     22  C   UNL     1     112.064 123.064 126.032  1.00  0.00    -0.000 C 
ATOM     23  C   UNL     1     113.151 123.689 125.544  1.00  0.00    -0.061 C 
ATOM     24  C   UNL     1     115.464 122.940 126.005  1.00  0.00     0.014 C 
ATOM     25  C   UNL     1     114.781 123.616 123.637  1.00  0.00     0.017 C 
ATOM     26  C   UNL     1     113.402 125.118 125.960  1.00  0.00     0.063 C 
ATOM     27  C   UNL     1     115.788 124.361 126.526  1.00  0.00     0.033 C 
ATOM     28  C   UNL     1     114.543 125.155 126.995  1.00  0.00     0.118 C 
BRANCH  28  29
ATOM     29  O   UNL     1     114.109 124.715 128.259  1.00  0.00    -0.393 OA
ATOM     30  H   UNL     1     114.332 123.753 128.346  1.00  0.00     0.210 HD
ENDBRANCH  28  29
ENDBRANCH   1  10
TORSDOF 5
ENDMDL
MODEL 7
REMARK VINA RESULT:    -6.927      1.927      3.502
REMARK INTER + INTRA:          -9.980
REMARK INTER:                  -9.315
REMARK INTRA:                  -0.665
REMARK UNBOUND:                -1.230
REMARK SMILES CC(C)[C@H](C)C=C[C@@H](C)[C@H]1CC[C@@H]2C3=CC=C4C[C@@H](O)CC[C@@]4(C)[C@H]3CC[C@@]21C
REMARK SMILES IDX 8 1 9 2 7 3 6 4 4 5 5 6 2 7 1 8 3 9 10 10 11 11 28 12 12 13
REMARK SMILES IDX 13 14 27 15 29 16 14 17 26 18 25 19 15 20 23 21 16 22 17 23
REMARK SMILES IDX 22 24 24 25 18 26 21 27 19 28 20 29
REMARK H PARENT 20 30
REMARK Flexibility Score: inf
ROOT
ATOM      1  C   UNL     1     109.847 116.331 125.829  1.00  0.00     0.012 C 
ATOM      2  C   UNL     1     109.589 116.524 127.341  1.00  0.00     0.012 C 
ENDROOT
BRANCH   1   3
ATOM      3  C   UNL     1     110.720 115.137 125.470  1.00  0.00    -0.028 C 
ATOM      4  C   UNL     1     111.220 114.888 124.244  1.00  0.00    -0.028 C 
BRANCH   4   5
ATOM      5  C   UNL     1     112.110 113.695 123.970  1.00  0.00     0.011 C 
ATOM      6  C   UNL     1     112.071 113.366 122.470  1.00  0.00     0.012 C 
BRANCH   5   7
ATOM      7  C   UNL     1     113.545 113.939 124.527  1.00  0.00    -0.011 C 
ATOM      8  C   UNL     1     114.202 115.229 124.007  1.00  0.00     0.008 C 
ATOM      9  C   UNL     1     114.469 112.738 124.272  1.00  0.00     0.008 C 
ENDBRANCH   5   7
ENDBRANCH   4   5
ENDBRANCH   1   3
BRANCH   1  10
ATOM     10  C   UNL     1     110.265 117.624 125.036  1.00  0.00     0.002 C 
ATOM     11  C   UNL     1     109.094 118.616 124.956  1.00  0.00     0.005 C 
ATOM     12  C   UNL     1     111.482 118.484 125.537  1.00  0.00    -0.023 C 
ATOM     13  C   UNL     1     109.375 119.723 125.974  1.00  0.00     0.009 C 
ATOM     14  C   UNL     1     110.822 119.540 126.461  1.00  0.00     0.021 C 
ATOM     15  C   UNL     1     112.230 119.150 124.313  1.00  0.00     0.008 C 
ATOM     16  C   UNL     1     112.550 117.682 126.323  1.00  0.00     0.012 C 
ATOM     17  C   UNL     1     111.582 120.850 126.480  1.00  0.00    -0.063 C 
ATOM     18  C   UNL     1     111.795 120.587 123.972  1.00  0.00     0.009 C 
ATOM     19  C   UNL     1     111.885 121.561 125.180  1.00  0.00     0.025 C 
ATOM     20  C   UNL     1     111.832 121.466 127.637  1.00  0.00    -0.000 C 
ATOM     21  C   UNL     1     113.179 122.471 125.243  1.00  0.00    -0.005 C 
ATOM     22  C   UNL     1     112.652 122.680 127.691  1.00  0.00    -0.000 C 
ATOM     23  C   UNL     1     113.314 123.140 126.615  1.00  0.00    -0.061 C 
ATOM     24  C   UNL     1     114.490 121.662 125.015  1.00  0.00     0.014 C 
ATOM     25  C   UNL     1     113.029 123.576 124.159  1.00  0.00     0.017 C 
ATOM     26  C   UNL     1     114.501 124.045 126.836  1.00  0.00     0.063 C 
ATOM     27  C   UNL     1     115.778 122.489 125.244  1.00  0.00     0.033 C 
ATOM     28  C   UNL     1     115.800 123.253 126.591  1.00  0.00     0.118 C 
BRANCH  28  29
ATOM     29  O   UNL     1     116.084 122.385 127.661  1.00  0.00    -0.393 OA
ATOM     30  H   UNL     1     116.631 121.634 127.314  1.00  0.00     0.210 HD
ENDBRANCH  28  29
ENDBRANCH   1  10
TORSDOF 5
ENDMDL
MODEL 8
REMARK VINA RESULT:    -6.873      2.675      8.203
REMARK INTER + INTRA:          -9.911
REMARK INTER:                  -9.921
REMARK INTRA:                   0.010
REMARK UNBOUND:                -1.230
REMARK SMILES CC(C)[C@H](C)C=C[C@@H](C)[C@H]1CC[C@@H]2C3=CC=C4C[C@@H](O)CC[C@@]4(C)[C@H]3CC[C@@]21C
REMARK SMILES IDX 8 1 9 2 7 3 6 4 4 5 5 6 2 7 1 8 3 9 10 10 11 11 28 12 12 13
REMARK SMILES IDX 13 14 27 15 29 16 14 17 26 18 25 19 15 20 23 21 16 22 17 23
REMARK SMILES IDX 22 24 24 25 18 26 21 27 19 28 20 29
REMARK H PARENT 20 30
REMARK Flexibility Score: inf
ROOT
ATOM      1  C   UNL     1     115.472 123.514 125.564  1.00  0.00     0.012 C 
ATOM      2  C   UNL     1     116.398 122.407 126.115  1.00  0.00     0.012 C 
ENDROOT
BRANCH   1   3
ATOM      3  C   UNL     1     115.417 124.785 126.398  1.00  0.00    -0.028 C 
ATOM      4  C   UNL     1     115.569 126.034 125.914  1.00  0.00    -0.028 C 
BRANCH   4   5
ATOM      5  C   UNL     1     115.468 127.255 126.802  1.00  0.00     0.011 C 
ATOM      6  C   UNL     1     115.641 126.832 128.269  1.00  0.00     0.012 C 
BRANCH   5   7
ATOM      7  C   UNL     1     116.467 128.358 126.339  1.00  0.00    -0.011 C 
ATOM      8  C   UNL     1     115.806 129.505 125.556  1.00  0.00     0.008 C 
ATOM      9  C   UNL     1     117.632 127.770 125.528  1.00  0.00     0.008 C 
ENDBRANCH   5   7
ENDBRANCH   4   5
ENDBRANCH   1   3
BRANCH   1  10
ATOM     10  C   UNL     1     114.039 123.045 125.113  1.00  0.00     0.002 C 
ATOM     11  C   UNL     1     113.989 122.830 123.593  1.00  0.00     0.005 C 
ATOM     12  C   UNL     1     113.423 121.732 125.722  1.00  0.00    -0.023 C 
ATOM     13  C   UNL     1     114.041 121.320 123.352  1.00  0.00     0.009 C 
ATOM     14  C   UNL     1     113.851 120.632 124.715  1.00  0.00     0.021 C 
ATOM     15  C   UNL     1     111.851 121.858 125.832  1.00  0.00     0.008 C 
ATOM     16  C   UNL     1     113.939 121.384 127.142  1.00  0.00     0.012 C 
ATOM     17  C   UNL     1     112.852 119.495 124.641  1.00  0.00    -0.063 C 
ATOM     18  C   UNL     1     111.053 121.275 124.651  1.00  0.00     0.009 C 
ATOM     19  C   UNL     1     111.399 119.791 124.347  1.00  0.00     0.025 C 
ATOM     20  C   UNL     1     113.274 118.229 124.657  1.00  0.00    -0.000 C 
ATOM     21  C   UNL     1     110.402 118.712 124.939  1.00  0.00    -0.005 C 
ATOM     22  C   UNL     1     112.325 117.112 124.689  1.00  0.00    -0.000 C 
ATOM     23  C   UNL     1     111.005 117.305 124.858  1.00  0.00    -0.061 C 
ATOM     24  C   UNL     1     110.070 118.964 126.438  1.00  0.00     0.014 C 
ATOM     25  C   UNL     1     109.105 118.751 124.082  1.00  0.00     0.017 C 
ATOM     26  C   UNL     1     110.174 116.159 125.382  1.00  0.00     0.063 C 
ATOM     27  C   UNL     1     109.241 117.831 127.090  1.00  0.00     0.033 C 
ATOM     28  C   UNL     1     109.826 116.416 126.861  1.00  0.00     0.118 C 
BRANCH  28  29
ATOM     29  O   UNL     1     110.932 116.183 127.700  1.00  0.00    -0.393 OA
ATOM     30  H   UNL     1     111.087 115.205 127.744  1.00  0.00     0.210 HD
ENDBRANCH  28  29
ENDBRANCH   1  10
TORSDOF 5
ENDMDL
MODEL 9
REMARK VINA RESULT:    -6.654      2.317      2.919
REMARK INTER + INTRA:          -9.635
REMARK INTER:                  -8.301
REMARK INTRA:                  -1.335
REMARK UNBOUND:                -1.230
REMARK SMILES CC(C)[C@H](C)C=C[C@@H](C)[C@H]1CC[C@@H]2C3=CC=C4C[C@@H](O)CC[C@@]4(C)[C@H]3CC[C@@]21C
REMARK SMILES IDX 8 1 9 2 7 3 6 4 4 5 5 6 2 7 1 8 3 9 10 10 11 11 28 12 12 13
REMARK SMILES IDX 13 14 27 15 29 16 14 17 26 18 25 19 15 20 23 21 16 22 17 23
REMARK SMILES IDX 22 24 24 25 18 26 21 27 19 28 20 29
REMARK H PARENT 20 30
REMARK Flexibility Score: inf
ROOT
ATOM      1  C   UNL     1     110.160 118.002 124.408  1.00  0.00     0.012 C 
ATOM      2  C   UNL     1     109.137 117.713 123.286  1.00  0.00     0.012 C 
ENDROOT
BRANCH   1   3
ATOM      3  C   UNL     1     109.631 117.833 125.825  1.00  0.00    -0.028 C 
ATOM      4  C   UNL     1     110.259 117.161 126.809  1.00  0.00    -0.028 C 
BRANCH   4   5
ATOM      5  C   UNL     1     109.686 117.064 128.206  1.00  0.00     0.011 C 
ATOM      6  C   UNL     1     109.283 115.609 128.490  1.00  0.00     0.012 C 
BRANCH   5   7
ATOM      7  C   UNL     1     110.675 117.662 129.251  1.00  0.00    -0.011 C 
ATOM      8  C   UNL     1     112.157 117.460 128.889  1.00  0.00     0.008 C 
ATOM      9  C   UNL     1     110.402 117.132 130.666  1.00  0.00     0.008 C 
ENDBRANCH   5   7
ENDBRANCH   4   5
ENDBRANCH   1   3
BRANCH   1  10
ATOM     10  C   UNL     1     110.995 119.326 124.247  1.00  0.00     0.002 C 
ATOM     11  C   UNL     1     110.347 120.478 125.032  1.00  0.00     0.005 C 
ATOM     12  C   UNL     1     112.507 119.350 124.679  1.00  0.00    -0.023 C 
ATOM     13  C   UNL     1     111.174 120.672 126.305  1.00  0.00     0.009 C 
ATOM     14  C   UNL     1     112.454 119.832 126.152  1.00  0.00     0.021 C 
ATOM     15  C   UNL     1     113.329 120.338 123.760  1.00  0.00     0.008 C 
ATOM     16  C   UNL     1     113.216 117.974 124.594  1.00  0.00     0.012 C 
ATOM     17  C   UNL     1     113.691 120.609 126.552  1.00  0.00    -0.063 C 
ATOM     18  C   UNL     1     113.505 121.766 124.309  1.00  0.00     0.009 C 
ATOM     19  C   UNL     1     114.124 121.805 125.735  1.00  0.00     0.025 C 
ATOM     20  C   UNL     1     114.298 120.355 127.713  1.00  0.00    -0.000 C 
ATOM     21  C   UNL     1     115.679 122.092 125.809  1.00  0.00    -0.005 C 
ATOM     22  C   UNL     1     115.552 121.019 128.078  1.00  0.00    -0.000 C 
ATOM     23  C   UNL     1     116.227 121.791 127.207  1.00  0.00    -0.061 C 
ATOM     24  C   UNL     1     116.496 121.216 124.815  1.00  0.00     0.014 C 
ATOM     25  C   UNL     1     115.892 123.602 125.502  1.00  0.00     0.017 C 
ATOM     26  C   UNL     1     117.701 122.016 127.442  1.00  0.00     0.063 C 
ATOM     27  C   UNL     1     118.029 121.347 124.987  1.00  0.00     0.033 C 
ATOM     28  C   UNL     1     118.513 121.166 126.447  1.00  0.00     0.118 C 
BRANCH  28  29
ATOM     29  O   UNL     1     118.519 119.807 126.813  1.00  0.00    -0.393 OA
ATOM     30  H   UNL     1     118.104 119.286 126.078  1.00  0.00     0.210 HD
ENDBRANCH  28  29
ENDBRANCH   1  10
TORSDOF 5
ENDMDL
