MODEL 1
REMARK VINA RESULT:    -4.267      0.000      0.000
REMARK INTER + INTRA:          -6.754
REMARK INTER:                  -6.511
REMARK INTRA:                  -0.243
REMARK UNBOUND:                -0.243
REMARK SMILES CC1=CCC[C@@H](C)C(=O)C[C@@H](C(C)C)C(=O)C1
REMARK SMILES IDX 8 1 9 2 6 3 7 4 5 5 4 6 3 7 2 8 1 9 10 11 11 12 15 13 16 14
REMARK SMILES IDX 17 15 12 17 13 18 14 19
REMARK H PARENT
REMARK Flexibility Score: 70.00
ROOT
ATOM      1  C   UNL     1      37.529  22.154  25.806  1.00  0.00     0.136 C 
ATOM      2  O   UNL     1      38.066  23.148  25.338  1.00  0.00    -0.299 OA
ENDROOT
BRANCH   1   3
ATOM      3  C   UNL     1      37.260  22.115  27.301  1.00  0.00     0.053 C 
ATOM      4  C   UNL     1      36.441  23.335  27.744  1.00  0.00     0.016 C 
BRANCH   3   5
ATOM      5  C   UNL     1      38.596  22.024  28.077  1.00  0.00     0.015 C 
BRANCH   5   6
ATOM      6  C   UNL     1      38.909  20.592  28.567  1.00  0.00     0.028 C 
BRANCH   6   7
ATOM      7  C   UNL     1      39.725  19.816  27.559  1.00  0.00    -0.028 C 
ATOM      8  C   UNL     1      39.254  18.810  26.782  1.00  0.00    -0.070 CG0
ATOM      9  C   UNL     1      40.204  18.161  25.808  1.00  0.00     0.039 C 
ATOM     10  G   UNL     1      37.819  18.313  26.842  1.00  0.00     0.000 G0
ENDBRANCH   6   7
ENDBRANCH   5   6
ENDBRANCH   3   5
ENDBRANCH   1   3
BRANCH   1  11
ATOM     11  C   UNL     1      37.199  21.019  24.851  1.00  0.00     0.087 C 
BRANCH  11  12
ATOM     12  C   UNL     1      36.280  19.886  25.391  1.00  0.00     0.066 C 
BRANCH  12  13
ATOM     13  C   UNL     1      37.044  18.583  25.577  1.00  0.00     0.140 C 
ATOM     14  O   UNL     1      36.974  17.710  24.724  1.00  0.00    -0.299 OA
BRANCH  13  15
ATOM     15  C   UNL     1      37.817  18.326  26.851  1.00  0.00     0.106 CG0
ATOM     16  G   UNL     1      39.253  18.818  26.773  1.00  0.00     0.000 G0
ENDBRANCH  13  15
ENDBRANCH  12  13
BRANCH  12  17
ATOM     17  C   UNL     1      35.005  19.649  24.518  1.00  0.00    -0.006 C 
ATOM     18  C   UNL     1      33.918  18.882  25.289  1.00  0.00     0.008 C 
ATOM     19  C   UNL     1      34.407  20.930  23.909  1.00  0.00     0.008 C 
ENDBRANCH  12  17
ENDBRANCH  11  12
ENDBRANCH   1  11
TORSDOF 1
ENDMDL
MODEL 2
REMARK VINA RESULT:    -4.163      2.114      4.436
REMARK INTER + INTRA:          -6.597
REMARK INTER:                  -6.261
REMARK INTRA:                  -0.336
REMARK UNBOUND:                -0.243
REMARK SMILES CC1=CCC[C@@H](C)C(=O)C[C@@H](C(C)C)C(=O)C1
REMARK SMILES IDX 8 1 9 2 6 3 7 4 5 5 4 6 3 7 2 8 1 9 10 11 11 12 15 13 16 14
REMARK SMILES IDX 17 15 12 17 13 18 14 19
REMARK H PARENT
REMARK Flexibility Score: 70.00
ROOT
ATOM      1  C   UNL     1      38.561  16.630  26.100  1.00  0.00     0.136 C 
ATOM      2  O   UNL     1      39.053  15.784  26.833  1.00  0.00    -0.299 OA
ENDROOT
BRANCH   1   3
ATOM      3  C   UNL     1      39.091  16.753  24.682  1.00  0.00     0.053 C 
ATOM      4  C   UNL     1      38.788  15.485  23.870  1.00  0.00     0.016 C 
BRANCH   3   5
ATOM      5  C   UNL     1      40.609  17.053  24.708  1.00  0.00     0.015 C 
BRANCH   5   6
ATOM      6  C   UNL     1      40.923  18.532  25.024  1.00  0.00     0.028 C 
BRANCH   6   7
ATOM      7  C   UNL     1      41.332  18.729  26.466  1.00  0.00    -0.028 C 
ATOM      8  C   UNL     1      40.740  19.582  27.336  1.00  0.00    -0.070 CG0
ATOM      9  C   UNL     1      41.261  19.630  28.749  1.00  0.00     0.039 C 
ATOM     10  G   UNL     1      39.576  20.484  26.958  1.00  0.00     0.000 G0
ENDBRANCH   6   7
ENDBRANCH   5   6
ENDBRANCH   3   5
ENDBRANCH   1   3
BRANCH   1  11
ATOM     11  C   UNL     1      37.471  17.515  26.682  1.00  0.00     0.087 C 
BRANCH  11  12
ATOM     12  C   UNL     1      37.491  19.018  26.280  1.00  0.00     0.066 C 
BRANCH  12  13
ATOM     13  C   UNL     1      38.221  19.867  27.311  1.00  0.00     0.140 C 
ATOM     14  O   UNL     1      37.693  20.101  28.389  1.00  0.00    -0.299 OA
BRANCH  13  15
ATOM     15  C   UNL     1      39.556  20.494  26.978  1.00  0.00     0.106 CG0
ATOM     16  G   UNL     1      40.729  19.590  27.322  1.00  0.00     0.000 G0
ENDBRANCH  13  15
ENDBRANCH  12  13
BRANCH  12  17
ATOM     17  C   UNL     1      36.070  19.606  25.999  1.00  0.00    -0.006 C 
ATOM     18  C   UNL     1      36.141  21.054  25.489  1.00  0.00     0.008 C 
ATOM     19  C   UNL     1      35.211  18.758  25.044  1.00  0.00     0.008 C 
ENDBRANCH  12  17
ENDBRANCH  11  12
ENDBRANCH   1  11
TORSDOF 1
ENDMDL
MODEL 3
REMARK VINA RESULT:    -3.787      2.266      4.253
REMARK INTER + INTRA:          -6.022
REMARK INTER:                  -5.959
REMARK INTRA:                  -0.063
REMARK UNBOUND:                -0.243
REMARK SMILES CC1=CCC[C@@H](C)C(=O)C[C@@H](C(C)C)C(=O)C1
REMARK SMILES IDX 8 1 9 2 6 3 7 4 5 5 4 6 3 7 2 8 1 9 10 11 11 12 15 13 16 14
REMARK SMILES IDX 17 15 12 17 13 18 14 19
REMARK H PARENT
REMARK Flexibility Score: 70.00
ROOT
ATOM      1  C   UNL     1      37.393  18.263  26.072  1.00  0.00     0.136 C 
ATOM      2  O   UNL     1      37.182  17.438  26.950  1.00  0.00    -0.299 OA
ENDROOT
BRANCH   1   3
ATOM      3  C   UNL     1      36.611  19.565  26.102  1.00  0.00     0.053 C 
ATOM      4  C   UNL     1      36.633  20.251  24.728  1.00  0.00     0.016 C 
BRANCH   3   5
ATOM      5  C   UNL     1      37.173  20.496  27.203  1.00  0.00     0.015 C 
BRANCH   5   6
ATOM      6  C   UNL     1      38.586  21.029  26.874  1.00  0.00     0.028 C 
BRANCH   6   7
ATOM      7  C   UNL     1      39.653  20.356  27.707  1.00  0.00    -0.028 C 
ATOM      8  C   UNL     1      40.705  19.659  27.213  1.00  0.00    -0.070 CG0
ATOM      9  C   UNL     1      41.691  19.075  28.191  1.00  0.00     0.039 C 
ATOM     10  G   UNL     1      40.940  19.447  25.726  1.00  0.00     0.000 G0
ENDBRANCH   6   7
ENDBRANCH   5   6
ENDBRANCH   3   5
ENDBRANCH   1   3
BRANCH   1  11
ATOM     11  C   UNL     1      38.407  17.903  25.000  1.00  0.00     0.087 C 
BRANCH  11  12
ATOM     12  C   UNL     1      39.689  17.153  25.463  1.00  0.00     0.066 C 
BRANCH  12  13
ATOM     13  C   UNL     1      40.936  18.007  25.286  1.00  0.00     0.140 C 
ATOM     14  O   UNL     1      41.967  17.498  24.869  1.00  0.00    -0.299 OA
BRANCH  13  15
ATOM     15  C   UNL     1      40.933  19.460  25.706  1.00  0.00     0.106 CG0
ATOM     16  G   UNL     1      40.699  19.637  27.197  1.00  0.00     0.000 G0
ENDBRANCH  13  15
ENDBRANCH  12  13
BRANCH  12  17
ATOM     17  C   UNL     1      39.880  15.763  24.773  1.00  0.00    -0.006 C 
ATOM     18  C   UNL     1      40.233  14.664  25.789  1.00  0.00     0.008 C 
ATOM     19  C   UNL     1      38.685  15.312  23.913  1.00  0.00     0.008 C 
ENDBRANCH  12  17
ENDBRANCH  11  12
ENDBRANCH   1  11
TORSDOF 1
ENDMDL
MODEL 4
REMARK VINA RESULT:    -3.694      2.767      5.920
REMARK INTER + INTRA:          -5.880
REMARK INTER:                  -6.048
REMARK INTRA:                   0.169
REMARK UNBOUND:                -0.243
REMARK SMILES CC1=CCC[C@@H](C)C(=O)C[C@@H](C(C)C)C(=O)C1
REMARK SMILES IDX 8 1 9 2 6 3 7 4 5 5 4 6 3 7 2 8 1 9 10 11 11 12 15 13 16 14
REMARK SMILES IDX 17 15 12 17 13 18 14 19
REMARK H PARENT
REMARK Flexibility Score: 70.00
ROOT
ATOM      1  C   UNL     1      40.613  16.095  25.403  1.00  0.00     0.136 C 
ATOM      2  O   UNL     1      41.384  15.595  26.209  1.00  0.00    -0.299 OA
ENDROOT
BRANCH   1   3
ATOM      3  C   UNL     1      39.158  15.661  25.431  1.00  0.00     0.053 C 
ATOM      4  C   UNL     1      38.523  15.775  24.039  1.00  0.00     0.016 C 
BRANCH   3   5
ATOM      5  C   UNL     1      38.376  16.496  26.475  1.00  0.00     0.015 C 
BRANCH   5   6
ATOM      6  C   UNL     1      37.432  17.534  25.827  1.00  0.00     0.028 C 
BRANCH   6   7
ATOM      7  C   UNL     1      37.501  18.874  26.522  1.00  0.00    -0.028 C 
ATOM      8  C   UNL     1      38.423  19.835  26.275  1.00  0.00    -0.070 CG0
ATOM      9  C   UNL     1      38.326  21.127  27.046  1.00  0.00     0.039 C 
ATOM     10  G   UNL     1      39.541  19.677  25.257  1.00  0.00     0.000 G0
ENDBRANCH   6   7
ENDBRANCH   5   6
ENDBRANCH   3   5
ENDBRANCH   1   3
BRANCH   1  11
ATOM     11  C   UNL     1      41.184  17.096  24.413  1.00  0.00     0.087 C 
BRANCH  11  12
ATOM     12  C   UNL     1      41.817  18.390  25.002  1.00  0.00     0.066 C 
BRANCH  12  13
ATOM     13  C   UNL     1      40.825  19.163  25.859  1.00  0.00     0.140 C 
ATOM     14  O   UNL     1      41.027  19.290  27.058  1.00  0.00    -0.299 OA
BRANCH  13  15
ATOM     15  C   UNL     1      39.547  19.699  25.253  1.00  0.00     0.106 CG0
ATOM     16  G   UNL     1      38.431  19.842  26.274  1.00  0.00     0.000 G0
ENDBRANCH  13  15
ENDBRANCH  12  13
BRANCH  12  17
ATOM     17  C   UNL     1      42.443  19.326  23.917  1.00  0.00    -0.006 C 
ATOM     18  C   UNL     1      43.523  20.245  24.509  1.00  0.00     0.008 C 
ATOM     19  C   UNL     1      43.004  18.586  22.689  1.00  0.00     0.008 C 
ENDBRANCH  12  17
ENDBRANCH  11  12
ENDBRANCH   1  11
TORSDOF 1
ENDMDL
MODEL 5
REMARK VINA RESULT:    -3.687      1.770      4.131
REMARK INTER + INTRA:          -5.869
REMARK INTER:                  -5.934
REMARK INTRA:                   0.065
REMARK UNBOUND:                -0.243
REMARK SMILES CC1=CCC[C@@H](C)C(=O)C[C@@H](C(C)C)C(=O)C1
REMARK SMILES IDX 8 1 9 2 6 3 7 4 5 5 4 6 3 7 2 8 1 9 10 11 11 12 15 13 16 14
REMARK SMILES IDX 17 15 12 17 13 18 14 19
REMARK H PARENT
REMARK Flexibility Score: 70.00
ROOT
ATOM      1  C   UNL     1      36.984  19.168  25.177  1.00  0.00     0.136 C 
ATOM      2  O   UNL     1      36.366  18.180  24.805  1.00  0.00    -0.299 OA
ENDROOT
BRANCH   1   3
ATOM      3  C   UNL     1      36.197  20.401  25.586  1.00  0.00     0.053 C 
ATOM      4  C   UNL     1      34.826  20.431  24.897  1.00  0.00     0.016 C 
BRANCH   3   5
ATOM      5  C   UNL     1      37.012  21.679  25.270  1.00  0.00     0.015 C 
BRANCH   5   6
ATOM      6  C   UNL     1      37.393  22.476  26.538  1.00  0.00     0.028 C 
BRANCH   6   7
ATOM      7  C   UNL     1      37.370  21.612  27.778  1.00  0.00    -0.028 C 
ATOM      8  C   UNL     1      38.382  20.812  28.191  1.00  0.00    -0.070 CG0
ATOM      9  C   UNL     1      38.199  20.038  29.471  1.00  0.00     0.039 C 
ATOM     10  G   UNL     1      39.691  20.665  27.431  1.00  0.00     0.000 G0
ENDBRANCH   6   7
ENDBRANCH   5   6
ENDBRANCH   3   5
ENDBRANCH   1   3
BRANCH   1  11
ATOM     11  C   UNL     1      38.502  19.090  25.171  1.00  0.00     0.087 C 
BRANCH  11  12
ATOM     12  C   UNL     1      39.174  18.310  26.338  1.00  0.00     0.066 C 
BRANCH  12  13
ATOM     13  C   UNL     1      40.081  19.208  27.167  1.00  0.00     0.140 C 
ATOM     14  O   UNL     1      41.080  18.742  27.696  1.00  0.00    -0.299 OA
BRANCH  13  15
ATOM     15  C   UNL     1      39.707  20.653  27.413  1.00  0.00     0.106 CG0
ATOM     16  G   UNL     1      38.409  20.797  28.190  1.00  0.00     0.000 G0
ENDBRANCH  13  15
ENDBRANCH  12  13
BRANCH  12  17
ATOM     17  C   UNL     1      39.951  17.037  25.869  1.00  0.00    -0.006 C 
ATOM     18  C   UNL     1      39.177  15.746  26.184  1.00  0.00     0.008 C 
ATOM     19  C   UNL     1      40.356  17.052  24.384  1.00  0.00     0.008 C 
ENDBRANCH  12  17
ENDBRANCH  11  12
ENDBRANCH   1  11
TORSDOF 1
ENDMDL
MODEL 6
REMARK VINA RESULT:    -3.683      2.511      4.945
REMARK INTER + INTRA:          -5.863
REMARK INTER:                  -5.589
REMARK INTRA:                  -0.274
REMARK UNBOUND:                -0.243
REMARK SMILES CC1=CCC[C@@H](C)C(=O)C[C@@H](C(C)C)C(=O)C1
REMARK SMILES IDX 8 1 9 2 6 3 7 4 5 5 4 6 3 7 2 8 1 9 10 11 11 12 15 13 16 14
REMARK SMILES IDX 17 15 12 17 13 18 14 19
REMARK H PARENT
REMARK Flexibility Score: 70.00
ROOT
ATOM      1  C   UNL     1      38.007  17.735  25.656  1.00  0.00     0.136 C 
ATOM      2  O   UNL     1      37.078  18.169  24.989  1.00  0.00    -0.299 OA
ENDROOT
BRANCH   1   3
ATOM      3  C   UNL     1      38.638  16.417  25.243  1.00  0.00     0.053 C 
ATOM      4  C   UNL     1      39.231  15.688  26.457  1.00  0.00     0.016 C 
BRANCH   3   5
ATOM      5  C   UNL     1      39.712  16.661  24.155  1.00  0.00     0.015 C 
BRANCH   5   6
ATOM      6  C   UNL     1      41.152  16.475  24.683  1.00  0.00     0.028 C 
BRANCH   6   7
ATOM      7  C   UNL     1      41.979  17.731  24.526  1.00  0.00    -0.028 C 
ATOM      8  C   UNL     1      42.191  18.652  25.497  1.00  0.00    -0.070 CG0
ATOM      9  C   UNL     1      43.067  19.835  25.174  1.00  0.00     0.039 C 
ATOM     10  G   UNL     1      41.596  18.545  26.891  1.00  0.00     0.000 G0
ENDBRANCH   6   7
ENDBRANCH   5   6
ENDBRANCH   3   5
ENDBRANCH   1   3
BRANCH   1  11
ATOM     11  C   UNL     1      38.437  18.544  26.868  1.00  0.00     0.087 C 
BRANCH  11  12
ATOM     12  C   UNL     1      39.308  19.806  26.604  1.00  0.00     0.066 C 
BRANCH  12  13
ATOM     13  C   UNL     1      40.679  19.690  27.254  1.00  0.00     0.140 C 
ATOM     14  O   UNL     1      41.067  20.566  28.015  1.00  0.00    -0.299 OA
BRANCH  13  15
ATOM     15  C   UNL     1      41.600  18.545  26.898  1.00  0.00     0.106 CG0
ATOM     16  G   UNL     1      42.181  18.675  25.499  1.00  0.00     0.000 G0
ENDBRANCH  13  15
ENDBRANCH  12  13
BRANCH  12  17
ATOM     17  C   UNL     1      38.614  21.140  27.031  1.00  0.00    -0.006 C 
ATOM     18  C   UNL     1      37.803  21.757  25.879  1.00  0.00     0.008 C 
ATOM     19  C   UNL     1      37.730  21.023  28.285  1.00  0.00     0.008 C 
ENDBRANCH  12  17
ENDBRANCH  11  12
ENDBRANCH   1  11
TORSDOF 1
ENDMDL
MODEL 7
REMARK VINA RESULT:    -3.645      2.225      4.351
REMARK INTER + INTRA:          -5.805
REMARK INTER:                  -5.632
REMARK INTRA:                  -0.174
REMARK UNBOUND:                -0.243
REMARK SMILES CC1=CCC[C@@H](C)C(=O)C[C@@H](C(C)C)C(=O)C1
REMARK SMILES IDX 8 1 9 2 6 3 7 4 5 5 4 6 3 7 2 8 1 9 10 11 11 12 15 13 16 14
REMARK SMILES IDX 17 15 12 17 13 18 14 19
REMARK H PARENT
REMARK Flexibility Score: 70.00
ROOT
ATOM      1  C   UNL     1      37.598  20.697  25.691  1.00  0.00     0.136 C 
ATOM      2  O   UNL     1      36.918  21.338  24.903  1.00  0.00    -0.299 OA
ENDROOT
BRANCH   1   3
ATOM      3  C   UNL     1      38.482  19.588  25.146  1.00  0.00     0.053 C 
ATOM      4  C   UNL     1      37.958  18.209  25.570  1.00  0.00     0.016 C 
BRANCH   3   5
ATOM      5  C   UNL     1      39.944  19.799  25.610  1.00  0.00     0.015 C 
BRANCH   5   6
ATOM      6  C   UNL     1      40.371  18.809  26.717  1.00  0.00     0.028 C 
BRANCH   6   7
ATOM      7  C   UNL     1      41.337  19.435  27.695  1.00  0.00    -0.028 C 
ATOM      8  C   UNL     1      40.985  20.117  28.812  1.00  0.00    -0.070 CG0
ATOM      9  C   UNL     1      42.085  20.653  29.693  1.00  0.00     0.039 C 
ATOM     10  G   UNL     1      39.542  20.359  29.221  1.00  0.00     0.000 G0
ENDBRANCH   6   7
ENDBRANCH   5   6
ENDBRANCH   3   5
ENDBRANCH   1   3
BRANCH   1  11
ATOM     11  C   UNL     1      37.480  21.045  27.165  1.00  0.00     0.087 C 
BRANCH  11  12
ATOM     12  C   UNL     1      38.406  22.175  27.701  1.00  0.00     0.066 C 
BRANCH  12  13
ATOM     13  C   UNL     1      39.081  21.779  29.007  1.00  0.00     0.140 C 
ATOM     14  O   UNL     1      39.319  22.631  29.850  1.00  0.00    -0.299 OA
BRANCH  13  15
ATOM     15  C   UNL     1      39.536  20.354  29.230  1.00  0.00     0.106 CG0
ATOM     16  G   UNL     1      40.983  20.131  28.818  1.00  0.00     0.000 G0
ENDBRANCH  13  15
ENDBRANCH  12  13
BRANCH  12  17
ATOM     17  C   UNL     1      37.682  23.551  27.859  1.00  0.00    -0.006 C 
ATOM     18  C   UNL     1      38.253  24.611  26.902  1.00  0.00     0.008 C 
ATOM     19  C   UNL     1      36.152  23.483  27.708  1.00  0.00     0.008 C 
ENDBRANCH  12  17
ENDBRANCH  11  12
ENDBRANCH   1  11
TORSDOF 1
ENDMDL
MODEL 8
REMARK VINA RESULT:    -3.501      2.720      5.324
REMARK INTER + INTRA:          -5.585
REMARK INTER:                  -5.663
REMARK INTRA:                   0.078
REMARK UNBOUND:                -0.243
REMARK SMILES CC1=CCC[C@@H](C)C(=O)C[C@@H](C(C)C)C(=O)C1
REMARK SMILES IDX 8 1 9 2 6 3 7 4 5 5 4 6 3 7 2 8 1 9 10 11 11 12 15 13 16 14
REMARK SMILES IDX 17 15 12 17 13 18 14 19
REMARK H PARENT
REMARK Flexibility Score: 70.00
ROOT
ATOM      1  C   UNL     1      39.300  15.961  24.932  1.00  0.00     0.136 C 
ATOM      2  O   UNL     1      38.963  15.847  23.762  1.00  0.00    -0.299 OA
ENDROOT
BRANCH   1   3
ATOM      3  C   UNL     1      40.386  15.041  25.462  1.00  0.00     0.053 C 
ATOM      4  C   UNL     1      39.860  14.181  26.620  1.00  0.00     0.016 C 
BRANCH   3   5
ATOM      5  C   UNL     1      41.619  15.871  25.895  1.00  0.00     0.015 C 
BRANCH   5   6
ATOM      6  C   UNL     1      42.340  16.540  24.703  1.00  0.00     0.028 C 
BRANCH   6   7
ATOM      7  C   UNL     1      43.038  17.818  25.108  1.00  0.00    -0.028 C 
ATOM      8  C   UNL     1      42.486  19.054  25.070  1.00  0.00    -0.070 CG0
ATOM      9  C   UNL     1      43.320  20.219  25.539  1.00  0.00     0.039 C 
ATOM     10  G   UNL     1      41.070  19.321  24.586  1.00  0.00     0.000 G0
ENDBRANCH   6   7
ENDBRANCH   5   6
ENDBRANCH   3   5
ENDBRANCH   1   3
BRANCH   1  11
ATOM     11  C   UNL     1      38.580  17.002  25.772  1.00  0.00     0.087 C 
BRANCH  11  12
ATOM     12  C   UNL     1      38.687  18.483  25.309  1.00  0.00     0.066 C 
BRANCH  12  13
ATOM     13  C   UNL     1      40.034  19.091  25.673  1.00  0.00     0.140 C 
ATOM     14  O   UNL     1      40.250  19.444  26.824  1.00  0.00    -0.299 OA
BRANCH  13  15
ATOM     15  C   UNL     1      41.074  19.341  24.604  1.00  0.00     0.106 CG0
ATOM     16  G   UNL     1      42.487  19.049  25.084  1.00  0.00     0.000 G0
ENDBRANCH  13  15
ENDBRANCH  12  13
BRANCH  12  17
ATOM     17  C   UNL     1      37.523  19.385  25.833  1.00  0.00    -0.006 C 
ATOM     18  C   UNL     1      37.130  20.463  24.809  1.00  0.00     0.008 C 
ATOM     19  C   UNL     1      36.271  18.609  26.279  1.00  0.00     0.008 C 
ENDBRANCH  12  17
ENDBRANCH  11  12
ENDBRANCH   1  11
TORSDOF 1
ENDMDL
MODEL 9
REMARK VINA RESULT:    -3.449      3.735      5.379
REMARK INTER + INTRA:          -5.506
REMARK INTER:                  -5.455
REMARK INTRA:                  -0.051
REMARK UNBOUND:                -0.243
REMARK SMILES CC1=CCC[C@@H](C)C(=O)C[C@@H](C(C)C)C(=O)C1
REMARK SMILES IDX 8 1 9 2 6 3 7 4 5 5 4 6 3 7 2 8 1 9 10 11 11 12 15 13 16 14
REMARK SMILES IDX 17 15 12 17 13 18 14 19
REMARK H PARENT
REMARK Flexibility Score: 70.00
ROOT
ATOM      1  C   UNL     1      39.853  24.838  29.413  1.00  0.00     0.136 C 
ATOM      2  O   UNL     1      39.363  25.741  28.750  1.00  0.00    -0.299 OA
ENDROOT
BRANCH   1   3
ATOM      3  C   UNL     1      40.537  25.193  30.722  1.00  0.00     0.053 C 
ATOM      4  C   UNL     1      42.062  25.229  30.555  1.00  0.00     0.016 C 
BRANCH   3   5
ATOM      5  C   UNL     1      40.117  24.192  31.827  1.00  0.00     0.015 C 
BRANCH   5   6
ATOM      6  C   UNL     1      41.185  23.106  32.089  1.00  0.00     0.028 C 
BRANCH   6   7
ATOM      7  C   UNL     1      40.570  21.814  32.576  1.00  0.00    -0.028 C 
ATOM      8  C   UNL     1      40.100  20.824  31.780  1.00  0.00    -0.070 CG0
ATOM      9  C   UNL     1      39.543  19.588  32.438  1.00  0.00     0.039 C 
ATOM     10  G   UNL     1      40.116  20.897  30.262  1.00  0.00     0.000 G0
ENDBRANCH   6   7
ENDBRANCH   5   6
ENDBRANCH   3   5
ENDBRANCH   1   3
BRANCH   1  11
ATOM     11  C   UNL     1      39.763  23.428  28.855  1.00  0.00     0.087 C 
BRANCH  11  12
ATOM     12  C   UNL     1      38.465  22.627  29.163  1.00  0.00     0.066 C 
BRANCH  12  13
ATOM     13  C   UNL     1      38.774  21.217  29.646  1.00  0.00     0.140 C 
ATOM     14  O   UNL     1      37.902  20.360  29.616  1.00  0.00    -0.299 OA
BRANCH  13  15
ATOM     15  C   UNL     1      40.125  20.893  30.243  1.00  0.00     0.106 CG0
ATOM     16  G   UNL     1      40.093  20.830  31.761  1.00  0.00     0.000 G0
ENDBRANCH  13  15
ENDBRANCH  12  13
BRANCH  12  17
ATOM     17  C   UNL     1      37.461  22.584  27.965  1.00  0.00    -0.006 C 
ATOM     18  C   UNL     1      36.599  23.855  27.895  1.00  0.00     0.008 C 
ATOM     19  C   UNL     1      38.118  22.324  26.597  1.00  0.00     0.008 C 
ENDBRANCH  12  17
ENDBRANCH  11  12
ENDBRANCH   1  11
TORSDOF 1
ENDMDL
