MODEL 1
REMARK VINA RESULT:    -6.897      0.000      0.000
REMARK INTER + INTRA:         -11.393
REMARK INTER:                 -10.123
REMARK INTRA:                  -1.270
REMARK UNBOUND:                -1.270
REMARK SMILES O=c1c(O[C@@H]2O[C@H](CO)[C@H](O)[C@@H](O)[C@@H]2O)c(-c2ccc(O)c(O)c2)oc2cc(O)cc(O)c12
REMARK SMILES IDX 4 1 3 2 16 3 25 4 2 5 26 6 1 7 33 8 27 9 31 10 28 11 30 12
REMARK SMILES IDX 17 13 18 14 19 15 20 16 24 17 22 18 21 19 23 21 32 23 29 25
REMARK SMILES IDX 5 27 14 28 6 29 12 30 7 31 10 32 15 33 13 35 8 37 9 38 11 40
REMARK H PARENT 21 20 23 22 32 24 29 26 15 34 13 36 9 39 11 41
REMARK Flexibility Score: inf
ROOT
ATOM      1  O   UNL     1      -6.092   7.002  13.919  1.00  0.00    -0.454 OA
ENDROOT
BRANCH   1   2
ATOM      2  C   UNL     1      -5.069   6.188  14.442  1.00  0.00     0.214 A 
ATOM      3  C   UNL     1      -3.731   6.541  14.189  1.00  0.00     0.180 A 
ATOM      4  O   UNL     1      -2.743   5.814  14.697  1.00  0.00    -0.452 OA
ATOM      5  C   UNL     1      -5.326   5.039  15.219  1.00  0.00     0.239 A 
ATOM      6  C   UNL     1      -2.938   4.743  15.453  1.00  0.00     0.146 A 
ATOM      7  O   UNL     1      -6.510   4.639  15.355  1.00  0.00    -0.285 OA
ATOM      8  C   UNL     1      -4.248   4.317  15.788  1.00  0.00     0.111 A 
ATOM      9  C   UNL     1      -1.823   4.033  15.905  1.00  0.00     0.094 A 
ATOM     10  C   UNL     1      -4.397   3.182  16.641  1.00  0.00     0.134 A 
ATOM     11  C   UNL     1      -1.980   2.890  16.685  1.00  0.00     0.123 A 
ATOM     12  C   UNL     1      -3.262   2.468  17.045  1.00  0.00     0.093 A 
BRANCH   3  13
ATOM     13  C   UNL     1      -3.377   7.736  13.394  1.00  0.00     0.025 A 
ATOM     14  C   UNL     1      -3.669   7.764  12.022  1.00  0.00     0.016 A 
ATOM     15  C   UNL     1      -3.343   8.884  11.253  1.00  0.00     0.051 A 
ATOM     16  C   UNL     1      -2.734   9.998  11.849  1.00  0.00     0.157 A 
ATOM     17  C   UNL     1      -2.789   8.862  13.992  1.00  0.00     0.062 A 
ATOM     18  C   UNL     1      -2.462   9.987  13.228  1.00  0.00     0.158 A 
BRANCH  16  19
ATOM     19  O   UNL     1      -2.405  11.112  11.079  1.00  0.00    -0.504 OA
ATOM     20  H   UNL     1      -2.927  11.353  10.245  1.00  0.00     0.293 HD
ENDBRANCH  16  19
BRANCH  18  21
ATOM     21  O   UNL     1      -1.873  11.085  13.854  1.00  0.00    -0.504 OA
ATOM     22  H   UNL     1      -2.419  11.784  14.343  1.00  0.00     0.293 HD
ENDBRANCH  18  21
ENDBRANCH   3  13
BRANCH  10  23
ATOM     23  O   UNL     1      -5.625   2.739  17.141  1.00  0.00    -0.507 OA
ATOM     24  H   UNL     1      -6.078   3.111  17.962  1.00  0.00     0.293 HD
ENDBRANCH  10  23
BRANCH  11  25
ATOM     25  O   UNL     1      -0.855   2.184  17.107  1.00  0.00    -0.508 OA
ATOM     26  H   UNL     1      -0.129   2.625  17.659  1.00  0.00     0.293 HD
ENDBRANCH  11  25
ENDBRANCH   1   2
BRANCH   1  27
ATOM     27  C   UNL     1      -7.026   7.766  14.685  1.00  0.00     0.339 C 
ATOM     28  C   UNL     1      -7.325   9.103  13.988  1.00  0.00     0.214 C 
ATOM     29  O   UNL     1      -8.206   7.025  14.977  1.00  0.00    -0.332 OA
ATOM     30  C   UNL     1      -8.148   8.864  12.715  1.00  0.00     0.180 C 
ATOM     31  C   UNL     1      -9.039   6.771  13.849  1.00  0.00     0.179 C 
ATOM     32  C   UNL     1      -9.406   8.055  13.067  1.00  0.00     0.177 C 
BRANCH  28  33
ATOM     33  O   UNL     1      -6.115   9.741  13.668  1.00  0.00    -0.384 OA
ATOM     34  H   UNL     1      -6.313  10.385  12.939  1.00  0.00     0.211 HD
ENDBRANCH  28  33
BRANCH  30  35
ATOM     35  O   UNL     1      -8.492  10.083  12.103  1.00  0.00    -0.387 OA
ATOM     36  H   UNL     1      -7.832  10.260  11.382  1.00  0.00     0.211 HD
ENDBRANCH  30  35
BRANCH  31  37
ATOM     37  C   UNL     1      -8.508   5.623  12.962  1.00  0.00     0.191 C 
BRANCH  37  38
ATOM     38  O   UNL     1      -8.625   4.390  13.619  1.00  0.00    -0.394 OA
ATOM     39  H   UNL     1      -8.231   3.707  13.013  1.00  0.00     0.210 HD
ENDBRANCH  37  38
ENDBRANCH  31  37
BRANCH  32  40
ATOM     40  O   UNL     1     -10.118   7.727  11.901  1.00  0.00    -0.387 OA
ATOM     41  H   UNL     1     -10.980   8.218  11.941  1.00  0.00     0.211 HD
ENDBRANCH  32  40
ENDBRANCH   1  27
TORSDOF 12
ENDMDL
MODEL 2
REMARK VINA RESULT:    -6.488      1.571      4.842
REMARK INTER + INTRA:         -10.793
REMARK INTER:                  -9.430
REMARK INTRA:                  -1.363
REMARK UNBOUND:                -1.270
REMARK SMILES O=c1c(O[C@@H]2O[C@H](CO)[C@H](O)[C@@H](O)[C@@H]2O)c(-c2ccc(O)c(O)c2)oc2cc(O)cc(O)c12
REMARK SMILES IDX 4 1 3 2 16 3 25 4 2 5 26 6 1 7 33 8 27 9 31 10 28 11 30 12
REMARK SMILES IDX 17 13 18 14 19 15 20 16 24 17 22 18 21 19 23 21 32 23 29 25
REMARK SMILES IDX 5 27 14 28 6 29 12 30 7 31 10 32 15 33 13 35 8 37 9 38 11 40
REMARK H PARENT 21 20 23 22 32 24 29 26 15 34 13 36 9 39 11 41
REMARK Flexibility Score: inf
ROOT
ATOM      1  O   UNL     1      -4.112   6.542  13.627  1.00  0.00    -0.454 OA
ENDROOT
BRANCH   1   2
ATOM      2  C   UNL     1      -4.300   5.525  14.582  1.00  0.00     0.214 A 
ATOM      3  C   UNL     1      -5.611   5.099  14.865  1.00  0.00     0.180 A 
ATOM      4  O   UNL     1      -5.820   4.119  15.735  1.00  0.00    -0.452 OA
ATOM      5  C   UNL     1      -3.230   4.904  15.262  1.00  0.00     0.239 A 
ATOM      6  C   UNL     1      -4.845   3.491  16.376  1.00  0.00     0.146 A 
ATOM      7  O   UNL     1      -2.065   5.350  15.113  1.00  0.00    -0.285 OA
ATOM      8  C   UNL     1      -3.487   3.826  16.144  1.00  0.00     0.111 A 
ATOM      9  C   UNL     1      -5.183   2.496  17.297  1.00  0.00     0.094 A 
ATOM     10  C   UNL     1      -2.477   3.087  16.830  1.00  0.00     0.134 A 
ATOM     11  C   UNL     1      -4.193   1.823  18.008  1.00  0.00     0.123 A 
ATOM     12  C   UNL     1      -2.849   2.123  17.776  1.00  0.00     0.093 A 
BRANCH   3  13
ATOM     13  C   UNL     1      -6.785   5.691  14.189  1.00  0.00     0.025 A 
ATOM     14  C   UNL     1      -7.143   5.245  12.908  1.00  0.00     0.016 A 
ATOM     15  C   UNL     1      -8.249   5.792  12.252  1.00  0.00     0.051 A 
ATOM     16  C   UNL     1      -9.023   6.780  12.877  1.00  0.00     0.157 A 
ATOM     17  C   UNL     1      -7.577   6.664  14.821  1.00  0.00     0.062 A 
ATOM     18  C   UNL     1      -8.687   7.213  14.171  1.00  0.00     0.158 A 
BRANCH  16  19
ATOM     19  O   UNL     1     -10.124   7.327  12.219  1.00  0.00    -0.504 OA
ATOM     20  H   UNL     1     -10.015   7.907  11.395  1.00  0.00     0.293 HD
ENDBRANCH  16  19
BRANCH  18  21
ATOM     21  O   UNL     1      -9.446   8.182  14.826  1.00  0.00    -0.504 OA
ATOM     22  H   UNL     1     -10.452   8.235  14.729  1.00  0.00     0.293 HD
ENDBRANCH  18  21
ENDBRANCH   3  13
BRANCH  10  23
ATOM     23  O   UNL     1      -1.106   3.238  16.597  1.00  0.00    -0.507 OA
ATOM     24  H   UNL     1      -0.504   2.514  16.236  1.00  0.00     0.293 HD
ENDBRANCH  10  23
BRANCH  11  25
ATOM     25  O   UNL     1      -4.554   0.850  18.938  1.00  0.00    -0.508 OA
ATOM     26  H   UNL     1      -3.857   0.333  19.460  1.00  0.00     0.293 HD
ENDBRANCH  11  25
ENDBRANCH   1   2
BRANCH   1  27
ATOM     27  C   UNL     1      -4.194   7.947  13.875  1.00  0.00     0.339 C 
ATOM     28  C   UNL     1      -2.836   8.618  13.611  1.00  0.00     0.214 C 
ATOM     29  O   UNL     1      -5.256   8.555  13.147  1.00  0.00    -0.332 OA
ATOM     30  C   UNL     1      -2.532   8.624  12.107  1.00  0.00     0.180 C 
ATOM     31  C   UNL     1      -5.047   8.616  11.738  1.00  0.00     0.179 C 
ATOM     32  C   UNL     1      -3.702   9.278  11.354  1.00  0.00     0.177 C 
BRANCH  28  33
ATOM     33  O   UNL     1      -1.832   7.921  14.304  1.00  0.00    -0.384 OA
ATOM     34  H   UNL     1      -1.902   6.969  14.032  1.00  0.00     0.211 HD
ENDBRANCH  28  33
BRANCH  30  35
ATOM     35  O   UNL     1      -1.327   9.299  11.841  1.00  0.00    -0.387 OA
ATOM     36  H   UNL     1      -1.171   9.947  12.577  1.00  0.00     0.211 HD
ENDBRANCH  30  35
BRANCH  31  37
ATOM     37  C   UNL     1      -5.308   7.265  11.037  1.00  0.00     0.191 C 
BRANCH  37  38
ATOM     38  O   UNL     1      -4.101   6.629  10.716  1.00  0.00    -0.394 OA
ATOM     39  H   UNL     1      -4.133   5.729  11.136  1.00  0.00     0.210 HD
ENDBRANCH  37  38
ENDBRANCH  31  37
BRANCH  32  40
ATOM     40  O   UNL     1      -3.498   9.195   9.967  1.00  0.00    -0.387 OA
ATOM     41  H   UNL     1      -3.952   8.367   9.657  1.00  0.00     0.211 HD
ENDBRANCH  32  40
ENDBRANCH   1  27
TORSDOF 12
ENDMDL
MODEL 3
REMARK VINA RESULT:    -6.432      1.027      2.421
REMARK INTER + INTRA:         -10.711
REMARK INTER:                  -9.394
REMARK INTRA:                  -1.317
REMARK UNBOUND:                -1.270
REMARK SMILES O=c1c(O[C@@H]2O[C@H](CO)[C@H](O)[C@@H](O)[C@@H]2O)c(-c2ccc(O)c(O)c2)oc2cc(O)cc(O)c12
REMARK SMILES IDX 4 1 3 2 16 3 25 4 2 5 26 6 1 7 33 8 27 9 31 10 28 11 30 12
REMARK SMILES IDX 17 13 18 14 19 15 20 16 24 17 22 18 21 19 23 21 32 23 29 25
REMARK SMILES IDX 5 27 14 28 6 29 12 30 7 31 10 32 15 33 13 35 8 37 9 38 11 40
REMARK H PARENT 21 20 23 22 32 24 29 26 15 34 13 36 9 39 11 41
REMARK Flexibility Score: inf
ROOT
ATOM      1  O   UNL     1      -5.990   7.290  14.254  1.00  0.00    -0.454 OA
ENDROOT
BRANCH   1   2
ATOM      2  C   UNL     1      -4.986   6.398  14.678  1.00  0.00     0.214 A 
ATOM      3  C   UNL     1      -3.658   6.641  14.284  1.00  0.00     0.180 A 
ATOM      4  O   UNL     1      -2.683   5.840  14.695  1.00  0.00    -0.452 OA
ATOM      5  C   UNL     1      -5.251   5.276  15.492  1.00  0.00     0.239 A 
ATOM      6  C   UNL     1      -2.882   4.791  15.481  1.00  0.00     0.146 A 
ATOM      7  O   UNL     1      -6.442   4.974  15.755  1.00  0.00    -0.285 OA
ATOM      8  C   UNL     1      -4.181   4.473  15.956  1.00  0.00     0.111 A 
ATOM      9  C   UNL     1      -1.786   3.996  15.824  1.00  0.00     0.094 A 
ATOM     10  C   UNL     1      -4.329   3.358  16.834  1.00  0.00     0.134 A 
ATOM     11  C   UNL     1      -1.951   2.873  16.631  1.00  0.00     0.123 A 
ATOM     12  C   UNL     1      -3.218   2.557  17.127  1.00  0.00     0.093 A 
BRANCH   3  13
ATOM     13  C   UNL     1      -3.295   7.800  13.440  1.00  0.00     0.025 A 
ATOM     14  C   UNL     1      -2.741   8.943  14.037  1.00  0.00     0.016 A 
ATOM     15  C   UNL     1      -2.392  10.048  13.257  1.00  0.00     0.051 A 
ATOM     16  C   UNL     1      -2.576  10.020  11.867  1.00  0.00     0.157 A 
ATOM     17  C   UNL     1      -3.457   7.766  12.046  1.00  0.00     0.062 A 
ATOM     18  C   UNL     1      -3.107   8.869  11.260  1.00  0.00     0.158 A 
BRANCH  16  19
ATOM     19  O   UNL     1      -2.231  11.125  11.091  1.00  0.00    -0.504 OA
ATOM     20  H   UNL     1      -1.263  11.377  10.928  1.00  0.00     0.293 HD
ENDBRANCH  16  19
BRANCH  18  21
ATOM     21  O   UNL     1      -3.287   8.802   9.878  1.00  0.00    -0.504 OA
ATOM     22  H   UNL     1      -3.399   7.921   9.392  1.00  0.00     0.293 HD
ENDBRANCH  18  21
ENDBRANCH   3  13
BRANCH  10  23
ATOM     23  O   UNL     1      -5.530   3.016  17.464  1.00  0.00    -0.507 OA
ATOM     24  H   UNL     1      -5.637   2.881  18.458  1.00  0.00     0.293 HD
ENDBRANCH  10  23
BRANCH  11  25
ATOM     25  O   UNL     1      -0.848   2.081  16.943  1.00  0.00    -0.508 OA
ATOM     26  H   UNL     1      -0.940   1.243  17.505  1.00  0.00     0.293 HD
ENDBRANCH  11  25
ENDBRANCH   1   2
BRANCH   1  27
ATOM     27  C   UNL     1      -6.835   7.115  13.114  1.00  0.00     0.339 C 
ATOM     28  C   UNL     1      -8.312   7.089  13.541  1.00  0.00     0.214 C 
ATOM     29  O   UNL     1      -6.574   8.084  12.105  1.00  0.00    -0.332 OA
ATOM     30  C   UNL     1      -8.755   8.486  13.998  1.00  0.00     0.180 C 
ATOM     31  C   UNL     1      -6.971   9.410  12.442  1.00  0.00     0.179 C 
ATOM     32  C   UNL     1      -8.450   9.504  12.889  1.00  0.00     0.177 C 
BRANCH  28  33
ATOM     33  O   UNL     1      -8.477   6.165  14.586  1.00  0.00    -0.384 OA
ATOM     34  H   UNL     1      -7.872   6.448  15.320  1.00  0.00     0.211 HD
ENDBRANCH  28  33
BRANCH  30  35
ATOM     35  O   UNL     1     -10.124   8.497  14.324  1.00  0.00    -0.387 OA
ATOM     36  H   UNL     1     -10.248   7.942  15.139  1.00  0.00     0.211 HD
ENDBRANCH  30  35
BRANCH  31  37
ATOM     37  C   UNL     1      -5.978  10.105  13.400  1.00  0.00     0.191 C 
BRANCH  37  38
ATOM     38  O   UNL     1      -6.410  10.000  14.729  1.00  0.00    -0.394 OA
ATOM     39  H   UNL     1      -6.445   9.029  14.940  1.00  0.00     0.210 HD
ENDBRANCH  37  38
ENDBRANCH  31  37
BRANCH  32  40
ATOM     40  O   UNL     1      -8.743  10.807  13.327  1.00  0.00    -0.387 OA
ATOM     41  H   UNL     1      -9.629  11.047  12.947  1.00  0.00     0.211 HD
ENDBRANCH  32  40
ENDBRANCH   1  27
TORSDOF 12
ENDMDL
MODEL 4
REMARK VINA RESULT:    -6.407      1.980      5.929
REMARK INTER + INTRA:         -10.674
REMARK INTER:                  -9.904
REMARK INTRA:                  -0.769
REMARK UNBOUND:                -1.270
REMARK SMILES O=c1c(O[C@@H]2O[C@H](CO)[C@H](O)[C@@H](O)[C@@H]2O)c(-c2ccc(O)c(O)c2)oc2cc(O)cc(O)c12
REMARK SMILES IDX 4 1 3 2 16 3 25 4 2 5 26 6 1 7 33 8 27 9 31 10 28 11 30 12
REMARK SMILES IDX 17 13 18 14 19 15 20 16 24 17 22 18 21 19 23 21 32 23 29 25
REMARK SMILES IDX 5 27 14 28 6 29 12 30 7 31 10 32 15 33 13 35 8 37 9 38 11 40
REMARK H PARENT 21 20 23 22 32 24 29 26 15 34 13 36 9 39 11 41
REMARK Flexibility Score: inf
ROOT
ATOM      1  O   UNL     1      -6.746   7.949  13.427  1.00  0.00    -0.454 OA
ENDROOT
BRANCH   1   2
ATOM      2  C   UNL     1      -5.401   8.300  13.204  1.00  0.00     0.214 A 
ATOM      3  C   UNL     1      -4.401   7.643  13.945  1.00  0.00     0.180 A 
ATOM      4  O   UNL     1      -3.122   7.926  13.734  1.00  0.00    -0.452 OA
ATOM      5  C   UNL     1      -5.009   9.274  12.262  1.00  0.00     0.239 A 
ATOM      6  C   UNL     1      -2.707   8.814  12.842  1.00  0.00     0.146 A 
ATOM      7  O   UNL     1      -5.889   9.956  11.678  1.00  0.00    -0.285 OA
ATOM      8  C   UNL     1      -3.633   9.513  12.025  1.00  0.00     0.111 A 
ATOM      9  C   UNL     1      -1.336   9.057  12.729  1.00  0.00     0.094 A 
ATOM     10  C   UNL     1      -3.127  10.425  11.052  1.00  0.00     0.134 A 
ATOM     11  C   UNL     1      -0.856   9.996  11.819  1.00  0.00     0.123 A 
ATOM     12  C   UNL     1      -1.751  10.677  10.990  1.00  0.00     0.093 A 
BRANCH   3  13
ATOM     13  C   UNL     1      -4.728   6.603  14.943  1.00  0.00     0.025 A 
ATOM     14  C   UNL     1      -4.487   5.254  14.641  1.00  0.00     0.016 A 
ATOM     15  C   UNL     1      -4.789   4.257  15.572  1.00  0.00     0.051 A 
ATOM     16  C   UNL     1      -5.320   4.596  16.824  1.00  0.00     0.157 A 
ATOM     17  C   UNL     1      -5.238   6.941  16.207  1.00  0.00     0.062 A 
ATOM     18  C   UNL     1      -5.540   5.947  17.144  1.00  0.00     0.158 A 
BRANCH  16  19
ATOM     19  O   UNL     1      -5.625   3.599  17.749  1.00  0.00    -0.504 OA
ATOM     20  H   UNL     1      -6.491   3.075  17.698  1.00  0.00     0.293 HD
ENDBRANCH  16  19
BRANCH  18  21
ATOM     21  O   UNL     1      -6.052   6.319  18.387  1.00  0.00    -0.504 OA
ATOM     22  H   UNL     1      -5.566   6.118  19.252  1.00  0.00     0.293 HD
ENDBRANCH  18  21
ENDBRANCH   3  13
BRANCH  10  23
ATOM     23  O   UNL     1      -3.925  11.081  10.109  1.00  0.00    -0.507 OA
ATOM     24  H   UNL     1      -3.782  12.030   9.799  1.00  0.00     0.293 HD
ENDBRANCH  10  23
BRANCH  11  25
ATOM     25  O   UNL     1       0.513  10.239  11.738  1.00  0.00    -0.508 OA
ATOM     26  H   UNL     1       0.991  10.287  10.846  1.00  0.00     0.293 HD
ENDBRANCH  11  25
ENDBRANCH   1   2
BRANCH   1  27
ATOM     27  C   UNL     1      -7.710   7.650  12.415  1.00  0.00     0.339 C 
ATOM     28  C   UNL     1      -7.665   6.155  12.056  1.00  0.00     0.214 C 
ATOM     29  O   UNL     1      -9.016   8.086  12.779  1.00  0.00    -0.332 OA
ATOM     30  C   UNL     1      -8.217   5.315  13.216  1.00  0.00     0.180 C 
ATOM     31  C   UNL     1      -9.611   7.346  13.842  1.00  0.00     0.179 C 
ATOM     32  C   UNL     1      -9.620   5.820  13.586  1.00  0.00     0.177 C 
BRANCH  28  33
ATOM     33  O   UNL     1      -6.338   5.784  11.781  1.00  0.00    -0.384 OA
ATOM     34  H   UNL     1      -6.157   6.040  10.839  1.00  0.00     0.211 HD
ENDBRANCH  28  33
BRANCH  30  35
ATOM     35  O   UNL     1      -8.250   3.950  12.876  1.00  0.00    -0.387 OA
ATOM     36  H   UNL     1      -7.889   3.436  13.645  1.00  0.00     0.211 HD
ENDBRANCH  30  35
BRANCH  31  37
ATOM     37  C   UNL     1      -9.064   7.750  15.229  1.00  0.00     0.191 C 
BRANCH  37  38
ATOM     38  O   UNL     1      -9.750   7.080  16.250  1.00  0.00    -0.394 OA
ATOM     39  H   UNL     1      -9.102   6.448  16.661  1.00  0.00     0.210 HD
ENDBRANCH  37  38
ENDBRANCH  31  37
BRANCH  32  40
ATOM     40  O   UNL     1     -10.102   5.141  14.718  1.00  0.00    -0.387 OA
ATOM     41  H   UNL     1     -10.710   5.766  15.193  1.00  0.00     0.211 HD
ENDBRANCH  32  40
ENDBRANCH   1  27
TORSDOF 12
ENDMDL
MODEL 5
REMARK VINA RESULT:    -6.282      1.879      6.381
REMARK INTER + INTRA:         -10.491
REMARK INTER:                  -9.331
REMARK INTRA:                  -1.160
REMARK UNBOUND:                -1.270
REMARK SMILES O=c1c(O[C@@H]2O[C@H](CO)[C@H](O)[C@@H](O)[C@@H]2O)c(-c2ccc(O)c(O)c2)oc2cc(O)cc(O)c12
REMARK SMILES IDX 4 1 3 2 16 3 25 4 2 5 26 6 1 7 33 8 27 9 31 10 28 11 30 12
REMARK SMILES IDX 17 13 18 14 19 15 20 16 24 17 22 18 21 19 23 21 32 23 29 25
REMARK SMILES IDX 5 27 14 28 6 29 12 30 7 31 10 32 15 33 13 35 8 37 9 38 11 40
REMARK H PARENT 21 20 23 22 32 24 29 26 15 34 13 36 9 39 11 41
REMARK Flexibility Score: inf
ROOT
ATOM      1  O   UNL     1      -4.900   6.719  14.235  1.00  0.00    -0.454 OA
ENDROOT
BRANCH   1   2
ATOM      2  C   UNL     1      -4.117   7.506  13.368  1.00  0.00     0.214 A 
ATOM      3  C   UNL     1      -4.652   7.867  12.118  1.00  0.00     0.180 A 
ATOM      4  O   UNL     1      -3.955   8.636  11.292  1.00  0.00    -0.452 OA
ATOM      5  C   UNL     1      -2.823   7.958  13.702  1.00  0.00     0.239 A 
ATOM      6  C   UNL     1      -2.747   9.104  11.574  1.00  0.00     0.146 A 
ATOM      7  O   UNL     1      -2.281   7.549  14.759  1.00  0.00    -0.285 OA
ATOM      8  C   UNL     1      -2.129   8.820  12.818  1.00  0.00     0.111 A 
ATOM      9  C   UNL     1      -2.090   9.878  10.614  1.00  0.00     0.094 A 
ATOM     10  C   UNL     1      -0.846   9.388  13.085  1.00  0.00     0.134 A 
ATOM     11  C   UNL     1      -0.812  10.375  10.859  1.00  0.00     0.123 A 
ATOM     12  C   UNL     1      -0.196  10.125  12.088  1.00  0.00     0.093 A 
BRANCH   3  13
ATOM     13  C   UNL     1      -6.005   7.442  11.697  1.00  0.00     0.025 A 
ATOM     14  C   UNL     1      -6.144   6.413  10.755  1.00  0.00     0.016 A 
ATOM     15  C   UNL     1      -7.413   5.997  10.345  1.00  0.00     0.051 A 
ATOM     16  C   UNL     1      -8.561   6.595  10.884  1.00  0.00     0.157 A 
ATOM     17  C   UNL     1      -7.157   8.022  12.253  1.00  0.00     0.062 A 
ATOM     18  C   UNL     1      -8.430   7.609  11.848  1.00  0.00     0.158 A 
BRANCH  16  19
ATOM     19  O   UNL     1      -9.827   6.182  10.470  1.00  0.00    -0.504 OA
ATOM     20  H   UNL     1      -9.992   5.842   9.530  1.00  0.00     0.293 HD
ENDBRANCH  16  19
BRANCH  18  21
ATOM     21  O   UNL     1      -9.552   8.212  12.417  1.00  0.00    -0.504 OA
ATOM     22  H   UNL     1      -9.503   9.110  12.882  1.00  0.00     0.293 HD
ENDBRANCH  18  21
ENDBRANCH   3  13
BRANCH  10  23
ATOM     23  O   UNL     1      -0.189   9.284  14.315  1.00  0.00    -0.507 OA
ATOM     24  H   UNL     1      -0.402   9.842  15.127  1.00  0.00     0.293 HD
ENDBRANCH  10  23
BRANCH  11  25
ATOM     25  O   UNL     1      -0.165  11.125   9.879  1.00  0.00    -0.508 OA
ATOM     26  H   UNL     1       0.830  11.307   9.923  1.00  0.00     0.293 HD
ENDBRANCH  11  25
ENDBRANCH   1   2
BRANCH   1  27
ATOM     27  C   UNL     1      -5.247   5.347  14.034  1.00  0.00     0.339 C 
ATOM     28  C   UNL     1      -4.231   4.429  14.732  1.00  0.00     0.214 C 
ATOM     29  O   UNL     1      -6.590   5.076  14.425  1.00  0.00    -0.332 OA
ATOM     30  C   UNL     1      -4.386   4.529  16.256  1.00  0.00     0.180 C 
ATOM     31  C   UNL     1      -6.818   5.133  15.831  1.00  0.00     0.179 C 
ATOM     32  C   UNL     1      -5.846   4.240  16.639  1.00  0.00     0.177 C 
BRANCH  28  33
ATOM     33  O   UNL     1      -2.931   4.803  14.354  1.00  0.00    -0.384 OA
ATOM     34  H   UNL     1      -2.313   4.134  14.747  1.00  0.00     0.211 HD
ENDBRANCH  28  33
BRANCH  30  35
ATOM     35  O   UNL     1      -3.513   3.640  16.909  1.00  0.00    -0.387 OA
ATOM     36  H   UNL     1      -2.962   4.167  17.547  1.00  0.00     0.211 HD
ENDBRANCH  30  35
BRANCH  31  37
ATOM     37  C   UNL     1      -6.931   6.580  16.359  1.00  0.00     0.191 C 
BRANCH  37  38
ATOM     38  O   UNL     1      -7.865   6.660  17.401  1.00  0.00    -0.394 OA
ATOM     39  H   UNL     1      -7.924   7.618  17.657  1.00  0.00     0.210 HD
ENDBRANCH  37  38
ENDBRANCH  31  37
BRANCH  32  40
ATOM     40  O   UNL     1      -6.038   4.435  18.017  1.00  0.00    -0.387 OA
ATOM     41  H   UNL     1      -6.759   5.111  18.115  1.00  0.00     0.211 HD
ENDBRANCH  32  40
ENDBRANCH   1  27
TORSDOF 12
ENDMDL
MODEL 6
REMARK VINA RESULT:    -5.866      1.956      5.664
REMARK INTER + INTRA:          -9.880
REMARK INTER:                  -8.569
REMARK INTRA:                  -1.311
REMARK UNBOUND:                -1.270
REMARK SMILES O=c1c(O[C@@H]2O[C@H](CO)[C@H](O)[C@@H](O)[C@@H]2O)c(-c2ccc(O)c(O)c2)oc2cc(O)cc(O)c12
REMARK SMILES IDX 4 1 3 2 16 3 25 4 2 5 26 6 1 7 33 8 27 9 31 10 28 11 30 12
REMARK SMILES IDX 17 13 18 14 19 15 20 16 24 17 22 18 21 19 23 21 32 23 29 25
REMARK SMILES IDX 5 27 14 28 6 29 12 30 7 31 10 32 15 33 13 35 8 37 9 38 11 40
REMARK H PARENT 21 20 23 22 32 24 29 26 15 34 13 36 9 39 11 41
REMARK Flexibility Score: inf
ROOT
ATOM      1  O   UNL     1      -5.874   7.395  12.503  1.00  0.00    -0.454 OA
ENDROOT
BRANCH   1   2
ATOM      2  C   UNL     1      -4.662   8.010  12.872  1.00  0.00     0.214 A 
ATOM      3  C   UNL     1      -3.988   7.539  14.013  1.00  0.00     0.180 A 
ATOM      4  O   UNL     1      -2.826   8.074  14.368  1.00  0.00    -0.452 OA
ATOM      5  C   UNL     1      -4.087   9.070  12.140  1.00  0.00     0.239 A 
ATOM      6  C   UNL     1      -2.236   9.053  13.697  1.00  0.00     0.146 A 
ATOM      7  O   UNL     1      -4.729   9.583  11.190  1.00  0.00    -0.285 OA
ATOM      8  C   UNL     1      -2.820   9.581  12.517  1.00  0.00     0.111 A 
ATOM      9  C   UNL     1      -1.029   9.564  14.182  1.00  0.00     0.094 A 
ATOM     10  C   UNL     1      -2.120  10.605  11.811  1.00  0.00     0.134 A 
ATOM     11  C   UNL     1      -0.385  10.605  13.520  1.00  0.00     0.123 A 
ATOM     12  C   UNL     1      -0.933  11.123  12.344  1.00  0.00     0.093 A 
BRANCH   3  13
ATOM     13  C   UNL     1      -4.518   6.425  14.828  1.00  0.00     0.025 A 
ATOM     14  C   UNL     1      -4.481   5.118  14.320  1.00  0.00     0.016 A 
ATOM     15  C   UNL     1      -4.977   4.053  15.074  1.00  0.00     0.051 A 
ATOM     16  C   UNL     1      -5.502   4.277  16.355  1.00  0.00     0.157 A 
ATOM     17  C   UNL     1      -5.024   6.644  16.120  1.00  0.00     0.062 A 
ATOM     18  C   UNL     1      -5.520   5.580  16.881  1.00  0.00     0.158 A 
BRANCH  16  19
ATOM     19  O   UNL     1      -6.001   3.213  17.104  1.00  0.00    -0.504 OA
ATOM     20  H   UNL     1      -6.001   2.265  16.745  1.00  0.00     0.293 HD
ENDBRANCH  16  19
BRANCH  18  21
ATOM     21  O   UNL     1      -6.020   5.835  18.157  1.00  0.00    -0.504 OA
ATOM     22  H   UNL     1      -6.404   6.736  18.416  1.00  0.00     0.293 HD
ENDBRANCH  18  21
ENDBRANCH   3  13
BRANCH  10  23
ATOM     23  O   UNL     1      -2.528  11.120  10.576  1.00  0.00    -0.507 OA
ATOM     24  H   UNL     1      -3.291  10.754  10.028  1.00  0.00     0.293 HD
ENDBRANCH  10  23
BRANCH  11  25
ATOM     25  O   UNL     1       0.806  11.115  14.033  1.00  0.00    -0.508 OA
ATOM     26  H   UNL     1       1.443  11.653  13.459  1.00  0.00     0.293 HD
ENDBRANCH  11  25
ENDBRANCH   1   2
BRANCH   1  27
ATOM     27  C   UNL     1      -7.121   7.531  13.187  1.00  0.00     0.339 C 
ATOM     28  C   UNL     1      -8.015   8.558  12.473  1.00  0.00     0.214 C 
ATOM     29  O   UNL     1      -7.768   6.275  13.368  1.00  0.00    -0.332 OA
ATOM     30  C   UNL     1      -8.500   7.996  11.130  1.00  0.00     0.180 C 
ATOM     31  C   UNL     1      -8.265   5.688  12.168  1.00  0.00     0.179 C 
ATOM     32  C   UNL     1      -9.183   6.639  11.363  1.00  0.00     0.177 C 
BRANCH  28  33
ATOM     33  O   UNL     1      -7.287   9.742  12.266  1.00  0.00    -0.384 OA
ATOM     34  H   UNL     1      -6.596   9.783  12.977  1.00  0.00     0.211 HD
ENDBRANCH  28  33
BRANCH  30  35
ATOM     35  O   UNL     1      -9.378   8.895  10.496  1.00  0.00    -0.387 OA
ATOM     36  H   UNL     1      -8.851   9.427   9.844  1.00  0.00     0.211 HD
ENDBRANCH  30  35
BRANCH  31  37
ATOM     37  C   UNL     1      -7.154   5.022  11.326  1.00  0.00     0.191 C 
BRANCH  37  38
ATOM     38  O   UNL     1      -7.681   4.003  10.521  1.00  0.00    -0.394 OA
ATOM     39  H   UNL     1      -7.644   3.168  11.058  1.00  0.00     0.210 HD
ENDBRANCH  37  38
ENDBRANCH  31  37
BRANCH  32  40
ATOM     40  O   UNL     1      -9.535   6.051  10.137  1.00  0.00    -0.387 OA
ATOM     41  H   UNL     1      -9.159   6.627   9.421  1.00  0.00     0.211 HD
ENDBRANCH  32  40
ENDBRANCH   1  27
TORSDOF 12
ENDMDL
MODEL 7
REMARK VINA RESULT:    -5.621     11.982     15.654
REMARK INTER + INTRA:          -9.520
REMARK INTER:                  -8.853
REMARK INTRA:                  -0.667
REMARK UNBOUND:                -1.270
REMARK SMILES O=c1c(O[C@@H]2O[C@H](CO)[C@H](O)[C@@H](O)[C@@H]2O)c(-c2ccc(O)c(O)c2)oc2cc(O)cc(O)c12
REMARK SMILES IDX 4 1 3 2 16 3 25 4 2 5 26 6 1 7 33 8 27 9 31 10 28 11 30 12
REMARK SMILES IDX 17 13 18 14 19 15 20 16 24 17 22 18 21 19 23 21 32 23 29 25
REMARK SMILES IDX 5 27 14 28 6 29 12 30 7 31 10 32 15 33 13 35 8 37 9 38 11 40
REMARK H PARENT 21 20 23 22 32 24 29 26 15 34 13 36 9 39 11 41
REMARK Flexibility Score: inf
ROOT
ATOM      1  O   UNL     1      -7.561  -5.178  22.046  1.00  0.00    -0.454 OA
ENDROOT
BRANCH   1   2
ATOM      2  C   UNL     1      -7.319  -5.921  23.218  1.00  0.00     0.214 A 
ATOM      3  C   UNL     1      -6.042  -6.475  23.413  1.00  0.00     0.180 A 
ATOM      4  O   UNL     1      -5.771  -7.151  24.523  1.00  0.00    -0.452 OA
ATOM      5  C   UNL     1      -8.301  -6.124  24.211  1.00  0.00     0.239 A 
ATOM      6  C   UNL     1      -6.653  -7.345  25.494  1.00  0.00     0.146 A 
ATOM      7  O   UNL     1      -9.479  -5.741  24.002  1.00  0.00    -0.285 OA
ATOM      8  C   UNL     1      -7.962  -6.805  25.406  1.00  0.00     0.111 A 
ATOM      9  C   UNL     1      -6.270  -8.102  26.603  1.00  0.00     0.094 A 
ATOM     10  C   UNL     1      -8.855  -7.008  26.501  1.00  0.00     0.134 A 
ATOM     11  C   UNL     1      -7.169  -8.348  27.637  1.00  0.00     0.123 A 
ATOM     12  C   UNL     1      -8.455  -7.806  27.580  1.00  0.00     0.093 A 
BRANCH   3  13
ATOM     13  C   UNL     1      -4.956  -6.299  22.425  1.00  0.00     0.025 A 
ATOM     14  C   UNL     1      -4.527  -5.005  22.092  1.00  0.00     0.016 A 
ATOM     15  C   UNL     1      -3.503  -4.818  21.161  1.00  0.00     0.051 A 
ATOM     16  C   UNL     1      -2.882  -5.923  20.562  1.00  0.00     0.157 A 
ATOM     17  C   UNL     1      -4.315  -7.404  21.841  1.00  0.00     0.062 A 
ATOM     18  C   UNL     1      -3.288  -7.223  20.910  1.00  0.00     0.158 A 
BRANCH  16  19
ATOM     19  O   UNL     1      -1.863  -5.734  19.630  1.00  0.00    -0.504 OA
ATOM     20  H   UNL     1      -1.140  -6.430  19.486  1.00  0.00     0.293 HD
ENDBRANCH  16  19
BRANCH  18  21
ATOM     21  O   UNL     1      -2.679  -8.343  20.345  1.00  0.00    -0.504 OA
ATOM     22  H   UNL     1      -3.103  -8.861  19.585  1.00  0.00     0.293 HD
ENDBRANCH  18  21
ENDBRANCH   3  13
BRANCH  10  23
ATOM     23  O   UNL     1     -10.125  -6.428  26.589  1.00  0.00    -0.507 OA
ATOM     24  H   UNL     1     -10.414  -5.603  26.085  1.00  0.00     0.293 HD
ENDBRANCH  10  23
BRANCH  11  25
ATOM     25  O   UNL     1      -6.773  -9.125  28.724  1.00  0.00    -0.508 OA
ATOM     26  H   UNL     1      -7.163 -10.046  28.887  1.00  0.00     0.293 HD
ENDBRANCH  11  25
ENDBRANCH   1   2
BRANCH   1  27
ATOM     27  C   UNL     1      -8.845  -4.891  21.488  1.00  0.00     0.339 C 
ATOM     28  C   UNL     1      -8.996  -3.382  21.237  1.00  0.00     0.214 C 
ATOM     29  O   UNL     1      -9.104  -5.668  20.323  1.00  0.00    -0.332 OA
ATOM     30  C   UNL     1      -8.091  -2.944  20.077  1.00  0.00     0.180 C 
ATOM     31  C   UNL     1      -8.314  -5.316  19.190  1.00  0.00     0.179 C 
ATOM     32  C   UNL     1      -8.392  -3.809  18.844  1.00  0.00     0.177 C 
BRANCH  28  33
ATOM     33  O   UNL     1      -8.655  -2.681  22.406  1.00  0.00    -0.384 OA
ATOM     34  H   UNL     1      -8.844  -3.286  23.170  1.00  0.00     0.211 HD
ENDBRANCH  28  33
BRANCH  30  35
ATOM     35  O   UNL     1      -8.270  -1.580  19.787  1.00  0.00    -0.387 OA
ATOM     36  H   UNL     1      -7.373  -1.177  19.647  1.00  0.00     0.211 HD
ENDBRANCH  30  35
BRANCH  31  37
ATOM     37  C   UNL     1      -6.875  -5.871  19.270  1.00  0.00     0.191 C 
BRANCH  37  38
ATOM     38  O   UNL     1      -6.583  -6.663  18.151  1.00  0.00    -0.394 OA
ATOM     39  H   UNL     1      -5.695  -7.075  18.319  1.00  0.00     0.210 HD
ENDBRANCH  37  38
ENDBRANCH  31  37
BRANCH  32  40
ATOM     40  O   UNL     1      -7.499  -3.504  17.802  1.00  0.00    -0.387 OA
ATOM     41  H   UNL     1      -7.802  -2.646  17.404  1.00  0.00     0.211 HD
ENDBRANCH  32  40
ENDBRANCH   1  27
TORSDOF 12
ENDMDL
MODEL 8
REMARK VINA RESULT:    -5.540      1.738      6.058
REMARK INTER + INTRA:          -9.401
REMARK INTER:                  -8.028
REMARK INTRA:                  -1.373
REMARK UNBOUND:                -1.270
REMARK SMILES O=c1c(O[C@@H]2O[C@H](CO)[C@H](O)[C@@H](O)[C@@H]2O)c(-c2ccc(O)c(O)c2)oc2cc(O)cc(O)c12
REMARK SMILES IDX 4 1 3 2 16 3 25 4 2 5 26 6 1 7 33 8 27 9 31 10 28 11 30 12
REMARK SMILES IDX 17 13 18 14 19 15 20 16 24 17 22 18 21 19 23 21 32 23 29 25
REMARK SMILES IDX 5 27 14 28 6 29 12 30 7 31 10 32 15 33 13 35 8 37 9 38 11 40
REMARK H PARENT 21 20 23 22 32 24 29 26 15 34 13 36 9 39 11 41
REMARK Flexibility Score: inf
ROOT
ATOM      1  O   UNL     1      -5.648   7.297  12.894  1.00  0.00    -0.454 OA
ENDROOT
BRANCH   1   2
ATOM      2  C   UNL     1      -4.425   7.936  13.175  1.00  0.00     0.214 A 
ATOM      3  C   UNL     1      -3.696   7.528  14.306  1.00  0.00     0.180 A 
ATOM      4  O   UNL     1      -2.523   8.086  14.580  1.00  0.00    -0.452 OA
ATOM      5  C   UNL     1      -3.892   8.961  12.364  1.00  0.00     0.239 A 
ATOM      6  C   UNL     1      -1.972   9.033  13.833  1.00  0.00     0.146 A 
ATOM      7  O   UNL     1      -4.582   9.421  11.420  1.00  0.00    -0.285 OA
ATOM      8  C   UNL     1      -2.614   9.497  12.656  1.00  0.00     0.111 A 
ATOM      9  C   UNL     1      -0.748   9.574  14.235  1.00  0.00     0.094 A 
ATOM     10  C   UNL     1      -1.954  10.486  11.867  1.00  0.00     0.134 A 
ATOM     11  C   UNL     1      -0.143  10.583  13.492  1.00  0.00     0.123 A 
ATOM     12  C   UNL     1      -0.748  11.038  12.318  1.00  0.00     0.093 A 
BRANCH   3  13
ATOM     13  C   UNL     1      -4.180   6.455  15.200  1.00  0.00     0.025 A 
ATOM     14  C   UNL     1      -5.384   6.628  15.899  1.00  0.00     0.016 A 
ATOM     15  C   UNL     1      -5.858   5.625  16.749  1.00  0.00     0.051 A 
ATOM     16  C   UNL     1      -5.143   4.429  16.898  1.00  0.00     0.157 A 
ATOM     17  C   UNL     1      -3.478   5.246  15.334  1.00  0.00     0.062 A 
ATOM     18  C   UNL     1      -3.949   4.237  16.181  1.00  0.00     0.158 A 
BRANCH  16  19
ATOM     19  O   UNL     1      -5.615   3.431  17.749  1.00  0.00    -0.504 OA
ATOM     20  H   UNL     1      -5.276   2.478  17.689  1.00  0.00     0.293 HD
ENDBRANCH  16  19
BRANCH  18  21
ATOM     21  O   UNL     1      -3.223   3.052  16.294  1.00  0.00    -0.504 OA
ATOM     22  H   UNL     1      -2.298   3.024  16.706  1.00  0.00     0.293 HD
ENDBRANCH  18  21
ENDBRANCH   3  13
BRANCH  10  23
ATOM     23  O   UNL     1      -2.422  10.935  10.628  1.00  0.00    -0.507 OA
ATOM     24  H   UNL     1      -3.253  11.492  10.497  1.00  0.00     0.293 HD
ENDBRANCH  10  23
BRANCH  11  25
ATOM     25  O   UNL     1       1.066  11.125  13.923  1.00  0.00    -0.508 OA
ATOM     26  H   UNL     1       1.840  10.535  14.206  1.00  0.00     0.293 HD
ENDBRANCH  11  25
ENDBRANCH   1   2
BRANCH   1  27
ATOM     27  C   UNL     1      -5.936   6.520  11.730  1.00  0.00     0.339 C 
ATOM     28  C   UNL     1      -6.467   5.133  12.129  1.00  0.00     0.214 C 
ATOM     29  O   UNL     1      -6.810   7.203  10.837  1.00  0.00    -0.332 OA
ATOM     30  C   UNL     1      -7.874   5.256  12.730  1.00  0.00     0.180 C 
ATOM     31  C   UNL     1      -8.146   7.349  11.312  1.00  0.00     0.179 C 
ATOM     32  C   UNL     1      -8.783   6.006  11.744  1.00  0.00     0.177 C 
BRANCH  28  33
ATOM     33  O   UNL     1      -5.592   4.553  13.063  1.00  0.00    -0.384 OA
ATOM     34  H   UNL     1      -4.697   4.950  12.905  1.00  0.00     0.211 HD
ENDBRANCH  28  33
BRANCH  30  35
ATOM     35  O   UNL     1      -8.403   3.989  13.034  1.00  0.00    -0.387 OA
ATOM     36  H   UNL     1      -8.523   3.937  14.019  1.00  0.00     0.211 HD
ENDBRANCH  30  35
BRANCH  31  37
ATOM     37  C   UNL     1      -8.288   8.479  12.355  1.00  0.00     0.191 C 
BRANCH  37  38
ATOM     38  O   UNL     1      -7.458   9.562  12.033  1.00  0.00    -0.394 OA
ATOM     39  H   UNL     1      -8.041  10.366  12.002  1.00  0.00     0.210 HD
ENDBRANCH  37  38
ENDBRANCH  31  37
BRANCH  32  40
ATOM     40  O   UNL     1     -10.046   6.231  12.318  1.00  0.00    -0.387 OA
ATOM     41  H   UNL     1     -10.339   5.371  12.719  1.00  0.00     0.211 HD
ENDBRANCH  32  40
ENDBRANCH   1  27
TORSDOF 12
ENDMDL
MODEL 9
REMARK VINA RESULT:    -5.351      1.130      2.311
REMARK INTER + INTRA:          -9.124
REMARK INTER:                  -9.807
REMARK INTRA:                   0.684
REMARK UNBOUND:                -1.270
REMARK SMILES O=c1c(O[C@@H]2O[C@H](CO)[C@H](O)[C@@H](O)[C@@H]2O)c(-c2ccc(O)c(O)c2)oc2cc(O)cc(O)c12
REMARK SMILES IDX 4 1 3 2 16 3 25 4 2 5 26 6 1 7 33 8 27 9 31 10 28 11 30 12
REMARK SMILES IDX 17 13 18 14 19 15 20 16 24 17 22 18 21 19 23 21 32 23 29 25
REMARK SMILES IDX 5 27 14 28 6 29 12 30 7 31 10 32 15 33 13 35 8 37 9 38 11 40
REMARK H PARENT 21 20 23 22 32 24 29 26 15 34 13 36 9 39 11 41
REMARK Flexibility Score: inf
ROOT
ATOM      1  O   UNL     1      -5.876   7.339  14.281  1.00  0.00    -0.454 OA
ENDROOT
BRANCH   1   2
ATOM      2  C   UNL     1      -4.875   6.443  14.706  1.00  0.00     0.214 A 
ATOM      3  C   UNL     1      -3.548   6.675  14.301  1.00  0.00     0.180 A 
ATOM      4  O   UNL     1      -2.576   5.870  14.712  1.00  0.00    -0.452 OA
ATOM      5  C   UNL     1      -5.143   5.330  15.530  1.00  0.00     0.239 A 
ATOM      6  C   UNL     1      -2.777   4.828  15.507  1.00  0.00     0.146 A 
ATOM      7  O   UNL     1      -6.333   5.037  15.804  1.00  0.00    -0.285 OA
ATOM      8  C   UNL     1      -4.074   4.523  15.992  1.00  0.00     0.111 A 
ATOM      9  C   UNL     1      -1.684   4.028  15.848  1.00  0.00     0.094 A 
ATOM     10  C   UNL     1      -4.224   3.415  16.880  1.00  0.00     0.134 A 
ATOM     11  C   UNL     1      -1.851   2.913  16.665  1.00  0.00     0.123 A 
ATOM     12  C   UNL     1      -3.117   2.609  17.172  1.00  0.00     0.093 A 
BRANCH   3  13
ATOM     13  C   UNL     1      -3.183   7.825  13.446  1.00  0.00     0.025 A 
ATOM     14  C   UNL     1      -2.624   8.971  14.031  1.00  0.00     0.016 A 
ATOM     15  C   UNL     1      -2.273  10.068  13.241  1.00  0.00     0.051 A 
ATOM     16  C   UNL     1      -2.461  10.028  11.852  1.00  0.00     0.157 A 
ATOM     17  C   UNL     1      -3.348   7.779  12.053  1.00  0.00     0.062 A 
ATOM     18  C   UNL     1      -2.997   8.873  11.256  1.00  0.00     0.158 A 
BRANCH  16  19
ATOM     19  O   UNL     1      -2.114  11.125  11.066  1.00  0.00    -0.504 OA
ATOM     20  H   UNL     1      -1.866  12.016  11.479  1.00  0.00     0.293 HD
ENDBRANCH  16  19
BRANCH  18  21
ATOM     21  O   UNL     1      -3.181   8.795   9.876  1.00  0.00    -0.504 OA
ATOM     22  H   UNL     1      -3.127   7.917   9.374  1.00  0.00     0.293 HD
ENDBRANCH  18  21
ENDBRANCH   3  13
BRANCH  10  23
ATOM     23  O   UNL     1      -5.423   3.086  17.521  1.00  0.00    -0.507 OA
ATOM     24  H   UNL     1      -6.217   2.661  17.066  1.00  0.00     0.293 HD
ENDBRANCH  10  23
BRANCH  11  25
ATOM     25  O   UNL     1      -0.751   2.115  16.975  1.00  0.00    -0.508 OA
ATOM     26  H   UNL     1      -0.739   1.125  16.764  1.00  0.00     0.293 HD
ENDBRANCH  11  25
ENDBRANCH   1   2
BRANCH   1  27
ATOM     27  C   UNL     1      -6.474   7.368  12.984  1.00  0.00     0.339 C 
ATOM     28  C   UNL     1      -6.739   5.939  12.483  1.00  0.00     0.214 C 
ATOM     29  O   UNL     1      -7.642   8.183  12.955  1.00  0.00    -0.332 OA
ATOM     30  C   UNL     1      -7.872   5.295  13.291  1.00  0.00     0.180 C 
ATOM     31  C   UNL     1      -8.752   7.649  13.672  1.00  0.00     0.179 C 
ATOM     32  C   UNL     1      -9.110   6.205  13.245  1.00  0.00     0.177 C 
BRANCH  28  33
ATOM     33  O   UNL     1      -5.564   5.179  12.608  1.00  0.00    -0.384 OA
ATOM     34  H   UNL     1      -4.816   5.748  12.289  1.00  0.00     0.211 HD
ENDBRANCH  28  33
BRANCH  30  35
ATOM     35  O   UNL     1      -8.176   4.013  12.798  1.00  0.00    -0.387 OA
ATOM     36  H   UNL     1      -8.307   3.410  13.576  1.00  0.00     0.211 HD
ENDBRANCH  30  35
BRANCH  31  37
ATOM     37  C   UNL     1      -8.625   7.842  15.199  1.00  0.00     0.191 C 
BRANCH  37  38
ATOM     38  O   UNL     1      -8.476   6.609  15.847  1.00  0.00    -0.394 OA
ATOM     39  H   UNL     1      -8.794   6.738  16.780  1.00  0.00     0.210 HD
ENDBRANCH  37  38
ENDBRANCH  31  37
BRANCH  32  40
ATOM     40  O   UNL     1     -10.125   5.692  14.071  1.00  0.00    -0.387 OA
ATOM     41  H   UNL     1     -10.664   5.070  13.514  1.00  0.00     0.211 HD
ENDBRANCH  32  40
ENDBRANCH   1  27
TORSDOF 12
ENDMDL
