MODEL 1
REMARK VINA RESULT:    -6.905      0.000      0.000
REMARK INTER + INTRA:          -8.390
REMARK INTER:                  -8.116
REMARK INTRA:                  -0.274
REMARK UNBOUND:                -0.274
REMARK SMILES O=c1c(O)c(-c2ccc(O)cc2)oc2cc(O)cc(O)c12
REMARK SMILES IDX 5 1 3 2 2 3 1 4 21 5 19 6 18 7 16 8 15 9 14 10 13 11 6 12
REMARK SMILES IDX 7 13 8 14 9 15 12 16 11 17 10 18 4 20 20 22 17 24
REMARK H PARENT 10 19 4 21 20 23 17 25
REMARK Flexibility Score: inf
ROOT
ATOM      1  C   UNL     1      45.008   9.152  20.936  1.00  0.00     0.180 A 
ATOM      2  C   UNL     1      44.040   9.745  20.104  1.00  0.00     0.208 A 
ATOM      3  C   UNL     1      43.973   9.356  18.757  1.00  0.00     0.238 A 
ATOM      4  O   UNL     1      43.101   9.872  18.004  1.00  0.00    -0.285 OA
ATOM      5  C   UNL     1      44.883   8.400  18.261  1.00  0.00     0.111 A 
ATOM      6  C   UNL     1      44.885   7.956  16.916  1.00  0.00     0.134 A 
ATOM      7  C   UNL     1      45.830   7.008  16.498  1.00  0.00     0.093 A 
ATOM      8  C   UNL     1      46.772   6.496  17.398  1.00  0.00     0.123 A 
ATOM      9  C   UNL     1      46.773   6.930  18.724  1.00  0.00     0.094 A 
ATOM     10  C   UNL     1      45.839   7.873  19.161  1.00  0.00     0.146 A 
ATOM     11  O   UNL     1      45.860   8.265  20.429  1.00  0.00    -0.452 OA
ENDROOT
BRANCH   1  12
ATOM     12  C   UNL     1      45.130   9.496  22.371  1.00  0.00     0.021 A 
ATOM     13  C   UNL     1      44.272   8.889  23.303  1.00  0.00     0.016 A 
ATOM     14  C   UNL     1      44.354   9.216  24.660  1.00  0.00     0.047 A 
ATOM     15  C   UNL     1      45.282  10.165  25.100  1.00  0.00     0.115 A 
ATOM     16  C   UNL     1      46.048  10.464  22.817  1.00  0.00     0.016 A 
ATOM     17  C   UNL     1      46.128  10.791  24.174  1.00  0.00     0.047 A 
BRANCH  15  18
ATOM     18  O   UNL     1      45.354  10.481  26.455  1.00  0.00    -0.508 OA
ATOM     19  H   UNL     1      45.427  11.441  26.771  1.00  0.00     0.293 HD
ENDBRANCH  15  18
ENDBRANCH   1  12
BRANCH   2  20
ATOM     20  O   UNL     1      43.182  10.727  20.607  1.00  0.00    -0.502 OA
ATOM     21  H   UNL     1      43.099  11.644  20.185  1.00  0.00     0.293 HD
ENDBRANCH   2  20
BRANCH   6  22
ATOM     22  O   UNL     1      43.958   8.449  15.997  1.00  0.00    -0.507 OA
ATOM     23  H   UNL     1      44.159   9.255  15.417  1.00  0.00     0.293 HD
ENDBRANCH   6  22
BRANCH   8  24
ATOM     24  O   UNL     1      47.712   5.555  16.982  1.00  0.00    -0.508 OA
ATOM     25  H   UNL     1      48.651   5.826  16.713  1.00  0.00     0.293 HD
ENDBRANCH   8  24
TORSDOF 5
ENDMDL
MODEL 2
REMARK VINA RESULT:    -6.695      1.675      2.300
REMARK INTER + INTRA:          -8.143
REMARK INTER:                  -8.003
REMARK INTRA:                  -0.140
REMARK UNBOUND:                -0.274
REMARK SMILES O=c1c(O)c(-c2ccc(O)cc2)oc2cc(O)cc(O)c12
REMARK SMILES IDX 5 1 3 2 2 3 1 4 21 5 19 6 18 7 16 8 15 9 14 10 13 11 6 12
REMARK SMILES IDX 7 13 8 14 9 15 12 16 11 17 10 18 4 20 20 22 17 24
REMARK H PARENT 10 19 4 21 20 23 17 25
REMARK Flexibility Score: inf
ROOT
ATOM      1  C   UNL     1      45.809   8.378  19.450  1.00  0.00     0.180 A 
ATOM      2  C   UNL     1      45.439   9.418  18.575  1.00  0.00     0.208 A 
ATOM      3  C   UNL     1      45.631   9.245  17.196  1.00  0.00     0.238 A 
ATOM      4  O   UNL     1      45.292  10.165  16.401  1.00  0.00    -0.285 OA
ATOM      5  C   UNL     1      46.206   8.050  16.716  1.00  0.00     0.111 A 
ATOM      6  C   UNL     1      46.436   7.798  15.342  1.00  0.00     0.134 A 
ATOM      7  C   UNL     1      47.021   6.586  14.946  1.00  0.00     0.093 A 
ATOM      8  C   UNL     1      47.380   5.624  15.896  1.00  0.00     0.123 A 
ATOM      9  C   UNL     1      47.154   5.868  17.251  1.00  0.00     0.094 A 
ATOM     10  C   UNL     1      46.571   7.068  17.666  1.00  0.00     0.146 A 
ATOM     11  O   UNL     1      46.363   7.272  18.962  1.00  0.00    -0.452 OA
ENDROOT
BRANCH   1  12
ATOM     12  C   UNL     1      45.622   8.478  20.914  1.00  0.00     0.021 A 
ATOM     13  C   UNL     1      46.738   8.384  21.762  1.00  0.00     0.016 A 
ATOM     14  C   UNL     1      46.581   8.453  23.151  1.00  0.00     0.047 A 
ATOM     15  C   UNL     1      45.307   8.600  23.708  1.00  0.00     0.115 A 
ATOM     16  C   UNL     1      44.341   8.606  21.483  1.00  0.00     0.016 A 
ATOM     17  C   UNL     1      44.186   8.674  22.871  1.00  0.00     0.047 A 
BRANCH  15  18
ATOM     18  O   UNL     1      45.166   8.668  25.093  1.00  0.00    -0.508 OA
ATOM     19  H   UNL     1      45.973   8.697  25.705  1.00  0.00     0.293 HD
ENDBRANCH  15  18
ENDBRANCH   1  12
BRANCH   2  20
ATOM     20  O   UNL     1      44.918  10.613  19.079  1.00  0.00    -0.502 OA
ATOM     21  H   UNL     1      44.975  11.488  18.571  1.00  0.00     0.293 HD
ENDBRANCH   2  20
BRANCH   6  22
ATOM     22  O   UNL     1      46.090   8.739  14.372  1.00  0.00    -0.507 OA
ATOM     23  H   UNL     1      45.176   9.178  14.357  1.00  0.00     0.293 HD
ENDBRANCH   6  22
BRANCH   8  24
ATOM     24  O   UNL     1      47.962   4.421  15.503  1.00  0.00    -0.508 OA
ATOM     25  H   UNL     1      48.021   4.154  14.526  1.00  0.00     0.293 HD
ENDBRANCH   8  24
TORSDOF 5
ENDMDL
MODEL 3
REMARK VINA RESULT:    -6.578      1.802      3.277
REMARK INTER + INTRA:          -8.006
REMARK INTER:                  -7.738
REMARK INTRA:                  -0.268
REMARK UNBOUND:                -0.274
REMARK SMILES O=c1c(O)c(-c2ccc(O)cc2)oc2cc(O)cc(O)c12
REMARK SMILES IDX 5 1 3 2 2 3 1 4 21 5 19 6 18 7 16 8 15 9 14 10 13 11 6 12
REMARK SMILES IDX 7 13 8 14 9 15 12 16 11 17 10 18 4 20 20 22 17 24
REMARK H PARENT 10 19 4 21 20 23 17 25
REMARK Flexibility Score: inf
ROOT
ATOM      1  C   UNL     1      46.075   8.250  19.975  1.00  0.00     0.180 A 
ATOM      2  C   UNL     1      46.538   6.999  19.525  1.00  0.00     0.208 A 
ATOM      3  C   UNL     1      46.755   6.810  18.151  1.00  0.00     0.238 A 
ATOM      4  O   UNL     1      47.180   5.697  17.737  1.00  0.00    -0.285 OA
ATOM      5  C   UNL     1      46.487   7.863  17.251  1.00  0.00     0.111 A 
ATOM      6  C   UNL     1      46.675   7.753  15.852  1.00  0.00     0.134 A 
ATOM      7  C   UNL     1      46.377   8.845  15.023  1.00  0.00     0.093 A 
ATOM      8  C   UNL     1      45.895  10.041  15.566  1.00  0.00     0.123 A 
ATOM      9  C   UNL     1      45.709  10.153  16.944  1.00  0.00     0.094 A 
ATOM     10  C   UNL     1      46.001   9.078  17.788  1.00  0.00     0.146 A 
ATOM     11  O   UNL     1      45.819   9.214  19.096  1.00  0.00    -0.452 OA
ENDROOT
BRANCH   1  12
ATOM     12  C   UNL     1      45.840   8.532  21.409  1.00  0.00     0.021 A 
ATOM     13  C   UNL     1      44.524   8.575  21.899  1.00  0.00     0.016 A 
ATOM     14  C   UNL     1      44.278   8.862  23.245  1.00  0.00     0.047 A 
ATOM     15  C   UNL     1      45.342   9.126  24.114  1.00  0.00     0.115 A 
ATOM     16  C   UNL     1      46.905   8.818  22.284  1.00  0.00     0.016 A 
ATOM     17  C   UNL     1      46.656   9.106  23.630  1.00  0.00     0.047 A 
BRANCH  15  18
ATOM     18  O   UNL     1      45.082   9.410  25.453  1.00  0.00    -0.508 OA
ATOM     19  H   UNL     1      44.425   8.858  25.993  1.00  0.00     0.293 HD
ENDBRANCH  15  18
ENDBRANCH   1  12
BRANCH   2  20
ATOM     20  O   UNL     1      46.748   5.955  20.430  1.00  0.00    -0.502 OA
ATOM     21  H   UNL     1      47.093   5.047  20.143  1.00  0.00     0.293 HD
ENDBRANCH   2  20
BRANCH   6  22
ATOM     22  O   UNL     1      47.154   6.573  15.283  1.00  0.00    -0.507 OA
ATOM     23  H   UNL     1      46.552   5.773  15.128  1.00  0.00     0.293 HD
ENDBRANCH   6  22
BRANCH   8  24
ATOM     24  O   UNL     1      45.598  11.125  14.742  1.00  0.00    -0.508 OA
ATOM     25  H   UNL     1      45.126  11.948  15.099  1.00  0.00     0.293 HD
ENDBRANCH   8  24
TORSDOF 5
ENDMDL
MODEL 4
REMARK VINA RESULT:    -6.132      1.670      6.735
REMARK INTER + INTRA:          -7.481
REMARK INTER:                  -7.861
REMARK INTRA:                   0.380
REMARK UNBOUND:                -0.274
REMARK SMILES O=c1c(O)c(-c2ccc(O)cc2)oc2cc(O)cc(O)c12
REMARK SMILES IDX 5 1 3 2 2 3 1 4 21 5 19 6 18 7 16 8 15 9 14 10 13 11 6 12
REMARK SMILES IDX 7 13 8 14 9 15 12 16 11 17 10 18 4 20 20 22 17 24
REMARK H PARENT 10 19 4 21 20 23 17 25
REMARK Flexibility Score: inf
ROOT
ATOM      1  C   UNL     1      45.628   7.780  17.858  1.00  0.00     0.180 A 
ATOM      2  C   UNL     1      44.487   8.568  17.611  1.00  0.00     0.208 A 
ATOM      3  C   UNL     1      43.963   9.349  18.653  1.00  0.00     0.238 A 
ATOM      4  O   UNL     1      42.948  10.068  18.441  1.00  0.00    -0.285 OA
ATOM      5  C   UNL     1      44.572   9.314  19.925  1.00  0.00     0.111 A 
ATOM      6  C   UNL     1      44.105  10.067  21.029  1.00  0.00     0.134 A 
ATOM      7  C   UNL     1      44.761   9.971  22.264  1.00  0.00     0.093 A 
ATOM      8  C   UNL     1      45.875   9.137  22.417  1.00  0.00     0.123 A 
ATOM      9  C   UNL     1      46.339   8.393  21.331  1.00  0.00     0.094 A 
ATOM     10  C   UNL     1      45.700   8.476  20.091  1.00  0.00     0.146 A 
ATOM     11  O   UNL     1      46.166   7.761  19.074  1.00  0.00    -0.452 OA
ENDROOT
BRANCH   1  12
ATOM     12  C   UNL     1      46.249   6.945  16.806  1.00  0.00     0.021 A 
ATOM     13  C   UNL     1      47.131   5.915  17.172  1.00  0.00     0.016 A 
ATOM     14  C   UNL     1      47.748   5.128  16.194  1.00  0.00     0.047 A 
ATOM     15  C   UNL     1      47.503   5.371  14.839  1.00  0.00     0.115 A 
ATOM     16  C   UNL     1      46.023   7.196  15.440  1.00  0.00     0.016 A 
ATOM     17  C   UNL     1      46.641   6.409  14.464  1.00  0.00     0.047 A 
BRANCH  15  18
ATOM     18  O   UNL     1      48.123   4.578  13.875  1.00  0.00    -0.508 OA
ATOM     19  H   UNL     1      47.886   4.658  12.893  1.00  0.00     0.293 HD
ENDBRANCH  15  18
ENDBRANCH   1  12
BRANCH   2  20
ATOM     20  O   UNL     1      43.872   8.547  16.357  1.00  0.00    -0.502 OA
ATOM     21  H   UNL     1      42.914   8.245  16.226  1.00  0.00     0.293 HD
ENDBRANCH   2  20
BRANCH   6  22
ATOM     22  O   UNL     1      42.997  10.907  20.907  1.00  0.00    -0.507 OA
ATOM     23  H   UNL     1      43.063  11.904  21.075  1.00  0.00     0.293 HD
ENDBRANCH   6  22
BRANCH   8  24
ATOM     24  O   UNL     1      46.526   9.040  23.644  1.00  0.00    -0.508 OA
ATOM     25  H   UNL     1      46.545   9.816  24.297  1.00  0.00     0.293 HD
ENDBRANCH   8  24
TORSDOF 5
ENDMDL
MODEL 5
REMARK VINA RESULT:    -6.127      2.218      3.056
REMARK INTER + INTRA:          -7.475
REMARK INTER:                  -7.184
REMARK INTRA:                  -0.292
REMARK UNBOUND:                -0.274
REMARK SMILES O=c1c(O)c(-c2ccc(O)cc2)oc2cc(O)cc(O)c12
REMARK SMILES IDX 5 1 3 2 2 3 1 4 21 5 19 6 18 7 16 8 15 9 14 10 13 11 6 12
REMARK SMILES IDX 7 13 8 14 9 15 12 16 11 17 10 18 4 20 20 22 17 24
REMARK H PARENT 10 19 4 21 20 23 17 25
REMARK Flexibility Score: inf
ROOT
ATOM      1  C   UNL     1      45.483   8.834  18.840  1.00  0.00     0.180 A 
ATOM      2  C   UNL     1      45.999   9.967  18.182  1.00  0.00     0.208 A 
ATOM      3  C   UNL     1      46.025   9.984  16.779  1.00  0.00     0.238 A 
ATOM      4  O   UNL     1      46.474  10.999  16.178  1.00  0.00    -0.285 OA
ATOM      5  C   UNL     1      45.558   8.864  16.059  1.00  0.00     0.111 A 
ATOM      6  C   UNL     1      45.555   8.799  14.645  1.00  0.00     0.134 A 
ATOM      7  C   UNL     1      45.081   7.645  14.003  1.00  0.00     0.093 A 
ATOM      8  C   UNL     1      44.613   6.557  14.748  1.00  0.00     0.123 A 
ATOM      9  C   UNL     1      44.614   6.618  16.142  1.00  0.00     0.094 A 
ATOM     10  C   UNL     1      45.080   7.759  16.801  1.00  0.00     0.146 A 
ATOM     11  O   UNL     1      45.066   7.791  18.128  1.00  0.00    -0.452 OA
ENDROOT
BRANCH   1  12
ATOM     12  C   UNL     1      45.405   8.749  20.315  1.00  0.00     0.021 A 
ATOM     13  C   UNL     1      46.495   8.236  21.037  1.00  0.00     0.016 A 
ATOM     14  C   UNL     1      46.434   8.125  22.430  1.00  0.00     0.047 A 
ATOM     15  C   UNL     1      45.278   8.510  23.116  1.00  0.00     0.115 A 
ATOM     16  C   UNL     1      44.237   9.116  21.010  1.00  0.00     0.016 A 
ATOM     17  C   UNL     1      44.178   9.003  22.403  1.00  0.00     0.047 A 
BRANCH  15  18
ATOM     18  O   UNL     1      45.231   8.395  24.504  1.00  0.00    -0.508 OA
ATOM     19  H   UNL     1      44.355   8.444  25.009  1.00  0.00     0.293 HD
ENDBRANCH  15  18
ENDBRANCH   1  12
BRANCH   2  20
ATOM     20  O   UNL     1      46.502  11.043  18.918  1.00  0.00    -0.502 OA
ATOM     21  H   UNL     1      47.294  10.952  19.543  1.00  0.00     0.293 HD
ENDBRANCH   2  20
BRANCH   6  22
ATOM     22  O   UNL     1      46.016   9.868  13.876  1.00  0.00    -0.507 OA
ATOM     23  H   UNL     1      45.390  10.424  13.305  1.00  0.00     0.293 HD
ENDBRANCH   6  22
BRANCH   8  24
ATOM     24  O   UNL     1      44.144   5.410  14.111  1.00  0.00    -0.508 OA
ATOM     25  H   UNL     1      44.629   4.524  14.190  1.00  0.00     0.293 HD
ENDBRANCH   8  24
TORSDOF 5
ENDMDL
MODEL 6
REMARK VINA RESULT:    -5.663      1.580      3.114
REMARK INTER + INTRA:          -6.930
REMARK INTER:                  -6.796
REMARK INTRA:                  -0.134
REMARK UNBOUND:                -0.274
REMARK SMILES O=c1c(O)c(-c2ccc(O)cc2)oc2cc(O)cc(O)c12
REMARK SMILES IDX 5 1 3 2 2 3 1 4 21 5 19 6 18 7 16 8 15 9 14 10 13 11 6 12
REMARK SMILES IDX 7 13 8 14 9 15 12 16 11 17 10 18 4 20 20 22 17 24
REMARK H PARENT 10 19 4 21 20 23 17 25
REMARK Flexibility Score: inf
ROOT
ATOM      1  C   UNL     1      45.950   9.100  21.288  1.00  0.00     0.180 A 
ATOM      2  C   UNL     1      46.426   7.802  21.021  1.00  0.00     0.208 A 
ATOM      3  C   UNL     1      46.587   7.400  19.686  1.00  0.00     0.238 A 
ATOM      4  O   UNL     1      47.024   6.244  19.433  1.00  0.00    -0.285 OA
ATOM      5  C   UNL     1      46.250   8.290  18.644  1.00  0.00     0.111 A 
ATOM      6  C   UNL     1      46.379   7.961  17.273  1.00  0.00     0.134 A 
ATOM      7  C   UNL     1      46.014   8.900  16.296  1.00  0.00     0.093 A 
ATOM      8  C   UNL     1      45.524  10.158  16.664  1.00  0.00     0.123 A 
ATOM      9  C   UNL     1      45.396  10.485  18.015  1.00  0.00     0.094 A 
ATOM     10  C   UNL     1      45.756   9.565  19.003  1.00  0.00     0.146 A 
ATOM     11  O   UNL     1      45.628   9.905  20.281  1.00  0.00    -0.452 OA
ENDROOT
BRANCH   1  12
ATOM     12  C   UNL     1      45.771   9.603  22.669  1.00  0.00     0.021 A 
ATOM     13  C   UNL     1      46.597  10.637  23.140  1.00  0.00     0.016 A 
ATOM     14  C   UNL     1      46.461  11.113  24.449  1.00  0.00     0.047 A 
ATOM     15  C   UNL     1      45.511  10.550  25.306  1.00  0.00     0.115 A 
ATOM     16  C   UNL     1      44.831   9.028  23.543  1.00  0.00     0.016 A 
ATOM     17  C   UNL     1      44.697   9.503  24.851  1.00  0.00     0.047 A 
BRANCH  15  18
ATOM     18  O   UNL     1      45.386  11.034  26.607  1.00  0.00    -0.508 OA
ATOM     19  H   UNL     1      44.602  11.613  26.882  1.00  0.00     0.293 HD
ENDBRANCH  15  18
ENDBRANCH   1  12
BRANCH   2  20
ATOM     20  O   UNL     1      46.705   6.921  22.069  1.00  0.00    -0.502 OA
ATOM     21  H   UNL     1      47.392   6.181  21.989  1.00  0.00     0.293 HD
ENDBRANCH   2  20
BRANCH   6  22
ATOM     22  O   UNL     1      46.864   6.715  16.876  1.00  0.00    -0.507 OA
ATOM     23  H   UNL     1      46.386   5.855  17.117  1.00  0.00     0.293 HD
ENDBRANCH   6  22
BRANCH   8  24
ATOM     24  O   UNL     1      45.160  11.089  15.694  1.00  0.00    -0.508 OA
ATOM     25  H   UNL     1      45.856  11.621  15.183  1.00  0.00     0.293 HD
ENDBRANCH   8  24
TORSDOF 5
ENDMDL
MODEL 7
REMARK VINA RESULT:    -5.302      1.903      6.979
REMARK INTER + INTRA:          -6.506
REMARK INTER:                  -6.215
REMARK INTRA:                  -0.291
REMARK UNBOUND:                -0.274
REMARK SMILES O=c1c(O)c(-c2ccc(O)cc2)oc2cc(O)cc(O)c12
REMARK SMILES IDX 5 1 3 2 2 3 1 4 21 5 19 6 18 7 16 8 15 9 14 10 13 11 6 12
REMARK SMILES IDX 7 13 8 14 9 15 12 16 11 17 10 18 4 20 20 22 17 24
REMARK H PARENT 10 19 4 21 20 23 17 25
REMARK Flexibility Score: inf
ROOT
ATOM      1  C   UNL     1      45.463   8.629  19.574  1.00  0.00     0.180 A 
ATOM      2  C   UNL     1      46.330   7.767  20.272  1.00  0.00     0.208 A 
ATOM      3  C   UNL     1      46.258   7.722  21.673  1.00  0.00     0.238 A 
ATOM      4  O   UNL     1      47.022   6.944  22.309  1.00  0.00    -0.285 OA
ATOM      5  C   UNL     1      45.340   8.550  22.352  1.00  0.00     0.111 A 
ATOM      6  C   UNL     1      45.208   8.568  23.761  1.00  0.00     0.134 A 
ATOM      7  C   UNL     1      44.276   9.428  24.361  1.00  0.00     0.093 A 
ATOM      8  C   UNL     1      43.477  10.270  23.579  1.00  0.00     0.123 A 
ATOM      9  C   UNL     1      43.604  10.255  22.190  1.00  0.00     0.094 A 
ATOM     10  C   UNL     1      44.525   9.404  21.572  1.00  0.00     0.146 A 
ATOM     11  O   UNL     1      44.622   9.407  20.248  1.00  0.00    -0.452 OA
ENDROOT
BRANCH   1  12
ATOM     12  C   UNL     1      45.466   8.720  18.096  1.00  0.00     0.021 A 
ATOM     13  C   UNL     1      44.668   7.839  17.348  1.00  0.00     0.016 A 
ATOM     14  C   UNL     1      44.673   7.891  15.950  1.00  0.00     0.047 A 
ATOM     15  C   UNL     1      45.486   8.813  15.284  1.00  0.00     0.115 A 
ATOM     16  C   UNL     1      46.297   9.631  17.419  1.00  0.00     0.016 A 
ATOM     17  C   UNL     1      46.302   9.681  16.022  1.00  0.00     0.047 A 
BRANCH  15  18
ATOM     18  O   UNL     1      45.480   8.855  13.891  1.00  0.00    -0.508 OA
ATOM     19  H   UNL     1      46.322   9.059  13.365  1.00  0.00     0.293 HD
ENDBRANCH  15  18
ENDBRANCH   1  12
BRANCH   2  20
ATOM     20  O   UNL     1      47.265   6.993  19.580  1.00  0.00    -0.502 OA
ATOM     21  H   UNL     1      47.698   6.172  19.986  1.00  0.00     0.293 HD
ENDBRANCH   2  20
BRANCH   6  22
ATOM     22  O   UNL     1      45.991   7.740  24.566  1.00  0.00    -0.507 OA
ATOM     23  H   UNL     1      45.963   6.731  24.480  1.00  0.00     0.293 HD
ENDBRANCH   6  22
BRANCH   8  24
ATOM     24  O   UNL     1      42.552  11.125  24.175  1.00  0.00    -0.508 OA
ATOM     25  H   UNL     1      42.143  10.917  25.079  1.00  0.00     0.293 HD
ENDBRANCH   8  24
TORSDOF 5
ENDMDL
MODEL 8
REMARK VINA RESULT:    -5.269      1.710      3.529
REMARK INTER + INTRA:          -6.467
REMARK INTER:                  -6.170
REMARK INTRA:                  -0.297
REMARK UNBOUND:                -0.274
REMARK SMILES O=c1c(O)c(-c2ccc(O)cc2)oc2cc(O)cc(O)c12
REMARK SMILES IDX 5 1 3 2 2 3 1 4 21 5 19 6 18 7 16 8 15 9 14 10 13 11 6 12
REMARK SMILES IDX 7 13 8 14 9 15 12 16 11 17 10 18 4 20 20 22 17 24
REMARK H PARENT 10 19 4 21 20 23 17 25
REMARK Flexibility Score: inf
ROOT
ATOM      1  C   UNL     1      45.390   8.055  19.197  1.00  0.00     0.180 A 
ATOM      2  C   UNL     1      46.502   7.205  19.043  1.00  0.00     0.208 A 
ATOM      3  C   UNL     1      46.671   6.523  17.828  1.00  0.00     0.238 A 
ATOM      4  O   UNL     1      47.670   5.768  17.674  1.00  0.00    -0.285 OA
ATOM      5  C   UNL     1      45.720   6.684  16.799  1.00  0.00     0.111 A 
ATOM      6  C   UNL     1      45.815   6.030  15.547  1.00  0.00     0.134 A 
ATOM      7  C   UNL     1      44.822   6.236  14.578  1.00  0.00     0.093 A 
ATOM      8  C   UNL     1      43.737   7.081  14.838  1.00  0.00     0.123 A 
ATOM      9  C   UNL     1      43.640   7.728  16.071  1.00  0.00     0.094 A 
ATOM     10  C   UNL     1      44.620   7.538  17.049  1.00  0.00     0.146 A 
ATOM     11  O   UNL     1      44.505   8.169  18.211  1.00  0.00    -0.452 OA
ENDROOT
BRANCH   1  12
ATOM     12  C   UNL     1      45.152   8.822  20.441  1.00  0.00     0.021 A 
ATOM     13  C   UNL     1      44.361   8.262  21.458  1.00  0.00     0.016 A 
ATOM     14  C   UNL     1      44.104   8.978  22.632  1.00  0.00     0.047 A 
ATOM     15  C   UNL     1      44.621  10.267  22.797  1.00  0.00     0.115 A 
ATOM     16  C   UNL     1      45.653  10.126  20.605  1.00  0.00     0.016 A 
ATOM     17  C   UNL     1      45.395  10.841  21.779  1.00  0.00     0.047 A 
BRANCH  15  18
ATOM     18  O   UNL     1      44.359  10.968  23.972  1.00  0.00    -0.508 OA
ATOM     19  H   UNL     1      44.163  10.487  24.842  1.00  0.00     0.293 HD
ENDBRANCH  15  18
ENDBRANCH   1  12
BRANCH   2  20
ATOM     20  O   UNL     1      47.404   7.024  20.095  1.00  0.00    -0.502 OA
ATOM     21  H   UNL     1      47.140   7.149  21.065  1.00  0.00     0.293 HD
ENDBRANCH   2  20
BRANCH   6  22
ATOM     22  O   UNL     1      46.884   5.181  15.260  1.00  0.00    -0.507 OA
ATOM     23  H   UNL     1      47.755   5.227  15.777  1.00  0.00     0.293 HD
ENDBRANCH   6  22
BRANCH   8  24
ATOM     24  O   UNL     1      42.750   7.285  13.876  1.00  0.00    -0.508 OA
ATOM     25  H   UNL     1      42.045   6.582  13.683  1.00  0.00     0.293 HD
ENDBRANCH   8  24
TORSDOF 5
ENDMDL
