MODEL 1
REMARK VINA RESULT:    -3.295      0.000      0.000
REMARK INTER + INTRA:          -3.979
REMARK INTER:                  -3.969
REMARK INTRA:                  -0.010
REMARK UNBOUND:                -0.010
REMARK SMILES CCCCCO
REMARK SMILES IDX 4 1 3 2 2 3 1 4 5 5 6 6
REMARK H PARENT 6 7
REMARK Flexibility Score: inf
ROOT
ATOM      1  C   UNL     1      29.134  26.210  22.170  1.00  0.00     0.028 C 
ENDROOT
BRANCH   1   2
ATOM      2  C   UNL     1      30.254  25.171  22.350  1.00  0.00     0.002 C 
BRANCH   2   3
ATOM      3  C   UNL     1      31.470  25.665  23.155  1.00  0.00    -0.003 C 
ATOM      4  C   UNL     1      31.671  24.900  24.462  1.00  0.00     0.004 C 
ENDBRANCH   2   3
ENDBRANCH   1   2
BRANCH   1   5
ATOM      5  C   UNL     1      28.363  26.038  20.855  1.00  0.00     0.156 C 
BRANCH   5   6
ATOM      6  O   UNL     1      27.238  26.875  20.842  1.00  0.00    -0.396 OA
ATOM      7  H   UNL     1      27.340  27.501  21.607  1.00  0.00     0.210 HD
ENDBRANCH   5   6
ENDBRANCH   1   5
TORSDOF 4
ENDMDL
MODEL 2
REMARK VINA RESULT:    -3.256      0.934      1.174
REMARK INTER + INTRA:          -3.933
REMARK INTER:                  -3.899
REMARK INTRA:                  -0.034
REMARK UNBOUND:                -0.010
REMARK SMILES CCCCCO
REMARK SMILES IDX 4 1 3 2 2 3 1 4 5 5 6 6
REMARK H PARENT 6 7
REMARK Flexibility Score: inf
ROOT
ATOM      1  C   UNL     1      29.176  26.308  21.531  1.00  0.00     0.028 C 
ENDROOT
BRANCH   1   2
ATOM      2  C   UNL     1      29.864  25.002  21.966  1.00  0.00     0.002 C 
BRANCH   2   3
ATOM      3  C   UNL     1      31.008  25.183  22.981  1.00  0.00    -0.003 C 
ATOM      4  C   UNL     1      31.644  26.571  22.924  1.00  0.00     0.004 C 
ENDBRANCH   2   3
ENDBRANCH   1   2
BRANCH   1   5
ATOM      5  C   UNL     1      27.707  26.383  21.962  1.00  0.00     0.156 C 
BRANCH   5   6
ATOM      6  O   UNL     1      26.921  26.889  20.916  1.00  0.00    -0.396 OA
ATOM      7  H   UNL     1      27.212  27.827  20.770  1.00  0.00     0.210 HD
ENDBRANCH   5   6
ENDBRANCH   1   5
TORSDOF 4
ENDMDL
MODEL 3
REMARK VINA RESULT:    -3.113      8.564      9.307
REMARK INTER + INTRA:          -3.760
REMARK INTER:                  -3.749
REMARK INTRA:                  -0.010
REMARK UNBOUND:                -0.010
REMARK SMILES CCCCCO
REMARK SMILES IDX 4 1 3 2 2 3 1 4 5 5 6 6
REMARK H PARENT 6 7
REMARK Flexibility Score: inf
ROOT
ATOM      1  C   UNL     1      21.643  23.444  22.442  1.00  0.00     0.028 C 
ENDROOT
BRANCH   1   2
ATOM      2  C   UNL     1      21.737  23.860  23.920  1.00  0.00     0.002 C 
BRANCH   2   3
ATOM      3  C   UNL     1      20.412  23.778  24.699  1.00  0.00    -0.003 C 
ATOM      4  C   UNL     1      19.784  25.147  24.955  1.00  0.00     0.004 C 
ENDBRANCH   2   3
ENDBRANCH   1   2
BRANCH   1   5
ATOM      5  C   UNL     1      21.770  21.929  22.236  1.00  0.00     0.156 C 
BRANCH   5   6
ATOM      6  O   UNL     1      22.833  21.647  21.367  1.00  0.00    -0.396 OA
ATOM      7  H   UNL     1      23.021  22.483  20.865  1.00  0.00     0.210 HD
ENDBRANCH   5   6
ENDBRANCH   1   5
TORSDOF 4
ENDMDL
MODEL 4
REMARK VINA RESULT:    -2.900      4.017      5.398
REMARK INTER + INTRA:          -3.503
REMARK INTER:                  -3.492
REMARK INTRA:                  -0.011
REMARK UNBOUND:                -0.010
REMARK SMILES CCCCCO
REMARK SMILES IDX 4 1 3 2 2 3 1 4 5 5 6 6
REMARK H PARENT 6 7
REMARK Flexibility Score: inf
ROOT
ATOM      1  C   UNL     1      26.830  27.666  23.250  1.00  0.00     0.028 C 
ENDROOT
BRANCH   1   2
ATOM      2  C   UNL     1      25.348  27.428  23.588  1.00  0.00     0.002 C 
BRANCH   2   3
ATOM      3  C   UNL     1      24.696  28.530  24.443  1.00  0.00    -0.003 C 
ATOM      4  C   UNL     1      24.501  29.839  23.680  1.00  0.00     0.004 C 
ENDBRANCH   2   3
ENDBRANCH   1   2
BRANCH   1   5
ATOM      5  C   UNL     1      27.399  26.621  22.282  1.00  0.00     0.156 C 
BRANCH   5   6
ATOM      6  O   UNL     1      27.010  26.917  20.968  1.00  0.00    -0.396 OA
ATOM      7  H   UNL     1      26.634  26.080  20.587  1.00  0.00     0.210 HD
ENDBRANCH   5   6
ENDBRANCH   1   5
TORSDOF 4
ENDMDL
MODEL 5
REMARK VINA RESULT:    -2.866      8.688      9.299
REMARK INTER + INTRA:          -3.462
REMARK INTER:                  -3.426
REMARK INTRA:                  -0.036
REMARK UNBOUND:                -0.010
REMARK SMILES CCCCCO
REMARK SMILES IDX 4 1 3 2 2 3 1 4 5 5 6 6
REMARK H PARENT 6 7
REMARK Flexibility Score: inf
ROOT
ATOM      1  C   UNL     1      21.824  23.787  23.849  1.00  0.00     0.028 C 
ENDROOT
BRANCH   1   2
ATOM      2  C   UNL     1      21.677  23.407  22.366  1.00  0.00     0.002 C 
BRANCH   2   3
ATOM      3  C   UNL     1      22.190  22.000  22.006  1.00  0.00    -0.003 C 
ATOM      4  C   UNL     1      21.098  20.933  22.064  1.00  0.00     0.004 C 
ENDBRANCH   2   3
ENDBRANCH   1   2
BRANCH   1   5
ATOM      5  C   UNL     1      20.478  24.019  24.545  1.00  0.00     0.156 C 
BRANCH   5   6
ATOM      6  O   UNL     1      20.134  25.378  24.490  1.00  0.00    -0.396 OA
ATOM      7  H   UNL     1      19.458  25.471  23.768  1.00  0.00     0.210 HD
ENDBRANCH   5   6
ENDBRANCH   1   5
TORSDOF 4
ENDMDL
MODEL 6
REMARK VINA RESULT:    -2.852      7.318      8.556
REMARK INTER + INTRA:          -3.445
REMARK INTER:                  -3.408
REMARK INTRA:                  -0.037
REMARK UNBOUND:                -0.010
REMARK SMILES CCCCCO
REMARK SMILES IDX 4 1 3 2 2 3 1 4 5 5 6 6
REMARK H PARENT 6 7
REMARK Flexibility Score: inf
ROOT
ATOM      1  C   UNL     1      22.635  23.383  22.758  1.00  0.00     0.028 C 
ENDROOT
BRANCH   1   2
ATOM      2  C   UNL     1      21.246  23.405  23.421  1.00  0.00     0.002 C 
BRANCH   2   3
ATOM      3  C   UNL     1      21.180  24.169  24.755  1.00  0.00    -0.003 C 
ATOM      4  C   UNL     1      19.841  24.872  24.975  1.00  0.00     0.004 C 
ENDBRANCH   2   3
ENDBRANCH   1   2
BRANCH   1   5
ATOM      5  C   UNL     1      23.693  24.151  23.559  1.00  0.00     0.156 C 
BRANCH   5   6
ATOM      6  O   UNL     1      24.979  23.806  23.116  1.00  0.00    -0.396 OA
ATOM      7  H   UNL     1      24.922  23.704  22.130  1.00  0.00     0.210 HD
ENDBRANCH   5   6
ENDBRANCH   1   5
TORSDOF 4
ENDMDL
MODEL 7
REMARK VINA RESULT:    -2.814      3.300      4.489
REMARK INTER + INTRA:          -3.400
REMARK INTER:                  -3.361
REMARK INTRA:                  -0.039
REMARK UNBOUND:                -0.010
REMARK SMILES CCCCCO
REMARK SMILES IDX 4 1 3 2 2 3 1 4 5 5 6 6
REMARK H PARENT 6 7
REMARK Flexibility Score: inf
ROOT
ATOM      1  C   UNL     1      27.238  27.131  23.141  1.00  0.00     0.028 C 
ENDROOT
BRANCH   1   2
ATOM      2  C   UNL     1      25.714  26.984  23.295  1.00  0.00     0.002 C 
BRANCH   2   3
ATOM      3  C   UNL     1      25.268  26.057  24.440  1.00  0.00    -0.003 C 
ATOM      4  C   UNL     1      24.702  24.727  23.946  1.00  0.00     0.004 C 
ENDBRANCH   2   3
ENDBRANCH   1   2
BRANCH   1   5
ATOM      5  C   UNL     1      27.795  26.371  21.932  1.00  0.00     0.156 C 
BRANCH   5   6
ATOM      6  O   UNL     1      27.224  26.861  20.748  1.00  0.00    -0.396 OA
ATOM      7  H   UNL     1      27.961  27.272  20.225  1.00  0.00     0.210 HD
ENDBRANCH   5   6
ENDBRANCH   1   5
TORSDOF 4
ENDMDL
MODEL 8
REMARK VINA RESULT:    -2.768      9.832     10.891
REMARK INTER + INTRA:          -3.344
REMARK INTER:                  -3.334
REMARK INTRA:                  -0.010
REMARK UNBOUND:                -0.010
REMARK SMILES CCCCCO
REMARK SMILES IDX 4 1 3 2 2 3 1 4 5 5 6 6
REMARK H PARENT 6 7
REMARK Flexibility Score: inf
ROOT
ATOM      1  C   UNL     1      19.935  20.214  21.711  1.00  0.00     0.028 C 
ENDROOT
BRANCH   1   2
ATOM      2  C   UNL     1      21.285  20.707  22.262  1.00  0.00     0.002 C 
BRANCH   2   3
ATOM      3  C   UNL     1      21.648  22.153  21.880  1.00  0.00    -0.003 C 
ATOM      4  C   UNL     1      21.582  23.118  23.063  1.00  0.00     0.004 C 
ENDBRANCH   2   3
ENDBRANCH   1   2
BRANCH   1   5
ATOM      5  C   UNL     1      19.718  18.710  21.917  1.00  0.00     0.156 C 
BRANCH   5   6
ATOM      6  O   UNL     1      18.993  18.176  20.842  1.00  0.00    -0.396 OA
ATOM      7  H   UNL     1      19.245  17.217  20.777  1.00  0.00     0.210 HD
ENDBRANCH   5   6
ENDBRANCH   1   5
TORSDOF 4
ENDMDL
MODEL 9
REMARK VINA RESULT:    -2.593      2.860      4.231
REMARK INTER + INTRA:          -3.134
REMARK INTER:                  -3.122
REMARK INTRA:                  -0.012
REMARK UNBOUND:                -0.010
REMARK SMILES CCCCCO
REMARK SMILES IDX 4 1 3 2 2 3 1 4 5 5 6 6
REMARK H PARENT 6 7
REMARK Flexibility Score: inf
ROOT
ATOM      1  C   UNL     1      31.725  25.647  23.250  1.00  0.00     0.028 C 
ENDROOT
BRANCH   1   2
ATOM      2  C   UNL     1      30.528  25.104  22.450  1.00  0.00     0.002 C 
BRANCH   2   3
ATOM      3  C   UNL     1      29.497  26.166  22.030  1.00  0.00    -0.003 C 
ATOM      4  C   UNL     1      28.107  25.583  21.780  1.00  0.00     0.004 C 
ENDBRANCH   2   3
ENDBRANCH   1   2
BRANCH   1   5
ATOM      5  C   UNL     1      31.596  25.406  24.759  1.00  0.00     0.156 C 
BRANCH   5   6
ATOM      6  O   UNL     1      31.885  24.067  25.060  1.00  0.00    -0.396 OA
ATOM      7  H   UNL     1      32.129  24.038  26.023  1.00  0.00     0.210 HD
ENDBRANCH   5   6
ENDBRANCH   1   5
TORSDOF 4
ENDMDL
