MODEL 1
REMARK VINA RESULT:    -2.918      0.000      0.000
REMARK INTER + INTRA:          -9.654
REMARK INTER:                  -6.329
REMARK INTRA:                  -3.325
REMARK UNBOUND:                -3.325
REMARK SMILES CCCCCCCCCCCCCCCCCCCCCC(=O)[O-]
REMARK SMILES IDX 12 1 11 2 10 3 9 4 8 5 7 6 6 7 5 8 4 9 3 10 2 11 1 12 13 13
REMARK SMILES IDX 14 14 15 15 16 16 17 17 18 18 19 19 20 20 21 21 22 22 23 23
REMARK SMILES IDX 24 24
REMARK H PARENT
REMARK Flexibility Score: inf
ROOT
ATOM      1  C   UNL     1      20.068  30.775  47.081  1.00  0.00     0.000 C 
ENDROOT
BRANCH   1   2
ATOM      2  C   UNL     1      20.750  29.404  47.240  1.00  0.00     0.000 C 
BRANCH   2   3
ATOM      3  C   UNL     1      21.867  29.114  46.218  1.00  0.00     0.000 C 
BRANCH   3   4
ATOM      4  C   UNL     1      23.270  28.912  46.825  1.00  0.00    -0.000 C 
BRANCH   4   5
ATOM      5  C   UNL     1      23.894  30.171  47.461  1.00  0.00    -0.000 C 
BRANCH   5   6
ATOM      6  C   UNL     1      23.831  31.442  46.596  1.00  0.00    -0.000 C 
BRANCH   6   7
ATOM      7  C   UNL     1      25.203  31.859  46.042  1.00  0.00    -0.000 C 
BRANCH   7   8
ATOM      8  C   UNL     1      25.258  31.854  44.503  1.00  0.00    -0.000 C 
BRANCH   8   9
ATOM      9  C   UNL     1      24.287  30.875  43.818  1.00  0.00    -0.000 C 
BRANCH   9  10
ATOM     10  C   UNL     1      25.000  29.862  42.906  1.00  0.00    -0.000 C 
BRANCH  10  11
ATOM     11  C   UNL     1      26.320  30.407  42.339  1.00  0.00    -0.003 C 
ATOM     12  C   UNL     1      27.330  29.302  42.033  1.00  0.00     0.004 C 
ENDBRANCH  10  11
ENDBRANCH   9  10
ENDBRANCH   8   9
ENDBRANCH   7   8
ENDBRANCH   6   7
ENDBRANCH   5   6
ENDBRANCH   4   5
ENDBRANCH   3   4
ENDBRANCH   2   3
ENDBRANCH   1   2
BRANCH   1  13
ATOM     13  C   UNL     1      19.792  31.463  48.429  1.00  0.00     0.000 C 
BRANCH  13  14
ATOM     14  C   UNL     1      21.069  32.021  49.076  1.00  0.00     0.000 C 
BRANCH  14  15
ATOM     15  C   UNL     1      21.097  31.810  50.599  1.00  0.00     0.000 C 
BRANCH  15  16
ATOM     16  C   UNL     1      20.169  30.673  51.064  1.00  0.00     0.000 C 
BRANCH  16  17
ATOM     17  C   UNL     1      20.814  29.275  51.088  1.00  0.00     0.000 C 
BRANCH  17  18
ATOM     18  C   UNL     1      22.348  29.321  50.967  1.00  0.00     0.000 C 
BRANCH  18  19
ATOM     19  C   UNL     1      22.925  28.050  50.324  1.00  0.00     0.000 C 
BRANCH  19  20
ATOM     20  C   UNL     1      21.836  27.034  49.937  1.00  0.00     0.006 C 
BRANCH  20  21
ATOM     21  C   UNL     1      22.334  26.014  48.906  1.00  0.00     0.053 C 
BRANCH  21  22
ATOM     22  C   UNL     1      23.606  25.356  49.348  1.00  0.00     0.041 C 
ATOM     23  O   UNL     1      24.651  25.462  48.652  1.00  0.00    -0.550 OA
ATOM     24  O   UNL     1      23.628  24.599  50.512  1.00  0.00    -0.550 OA
ENDBRANCH  21  22
ENDBRANCH  20  21
ENDBRANCH  19  20
ENDBRANCH  18  19
ENDBRANCH  17  18
ENDBRANCH  16  17
ENDBRANCH  15  16
ENDBRANCH  14  15
ENDBRANCH  13  14
ENDBRANCH   1  13
TORSDOF 20
ENDMDL
MODEL 2
REMARK VINA RESULT:    -2.899      2.640      4.731
REMARK INTER + INTRA:          -9.613
REMARK INTER:                  -6.241
REMARK INTRA:                  -3.373
REMARK UNBOUND:                -3.325
REMARK SMILES CCCCCCCCCCCCCCCCCCCCCC(=O)[O-]
REMARK SMILES IDX 12 1 11 2 10 3 9 4 8 5 7 6 6 7 5 8 4 9 3 10 2 11 1 12 13 13
REMARK SMILES IDX 14 14 15 15 16 16 17 17 18 18 19 19 20 20 21 21 22 22 23 23
REMARK SMILES IDX 24 24
REMARK H PARENT
REMARK Flexibility Score: inf
ROOT
ATOM      1  C   UNL     1      23.375  26.232  46.146  1.00  0.00     0.000 C 
ENDROOT
BRANCH   1   2
ATOM      2  C   UNL     1      22.041  26.964  46.375  1.00  0.00     0.000 C 
BRANCH   2   3
ATOM      3  C   UNL     1      22.172  28.382  46.966  1.00  0.00     0.000 C 
BRANCH   3   4
ATOM      4  C   UNL     1      23.616  28.913  47.072  1.00  0.00    -0.000 C 
BRANCH   4   5
ATOM      5  C   UNL     1      23.738  30.394  47.488  1.00  0.00    -0.000 C 
BRANCH   5   6
ATOM      6  C   UNL     1      23.811  31.397  46.324  1.00  0.00    -0.000 C 
BRANCH   6   7
ATOM      7  C   UNL     1      25.253  31.781  45.954  1.00  0.00    -0.000 C 
BRANCH   7   8
ATOM      8  C   UNL     1      25.457  31.970  44.439  1.00  0.00    -0.000 C 
BRANCH   8   9
ATOM      9  C   UNL     1      25.838  30.694  43.667  1.00  0.00    -0.000 C 
BRANCH   9  10
ATOM     10  C   UNL     1      24.684  30.141  42.813  1.00  0.00    -0.000 C 
BRANCH  10  11
ATOM     11  C   UNL     1      23.917  29.014  43.521  1.00  0.00    -0.003 C 
ATOM     12  C   UNL     1      22.465  28.906  43.054  1.00  0.00     0.004 C 
ENDBRANCH  10  11
ENDBRANCH   9  10
ENDBRANCH   8   9
ENDBRANCH   7   8
ENDBRANCH   6   7
ENDBRANCH   5   6
ENDBRANCH   4   5
ENDBRANCH   3   4
ENDBRANCH   2   3
ENDBRANCH   1   2
BRANCH   1  13
ATOM     13  C   UNL     1      23.552  25.013  47.067  1.00  0.00     0.000 C 
BRANCH  13  14
ATOM     14  C   UNL     1      24.967  24.921  47.656  1.00  0.00     0.000 C 
BRANCH  14  15
ATOM     15  C   UNL     1      25.139  25.791  48.913  1.00  0.00     0.000 C 
BRANCH  15  16
ATOM     16  C   UNL     1      24.611  25.109  50.188  1.00  0.00     0.000 C 
BRANCH  16  17
ATOM     17  C   UNL     1      23.766  26.012  51.107  1.00  0.00     0.000 C 
BRANCH  17  18
ATOM     18  C   UNL     1      22.760  26.881  50.332  1.00  0.00     0.000 C 
BRANCH  18  19
ATOM     19  C   UNL     1      22.947  28.382  50.606  1.00  0.00     0.000 C 
BRANCH  19  20
ATOM     20  C   UNL     1      21.610  29.138  50.703  1.00  0.00     0.006 C 
BRANCH  20  21
ATOM     21  C   UNL     1      21.800  30.659  50.654  1.00  0.00     0.053 C 
BRANCH  21  22
ATOM     22  C   UNL     1      20.694  31.331  49.900  1.00  0.00     0.041 C 
ATOM     23  O   UNL     1      19.899  32.107  50.495  1.00  0.00    -0.550 OA
ATOM     24  O   UNL     1      20.520  31.075  48.546  1.00  0.00    -0.550 OA
ENDBRANCH  21  22
ENDBRANCH  20  21
ENDBRANCH  19  20
ENDBRANCH  18  19
ENDBRANCH  17  18
ENDBRANCH  16  17
ENDBRANCH  15  16
ENDBRANCH  14  15
ENDBRANCH  13  14
ENDBRANCH   1  13
TORSDOF 20
ENDMDL
MODEL 3
REMARK VINA RESULT:    -2.875      4.050      6.436
REMARK INTER + INTRA:          -9.562
REMARK INTER:                  -5.572
REMARK INTRA:                  -3.989
REMARK UNBOUND:                -3.325
REMARK SMILES CCCCCCCCCCCCCCCCCCCCCC(=O)[O-]
REMARK SMILES IDX 12 1 11 2 10 3 9 4 8 5 7 6 6 7 5 8 4 9 3 10 2 11 1 12 13 13
REMARK SMILES IDX 14 14 15 15 16 16 17 17 18 18 19 19 20 20 21 21 22 22 23 23
REMARK SMILES IDX 24 24
REMARK H PARENT
REMARK Flexibility Score: inf
ROOT
ATOM      1  C   UNL     1      20.781  31.246  46.333  1.00  0.00     0.000 C 
ENDROOT
BRANCH   1   2
ATOM      2  C   UNL     1      22.278  31.407  46.650  1.00  0.00     0.000 C 
BRANCH   2   3
ATOM      3  C   UNL     1      23.117  30.124  46.489  1.00  0.00     0.000 C 
BRANCH   3   4
ATOM      4  C   UNL     1      23.970  29.744  47.716  1.00  0.00    -0.000 C 
BRANCH   4   5
ATOM      5  C   UNL     1      23.513  28.471  48.460  1.00  0.00    -0.000 C 
BRANCH   5   6
ATOM      6  C   UNL     1      23.064  27.310  47.557  1.00  0.00    -0.000 C 
BRANCH   6   7
ATOM      7  C   UNL     1      22.373  26.178  48.336  1.00  0.00    -0.000 C 
BRANCH   7   8
ATOM      8  C   UNL     1      22.513  26.326  49.862  1.00  0.00    -0.000 C 
BRANCH   8   9
ATOM      9  C   UNL     1      22.820  25.021  50.620  1.00  0.00    -0.000 C 
BRANCH   9  10
ATOM     10  C   UNL     1      24.317  24.667  50.622  1.00  0.00    -0.000 C 
BRANCH  10  11
ATOM     11  C   UNL     1      25.216  25.911  50.684  1.00  0.00    -0.003 C 
ATOM     12  C   UNL     1      26.228  25.964  49.539  1.00  0.00     0.004 C 
ENDBRANCH  10  11
ENDBRANCH   9  10
ENDBRANCH   8   9
ENDBRANCH   7   8
ENDBRANCH   6   7
ENDBRANCH   5   6
ENDBRANCH   4   5
ENDBRANCH   3   4
ENDBRANCH   2   3
ENDBRANCH   1   2
BRANCH   1  13
ATOM     13  C   UNL     1      20.248  29.843  46.670  1.00  0.00     0.000 C 
BRANCH  13  14
ATOM     14  C   UNL     1      19.385  29.834  47.941  1.00  0.00     0.000 C 
BRANCH  14  15
ATOM     15  C   UNL     1      19.846  28.775  48.957  1.00  0.00     0.000 C 
BRANCH  15  16
ATOM     16  C   UNL     1      19.779  29.273  50.412  1.00  0.00     0.000 C 
BRANCH  16  17
ATOM     17  C   UNL     1      21.145  29.468  51.096  1.00  0.00     0.000 C 
BRANCH  17  18
ATOM     18  C   UNL     1      21.878  30.734  50.620  1.00  0.00     0.000 C 
BRANCH  18  19
ATOM     19  C   UNL     1      21.094  32.019  50.931  1.00  0.00     0.000 C 
BRANCH  19  20
ATOM     20  C   UNL     1      20.821  32.865  49.675  1.00  0.00     0.006 C 
BRANCH  20  21
ATOM     21  C   UNL     1      19.324  33.134  49.473  1.00  0.00     0.053 C 
BRANCH  21  22
ATOM     22  C   UNL     1      19.075  34.521  48.963  1.00  0.00     0.041 C 
ATOM     23  O   UNL     1      18.091  34.754  48.212  1.00  0.00    -0.550 OA
ATOM     24  O   UNL     1      19.948  35.550  49.291  1.00  0.00    -0.550 OA
ENDBRANCH  21  22
ENDBRANCH  20  21
ENDBRANCH  19  20
ENDBRANCH  18  19
ENDBRANCH  17  18
ENDBRANCH  16  17
ENDBRANCH  15  16
ENDBRANCH  14  15
ENDBRANCH  13  14
ENDBRANCH   1  13
TORSDOF 20
ENDMDL
MODEL 4
REMARK VINA RESULT:    -2.872      2.944      5.629
REMARK INTER + INTRA:          -9.555
REMARK INTER:                  -5.882
REMARK INTRA:                  -3.673
REMARK UNBOUND:                -3.325
REMARK SMILES CCCCCCCCCCCCCCCCCCCCCC(=O)[O-]
REMARK SMILES IDX 12 1 11 2 10 3 9 4 8 5 7 6 6 7 5 8 4 9 3 10 2 11 1 12 13 13
REMARK SMILES IDX 14 14 15 15 16 16 17 17 18 18 19 19 20 20 21 21 22 22 23 23
REMARK SMILES IDX 24 24
REMARK H PARENT
REMARK Flexibility Score: inf
ROOT
ATOM      1  C   UNL     1      19.714  31.775  50.285  1.00  0.00     0.000 C 
ENDROOT
BRANCH   1   2
ATOM      2  C   UNL     1      20.746  32.733  49.665  1.00  0.00     0.000 C 
BRANCH   2   3
ATOM      3  C   UNL     1      20.657  32.878  48.133  1.00  0.00     0.000 C 
BRANCH   3   4
ATOM      4  C   UNL     1      19.810  31.804  47.424  1.00  0.00    -0.000 C 
BRANCH   4   5
ATOM      5  C   UNL     1      20.108  31.623  45.921  1.00  0.00    -0.000 C 
BRANCH   5   6
ATOM      6  C   UNL     1      20.234  30.164  45.448  1.00  0.00    -0.000 C 
BRANCH   6   7
ATOM      7  C   UNL     1      21.468  29.926  44.562  1.00  0.00    -0.000 C 
BRANCH   7   8
ATOM      8  C   UNL     1      21.704  28.438  44.247  1.00  0.00    -0.000 C 
BRANCH   8   9
ATOM      9  C   UNL     1      22.930  27.810  44.937  1.00  0.00    -0.000 C 
BRANCH   9  10
ATOM     10  C   UNL     1      22.583  26.547  45.744  1.00  0.00    -0.000 C 
BRANCH  10  11
ATOM     11  C   UNL     1      21.333  26.732  46.618  1.00  0.00    -0.003 C 
ATOM     12  C   UNL     1      21.105  25.561  47.574  1.00  0.00     0.004 C 
ENDBRANCH  10  11
ENDBRANCH   9  10
ENDBRANCH   8   9
ENDBRANCH   7   8
ENDBRANCH   6   7
ENDBRANCH   5   6
ENDBRANCH   4   5
ENDBRANCH   3   4
ENDBRANCH   2   3
ENDBRANCH   1   2
BRANCH   1  13
ATOM     13  C   UNL     1      20.366  30.589  51.018  1.00  0.00     0.000 C 
BRANCH  13  14
ATOM     14  C   UNL     1      21.879  30.506  50.770  1.00  0.00     0.000 C 
BRANCH  14  15
ATOM     15  C   UNL     1      22.382  29.055  50.684  1.00  0.00     0.000 C 
BRANCH  15  16
ATOM     16  C   UNL     1      22.917  28.688  49.288  1.00  0.00     0.000 C 
BRANCH  16  17
ATOM     17  C   UNL     1      22.655  29.740  48.194  1.00  0.00     0.000 C 
BRANCH  17  18
ATOM     18  C   UNL     1      23.927  30.127  47.418  1.00  0.00     0.000 C 
BRANCH  18  19
ATOM     19  C   UNL     1      23.842  31.540  46.817  1.00  0.00     0.000 C 
BRANCH  19  20
ATOM     20  C   UNL     1      24.987  31.836  45.834  1.00  0.00     0.006 C 
BRANCH  20  21
ATOM     21  C   UNL     1      25.074  30.791  44.714  1.00  0.00     0.053 C 
BRANCH  21  22
ATOM     22  C   UNL     1      26.098  31.164  43.686  1.00  0.00     0.041 C 
ATOM     23  O   UNL     1      26.290  32.373  43.391  1.00  0.00    -0.550 OA
ATOM     24  O   UNL     1      26.819  30.173  43.031  1.00  0.00    -0.550 OA
ENDBRANCH  21  22
ENDBRANCH  20  21
ENDBRANCH  19  20
ENDBRANCH  18  19
ENDBRANCH  17  18
ENDBRANCH  16  17
ENDBRANCH  15  16
ENDBRANCH  14  15
ENDBRANCH  13  14
ENDBRANCH   1  13
TORSDOF 20
ENDMDL
MODEL 5
REMARK VINA RESULT:    -2.841      2.689      7.095
REMARK INTER + INTRA:          -9.488
REMARK INTER:                  -6.275
REMARK INTRA:                  -3.213
REMARK UNBOUND:                -3.325
REMARK SMILES CCCCCCCCCCCCCCCCCCCCCC(=O)[O-]
REMARK SMILES IDX 12 1 11 2 10 3 9 4 8 5 7 6 6 7 5 8 4 9 3 10 2 11 1 12 13 13
REMARK SMILES IDX 14 14 15 15 16 16 17 17 18 18 19 19 20 20 21 21 22 22 23 23
REMARK SMILES IDX 24 24
REMARK H PARENT
REMARK Flexibility Score: inf
ROOT
ATOM      1  C   UNL     1      21.910  29.137  46.493  1.00  0.00     0.000 C 
ENDROOT
BRANCH   1   2
ATOM      2  C   UNL     1      21.391  27.735  46.127  1.00  0.00     0.000 C 
BRANCH   2   3
ATOM      3  C   UNL     1      22.489  26.687  45.856  1.00  0.00     0.000 C 
BRANCH   3   4
ATOM      4  C   UNL     1      22.769  25.720  47.023  1.00  0.00    -0.000 C 
BRANCH   4   5
ATOM      5  C   UNL     1      24.143  25.897  47.703  1.00  0.00    -0.000 C 
BRANCH   5   6
ATOM      6  C   UNL     1      24.174  26.902  48.867  1.00  0.00    -0.000 C 
BRANCH   6   7
ATOM      7  C   UNL     1      22.802  27.086  49.536  1.00  0.00    -0.000 C 
BRANCH   7   8
ATOM      8  C   UNL     1      22.819  28.130  50.668  1.00  0.00    -0.000 C 
BRANCH   8   9
ATOM      9  C   UNL     1      22.565  29.582  50.223  1.00  0.00    -0.000 C 
BRANCH   9  10
ATOM     10  C   UNL     1      21.427  30.259  51.005  1.00  0.00    -0.000 C 
BRANCH  10  11
ATOM     11  C   UNL     1      21.176  31.704  50.548  1.00  0.00    -0.003 C 
ATOM     12  C   UNL     1      21.173  31.847  49.026  1.00  0.00     0.004 C 
ENDBRANCH  10  11
ENDBRANCH   9  10
ENDBRANCH   8   9
ENDBRANCH   7   8
ENDBRANCH   6   7
ENDBRANCH   5   6
ENDBRANCH   4   5
ENDBRANCH   3   4
ENDBRANCH   2   3
ENDBRANCH   1   2
BRANCH   1  13
ATOM     13  C   UNL     1      23.390  29.339  46.127  1.00  0.00     0.000 C 
BRANCH  13  14
ATOM     14  C   UNL     1      24.121  30.254  47.120  1.00  0.00     0.000 C 
BRANCH  14  15
ATOM     15  C   UNL     1      24.278  31.690  46.592  1.00  0.00     0.000 C 
BRANCH  15  16
ATOM     16  C   UNL     1      24.440  31.751  45.062  1.00  0.00     0.000 C 
BRANCH  16  17
ATOM     17  C   UNL     1      25.887  31.937  44.569  1.00  0.00     0.000 C 
BRANCH  17  18
ATOM     18  C   UNL     1      26.059  31.603  43.076  1.00  0.00     0.000 C 
BRANCH  18  19
ATOM     19  C   UNL     1      26.547  30.162  42.849  1.00  0.00     0.000 C 
BRANCH  19  20
ATOM     20  C   UNL     1      25.627  29.367  41.906  1.00  0.00     0.006 C 
BRANCH  20  21
ATOM     21  C   UNL     1      24.359  28.873  42.615  1.00  0.00     0.053 C 
BRANCH  21  22
ATOM     22  C   UNL     1      23.146  29.631  42.169  1.00  0.00     0.041 C 
ATOM     23  O   UNL     1      23.194  30.363  41.145  1.00  0.00    -0.550 OA
ATOM     24  O   UNL     1      21.969  29.554  42.904  1.00  0.00    -0.550 OA
ENDBRANCH  21  22
ENDBRANCH  20  21
ENDBRANCH  19  20
ENDBRANCH  18  19
ENDBRANCH  17  18
ENDBRANCH  16  17
ENDBRANCH  15  16
ENDBRANCH  14  15
ENDBRANCH  13  14
ENDBRANCH   1  13
TORSDOF 20
ENDMDL
MODEL 6
REMARK VINA RESULT:    -2.799      3.377      6.514
REMARK INTER + INTRA:          -9.397
REMARK INTER:                  -5.455
REMARK INTRA:                  -3.942
REMARK UNBOUND:                -3.325
REMARK SMILES CCCCCCCCCCCCCCCCCCCCCC(=O)[O-]
REMARK SMILES IDX 12 1 11 2 10 3 9 4 8 5 7 6 6 7 5 8 4 9 3 10 2 11 1 12 13 13
REMARK SMILES IDX 14 14 15 15 16 16 17 17 18 18 19 19 20 20 21 21 22 22 23 23
REMARK SMILES IDX 24 24
REMARK H PARENT
REMARK Flexibility Score: inf
ROOT
ATOM      1  C   UNL     1      22.477  28.790  50.703  1.00  0.00     0.000 C 
ENDROOT
BRANCH   1   2
ATOM      2  C   UNL     1      21.911  30.216  50.589  1.00  0.00     0.000 C 
BRANCH   2   3
ATOM      3  C   UNL     1      20.404  30.342  50.891  1.00  0.00     0.000 C 
BRANCH   3   4
ATOM      4  C   UNL     1      19.789  31.720  50.579  1.00  0.00    -0.000 C 
BRANCH   4   5
ATOM      5  C   UNL     1      20.766  32.749  49.972  1.00  0.00    -0.000 C 
BRANCH   5   6
ATOM      6  C   UNL     1      20.419  33.221  48.549  1.00  0.00    -0.000 C 
BRANCH   6   7
ATOM      7  C   UNL     1      20.974  32.290  47.458  1.00  0.00    -0.000 C 
BRANCH   7   8
ATOM      8  C   UNL     1      19.875  31.699  46.555  1.00  0.00    -0.000 C 
BRANCH   8   9
ATOM      9  C   UNL     1      18.934  30.694  47.244  1.00  0.00    -0.000 C 
BRANCH   9  10
ATOM     10  C   UNL     1      19.528  29.278  47.333  1.00  0.00    -0.000 C 
BRANCH  10  11
ATOM     11  C   UNL     1      20.306  28.886  46.067  1.00  0.00    -0.003 C 
ATOM     12  C   UNL     1      20.273  27.382  45.798  1.00  0.00     0.004 C 
ENDBRANCH  10  11
ENDBRANCH   9  10
ENDBRANCH   8   9
ENDBRANCH   7   8
ENDBRANCH   6   7
ENDBRANCH   5   6
ENDBRANCH   4   5
ENDBRANCH   3   4
ENDBRANCH   2   3
ENDBRANCH   1   2
BRANCH   1  13
ATOM     13  C   UNL     1      21.607  27.744  49.984  1.00  0.00     0.000 C 
BRANCH  13  14
ATOM     14  C   UNL     1      22.392  26.956  48.924  1.00  0.00     0.000 C 
BRANCH  14  15
ATOM     15  C   UNL     1      23.716  27.641  48.543  1.00  0.00     0.000 C 
BRANCH  15  16
ATOM     16  C   UNL     1      23.609  28.470  47.250  1.00  0.00     0.000 C 
BRANCH  16  17
ATOM     17  C   UNL     1      23.732  29.993  47.441  1.00  0.00     0.000 C 
BRANCH  17  18
ATOM     18  C   UNL     1      24.345  30.703  46.221  1.00  0.00     0.000 C 
BRANCH  18  19
ATOM     19  C   UNL     1      24.092  29.941  44.910  1.00  0.00     0.000 C 
BRANCH  19  20
ATOM     20  C   UNL     1      22.906  30.510  44.112  1.00  0.00     0.006 C 
BRANCH  20  21
ATOM     21  C   UNL     1      22.783  32.032  44.265  1.00  0.00     0.053 C 
BRANCH  21  22
ATOM     22  C   UNL     1      23.525  32.758  43.185  1.00  0.00     0.041 C 
ATOM     23  O   UNL     1      22.911  33.196  42.176  1.00  0.00    -0.550 OA
ATOM     24  O   UNL     1      24.902  32.923  43.277  1.00  0.00    -0.550 OA
ENDBRANCH  21  22
ENDBRANCH  20  21
ENDBRANCH  19  20
ENDBRANCH  18  19
ENDBRANCH  17  18
ENDBRANCH  16  17
ENDBRANCH  15  16
ENDBRANCH  14  15
ENDBRANCH  13  14
ENDBRANCH   1  13
TORSDOF 20
ENDMDL
MODEL 7
REMARK VINA RESULT:    -2.764      2.349      6.348
REMARK INTER + INTRA:          -9.321
REMARK INTER:                  -5.246
REMARK INTRA:                  -4.075
REMARK UNBOUND:                -3.325
REMARK SMILES CCCCCCCCCCCCCCCCCCCCCC(=O)[O-]
REMARK SMILES IDX 12 1 11 2 10 3 9 4 8 5 7 6 6 7 5 8 4 9 3 10 2 11 1 12 13 13
REMARK SMILES IDX 14 14 15 15 16 16 17 17 18 18 19 19 20 20 21 21 22 22 23 23
REMARK SMILES IDX 24 24
REMARK H PARENT
REMARK Flexibility Score: inf
ROOT
ATOM      1  C   UNL     1      24.064  30.297  47.240  1.00  0.00     0.000 C 
ENDROOT
BRANCH   1   2
ATOM      2  C   UNL     1      22.624  29.755  47.259  1.00  0.00     0.000 C 
BRANCH   2   3
ATOM      3  C   UNL     1      21.525  30.831  47.154  1.00  0.00     0.000 C 
BRANCH   3   4
ATOM      4  C   UNL     1      20.573  30.912  48.364  1.00  0.00    -0.000 C 
BRANCH   4   5
ATOM      5  C   UNL     1      20.989  31.919  49.456  1.00  0.00    -0.000 C 
BRANCH   5   6
ATOM      6  C   UNL     1      21.503  31.293  50.764  1.00  0.00    -0.000 C 
BRANCH   6   7
ATOM      7  C   UNL     1      21.286  29.772  50.825  1.00  0.00    -0.000 C 
BRANCH   7   8
ATOM      8  C   UNL     1      22.601  28.973  50.761  1.00  0.00    -0.000 C 
BRANCH   8   9
ATOM      9  C   UNL     1      22.456  27.509  50.309  1.00  0.00    -0.000 C 
BRANCH   9  10
ATOM     10  C   UNL     1      21.076  27.203  49.699  1.00  0.00    -0.000 C 
BRANCH  10  11
ATOM     11  C   UNL     1      21.175  26.636  48.275  1.00  0.00    -0.003 C 
ATOM     12  C   UNL     1      22.559  26.068  47.962  1.00  0.00     0.004 C 
ENDBRANCH  10  11
ENDBRANCH   9  10
ENDBRANCH   8   9
ENDBRANCH   7   8
ENDBRANCH   6   7
ENDBRANCH   5   6
ENDBRANCH   4   5
ENDBRANCH   3   4
ENDBRANCH   2   3
ENDBRANCH   1   2
BRANCH   1  13
ATOM     13  C   UNL     1      24.173  31.679  46.572  1.00  0.00     0.000 C 
BRANCH  13  14
ATOM     14  C   UNL     1      25.269  31.727  45.498  1.00  0.00     0.000 C 
BRANCH  14  15
ATOM     15  C   UNL     1      24.749  32.255  44.150  1.00  0.00     0.000 C 
BRANCH  15  16
ATOM     16  C   UNL     1      23.222  32.126  44.006  1.00  0.00     0.000 C 
BRANCH  16  17
ATOM     17  C   UNL     1      22.751  31.087  42.972  1.00  0.00     0.000 C 
BRANCH  17  18
ATOM     18  C   UNL     1      22.291  29.767  43.617  1.00  0.00     0.000 C 
BRANCH  18  19
ATOM     19  C   UNL     1      23.430  28.741  43.732  1.00  0.00     0.000 C 
BRANCH  19  20
ATOM     20  C   UNL     1      23.003  27.462  44.473  1.00  0.00     0.006 C 
BRANCH  20  21
ATOM     21  C   UNL     1      21.479  27.351  44.605  1.00  0.00     0.053 C 
BRANCH  21  22
ATOM     22  C   UNL     1      20.979  26.013  44.153  1.00  0.00     0.041 C 
ATOM     23  O   UNL     1      21.064  25.012  44.913  1.00  0.00    -0.550 OA
ATOM     24  O   UNL     1      20.449  25.864  42.877  1.00  0.00    -0.550 OA
ENDBRANCH  21  22
ENDBRANCH  20  21
ENDBRANCH  19  20
ENDBRANCH  18  19
ENDBRANCH  17  18
ENDBRANCH  16  17
ENDBRANCH  15  16
ENDBRANCH  14  15
ENDBRANCH  13  14
ENDBRANCH   1  13
TORSDOF 20
ENDMDL
MODEL 8
REMARK VINA RESULT:    -2.729      2.940      6.429
REMARK INTER + INTRA:          -9.246
REMARK INTER:                  -5.404
REMARK INTRA:                  -3.842
REMARK UNBOUND:                -3.325
REMARK SMILES CCCCCCCCCCCCCCCCCCCCCC(=O)[O-]
REMARK SMILES IDX 12 1 11 2 10 3 9 4 8 5 7 6 6 7 5 8 4 9 3 10 2 11 1 12 13 13
REMARK SMILES IDX 14 14 15 15 16 16 17 17 18 18 19 19 20 20 21 21 22 22 23 23
REMARK SMILES IDX 24 24
REMARK H PARENT
REMARK Flexibility Score: inf
ROOT
ATOM      1  C   UNL     1      19.672  29.542  45.939  1.00  0.00     0.000 C 
ENDROOT
BRANCH   1   2
ATOM      2  C   UNL     1      20.194  29.952  47.327  1.00  0.00     0.000 C 
BRANCH   2   3
ATOM      3  C   UNL     1      19.265  30.896  48.116  1.00  0.00     0.000 C 
BRANCH   3   4
ATOM      4  C   UNL     1      19.827  31.386  49.466  1.00  0.00    -0.000 C 
BRANCH   4   5
ATOM      5  C   UNL     1      21.359  31.278  49.613  1.00  0.00    -0.000 C 
BRANCH   5   6
ATOM      6  C   UNL     1      21.846  30.542  50.873  1.00  0.00    -0.000 C 
BRANCH   6   7
ATOM      7  C   UNL     1      22.623  29.254  50.552  1.00  0.00    -0.000 C 
BRANCH   7   8
ATOM      8  C   UNL     1      21.709  28.094  50.116  1.00  0.00    -0.000 C 
BRANCH   8   9
ATOM      9  C   UNL     1      22.296  26.686  50.325  1.00  0.00    -0.000 C 
BRANCH   9  10
ATOM     10  C   UNL     1      23.817  26.630  50.101  1.00  0.00    -0.000 C 
BRANCH  10  11
ATOM     11  C   UNL     1      24.311  25.215  49.763  1.00  0.00    -0.003 C 
ATOM     12  C   UNL     1      25.186  25.180  48.511  1.00  0.00     0.004 C 
ENDBRANCH  10  11
ENDBRANCH   9  10
ENDBRANCH   8   9
ENDBRANCH   7   8
ENDBRANCH   6   7
ENDBRANCH   5   6
ENDBRANCH   4   5
ENDBRANCH   3   4
ENDBRANCH   2   3
ENDBRANCH   1   2
BRANCH   1  13
ATOM     13  C   UNL     1      19.735  28.024  45.702  1.00  0.00     0.000 C 
BRANCH  13  14
ATOM     14  C   UNL     1      20.125  27.248  46.970  1.00  0.00     0.000 C 
BRANCH  14  15
ATOM     15  C   UNL     1      21.265  26.246  46.718  1.00  0.00     0.000 C 
BRANCH  15  16
ATOM     16  C   UNL     1      22.451  26.867  45.960  1.00  0.00     0.000 C 
BRANCH  16  17
ATOM     17  C   UNL     1      23.329  27.819  46.793  1.00  0.00     0.000 C 
BRANCH  17  18
ATOM     18  C   UNL     1      23.467  29.215  46.159  1.00  0.00     0.000 C 
BRANCH  18  19
ATOM     19  C   UNL     1      23.898  30.283  47.178  1.00  0.00     0.000 C 
BRANCH  19  20
ATOM     20  C   UNL     1      23.797  31.712  46.617  1.00  0.00     0.006 C 
BRANCH  20  21
ATOM     21  C   UNL     1      23.464  31.724  45.119  1.00  0.00     0.053 C 
BRANCH  21  22
ATOM     22  C   UNL     1      24.644  32.137  44.293  1.00  0.00     0.041 C 
ATOM     23  O   UNL     1      25.783  31.653  44.526  1.00  0.00    -0.550 OA
ATOM     24  O   UNL     1      24.491  33.082  43.286  1.00  0.00    -0.550 OA
ENDBRANCH  21  22
ENDBRANCH  20  21
ENDBRANCH  19  20
ENDBRANCH  18  19
ENDBRANCH  17  18
ENDBRANCH  16  17
ENDBRANCH  15  16
ENDBRANCH  14  15
ENDBRANCH  13  14
ENDBRANCH   1  13
TORSDOF 20
ENDMDL
MODEL 9
REMARK VINA RESULT:    -2.723      2.541      6.524
REMARK INTER + INTRA:          -9.231
REMARK INTER:                  -5.721
REMARK INTRA:                  -3.510
REMARK UNBOUND:                -3.325
REMARK SMILES CCCCCCCCCCCCCCCCCCCCCC(=O)[O-]
REMARK SMILES IDX 12 1 11 2 10 3 9 4 8 5 7 6 6 7 5 8 4 9 3 10 2 11 1 12 13 13
REMARK SMILES IDX 14 14 15 15 16 16 17 17 18 18 19 19 20 20 21 21 22 22 23 23
REMARK SMILES IDX 24 24
REMARK H PARENT
REMARK Flexibility Score: inf
ROOT
ATOM      1  C   UNL     1      22.661  30.670  47.446  1.00  0.00     0.000 C 
ENDROOT
BRANCH   1   2
ATOM      2  C   UNL     1      22.206  32.139  47.504  1.00  0.00     0.000 C 
BRANCH   2   3
ATOM      3  C   UNL     1      20.795  32.358  48.084  1.00  0.00     0.000 C 
BRANCH   3   4
ATOM      4  C   UNL     1      20.748  32.634  49.600  1.00  0.00    -0.000 C 
BRANCH   4   5
ATOM      5  C   UNL     1      19.727  31.786  50.387  1.00  0.00    -0.000 C 
BRANCH   5   6
ATOM      6  C   UNL     1      20.236  30.409  50.848  1.00  0.00    -0.000 C 
BRANCH   6   7
ATOM      7  C   UNL     1      21.756  30.378  51.078  1.00  0.00    -0.000 C 
BRANCH   7   8
ATOM      8  C   UNL     1      22.389  29.017  50.737  1.00  0.00    -0.000 C 
BRANCH   8   9
ATOM      9  C   UNL     1      21.457  28.024  50.018  1.00  0.00    -0.000 C 
BRANCH   9  10
ATOM     10  C   UNL     1      22.172  27.217  48.920  1.00  0.00    -0.000 C 
BRANCH  10  11
ATOM     11  C   UNL     1      23.694  27.429  48.931  1.00  0.00    -0.003 C 
ATOM     12  C   UNL     1      24.468  26.130  49.152  1.00  0.00     0.004 C 
ENDBRANCH  10  11
ENDBRANCH   9  10
ENDBRANCH   8   9
ENDBRANCH   7   8
ENDBRANCH   6   7
ENDBRANCH   5   6
ENDBRANCH   4   5
ENDBRANCH   3   4
ENDBRANCH   2   3
ENDBRANCH   1   2
BRANCH   1  13
ATOM     13  C   UNL     1      24.124  30.516  46.998  1.00  0.00     0.000 C 
BRANCH  13  14
ATOM     14  C   UNL     1      24.642  31.754  46.250  1.00  0.00     0.000 C 
BRANCH  14  15
ATOM     15  C   UNL     1      25.437  31.388  44.985  1.00  0.00     0.000 C 
BRANCH  15  16
ATOM     16  C   UNL     1      24.536  31.166  43.756  1.00  0.00     0.000 C 
BRANCH  16  17
ATOM     17  C   UNL     1      24.339  29.693  43.351  1.00  0.00     0.000 C 
BRANCH  17  18
ATOM     18  C   UNL     1      22.947  29.151  43.721  1.00  0.00     0.000 C 
BRANCH  18  19
ATOM     19  C   UNL     1      21.907  30.271  43.893  1.00  0.00     0.000 C 
BRANCH  19  20
ATOM     20  C   UNL     1      20.484  29.729  44.110  1.00  0.00     0.006 C 
BRANCH  20  21
ATOM     21  C   UNL     1      20.378  28.869  45.375  1.00  0.00     0.053 C 
BRANCH  21  22
ATOM     22  C   UNL     1      19.380  29.427  46.343  1.00  0.00     0.041 C 
ATOM     23  O   UNL     1      19.243  28.911  47.483  1.00  0.00    -0.550 OA
ATOM     24  O   UNL     1      18.578  30.499  45.973  1.00  0.00    -0.550 OA
ENDBRANCH  21  22
ENDBRANCH  20  21
ENDBRANCH  19  20
ENDBRANCH  18  19
ENDBRANCH  17  18
ENDBRANCH  16  17
ENDBRANCH  15  16
ENDBRANCH  14  15
ENDBRANCH  13  14
ENDBRANCH   1  13
TORSDOF 20
ENDMDL
