MODEL 1
REMARK VINA RESULT:    -3.702      0.000      0.000
REMARK INTER + INTRA:          -4.042
REMARK INTER:                  -4.027
REMARK INTRA:                  -0.014
REMARK UNBOUND:                -0.014
REMARK SMILES OCc1ccccc1
REMARK SMILES IDX 2 1 3 2 6 3 5 4 7 5 4 6 8 7 1 8
REMARK H PARENT 1 9
REMARK Flexibility Score: inf
ROOT
ATOM      1  C   UNL     1      18.784  98.757   8.613  1.00  0.00     0.191 C 
ENDROOT
BRANCH   1   2
ATOM      2  C   UNL     1      17.848  97.583   8.707  1.00  0.00    -0.023 A 
ATOM      3  C   UNL     1      16.127  95.380   8.955  1.00  0.00     0.000 A 
ATOM      4  C   UNL     1      17.399  95.215   8.398  1.00  0.00     0.000 A 
ATOM      5  C   UNL     1      15.717  96.640   9.397  1.00  0.00     0.000 A 
ATOM      6  C   UNL     1      18.260  96.311   8.279  1.00  0.00     0.006 A 
ATOM      7  C   UNL     1      16.574  97.739   9.280  1.00  0.00     0.006 A 
ENDBRANCH   1   2
BRANCH   1   8
ATOM      8  O   UNL     1      18.090  99.891   8.174  1.00  0.00    -0.392 OA
ATOM      9  H   UNL     1      18.662 100.325   7.487  1.00  0.00     0.211 HD
ENDBRANCH   1   8
TORSDOF 2
ENDMDL
MODEL 2
REMARK VINA RESULT:    -3.672      0.053      1.714
REMARK INTER + INTRA:          -4.008
REMARK INTER:                  -3.993
REMARK INTRA:                  -0.015
REMARK UNBOUND:                -0.014
REMARK SMILES OCc1ccccc1
REMARK SMILES IDX 2 1 3 2 6 3 5 4 7 5 4 6 8 7 1 8
REMARK H PARENT 1 9
REMARK Flexibility Score: inf
ROOT
ATOM      1  C   UNL     1      18.802  98.752   8.599  1.00  0.00     0.191 C 
ENDROOT
BRANCH   1   2
ATOM      2  C   UNL     1      17.865  97.584   8.742  1.00  0.00    -0.023 A 
ATOM      3  C   UNL     1      16.092  95.418   8.933  1.00  0.00     0.000 A 
ATOM      4  C   UNL     1      15.686  96.692   9.342  1.00  0.00     0.000 A 
ATOM      5  C   UNL     1      17.377  95.226   8.420  1.00  0.00     0.000 A 
ATOM      6  C   UNL     1      16.566  97.774   9.242  1.00  0.00     0.006 A 
ATOM      7  C   UNL     1      18.262  96.304   8.319  1.00  0.00     0.006 A 
ENDBRANCH   1   2
BRANCH   1   8
ATOM      8  O   UNL     1      18.110  99.867   8.108  1.00  0.00    -0.392 OA
ATOM      9  H   UNL     1      18.749 100.368   7.536  1.00  0.00     0.211 HD
ENDBRANCH   1   8
TORSDOF 2
ENDMDL
MODEL 3
REMARK VINA RESULT:    -3.499      2.297      3.596
REMARK INTER + INTRA:          -3.820
REMARK INTER:                  -3.804
REMARK INTRA:                  -0.017
REMARK UNBOUND:                -0.014
REMARK SMILES OCc1ccccc1
REMARK SMILES IDX 2 1 3 2 6 3 5 4 7 5 4 6 8 7 1 8
REMARK H PARENT 1 9
REMARK Flexibility Score: inf
ROOT
ATOM      1  C   UNL     1      17.627  93.948   8.580  1.00  0.00     0.191 C 
ENDROOT
BRANCH   1   2
ATOM      2  C   UNL     1      17.350  95.423   8.686  1.00  0.00    -0.023 A 
ATOM      3  C   UNL     1      16.870  98.175   8.952  1.00  0.00     0.000 A 
ATOM      4  C   UNL     1      15.922  97.253   9.406  1.00  0.00     0.000 A 
ATOM      5  C   UNL     1      18.060  97.726   8.374  1.00  0.00     0.000 A 
ATOM      6  C   UNL     1      16.162  95.881   9.279  1.00  0.00     0.006 A 
ATOM      7  C   UNL     1      18.305  96.355   8.245  1.00  0.00     0.006 A 
ENDBRANCH   1   2
BRANCH   1   8
ATOM      8  O   UNL     1      18.442  93.691   7.470  1.00  0.00    -0.392 OA
ATOM      9  H   UNL     1      18.476  92.703   7.366  1.00  0.00     0.211 HD
ENDBRANCH   1   8
TORSDOF 2
ENDMDL
MODEL 4
REMARK VINA RESULT:    -3.460      2.303      3.310
REMARK INTER + INTRA:          -3.778
REMARK INTER:                  -3.760
REMARK INTRA:                  -0.018
REMARK UNBOUND:                -0.014
REMARK SMILES OCc1ccccc1
REMARK SMILES IDX 2 1 3 2 6 3 5 4 7 5 4 6 8 7 1 8
REMARK H PARENT 1 9
REMARK Flexibility Score: inf
ROOT
ATOM      1  C   UNL     1      17.584  93.963   8.572  1.00  0.00     0.191 C 
ENDROOT
BRANCH   1   2
ATOM      2  C   UNL     1      17.379  95.447   8.717  1.00  0.00    -0.023 A 
ATOM      3  C   UNL     1      16.959  98.214   8.919  1.00  0.00     0.000 A 
ATOM      4  C   UNL     1      18.139  97.726   8.349  1.00  0.00     0.000 A 
ATOM      5  C   UNL     1      15.985  97.324   9.379  1.00  0.00     0.000 A 
ATOM      6  C   UNL     1      18.347  96.347   8.243  1.00  0.00     0.006 A 
ATOM      7  C   UNL     1      16.189  95.944   9.275  1.00  0.00     0.006 A 
ENDBRANCH   1   2
BRANCH   1   8
ATOM      8  O   UNL     1      18.429  93.699   7.487  1.00  0.00    -0.392 OA
ATOM      9  H   UNL     1      18.485  92.711   7.404  1.00  0.00     0.211 HD
ENDBRANCH   1   8
TORSDOF 2
ENDMDL
MODEL 5
REMARK VINA RESULT:    -3.165      2.183      3.133
REMARK INTER + INTRA:          -3.457
REMARK INTER:                  -3.437
REMARK INTRA:                  -0.019
REMARK UNBOUND:                -0.014
REMARK SMILES OCc1ccccc1
REMARK SMILES IDX 2 1 3 2 6 3 5 4 7 5 4 6 8 7 1 8
REMARK H PARENT 1 9
REMARK Flexibility Score: inf
ROOT
ATOM      1  C   UNL     1      14.872  97.243  10.125  1.00  0.00     0.191 C 
ENDROOT
BRANCH   1   2
ATOM      2  C   UNL     1      16.109  96.806   9.387  1.00  0.00    -0.023 A 
ATOM      3  C   UNL     1      18.379  96.008   7.944  1.00  0.00     0.000 A 
ATOM      4  C   UNL     1      17.411  95.064   8.302  1.00  0.00     0.000 A 
ATOM      5  C   UNL     1      18.211  97.349   8.296  1.00  0.00     0.000 A 
ATOM      6  C   UNL     1      16.276  95.461   9.017  1.00  0.00     0.006 A 
ATOM      7  C   UNL     1      17.078  97.751   9.011  1.00  0.00     0.006 A 
ENDBRANCH   1   2
BRANCH   1   8
ATOM      8  O   UNL     1      13.904  96.231  10.081  1.00  0.00    -0.392 OA
ATOM      9  H   UNL     1      13.365  96.318  10.911  1.00  0.00     0.211 HD
ENDBRANCH   1   8
TORSDOF 2
ENDMDL
MODEL 6
REMARK VINA RESULT:    -2.514      1.663      2.935
REMARK INTER + INTRA:          -2.749
REMARK INTER:                  -2.731
REMARK INTRA:                  -0.018
REMARK UNBOUND:                -0.014
REMARK SMILES OCc1ccccc1
REMARK SMILES IDX 2 1 3 2 6 3 5 4 7 5 4 6 8 7 1 8
REMARK H PARENT 1 9
REMARK Flexibility Score: inf
ROOT
ATOM      1  C   UNL     1      15.023  96.957  10.125  1.00  0.00     0.191 C 
ENDROOT
BRANCH   1   2
ATOM      2  C   UNL     1      16.216  96.514   9.323  1.00  0.00    -0.023 A 
ATOM      3  C   UNL     1      18.481  95.674   7.895  1.00  0.00     0.000 A 
ATOM      4  C   UNL     1      18.304  97.029   8.191  1.00  0.00     0.000 A 
ATOM      5  C   UNL     1      17.535  94.738   8.319  1.00  0.00     0.000 A 
ATOM      6  C   UNL     1      17.178  97.449   8.908  1.00  0.00     0.006 A 
ATOM      7  C   UNL     1      16.408  95.152   9.036  1.00  0.00     0.006 A 
ENDBRANCH   1   2
BRANCH   1   8
ATOM      8  O   UNL     1      14.780  98.320   9.912  1.00  0.00    -0.392 OA
ATOM      9  H   UNL     1      14.721  98.448   8.929  1.00  0.00     0.211 HD
ENDBRANCH   1   8
TORSDOF 2
ENDMDL
MODEL 7
REMARK VINA RESULT:    -1.780      1.301      2.297
REMARK INTER + INTRA:          -1.951
REMARK INTER:                  -1.931
REMARK INTRA:                  -0.020
REMARK UNBOUND:                -0.014
REMARK SMILES OCc1ccccc1
REMARK SMILES IDX 2 1 3 2 6 3 5 4 7 5 4 6 8 7 1 8
REMARK H PARENT 1 9
REMARK Flexibility Score: inf
ROOT
ATOM      1  C   UNL     1      16.368  97.972   8.946  1.00  0.00     0.191 C 
ENDROOT
BRANCH   1   2
ATOM      2  C   UNL     1      16.883  96.573   8.740  1.00  0.00    -0.023 A 
ATOM      3  C   UNL     1      17.814  93.966   8.285  1.00  0.00     0.000 A 
ATOM      4  C   UNL     1      16.561  94.168   8.871  1.00  0.00     0.000 A 
ATOM      5  C   UNL     1      18.598  95.062   7.916  1.00  0.00     0.000 A 
ATOM      6  C   UNL     1      16.094  95.467   9.094  1.00  0.00     0.006 A 
ATOM      7  C   UNL     1      18.135  96.363   8.137  1.00  0.00     0.006 A 
ENDBRANCH   1   2
BRANCH   1   8
ATOM      8  O   UNL     1      17.324  98.903   8.521  1.00  0.00    -0.392 OA
ATOM      9  H   UNL     1      16.953  99.803   8.720  1.00  0.00     0.211 HD
ENDBRANCH   1   8
TORSDOF 2
ENDMDL
MODEL 8
REMARK VINA RESULT:    -0.722     10.963     11.090
REMARK INTER + INTRA:          -0.800
REMARK INTER:                  -0.786
REMARK INTRA:                  -0.014
REMARK UNBOUND:                -0.014
REMARK SMILES OCc1ccccc1
REMARK SMILES IDX 2 1 3 2 6 3 5 4 7 5 4 6 8 7 1 8
REMARK H PARENT 1 9
REMARK Flexibility Score: inf
ROOT
ATOM      1  C   UNL     1      12.710 100.537  -1.637  1.00  0.00     0.191 C 
ENDROOT
BRANCH   1   2
ATOM      2  C   UNL     1      12.683  99.059  -1.355  1.00  0.00    -0.023 A 
ATOM      3  C   UNL     1      12.556  96.302  -0.851  1.00  0.00     0.000 A 
ATOM      4  C   UNL     1      12.329  97.213   0.185  1.00  0.00     0.000 A 
ATOM      5  C   UNL     1      12.835  96.764  -2.139  1.00  0.00     0.000 A 
ATOM      6  C   UNL     1      12.387  98.588  -0.066  1.00  0.00     0.006 A 
ATOM      7  C   UNL     1      12.894  98.138  -2.395  1.00  0.00     0.006 A 
ENDBRANCH   1   2
BRANCH   1   8
ATOM      8  O   UNL     1      13.436 101.203  -0.641  1.00  0.00    -0.392 OA
ATOM      9  H   UNL     1      13.218 102.168  -0.728  1.00  0.00     0.211 HD
ENDBRANCH   1   8
TORSDOF 2
ENDMDL
