MODEL 1
REMARK VINA RESULT:    -5.055      0.000      0.000
REMARK INTER + INTRA:          -7.428
REMARK INTER:                  -6.828
REMARK INTRA:                  -0.601
REMARK UNBOUND:                -0.601
REMARK SMILES COc1ccc(-c2cc(=O)c3c(OC)c(OC)c(OC)c(OC)c3o2)cc1
REMARK SMILES IDX 7 1 8 2 9 3 10 4 11 5 24 6 25 7 21 8 18 9 15 10 12 11 6 12
REMARK SMILES IDX 3 13 4 14 27 15 5 16 26 17 2 18 1 19 22 20 23 21 13 22 14 23
REMARK SMILES IDX 19 24 20 25 16 26 17 27
REMARK H PARENT
REMARK Flexibility Score: inf
ROOT
ATOM      1  C   UNL     1      14.501  49.706  33.181  1.00  0.00     0.138 A 
ATOM      2  C   UNL     1      15.439  49.579  32.147  1.00  0.00     0.100 A 
ATOM      3  C   UNL     1      15.699  48.318  31.611  1.00  0.00     0.197 A 
ATOM      4  O   UNL     1      16.547  48.223  30.683  1.00  0.00    -0.289 OA
ATOM      5  C   UNL     1      15.012  47.187  32.108  1.00  0.00     0.115 A 
ATOM      6  C   UNL     1      14.066  47.402  33.135  1.00  0.00     0.188 A 
ATOM      7  O   UNL     1      13.860  48.625  33.615  1.00  0.00    -0.452 OA
ATOM      8  C   UNL     1      13.328  46.342  33.667  1.00  0.00     0.209 A 
ATOM      9  C   UNL     1      13.512  45.042  33.154  1.00  0.00     0.211 A 
ATOM     10  C   UNL     1      14.521  44.791  32.194  1.00  0.00     0.208 A 
ATOM     11  C   UNL     1      15.246  45.872  31.630  1.00  0.00     0.179 A 
ENDROOT
BRANCH   1  12
ATOM     12  C   UNL     1      14.187  51.018  33.801  1.00  0.00     0.018 A 
ATOM     13  C   UNL     1      13.663  53.531  34.979  1.00  0.00     0.118 A 
ATOM     14  C   UNL     1      12.869  53.063  33.928  1.00  0.00     0.047 A 
ATOM     15  C   UNL     1      14.729  52.737  35.439  1.00  0.00     0.047 A 
ATOM     16  C   UNL     1      13.126  51.821  33.339  1.00  0.00     0.016 A 
ATOM     17  C   UNL     1      14.990  51.496  34.850  1.00  0.00     0.016 A 
BRANCH  13  18
ATOM     18  O   UNL     1      13.365  54.787  35.531  1.00  0.00    -0.497 OA
ATOM     19  C   UNL     1      12.086  55.163  36.029  1.00  0.00     0.278 C 
ENDBRANCH  13  18
ENDBRANCH   1  12
BRANCH   8  20
ATOM     20  O   UNL     1      12.419  46.650  34.698  1.00  0.00    -0.490 OA
ATOM     21  C   UNL     1      11.018  46.859  34.548  1.00  0.00     0.278 C 
ENDBRANCH   8  20
BRANCH  11  22
ATOM     22  O   UNL     1      16.209  45.696  30.615  1.00  0.00    -0.492 OA
ATOM     23  C   UNL     1      17.469  45.043  30.726  1.00  0.00     0.278 C 
ENDBRANCH  11  22
BRANCH   9  24
ATOM     24  O   UNL     1      12.664  44.009  33.553  1.00  0.00    -0.490 OA
ATOM     25  C   UNL     1      12.957  43.221  34.702  1.00  0.00     0.279 C 
ENDBRANCH   9  24
BRANCH  10  26
ATOM     26  O   UNL     1      14.823  43.479  31.797  1.00  0.00    -0.490 OA
ATOM     27  C   UNL     1      14.240  42.815  30.678  1.00  0.00     0.278 C 
ENDBRANCH  10  26
TORSDOF 6
ENDMDL
MODEL 2
REMARK VINA RESULT:    -4.858      2.450      4.739
REMARK INTER + INTRA:          -7.162
REMARK INTER:                  -6.473
REMARK INTRA:                  -0.690
REMARK UNBOUND:                -0.601
REMARK SMILES COc1ccc(-c2cc(=O)c3c(OC)c(OC)c(OC)c(OC)c3o2)cc1
REMARK SMILES IDX 7 1 8 2 9 3 10 4 11 5 24 6 25 7 21 8 18 9 15 10 12 11 6 12
REMARK SMILES IDX 3 13 4 14 27 15 5 16 26 17 2 18 1 19 22 20 23 21 13 22 14 23
REMARK SMILES IDX 19 24 20 25 16 26 17 27
REMARK H PARENT
REMARK Flexibility Score: inf
ROOT
ATOM      1  C   UNL     1      14.635  50.370  32.870  1.00  0.00     0.138 A 
ATOM      2  C   UNL     1      14.629  49.022  33.251  1.00  0.00     0.100 A 
ATOM      3  C   UNL     1      15.145  48.062  32.381  1.00  0.00     0.197 A 
ATOM      4  O   UNL     1      15.129  46.853  32.741  1.00  0.00    -0.289 OA
ATOM      5  C   UNL     1      15.672  48.456  31.130  1.00  0.00     0.115 A 
ATOM      6  C   UNL     1      15.662  49.837  30.829  1.00  0.00     0.188 A 
ATOM      7  O   UNL     1      15.153  50.712  31.693  1.00  0.00    -0.452 OA
ATOM      8  C   UNL     1      16.184  50.315  29.625  1.00  0.00     0.209 A 
ATOM      9  C   UNL     1      16.752  49.407  28.707  1.00  0.00     0.211 A 
ATOM     10  C   UNL     1      16.685  48.015  28.947  1.00  0.00     0.208 A 
ATOM     11  C   UNL     1      16.186  47.534  30.185  1.00  0.00     0.179 A 
ENDROOT
BRANCH   1  12
ATOM     12  C   UNL     1      14.092  51.438  33.746  1.00  0.00     0.018 A 
ATOM     13  C   UNL     1      13.127  53.494  35.426  1.00  0.00     0.118 A 
ATOM     14  C   UNL     1      12.500  53.224  34.205  1.00  0.00     0.047 A 
ATOM     15  C   UNL     1      14.246  52.731  35.804  1.00  0.00     0.047 A 
ATOM     16  C   UNL     1      12.976  52.209  33.369  1.00  0.00     0.016 A 
ATOM     17  C   UNL     1      14.726  51.718  34.969  1.00  0.00     0.016 A 
BRANCH  13  18
ATOM     18  O   UNL     1      12.612  54.526  36.226  1.00  0.00    -0.497 OA
ATOM     19  C   UNL     1      11.954  54.325  37.472  1.00  0.00     0.278 C 
ENDBRANCH  13  18
ENDBRANCH   1  12
BRANCH   8  20
ATOM     20  O   UNL     1      16.117  51.704  29.406  1.00  0.00    -0.490 OA
ATOM     21  C   UNL     1      15.170  52.380  28.583  1.00  0.00     0.278 C 
ENDBRANCH   8  20
BRANCH  11  22
ATOM     22  O   UNL     1      16.165  46.162  30.516  1.00  0.00    -0.492 OA
ATOM     23  C   UNL     1      17.285  45.313  30.742  1.00  0.00     0.278 C 
ENDBRANCH  11  22
BRANCH   9  24
ATOM     24  O   UNL     1      17.428  49.885  27.584  1.00  0.00    -0.490 OA
ATOM     25  C   UNL     1      18.797  50.269  27.659  1.00  0.00     0.279 C 
ENDBRANCH   9  24
BRANCH  10  26
ATOM     26  O   UNL     1      17.099  47.097  27.969  1.00  0.00    -0.490 OA
ATOM     27  C   UNL     1      16.249  46.536  26.971  1.00  0.00     0.278 C 
ENDBRANCH  10  26
TORSDOF 6
ENDMDL
MODEL 3
REMARK VINA RESULT:    -4.846     12.508     15.293
REMARK INTER + INTRA:          -7.147
REMARK INTER:                  -6.582
REMARK INTRA:                  -0.565
REMARK UNBOUND:                -0.601
REMARK SMILES COc1ccc(-c2cc(=O)c3c(OC)c(OC)c(OC)c(OC)c3o2)cc1
REMARK SMILES IDX 7 1 8 2 9 3 10 4 11 5 24 6 25 7 21 8 18 9 15 10 12 11 6 12
REMARK SMILES IDX 3 13 4 14 27 15 5 16 26 17 2 18 1 19 22 20 23 21 13 22 14 23
REMARK SMILES IDX 19 24 20 25 16 26 17 27
REMARK H PARENT
REMARK Flexibility Score: inf
ROOT
ATOM      1  C   UNL     1      27.723  52.914  33.233  1.00  0.00     0.138 A 
ATOM      2  C   UNL     1      27.785  54.215  33.751  1.00  0.00     0.100 A 
ATOM      3  C   UNL     1      26.965  55.206  33.212  1.00  0.00     0.197 A 
ATOM      4  O   UNL     1      27.036  56.371  33.689  1.00  0.00    -0.289 OA
ATOM      5  C   UNL     1      26.080  54.889  32.156  1.00  0.00     0.115 A 
ATOM      6  C   UNL     1      26.062  53.550  31.705  1.00  0.00     0.188 A 
ATOM      7  O   UNL     1      26.869  52.644  32.251  1.00  0.00    -0.452 OA
ATOM      8  C   UNL     1      25.201  53.147  30.682  1.00  0.00     0.209 A 
ATOM      9  C   UNL     1      24.318  54.086  30.107  1.00  0.00     0.211 A 
ATOM     10  C   UNL     1      24.388  55.448  30.478  1.00  0.00     0.208 A 
ATOM     11  C   UNL     1      25.238  55.850  31.541  1.00  0.00     0.179 A 
ENDROOT
BRANCH   1  12
ATOM     12  C   UNL     1      28.577  51.818  33.757  1.00  0.00     0.018 A 
ATOM     13  C   UNL     1      30.154  49.725  34.810  1.00  0.00     0.118 A 
ATOM     14  C   UNL     1      29.866  49.775  33.442  1.00  0.00     0.047 A 
ATOM     15  C   UNL     1      29.644  50.727  35.654  1.00  0.00     0.047 A 
ATOM     16  C   UNL     1      29.084  50.808  32.917  1.00  0.00     0.016 A 
ATOM     17  C   UNL     1      28.859  51.759  35.132  1.00  0.00     0.016 A 
BRANCH  13  18
ATOM     18  O   UNL     1      30.940  48.664  35.287  1.00  0.00    -0.497 OA
ATOM     19  C   UNL     1      30.722  47.294  34.966  1.00  0.00     0.278 C 
ENDBRANCH  13  18
ENDBRANCH   1  12
BRANCH   8  20
ATOM     20  O   UNL     1      25.263  51.796  30.288  1.00  0.00    -0.490 OA
ATOM     21  C   UNL     1      26.049  51.267  29.224  1.00  0.00     0.278 C 
ENDBRANCH   8  20
BRANCH  11  22
ATOM     22  O   UNL     1      25.296  57.180  32.009  1.00  0.00    -0.492 OA
ATOM     23  C   UNL     1      25.925  58.290  31.376  1.00  0.00     0.278 C 
ENDBRANCH  11  22
BRANCH   9  24
ATOM     24  O   UNL     1      23.339  53.661  29.210  1.00  0.00    -0.490 OA
ATOM     25  C   UNL     1      23.612  53.562  27.816  1.00  0.00     0.279 C 
ENDBRANCH   9  24
BRANCH  10  26
ATOM     26  O   UNL     1      23.632  56.417  29.799  1.00  0.00    -0.490 OA
ATOM     27  C   UNL     1      24.038  57.069  28.598  1.00  0.00     0.278 C 
ENDBRANCH  10  26
TORSDOF 6
ENDMDL
MODEL 4
REMARK VINA RESULT:    -4.767      2.887      6.935
REMARK INTER + INTRA:          -7.040
REMARK INTER:                  -6.485
REMARK INTRA:                  -0.555
REMARK UNBOUND:                -0.601
REMARK SMILES COc1ccc(-c2cc(=O)c3c(OC)c(OC)c(OC)c(OC)c3o2)cc1
REMARK SMILES IDX 7 1 8 2 9 3 10 4 11 5 24 6 25 7 21 8 18 9 15 10 12 11 6 12
REMARK SMILES IDX 3 13 4 14 27 15 5 16 26 17 2 18 1 19 22 20 23 21 13 22 14 23
REMARK SMILES IDX 19 24 20 25 16 26 17 27
REMARK H PARENT
REMARK Flexibility Score: inf
ROOT
ATOM      1  C   UNL     1      14.682  48.001  32.334  1.00  0.00     0.138 A 
ATOM      2  C   UNL     1      15.613  47.510  31.408  1.00  0.00     0.100 A 
ATOM      3  C   UNL     1      16.125  48.365  30.433  1.00  0.00     0.197 A 
ATOM      4  O   UNL     1      16.960  47.905  29.607  1.00  0.00    -0.289 OA
ATOM      5  C   UNL     1      15.706  49.715  30.391  1.00  0.00     0.115 A 
ATOM      6  C   UNL     1      14.782  50.138  31.373  1.00  0.00     0.188 A 
ATOM      7  O   UNL     1      14.320  49.279  32.278  1.00  0.00    -0.452 OA
ATOM      8  C   UNL     1      14.333  51.460  31.417  1.00  0.00     0.209 A 
ATOM      9  C   UNL     1      14.830  52.393  30.482  1.00  0.00     0.211 A 
ATOM     10  C   UNL     1      15.680  51.968  29.435  1.00  0.00     0.208 A 
ATOM     11  C   UNL     1      16.162  50.634  29.412  1.00  0.00     0.179 A 
ENDROOT
BRANCH   1  12
ATOM     12  C   UNL     1      14.093  47.139  33.389  1.00  0.00     0.018 A 
ATOM     13  C   UNL     1      12.911  45.490  35.355  1.00  0.00     0.118 A 
ATOM     14  C   UNL     1      14.245  45.301  34.980  1.00  0.00     0.047 A 
ATOM     15  C   UNL     1      12.165  46.510  34.737  1.00  0.00     0.047 A 
ATOM     16  C   UNL     1      14.834  46.112  34.005  1.00  0.00     0.016 A 
ATOM     17  C   UNL     1      12.750  47.320  33.760  1.00  0.00     0.016 A 
BRANCH  13  18
ATOM     18  O   UNL     1      12.368  44.645  36.335  1.00  0.00    -0.497 OA
ATOM     19  C   UNL     1      11.053  44.773  36.867  1.00  0.00     0.278 C 
ENDBRANCH  13  18
ENDBRANCH   1  12
BRANCH   8  20
ATOM     20  O   UNL     1      13.402  51.786  32.421  1.00  0.00    -0.490 OA
ATOM     21  C   UNL     1      13.708  52.226  33.741  1.00  0.00     0.278 C 
ENDBRANCH   8  20
BRANCH  11  22
ATOM     22  O   UNL     1      17.073  50.169  28.439  1.00  0.00    -0.492 OA
ATOM     23  C   UNL     1      18.468  50.441  28.365  1.00  0.00     0.278 C 
ENDBRANCH  11  22
BRANCH   9  24
ATOM     24  O   UNL     1      14.525  53.746  30.621  1.00  0.00    -0.490 OA
ATOM     25  C   UNL     1      15.316  54.597  31.444  1.00  0.00     0.279 C 
ENDBRANCH   9  24
BRANCH  10  26
ATOM     26  O   UNL     1      16.050  52.850  28.407  1.00  0.00    -0.490 OA
ATOM     27  C   UNL     1      17.183  53.714  28.447  1.00  0.00     0.278 C 
ENDBRANCH  10  26
TORSDOF 6
ENDMDL
MODEL 5
REMARK VINA RESULT:    -4.758      2.553      7.640
REMARK INTER + INTRA:          -7.028
REMARK INTER:                  -6.496
REMARK INTRA:                  -0.532
REMARK UNBOUND:                -0.601
REMARK SMILES COc1ccc(-c2cc(=O)c3c(OC)c(OC)c(OC)c(OC)c3o2)cc1
REMARK SMILES IDX 7 1 8 2 9 3 10 4 11 5 24 6 25 7 21 8 18 9 15 10 12 11 6 12
REMARK SMILES IDX 3 13 4 14 27 15 5 16 26 17 2 18 1 19 22 20 23 21 13 22 14 23
REMARK SMILES IDX 19 24 20 25 16 26 17 27
REMARK H PARENT
REMARK Flexibility Score: inf
ROOT
ATOM      1  C   UNL     1      13.760  48.861  33.038  1.00  0.00     0.138 A 
ATOM      2  C   UNL     1      13.835  48.877  31.639  1.00  0.00     0.100 A 
ATOM      3  C   UNL     1      14.083  50.082  30.981  1.00  0.00     0.197 A 
ATOM      4  O   UNL     1      14.146  50.077  29.721  1.00  0.00    -0.289 OA
ATOM      5  C   UNL     1      14.260  51.268  31.728  1.00  0.00     0.115 A 
ATOM      6  C   UNL     1      14.190  51.164  33.136  1.00  0.00     0.188 A 
ATOM      7  O   UNL     1      13.947  49.991  33.714  1.00  0.00    -0.452 OA
ATOM      8  C   UNL     1      14.376  52.284  33.950  1.00  0.00     0.209 A 
ATOM      9  C   UNL     1      14.662  53.532  33.359  1.00  0.00     0.211 A 
ATOM     10  C   UNL     1      14.641  53.676  31.952  1.00  0.00     0.208 A 
ATOM     11  C   UNL     1      14.486  52.532  31.126  1.00  0.00     0.179 A 
ENDROOT
BRANCH   1  12
ATOM     12  C   UNL     1      13.489  47.614  33.797  1.00  0.00     0.018 A 
ATOM     13  C   UNL     1      12.916  45.228  35.195  1.00  0.00     0.118 A 
ATOM     14  C   UNL     1      14.229  45.534  34.825  1.00  0.00     0.047 A 
ATOM     15  C   UNL     1      11.884  46.121  34.858  1.00  0.00     0.047 A 
ATOM     16  C   UNL     1      14.518  46.712  34.130  1.00  0.00     0.016 A 
ATOM     17  C   UNL     1      12.169  47.299  34.160  1.00  0.00     0.016 A 
BRANCH  13  18
ATOM     18  O   UNL     1      12.680  44.029  35.887  1.00  0.00    -0.497 OA
ATOM     19  C   UNL     1      12.699  42.738  35.288  1.00  0.00     0.278 C 
ENDBRANCH  13  18
ENDBRANCH   1  12
BRANCH   8  20
ATOM     20  O   UNL     1      14.274  52.087  35.340  1.00  0.00    -0.490 OA
ATOM     21  C   UNL     1      15.357  52.052  36.266  1.00  0.00     0.278 C 
ENDBRANCH   8  20
BRANCH  11  22
ATOM     22  O   UNL     1      14.534  52.598  29.718  1.00  0.00    -0.492 OA
ATOM     23  C   UNL     1      15.686  52.771  28.901  1.00  0.00     0.278 C 
ENDBRANCH  11  22
BRANCH   9  24
ATOM     24  O   UNL     1      15.018  54.616  34.160  1.00  0.00    -0.490 OA
ATOM     25  C   UNL     1      14.028  55.475  34.716  1.00  0.00     0.279 C 
ENDBRANCH   9  24
BRANCH  10  26
ATOM     26  O   UNL     1      14.762  54.941  31.357  1.00  0.00    -0.490 OA
ATOM     27  C   UNL     1      15.996  55.619  31.134  1.00  0.00     0.278 C 
ENDBRANCH  10  26
TORSDOF 6
ENDMDL
MODEL 6
REMARK VINA RESULT:    -4.752     11.697     14.069
REMARK INTER + INTRA:          -7.019
REMARK INTER:                  -6.332
REMARK INTRA:                  -0.687
REMARK UNBOUND:                -0.601
REMARK SMILES COc1ccc(-c2cc(=O)c3c(OC)c(OC)c(OC)c(OC)c3o2)cc1
REMARK SMILES IDX 7 1 8 2 9 3 10 4 11 5 24 6 25 7 21 8 18 9 15 10 12 11 6 12
REMARK SMILES IDX 3 13 4 14 27 15 5 16 26 17 2 18 1 19 22 20 23 21 13 22 14 23
REMARK SMILES IDX 19 24 20 25 16 26 17 27
REMARK H PARENT
REMARK Flexibility Score: inf
ROOT
ATOM      1  C   UNL     1      25.542  56.511  32.038  1.00  0.00     0.138 A 
ATOM      2  C   UNL     1      25.764  55.155  32.315  1.00  0.00     0.100 A 
ATOM      3  C   UNL     1      25.268  54.188  31.441  1.00  0.00     0.197 A 
ATOM      4  O   UNL     1      25.476  52.973  31.707  1.00  0.00    -0.289 OA
ATOM      5  C   UNL     1      24.555  54.583  30.286  1.00  0.00     0.115 A 
ATOM      6  C   UNL     1      24.394  55.970  30.067  1.00  0.00     0.188 A 
ATOM      7  O   UNL     1      24.882  56.851  30.936  1.00  0.00    -0.452 OA
ATOM      8  C   UNL     1      23.722  56.446  28.938  1.00  0.00     0.209 A 
ATOM      9  C   UNL     1      23.220  55.530  27.991  1.00  0.00     0.211 A 
ATOM     10  C   UNL     1      23.287  54.140  28.240  1.00  0.00     0.208 A 
ATOM     11  C   UNL     1      23.999  53.656  29.368  1.00  0.00     0.179 A 
ENDROOT
BRANCH   1  12
ATOM     12  C   UNL     1      26.035  57.587  32.935  1.00  0.00     0.018 A 
ATOM     13  C   UNL     1      26.909  59.670  34.630  1.00  0.00     0.118 A 
ATOM     14  C   UNL     1      27.083  58.334  35.003  1.00  0.00     0.047 A 
ATOM     15  C   UNL     1      26.290  59.963  33.402  1.00  0.00     0.047 A 
ATOM     16  C   UNL     1      26.649  57.299  34.169  1.00  0.00     0.016 A 
ATOM     17  C   UNL     1      25.853  58.931  32.567  1.00  0.00     0.016 A 
BRANCH  13  18
ATOM     18  O   UNL     1      27.358  60.671  35.506  1.00  0.00    -0.497 OA
ATOM     19  C   UNL     1      27.106  60.685  36.907  1.00  0.00     0.278 C 
ENDBRANCH  13  18
ENDBRANCH   1  12
BRANCH   8  20
ATOM     20  O   UNL     1      23.597  57.843  28.812  1.00  0.00    -0.490 OA
ATOM     21  C   UNL     1      24.446  58.697  28.050  1.00  0.00     0.278 C 
ENDBRANCH   8  20
BRANCH  11  22
ATOM     22  O   UNL     1      24.169  52.280  29.630  1.00  0.00    -0.492 OA
ATOM     23  C   UNL     1      24.890  51.336  28.846  1.00  0.00     0.278 C 
ENDBRANCH  11  22
BRANCH   9  24
ATOM     24  O   UNL     1      22.702  55.993  26.782  1.00  0.00    -0.490 OA
ATOM     25  C   UNL     1      21.362  56.465  26.689  1.00  0.00     0.279 C 
ENDBRANCH   9  24
BRANCH  10  26
ATOM     26  O   UNL     1      22.648  53.225  27.387  1.00  0.00    -0.490 OA
ATOM     27  C   UNL     1      21.285  52.824  27.503  1.00  0.00     0.278 C 
ENDBRANCH  10  26
TORSDOF 6
ENDMDL
MODEL 7
REMARK VINA RESULT:    -4.751     11.715     14.455
REMARK INTER + INTRA:          -7.019
REMARK INTER:                  -6.369
REMARK INTRA:                  -0.650
REMARK UNBOUND:                -0.601
REMARK SMILES COc1ccc(-c2cc(=O)c3c(OC)c(OC)c(OC)c(OC)c3o2)cc1
REMARK SMILES IDX 7 1 8 2 9 3 10 4 11 5 24 6 25 7 21 8 18 9 15 10 12 11 6 12
REMARK SMILES IDX 3 13 4 14 27 15 5 16 26 17 2 18 1 19 22 20 23 21 13 22 14 23
REMARK SMILES IDX 19 24 20 25 16 26 17 27
REMARK H PARENT
REMARK Flexibility Score: inf
ROOT
ATOM      1  C   UNL     1      26.596  52.286  31.615  1.00  0.00     0.138 A 
ATOM      2  C   UNL     1      26.282  51.372  30.600  1.00  0.00     0.100 A 
ATOM      3  C   UNL     1      25.417  51.757  29.576  1.00  0.00     0.197 A 
ATOM      4  O   UNL     1      25.145  50.920  28.673  1.00  0.00    -0.289 OA
ATOM      5  C   UNL     1      24.871  53.061  29.569  1.00  0.00     0.115 A 
ATOM      6  C   UNL     1      25.254  53.930  30.616  1.00  0.00     0.188 A 
ATOM      7  O   UNL     1      26.079  53.511  31.571  1.00  0.00    -0.452 OA
ATOM      8  C   UNL     1      24.779  55.242  30.671  1.00  0.00     0.209 A 
ATOM      9  C   UNL     1      23.924  55.715  29.654  1.00  0.00     0.211 A 
ATOM     10  C   UNL     1      23.455  54.834  28.652  1.00  0.00     0.208 A 
ATOM     11  C   UNL     1      23.964  53.511  28.576  1.00  0.00     0.179 A 
ENDROOT
BRANCH   1  12
ATOM     12  C   UNL     1      27.502  51.934  32.738  1.00  0.00     0.018 A 
ATOM     13  C   UNL     1      29.283  51.272  34.827  1.00  0.00     0.118 A 
ATOM     14  C   UNL     1      28.239  52.176  35.047  1.00  0.00     0.047 A 
ATOM     15  C   UNL     1      29.437  50.700  33.552  1.00  0.00     0.047 A 
ATOM     16  C   UNL     1      27.356  52.509  34.014  1.00  0.00     0.016 A 
ATOM     17  C   UNL     1      28.558  51.034  32.517  1.00  0.00     0.016 A 
BRANCH  13  18
ATOM     18  O   UNL     1      30.143  50.975  35.896  1.00  0.00    -0.497 OA
ATOM     19  C   UNL     1      30.018  49.832  36.735  1.00  0.00     0.278 C 
ENDBRANCH  13  18
ENDBRANCH   1  12
BRANCH   8  20
ATOM     20  O   UNL     1      25.202  56.029  31.759  1.00  0.00    -0.490 OA
ATOM     21  C   UNL     1      26.328  56.903  31.776  1.00  0.00     0.278 C 
ENDBRANCH   8  20
BRANCH  11  22
ATOM     22  O   UNL     1      23.595  52.610  27.556  1.00  0.00    -0.492 OA
ATOM     23  C   UNL     1      22.314  52.026  27.345  1.00  0.00     0.278 C 
ENDBRANCH  11  22
BRANCH   9  24
ATOM     24  O   UNL     1      23.583  57.066  29.604  1.00  0.00    -0.490 OA
ATOM     25  C   UNL     1      24.360  57.993  28.853  1.00  0.00     0.279 C 
ENDBRANCH   9  24
BRANCH  10  26
ATOM     26  O   UNL     1      22.479  55.247  27.731  1.00  0.00    -0.490 OA
ATOM     27  C   UNL     1      22.753  55.710  26.411  1.00  0.00     0.278 C 
ENDBRANCH  10  26
TORSDOF 6
ENDMDL
MODEL 8
REMARK VINA RESULT:    -4.698     12.537     14.501
REMARK INTER + INTRA:          -6.946
REMARK INTER:                  -6.245
REMARK INTRA:                  -0.701
REMARK UNBOUND:                -0.601
REMARK SMILES COc1ccc(-c2cc(=O)c3c(OC)c(OC)c(OC)c(OC)c3o2)cc1
REMARK SMILES IDX 7 1 8 2 9 3 10 4 11 5 24 6 25 7 21 8 18 9 15 10 12 11 6 12
REMARK SMILES IDX 3 13 4 14 27 15 5 16 26 17 2 18 1 19 22 20 23 21 13 22 14 23
REMARK SMILES IDX 19 24 20 25 16 26 17 27
REMARK H PARENT
REMARK Flexibility Score: inf
ROOT
ATOM      1  C   UNL     1      25.635  57.896  32.235  1.00  0.00     0.138 A 
ATOM      2  C   UNL     1      25.016  58.570  31.174  1.00  0.00     0.100 A 
ATOM      3  C   UNL     1      24.489  57.836  30.112  1.00  0.00     0.197 A 
ATOM      4  O   UNL     1      23.937  58.460  29.165  1.00  0.00    -0.289 OA
ATOM      5  C   UNL     1      24.579  56.425  30.118  1.00  0.00     0.115 A 
ATOM      6  C   UNL     1      25.199  55.820  31.234  1.00  0.00     0.188 A 
ATOM      7  O   UNL     1      25.690  56.567  32.219  1.00  0.00    -0.452 OA
ATOM      8  C   UNL     1      25.309  54.431  31.330  1.00  0.00     0.209 A 
ATOM      9  C   UNL     1      24.772  53.620  30.309  1.00  0.00     0.211 A 
ATOM     10  C   UNL     1      24.234  54.208  29.141  1.00  0.00     0.208 A 
ATOM     11  C   UNL     1      24.091  55.617  29.059  1.00  0.00     0.179 A 
ENDROOT
BRANCH   1  12
ATOM     12  C   UNL     1      26.224  58.620  33.390  1.00  0.00     0.018 A 
ATOM     13  C   UNL     1      27.287  60.043  35.586  1.00  0.00     0.118 A 
ATOM     14  C   UNL     1      27.284  58.644  35.583  1.00  0.00     0.047 A 
ATOM     15  C   UNL     1      26.750  60.731  34.483  1.00  0.00     0.047 A 
ATOM     16  C   UNL     1      26.757  57.935  34.499  1.00  0.00     0.016 A 
ATOM     17  C   UNL     1      26.219  60.025  33.400  1.00  0.00     0.016 A 
BRANCH  13  18
ATOM     18  O   UNL     1      27.824  60.706  36.700  1.00  0.00    -0.497 OA
ATOM     19  C   UNL     1      27.325  60.581  38.027  1.00  0.00     0.278 C 
ENDBRANCH  13  18
ENDBRANCH   1  12
BRANCH   8  20
ATOM     20  O   UNL     1      25.956  53.919  32.471  1.00  0.00    -0.490 OA
ATOM     21  C   UNL     1      27.331  53.560  32.568  1.00  0.00     0.278 C 
ENDBRANCH   8  20
BRANCH  11  22
ATOM     22  O   UNL     1      23.493  56.260  27.955  1.00  0.00    -0.492 OA
ATOM     23  C   UNL     1      22.145  56.136  27.512  1.00  0.00     0.278 C 
ENDBRANCH  11  22
BRANCH   9  24
ATOM     24  O   UNL     1      24.722  52.236  30.474  1.00  0.00    -0.490 OA
ATOM     25  C   UNL     1      25.790  51.405  30.031  1.00  0.00     0.279 C 
ENDBRANCH   9  24
BRANCH  10  26
ATOM     26  O   UNL     1      23.846  53.414  28.050  1.00  0.00    -0.490 OA
ATOM     27  C   UNL     1      24.671  53.123  26.924  1.00  0.00     0.278 C 
ENDBRANCH  10  26
TORSDOF 6
ENDMDL
MODEL 9
REMARK VINA RESULT:    -4.683      2.890      7.417
REMARK INTER + INTRA:          -6.926
REMARK INTER:                  -6.342
REMARK INTRA:                  -0.584
REMARK UNBOUND:                -0.601
REMARK SMILES COc1ccc(-c2cc(=O)c3c(OC)c(OC)c(OC)c(OC)c3o2)cc1
REMARK SMILES IDX 7 1 8 2 9 3 10 4 11 5 24 6 25 7 21 8 18 9 15 10 12 11 6 12
REMARK SMILES IDX 3 13 4 14 27 15 5 16 26 17 2 18 1 19 22 20 23 21 13 22 14 23
REMARK SMILES IDX 19 24 20 25 16 26 17 27
REMARK H PARENT
REMARK Flexibility Score: inf
ROOT
ATOM      1  C   UNL     1      13.948  48.684  32.789  1.00  0.00     0.138 A 
ATOM      2  C   UNL     1      13.296  49.905  33.010  1.00  0.00     0.100 A 
ATOM      3  C   UNL     1      13.619  51.007  32.218  1.00  0.00     0.197 A 
ATOM      4  O   UNL     1      13.023  52.097  32.433  1.00  0.00    -0.289 OA
ATOM      5  C   UNL     1      14.592  50.881  31.201  1.00  0.00     0.115 A 
ATOM      6  C   UNL     1      15.188  49.612  31.027  1.00  0.00     0.188 A 
ATOM      7  O   UNL     1      14.847  48.594  31.814  1.00  0.00    -0.452 OA
ATOM      8  C   UNL     1      16.142  49.395  30.031  1.00  0.00     0.209 A 
ATOM      9  C   UNL     1      16.499  50.454  29.169  1.00  0.00     0.211 A 
ATOM     10  C   UNL     1      15.986  51.753  29.388  1.00  0.00     0.208 A 
ATOM     11  C   UNL     1      14.991  51.965  30.378  1.00  0.00     0.179 A 
ENDROOT
BRANCH   1  12
ATOM     12  C   UNL     1      13.656  47.478  33.604  1.00  0.00     0.018 A 
ATOM     13  C   UNL     1      13.037  45.176  35.118  1.00  0.00     0.118 A 
ATOM     14  C   UNL     1      14.317  45.347  34.581  1.00  0.00     0.047 A 
ATOM     15  C   UNL     1      12.061  46.163  34.890  1.00  0.00     0.047 A 
ATOM     16  C   UNL     1      14.627  46.484  33.828  1.00  0.00     0.016 A 
ATOM     17  C   UNL     1      12.368  47.299  34.136  1.00  0.00     0.016 A 
BRANCH  13  18
ATOM     18  O   UNL     1      12.776  44.014  35.862  1.00  0.00    -0.497 OA
ATOM     19  C   UNL     1      12.704  42.705  35.309  1.00  0.00     0.278 C 
ENDBRANCH  13  18
ENDBRANCH   1  12
BRANCH   8  20
ATOM     20  O   UNL     1      16.692  48.102  29.942  1.00  0.00    -0.490 OA
ATOM     21  C   UNL     1      16.292  47.079  29.034  1.00  0.00     0.278 C 
ENDBRANCH   8  20
BRANCH  11  22
ATOM     22  O   UNL     1      14.385  53.220  30.592  1.00  0.00    -0.492 OA
ATOM     23  C   UNL     1      14.964  54.363  31.213  1.00  0.00     0.278 C 
ENDBRANCH  11  22
BRANCH   9  24
ATOM     24  O   UNL     1      17.317  50.208  28.067  1.00  0.00    -0.490 OA
ATOM     25  C   UNL     1      18.735  50.210  28.191  1.00  0.00     0.279 C 
ENDBRANCH   9  24
BRANCH  10  26
ATOM     26  O   UNL     1      16.456  52.846  28.642  1.00  0.00    -0.490 OA
ATOM     27  C   UNL     1      17.638  53.585  28.942  1.00  0.00     0.278 C 
ENDBRANCH  10  26
TORSDOF 6
ENDMDL
