MODEL 1
REMARK VINA RESULT:    15.027      0.000      0.000
REMARK INTER + INTRA:          19.625
REMARK INTER:                  20.737
REMARK INTRA:                  -1.111
REMARK UNBOUND:                -1.111
REMARK SMILES C=C(CC[C@@H](C(=O)[O-])[C@H]1CC[C@]2(C)C3=C(CC[C@]12C)[C@]1(C)CC[C@H](O)C(C)(C)[C@@H]1CC3)C(C)C
REMARK SMILES IDX 4 1 5 2 6 3 7 4 8 5 9 6 10 7 18 8 11 9 12 10 17 11 19 12
REMARK SMILES IDX 13 13 14 14 16 15 15 16 31 17 20 18 30 19 29 20 22 21 21 22
REMARK SMILES IDX 26 23 23 24 24 25 27 26 28 27 25 28 3 30 2 31 1 32 32 33
REMARK SMILES IDX 33 34 34 35
REMARK H PARENT 25 29
REMARK Flexibility Score: inf
ROOT
ATOM      1  C   UNL     1      17.562  27.294  12.708  1.00  0.00     0.014 C 
ENDROOT
BRANCH   1   2
ATOM      2  C   UNL     1      18.354  26.156  12.013  1.00  0.00     0.039 C 
BRANCH   2   3
ATOM      3  C   UNL     1      18.278  24.865  12.795  1.00  0.00     0.045 C 
ATOM      4  O   UNL     1      19.324  24.248  13.125  1.00  0.00    -0.550 OA
ATOM      5  O   UNL     1      17.045  24.321  13.125  1.00  0.00    -0.550 OA
ENDBRANCH   2   3
BRANCH   2   6
ATOM      6  C   UNL     1      18.043  26.021  10.478  1.00  0.00     0.004 C 
ATOM      7  C   UNL     1      16.719  26.657  10.072  1.00  0.00     0.006 C 
ATOM      8  C   UNL     1      19.083  26.427   9.352  1.00  0.00    -0.020 C 
ATOM      9  C   UNL     1      16.763  26.674   8.560  1.00  0.00     0.012 C 
ATOM     10  C   UNL     1      18.204  27.084   8.194  1.00  0.00    -0.006 C 
ATOM     11  C   UNL     1      19.756  25.129   8.827  1.00  0.00     0.012 C 
ATOM     12  C   UNL     1      20.208  27.383   9.852  1.00  0.00     0.012 C 
ATOM     13  C   UNL     1      18.266  28.647   8.194  1.00  0.00     0.017 C 
ATOM     14  C   UNL     1      18.541  26.608   6.759  1.00  0.00    -0.064 C 
ATOM     15  C   UNL     1      20.554  25.375   7.554  1.00  0.00     0.032 C 
ATOM     16  C   UNL     1      19.692  25.948   6.442  1.00  0.00    -0.064 C 
ATOM     17  C   UNL     1      17.630  27.018   5.627  1.00  0.00     0.032 C 
ATOM     18  C   UNL     1      20.134  25.721   4.957  1.00  0.00    -0.008 C 
ATOM     19  C   UNL     1      18.468  27.724   4.580  1.00  0.00     0.009 C 
ATOM     20  C   UNL     1      19.414  26.705   3.910  1.00  0.00     0.007 C 
ATOM     21  C   UNL     1      21.684  25.866   4.889  1.00  0.00     0.014 C 
ATOM     22  C   UNL     1      19.765  24.254   4.607  1.00  0.00     0.016 C 
ATOM     23  C   UNL     1      20.343  27.374   2.818  1.00  0.00    -0.006 C 
ATOM     24  C   UNL     1      22.310  25.840   3.486  1.00  0.00     0.033 C 
ATOM     25  C   UNL     1      21.395  26.330   2.353  1.00  0.00     0.120 C 
ATOM     26  C   UNL     1      21.030  28.676   3.322  1.00  0.00     0.014 C 
ATOM     27  C   UNL     1      19.496  27.758   1.572  1.00  0.00     0.014 C 
BRANCH  25  28
ATOM     28  O   UNL     1      22.197  26.861   1.326  1.00  0.00    -0.393 OA
ATOM     29  H   UNL     1      21.979  27.828   1.243  1.00  0.00     0.210 HD
ENDBRANCH  25  28
ENDBRANCH   2   6
ENDBRANCH   1   2
BRANCH   1  30
ATOM     30  C   UNL     1      18.025  28.702  12.296  1.00  0.00     0.031 C 
BRANCH  30  31
ATOM     31  C   UNL     1      16.892  29.698  12.448  1.00  0.00    -0.075 C 
ATOM     32  C   UNL     1      15.734  29.305  13.006  1.00  0.00     0.008 C 
BRANCH  31  33
ATOM     33  C   UNL     1      17.118  31.145  12.032  1.00  0.00     0.008 C 
ATOM     34  C   UNL     1      15.930  32.032  12.426  1.00  0.00     0.012 C 
ATOM     35  C   UNL     1      18.432  31.697  12.603  1.00  0.00     0.012 C 
ENDBRANCH  31  33
ENDBRANCH  30  31
ENDBRANCH   1  30
TORSDOF 7
ENDMDL
MODEL 2
REMARK VINA RESULT:    16.004      1.485      2.919
REMARK INTER + INTRA:          20.974
REMARK INTER:                  20.944
REMARK INTRA:                   0.030
REMARK UNBOUND:                -1.111
REMARK SMILES C=C(CC[C@@H](C(=O)[O-])[C@H]1CC[C@]2(C)C3=C(CC[C@]12C)[C@]1(C)CC[C@H](O)C(C)(C)[C@@H]1CC3)C(C)C
REMARK SMILES IDX 4 1 5 2 6 3 7 4 8 5 9 6 10 7 18 8 11 9 12 10 17 11 19 12
REMARK SMILES IDX 13 13 14 14 16 15 15 16 31 17 20 18 30 19 29 20 22 21 21 22
REMARK SMILES IDX 26 23 23 24 24 25 27 26 28 27 25 28 3 30 2 31 1 32 32 33
REMARK SMILES IDX 33 34 34 35
REMARK H PARENT 25 29
REMARK Flexibility Score: inf
ROOT
ATOM      1  C   UNL     1      16.772  27.834  12.842  1.00  0.00     0.014 C 
ENDROOT
BRANCH   1   2
ATOM      2  C   UNL     1      18.057  26.991  12.633  1.00  0.00     0.039 C 
BRANCH   2   3
ATOM      3  C   UNL     1      17.834  25.539  12.984  1.00  0.00     0.045 C 
ATOM      4  O   UNL     1      18.806  24.751  13.124  1.00  0.00    -0.550 OA
ATOM      5  O   UNL     1      16.544  25.043  13.116  1.00  0.00    -0.550 OA
ENDBRANCH   2   3
BRANCH   2   6
ATOM      6  C   UNL     1      18.751  27.240  11.245  1.00  0.00     0.004 C 
ATOM      7  C   UNL     1      20.274  27.234  11.323  1.00  0.00     0.006 C 
ATOM      8  C   UNL     1      18.380  26.419   9.940  1.00  0.00    -0.020 C 
ATOM      9  C   UNL     1      20.718  27.192   9.878  1.00  0.00     0.012 C 
ATOM     10  C   UNL     1      19.766  26.199   9.181  1.00  0.00    -0.006 C 
ATOM     11  C   UNL     1      17.440  27.298   9.070  1.00  0.00     0.012 C 
ATOM     12  C   UNL     1      17.649  25.074  10.231  1.00  0.00     0.012 C 
ATOM     13  C   UNL     1      20.351  24.763   9.382  1.00  0.00     0.017 C 
ATOM     14  C   UNL     1      19.736  26.477   7.657  1.00  0.00    -0.064 C 
ATOM     15  C   UNL     1      17.257  26.725   7.671  1.00  0.00     0.032 C 
ATOM     16  C   UNL     1      18.580  26.574   6.939  1.00  0.00    -0.064 C 
ATOM     17  C   UNL     1      21.040  26.494   6.897  1.00  0.00     0.032 C 
ATOM     18  C   UNL     1      18.576  26.581   5.374  1.00  0.00    -0.008 C 
ATOM     19  C   UNL     1      20.940  25.490   5.766  1.00  0.00     0.009 C 
ATOM     20  C   UNL     1      19.925  25.999   4.721  1.00  0.00     0.007 C 
ATOM     21  C   UNL     1      17.328  25.782   4.891  1.00  0.00     0.014 C 
ATOM     22  C   UNL     1      18.405  28.062   4.940  1.00  0.00     0.016 C 
ATOM     23  C   UNL     1      19.745  24.989   3.515  1.00  0.00    -0.006 C 
ATOM     24  C   UNL     1      17.224  25.528   3.379  1.00  0.00     0.033 C 
ATOM     25  C   UNL     1      18.564  25.475   2.631  1.00  0.00     0.120 C 
ATOM     26  C   UNL     1      19.528  23.520   3.982  1.00  0.00     0.014 C 
ATOM     27  C   UNL     1      21.020  25.001   2.626  1.00  0.00     0.014 C 
BRANCH  25  28
ATOM     28  O   UNL     1      18.417  24.645   1.505  1.00  0.00    -0.393 OA
ATOM     29  H   UNL     1      17.620  24.961   1.000  1.00  0.00     0.210 HD
ENDBRANCH  25  28
ENDBRANCH   2   6
ENDBRANCH   1   2
BRANCH   1  30
ATOM     30  C   UNL     1      17.053  29.320  13.125  1.00  0.00     0.031 C 
BRANCH  30  31
ATOM     31  C   UNL     1      16.083  30.199  12.361  1.00  0.00    -0.075 C 
ATOM     32  C   UNL     1      14.881  29.709  12.010  1.00  0.00     0.008 C 
BRANCH  31  33
ATOM     33  C   UNL     1      16.463  31.645  12.072  1.00  0.00     0.008 C 
ATOM     34  C   UNL     1      17.937  31.912  12.402  1.00  0.00     0.012 C 
ATOM     35  C   UNL     1      16.143  32.032  10.621  1.00  0.00     0.012 C 
ENDBRANCH  31  33
ENDBRANCH  30  31
ENDBRANCH   1  30
TORSDOF 7
ENDMDL
MODEL 3
REMARK VINA RESULT:    16.370      1.466      1.751
REMARK INTER + INTRA:          21.479
REMARK INTER:                  22.613
REMARK INTRA:                  -1.133
REMARK UNBOUND:                -1.111
REMARK SMILES C=C(CC[C@@H](C(=O)[O-])[C@H]1CC[C@]2(C)C3=C(CC[C@]12C)[C@]1(C)CC[C@H](O)C(C)(C)[C@@H]1CC3)C(C)C
REMARK SMILES IDX 4 1 5 2 6 3 7 4 8 5 9 6 10 7 18 8 11 9 12 10 17 11 19 12
REMARK SMILES IDX 13 13 14 14 16 15 15 16 31 17 20 18 30 19 29 20 22 21 21 22
REMARK SMILES IDX 26 23 23 24 24 25 27 26 28 27 25 28 3 30 2 31 1 32 32 33
REMARK SMILES IDX 33 34 34 35
REMARK H PARENT 25 29
REMARK Flexibility Score: inf
ROOT
ATOM      1  C   UNL     1      16.330  27.798  11.925  1.00  0.00     0.014 C 
ENDROOT
BRANCH   1   2
ATOM      2  C   UNL     1      17.773  27.475  11.457  1.00  0.00     0.039 C 
BRANCH   2   3
ATOM      3  C   UNL     1      18.657  27.074  12.615  1.00  0.00     0.045 C 
ATOM      4  O   UNL     1      19.466  27.893  13.124  1.00  0.00    -0.550 OA
ATOM      5  O   UNL     1      18.616  25.777  13.107  1.00  0.00    -0.550 OA
ENDBRANCH   2   3
BRANCH   2   6
ATOM      6  C   UNL     1      17.830  26.514  10.215  1.00  0.00     0.004 C 
ATOM      7  C   UNL     1      16.488  25.869   9.889  1.00  0.00     0.006 C 
ATOM      8  C   UNL     1      18.453  26.948   8.822  1.00  0.00    -0.020 C 
ATOM      9  C   UNL     1      16.698  25.243   8.528  1.00  0.00     0.012 C 
ATOM     10  C   UNL     1      17.515  26.274   7.722  1.00  0.00    -0.006 C 
ATOM     11  C   UNL     1      19.884  26.350   8.728  1.00  0.00     0.012 C 
ATOM     12  C   UNL     1      18.562  28.491   8.637  1.00  0.00     0.012 C 
ATOM     13  C   UNL     1      16.505  27.281   7.081  1.00  0.00     0.017 C 
ATOM     14  C   UNL     1      18.260  25.566   6.562  1.00  0.00    -0.064 C 
ATOM     15  C   UNL     1      20.457  26.462   7.322  1.00  0.00     0.032 C 
ATOM     16  C   UNL     1      19.582  25.768   6.292  1.00  0.00    -0.064 C 
ATOM     17  C   UNL     1      17.463  24.731   5.591  1.00  0.00     0.032 C 
ATOM     18  C   UNL     1      20.242  25.262   4.966  1.00  0.00    -0.008 C 
ATOM     19  C   UNL     1      17.726  25.253   4.192  1.00  0.00     0.009 C 
ATOM     20  C   UNL     1      19.186  24.942   3.798  1.00  0.00     0.007 C 
ATOM     21  C   UNL     1      21.281  26.330   4.507  1.00  0.00     0.014 C 
ATOM     22  C   UNL     1      21.008  23.959   5.324  1.00  0.00     0.016 C 
ATOM     23  C   UNL     1      19.546  25.480   2.354  1.00  0.00    -0.006 C 
ATOM     24  C   UNL     1      21.929  26.104   3.132  1.00  0.00     0.033 C 
ATOM     25  C   UNL     1      21.075  25.314   2.129  1.00  0.00     0.120 C 
ATOM     26  C   UNL     1      19.104  26.956   2.130  1.00  0.00     0.014 C 
ATOM     27  C   UNL     1      18.827  24.620   1.278  1.00  0.00     0.014 C 
BRANCH  25  28
ATOM     28  O   UNL     1      21.427  25.713   0.827  1.00  0.00    -0.393 OA
ATOM     29  H   UNL     1      21.719  26.663   0.871  1.00  0.00     0.210 HD
ENDBRANCH  25  28
ENDBRANCH   2   6
ENDBRANCH   1   2
BRANCH   1  30
ATOM     30  C   UNL     1      16.276  28.762  13.123  1.00  0.00     0.031 C 
BRANCH  30  31
ATOM     31  C   UNL     1      16.105  30.190  12.649  1.00  0.00    -0.075 C 
ATOM     32  C   UNL     1      15.044  30.905  13.064  1.00  0.00     0.008 C 
BRANCH  31  33
ATOM     33  C   UNL     1      17.180  30.812  11.768  1.00  0.00     0.008 C 
ATOM     34  C   UNL     1      16.644  32.033  11.009  1.00  0.00     0.012 C 
ATOM     35  C   UNL     1      18.433  31.172  12.578  1.00  0.00     0.012 C 
ENDBRANCH  31  33
ENDBRANCH  30  31
ENDBRANCH   1  30
TORSDOF 7
ENDMDL
MODEL 4
REMARK VINA RESULT:    17.117      1.935      8.355
REMARK INTER + INTRA:          22.510
REMARK INTER:                  17.003
REMARK INTRA:                   5.507
REMARK UNBOUND:                -1.111
REMARK SMILES C=C(CC[C@@H](C(=O)[O-])[C@H]1CC[C@]2(C)C3=C(CC[C@]12C)[C@]1(C)CC[C@H](O)C(C)(C)[C@@H]1CC3)C(C)C
REMARK SMILES IDX 4 1 5 2 6 3 7 4 8 5 9 6 10 7 18 8 11 9 12 10 17 11 19 12
REMARK SMILES IDX 13 13 14 14 16 15 15 16 31 17 20 18 30 19 29 20 22 21 21 22
REMARK SMILES IDX 26 23 23 24 24 25 27 26 28 27 25 28 3 30 2 31 1 32 32 33
REMARK SMILES IDX 33 34 34 35
REMARK H PARENT 25 29
REMARK Flexibility Score: inf
ROOT
ATOM      1  C   UNL     1      19.375  26.669   1.785  1.00  0.00     0.014 C 
ENDROOT
BRANCH   1   2
ATOM      2  C   UNL     1      20.562  26.210   2.671  1.00  0.00     0.039 C 
BRANCH   2   3
ATOM      3  C   UNL     1      21.679  27.228   2.677  1.00  0.00     0.045 C 
ATOM      4  O   UNL     1      22.882  26.866   2.758  1.00  0.00    -0.550 OA
ATOM      5  O   UNL     1      21.387  28.584   2.637  1.00  0.00    -0.550 OA
ENDBRANCH   2   3
BRANCH   2   6
ATOM      6  C   UNL     1      20.124  25.697   4.090  1.00  0.00     0.004 C 
ATOM      7  C   UNL     1      21.043  24.618   4.652  1.00  0.00     0.006 C 
ATOM      8  C   UNL     1      19.813  26.675   5.300  1.00  0.00    -0.020 C 
ATOM      9  C   UNL     1      20.623  24.490   6.100  1.00  0.00     0.012 C 
ATOM     10  C   UNL     1      20.387  25.933   6.590  1.00  0.00    -0.006 C 
ATOM     11  C   UNL     1      18.271  26.817   5.419  1.00  0.00     0.012 C 
ATOM     12  C   UNL     1      20.416  28.102   5.124  1.00  0.00     0.012 C 
ATOM     13  C   UNL     1      21.764  26.505   7.060  1.00  0.00     0.017 C 
ATOM     14  C   UNL     1      19.445  25.925   7.821  1.00  0.00    -0.064 C 
ATOM     15  C   UNL     1      17.860  27.499   6.717  1.00  0.00     0.032 C 
ATOM     16  C   UNL     1      18.366  26.751   7.940  1.00  0.00    -0.064 C 
ATOM     17  C   UNL     1      19.817  25.076   9.012  1.00  0.00     0.032 C 
ATOM     18  C   UNL     1      17.597  26.918   9.293  1.00  0.00    -0.008 C 
ATOM     19  C   UNL     1      19.866  25.972  10.233  1.00  0.00     0.009 C 
ATOM     20  C   UNL     1      18.438  26.445  10.578  1.00  0.00     0.007 C 
ATOM     21  C   UNL     1      17.167  28.411   9.421  1.00  0.00     0.014 C 
ATOM     22  C   UNL     1      16.315  26.049   9.182  1.00  0.00     0.016 C 
ATOM     23  C   UNL     1      18.411  27.409  11.832  1.00  0.00    -0.006 C 
ATOM     24  C   UNL     1      16.537  28.826  10.760  1.00  0.00     0.033 C 
ATOM     25  C   UNL     1      16.980  27.999  11.975  1.00  0.00     0.120 C 
ATOM     26  C   UNL     1      19.477  28.541  11.751  1.00  0.00     0.014 C 
ATOM     27  C   UNL     1      18.705  26.598  13.125  1.00  0.00     0.014 C 
BRANCH  25  28
ATOM     28  O   UNL     1      16.892  28.806  13.125  1.00  0.00    -0.393 OA
ATOM     29  H   UNL     1      17.466  28.395  13.826  1.00  0.00     0.210 HD
ENDBRANCH  25  28
ENDBRANCH   2   6
ENDBRANCH   1   2
BRANCH   1  30
ATOM     30  C   UNL     1      18.078  26.912   2.576  1.00  0.00     0.031 C 
BRANCH  30  31
ATOM     31  C   UNL     1      17.538  25.606   3.123  1.00  0.00    -0.075 C 
ATOM     32  C   UNL     1      17.928  24.444   2.571  1.00  0.00     0.008 C 
BRANCH  31  33
ATOM     33  C   UNL     1      16.620  25.635   4.338  1.00  0.00     0.008 C 
ATOM     34  C   UNL     1      15.146  25.732   3.923  1.00  0.00     0.012 C 
ATOM     35  C   UNL     1      16.858  24.425   5.253  1.00  0.00     0.012 C 
ENDBRANCH  31  33
ENDBRANCH  30  31
ENDBRANCH   1  30
TORSDOF 7
ENDMDL
