MODEL 1
REMARK VINA RESULT:    -4.851      0.000      0.000
REMARK INTER + INTRA:          -8.192
REMARK INTER:                  -7.687
REMARK INTRA:                  -0.505
REMARK UNBOUND:                -0.505
REMARK SMILES CCCCCCCCCCCC(=O)[O-]
REMARK SMILES IDX 7 1 8 2 9 3 10 4 11 5 12 6 13 7 14 8 6 9 5 10 4 11 3 12 2 13
REMARK SMILES IDX 1 14
REMARK H PARENT
REMARK Flexibility Score: inf
ROOT
ATOM      1  C   UNL     1      -7.273  -5.410  -6.807  1.00  0.00     0.000 C 
ENDROOT
BRANCH   1   2
ATOM      2  C   UNL     1      -7.927  -5.514  -5.421  1.00  0.00     0.000 C 
BRANCH   2   3
ATOM      3  C   UNL     1      -8.868  -4.338  -5.120  1.00  0.00     0.000 C 
BRANCH   3   4
ATOM      4  C   UNL     1      -9.943  -4.743  -4.100  1.00  0.00     0.006 C 
BRANCH   4   5
ATOM      5  C   UNL     1     -10.229  -3.628  -3.084  1.00  0.00     0.053 C 
BRANCH   5   6
ATOM      6  C   UNL     1      -9.040  -3.346  -2.218  1.00  0.00     0.041 C 
ATOM      7  O   UNL     1      -8.557  -2.184  -2.166  1.00  0.00    -0.550 OA
ATOM      8  O   UNL     1      -8.446  -4.372  -1.495  1.00  0.00    -0.550 OA
ENDBRANCH   5   6
ENDBRANCH   4   5
ENDBRANCH   3   4
ENDBRANCH   2   3
ENDBRANCH   1   2
BRANCH   1   9
ATOM      9  C   UNL     1      -6.086  -6.376  -6.977  1.00  0.00     0.000 C 
BRANCH   9  10
ATOM     10  C   UNL     1      -5.208  -6.446  -5.710  1.00  0.00    -0.000 C 
BRANCH  10  11
ATOM     11  C   UNL     1      -3.934  -5.586  -5.794  1.00  0.00    -0.000 C 
BRANCH  11  12
ATOM     12  C   UNL     1      -4.233  -4.094  -6.000  1.00  0.00    -0.000 C 
BRANCH  12  13
ATOM     13  C   UNL     1      -3.014  -3.237  -5.644  1.00  0.00    -0.003 C 
ATOM     14  C   UNL     1      -3.220  -1.785  -6.067  1.00  0.00     0.004 C 
ENDBRANCH  12  13
ENDBRANCH  11  12
ENDBRANCH  10  11
ENDBRANCH   9  10
ENDBRANCH   1   9
TORSDOF 10
ENDMDL
MODEL 2
REMARK VINA RESULT:    -4.765      3.242      5.927
REMARK INTER + INTRA:          -8.056
REMARK INTER:                  -7.363
REMARK INTRA:                  -0.693
REMARK UNBOUND:                -0.505
REMARK SMILES CCCCCCCCCCCC(=O)[O-]
REMARK SMILES IDX 7 1 8 2 9 3 10 4 11 5 12 6 13 7 14 8 6 9 5 10 4 11 3 12 2 13
REMARK SMILES IDX 1 14
REMARK H PARENT
REMARK Flexibility Score: inf
ROOT
ATOM      1  C   UNL     1      -9.923  -5.665  -5.115  1.00  0.00     0.000 C 
ENDROOT
BRANCH   1   2
ATOM      2  C   UNL     1      -9.544  -4.611  -6.167  1.00  0.00     0.000 C 
BRANCH   2   3
ATOM      3  C   UNL     1      -8.194  -4.904  -6.838  1.00  0.00     0.000 C 
BRANCH   3   4
ATOM      4  C   UNL     1      -7.315  -5.786  -5.940  1.00  0.00     0.006 C 
BRANCH   4   5
ATOM      5  C   UNL     1      -5.818  -5.573  -6.201  1.00  0.00     0.053 C 
BRANCH   5   6
ATOM      6  C   UNL     1      -5.038  -6.841  -6.035  1.00  0.00     0.041 C 
ATOM      7  O   UNL     1      -5.630  -7.952  -6.033  1.00  0.00    -0.550 OA
ATOM      8  O   UNL     1      -3.663  -6.793  -5.850  1.00  0.00    -0.550 OA
ENDBRANCH   5   6
ENDBRANCH   4   5
ENDBRANCH   3   4
ENDBRANCH   2   3
ENDBRANCH   1   2
BRANCH   1   9
ATOM      9  C   UNL     1     -10.867  -5.110  -4.032  1.00  0.00     0.000 C 
BRANCH   9  10
ATOM     10  C   UNL     1     -10.520  -3.655  -3.650  1.00  0.00    -0.000 C 
BRANCH  10  11
ATOM     11  C   UNL     1     -10.990  -3.261  -2.238  1.00  0.00    -0.000 C 
BRANCH  11  12
ATOM     12  C   UNL     1      -9.869  -3.339  -1.192  1.00  0.00    -0.000 C 
BRANCH  12  13
ATOM     13  C   UNL     1      -8.492  -3.228  -1.855  1.00  0.00    -0.003 C 
ATOM     14  C   UNL     1      -7.878  -1.849  -1.622  1.00  0.00     0.004 C 
ENDBRANCH  12  13
ENDBRANCH  11  12
ENDBRANCH  10  11
ENDBRANCH   9  10
ENDBRANCH   1   9
TORSDOF 10
ENDMDL
MODEL 3
REMARK VINA RESULT:    -4.718      0.828      1.766
REMARK INTER + INTRA:          -7.982
REMARK INTER:                  -7.357
REMARK INTRA:                  -0.625
REMARK UNBOUND:                -0.505
REMARK SMILES CCCCCCCCCCCC(=O)[O-]
REMARK SMILES IDX 7 1 8 2 9 3 10 4 11 5 12 6 13 7 14 8 6 9 5 10 4 11 3 12 2 13
REMARK SMILES IDX 1 14
REMARK H PARENT
REMARK Flexibility Score: inf
ROOT
ATOM      1  C   UNL     1      -8.078  -5.010  -5.510  1.00  0.00     0.000 C 
ENDROOT
BRANCH   1   2
ATOM      2  C   UNL     1      -9.574  -5.033  -5.157  1.00  0.00     0.000 C 
BRANCH   2   3
ATOM      3  C   UNL     1     -10.034  -3.751  -4.446  1.00  0.00     0.000 C 
BRANCH   3   4
ATOM      4  C   UNL     1     -10.913  -4.083  -3.232  1.00  0.00     0.006 C 
BRANCH   4   5
ATOM      5  C   UNL     1     -10.518  -3.272  -1.989  1.00  0.00     0.053 C 
BRANCH   5   6
ATOM      6  C   UNL     1      -9.031  -3.218  -1.810  1.00  0.00     0.041 C 
ATOM      7  O   UNL     1      -8.385  -4.271  -1.563  1.00  0.00    -0.550 OA
ATOM      8  O   UNL     1      -8.365  -2.003  -1.883  1.00  0.00    -0.550 OA
ENDBRANCH   5   6
ENDBRANCH   4   5
ENDBRANCH   3   4
ENDBRANCH   2   3
ENDBRANCH   1   2
BRANCH   1   9
ATOM      9  C   UNL     1      -7.799  -5.515  -6.938  1.00  0.00     0.000 C 
BRANCH   9  10
ATOM     10  C   UNL     1      -6.333  -5.281  -7.360  1.00  0.00    -0.000 C 
BRANCH  10  11
ATOM     11  C   UNL     1      -5.359  -6.341  -6.815  1.00  0.00    -0.000 C 
BRANCH  11  12
ATOM     12  C   UNL     1      -4.264  -5.741  -5.921  1.00  0.00    -0.000 C 
BRANCH  12  13
ATOM     13  C   UNL     1      -4.272  -4.210  -5.997  1.00  0.00    -0.003 C 
ATOM     14  C   UNL     1      -2.913  -3.633  -5.607  1.00  0.00     0.004 C 
ENDBRANCH  12  13
ENDBRANCH  11  12
ENDBRANCH  10  11
ENDBRANCH   9  10
ENDBRANCH   1   9
TORSDOF 10
ENDMDL
MODEL 4
REMARK VINA RESULT:    -4.581      1.638      2.759
REMARK INTER + INTRA:          -7.764
REMARK INTER:                  -6.875
REMARK INTRA:                  -0.889
REMARK UNBOUND:                -0.505
REMARK SMILES CCCCCCCCCCCC(=O)[O-]
REMARK SMILES IDX 7 1 8 2 9 3 10 4 11 5 12 6 13 7 14 8 6 9 5 10 4 11 3 12 2 13
REMARK SMILES IDX 1 14
REMARK H PARENT
REMARK Flexibility Score: inf
ROOT
ATOM      1  C   UNL     1      -9.162  -4.462  -6.338  1.00  0.00     0.000 C 
ENDROOT
BRANCH   1   2
ATOM      2  C   UNL     1      -9.231  -5.235  -5.012  1.00  0.00     0.000 C 
BRANCH   2   3
ATOM      3  C   UNL     1     -10.584  -5.076  -4.303  1.00  0.00     0.000 C 
BRANCH   3   4
ATOM      4  C   UNL     1     -10.721  -3.673  -3.692  1.00  0.00     0.006 C 
BRANCH   4   5
ATOM      5  C   UNL     1     -10.528  -3.681  -2.169  1.00  0.00     0.053 C 
BRANCH   5   6
ATOM      6  C   UNL     1      -9.118  -3.348  -1.786  1.00  0.00     0.041 C 
ATOM      7  O   UNL     1      -8.314  -4.266  -1.473  1.00  0.00    -0.550 OA
ATOM      8  O   UNL     1      -8.703  -2.025  -1.741  1.00  0.00    -0.550 OA
ENDBRANCH   5   6
ENDBRANCH   4   5
ENDBRANCH   3   4
ENDBRANCH   2   3
ENDBRANCH   1   2
BRANCH   1   9
ATOM      9  C   UNL     1      -8.714  -5.345  -7.517  1.00  0.00     0.000 C 
BRANCH   9  10
ATOM     10  C   UNL     1      -7.490  -4.757  -8.252  1.00  0.00    -0.000 C 
BRANCH  10  11
ATOM     11  C   UNL     1      -6.172  -5.484  -7.931  1.00  0.00    -0.000 C 
BRANCH  11  12
ATOM     12  C   UNL     1      -5.447  -4.897  -6.713  1.00  0.00    -0.000 C 
BRANCH  12  13
ATOM     13  C   UNL     1      -4.858  -6.008  -5.837  1.00  0.00    -0.003 C 
ATOM     14  C   UNL     1      -5.812  -7.195  -5.739  1.00  0.00     0.004 C 
ENDBRANCH  12  13
ENDBRANCH  11  12
ENDBRANCH  10  11
ENDBRANCH   9  10
ENDBRANCH   1   9
TORSDOF 10
ENDMDL
MODEL 5
REMARK VINA RESULT:    -4.550      3.237      6.216
REMARK INTER + INTRA:          -7.715
REMARK INTER:                  -7.085
REMARK INTRA:                  -0.630
REMARK UNBOUND:                -0.505
REMARK SMILES CCCCCCCCCCCC(=O)[O-]
REMARK SMILES IDX 7 1 8 2 9 3 10 4 11 5 12 6 13 7 14 8 6 9 5 10 4 11 3 12 2 13
REMARK SMILES IDX 1 14
REMARK H PARENT
REMARK Flexibility Score: inf
ROOT
ATOM      1  C   UNL     1      -9.810  -5.622  -6.092  1.00  0.00     0.000 C 
ENDROOT
BRANCH   1   2
ATOM      2  C   UNL     1      -8.334  -5.197  -6.064  1.00  0.00     0.000 C 
BRANCH   2   3
ATOM      3  C   UNL     1      -7.761  -4.952  -7.468  1.00  0.00     0.000 C 
BRANCH   3   4
ATOM      4  C   UNL     1      -6.250  -5.227  -7.499  1.00  0.00     0.006 C 
BRANCH   4   5
ATOM      5  C   UNL     1      -5.678  -5.489  -6.099  1.00  0.00     0.053 C 
BRANCH   5   6
ATOM      6  C   UNL     1      -4.927  -6.784  -6.038  1.00  0.00     0.041 C 
ATOM      7  O   UNL     1      -3.669  -6.784  -5.996  1.00  0.00    -0.550 OA
ATOM      8  O   UNL     1      -5.615  -7.990  -6.062  1.00  0.00    -0.550 OA
ENDBRANCH   5   6
ENDBRANCH   4   5
ENDBRANCH   3   4
ENDBRANCH   2   3
ENDBRANCH   1   2
BRANCH   1   9
ATOM      9  C   UNL     1     -10.773  -4.432  -5.927  1.00  0.00     0.000 C 
BRANCH   9  10
ATOM     10  C   UNL     1     -10.242  -3.389  -4.920  1.00  0.00    -0.000 C 
BRANCH  10  11
ATOM     11  C   UNL     1     -10.717  -3.630  -3.476  1.00  0.00    -0.000 C 
BRANCH  11  12
ATOM     12  C   UNL     1      -9.558  -3.725  -2.474  1.00  0.00    -0.000 C 
BRANCH  12  13
ATOM     13  C   UNL     1      -9.898  -2.990  -1.172  1.00  0.00    -0.003 C 
ATOM     14  C   UNL     1     -11.125  -3.600  -0.500  1.00  0.00     0.004 C 
ENDBRANCH  12  13
ENDBRANCH  11  12
ENDBRANCH  10  11
ENDBRANCH   9  10
ENDBRANCH   1   9
TORSDOF 10
ENDMDL
MODEL 6
REMARK VINA RESULT:    -4.517      1.203      1.617
REMARK INTER + INTRA:          -7.662
REMARK INTER:                  -6.917
REMARK INTRA:                  -0.746
REMARK UNBOUND:                -0.505
REMARK SMILES CCCCCCCCCCCC(=O)[O-]
REMARK SMILES IDX 7 1 8 2 9 3 10 4 11 5 12 6 13 7 14 8 6 9 5 10 4 11 3 12 2 13
REMARK SMILES IDX 1 14
REMARK H PARENT
REMARK Flexibility Score: inf
ROOT
ATOM      1  C   UNL     1      -6.853  -5.387  -7.765  1.00  0.00     0.000 C 
ENDROOT
BRANCH   1   2
ATOM      2  C   UNL     1      -7.762  -4.958  -6.603  1.00  0.00     0.000 C 
BRANCH   2   3
ATOM      3  C   UNL     1      -9.211  -5.436  -6.777  1.00  0.00     0.000 C 
BRANCH   3   4
ATOM      4  C   UNL     1      -9.865  -5.709  -5.414  1.00  0.00     0.006 C 
BRANCH   4   5
ATOM      5  C   UNL     1     -10.597  -4.477  -4.864  1.00  0.00     0.053 C 
BRANCH   5   6
ATOM      6  C   UNL     1      -9.960  -3.967  -3.607  1.00  0.00     0.041 C 
ATOM      7  O   UNL     1      -8.882  -4.472  -3.195  1.00  0.00    -0.550 OA
ATOM      8  O   UNL     1     -10.573  -2.960  -2.874  1.00  0.00    -0.550 OA
ENDBRANCH   5   6
ENDBRANCH   4   5
ENDBRANCH   3   4
ENDBRANCH   2   3
ENDBRANCH   1   2
BRANCH   1   9
ATOM      9  C   UNL     1      -5.871  -6.505  -7.369  1.00  0.00     0.000 C 
BRANCH   9  10
ATOM     10  C   UNL     1      -5.253  -6.269  -5.975  1.00  0.00    -0.000 C 
BRANCH  10  11
ATOM     11  C   UNL     1      -3.714  -6.294  -5.971  1.00  0.00    -0.000 C 
BRANCH  11  12
ATOM     12  C   UNL     1      -3.095  -4.947  -5.573  1.00  0.00    -0.000 C 
BRANCH  12  13
ATOM     13  C   UNL     1      -4.028  -3.786  -5.936  1.00  0.00    -0.003 C 
ATOM     14  C   UNL     1      -3.307  -2.446  -5.826  1.00  0.00     0.004 C 
ENDBRANCH  12  13
ENDBRANCH  11  12
ENDBRANCH  10  11
ENDBRANCH   9  10
ENDBRANCH   1   9
TORSDOF 10
ENDMDL
MODEL 7
REMARK VINA RESULT:    -4.383      2.727      5.431
REMARK INTER + INTRA:          -7.451
REMARK INTER:                  -6.664
REMARK INTRA:                  -0.787
REMARK UNBOUND:                -0.505
REMARK SMILES CCCCCCCCCCCC(=O)[O-]
REMARK SMILES IDX 7 1 8 2 9 3 10 4 11 5 12 6 13 7 14 8 6 9 5 10 4 11 3 12 2 13
REMARK SMILES IDX 1 14
REMARK H PARENT
REMARK Flexibility Score: inf
ROOT
ATOM      1  C   UNL     1      -9.541  -5.576  -7.170  1.00  0.00     0.000 C 
ENDROOT
BRANCH   1   2
ATOM      2  C   UNL     1      -8.350  -4.687  -7.560  1.00  0.00     0.000 C 
BRANCH   2   3
ATOM      3  C   UNL     1      -7.429  -5.349  -8.596  1.00  0.00     0.000 C 
BRANCH   3   4
ATOM      4  C   UNL     1      -6.159  -5.897  -7.930  1.00  0.00     0.006 C 
BRANCH   4   5
ATOM      5  C   UNL     1      -6.069  -5.514  -6.446  1.00  0.00     0.053 C 
BRANCH   5   6
ATOM      6  C   UNL     1      -6.194  -6.711  -5.554  1.00  0.00     0.041 C 
ATOM      7  O   UNL     1      -6.800  -6.620  -4.454  1.00  0.00    -0.550 OA
ATOM      8  O   UNL     1      -5.613  -7.917  -5.922  1.00  0.00    -0.550 OA
ENDBRANCH   5   6
ENDBRANCH   4   5
ENDBRANCH   3   4
ENDBRANCH   2   3
ENDBRANCH   1   2
BRANCH   1   9
ATOM      9  C   UNL     1      -9.997  -5.354  -5.717  1.00  0.00     0.000 C 
BRANCH   9  10
ATOM     10  C   UNL     1      -9.746  -3.906  -5.244  1.00  0.00    -0.000 C 
BRANCH  10  11
ATOM     11  C   UNL     1      -9.071  -3.817  -3.864  1.00  0.00    -0.000 C 
BRANCH  11  12
ATOM     12  C   UNL     1     -10.079  -3.751  -2.708  1.00  0.00    -0.000 C 
BRANCH  12  13
ATOM     13  C   UNL     1      -9.406  -3.263  -1.420  1.00  0.00    -0.003 C 
ATOM     14  C   UNL     1      -8.153  -2.448  -1.729  1.00  0.00     0.004 C 
ENDBRANCH  12  13
ENDBRANCH  11  12
ENDBRANCH  10  11
ENDBRANCH   9  10
ENDBRANCH   1   9
TORSDOF 10
ENDMDL
MODEL 8
REMARK VINA RESULT:    -4.192      2.681      5.795
REMARK INTER + INTRA:          -7.148
REMARK INTER:                  -6.426
REMARK INTRA:                  -0.721
REMARK UNBOUND:                -0.505
REMARK SMILES CCCCCCCCCCCC(=O)[O-]
REMARK SMILES IDX 7 1 8 2 9 3 10 4 11 5 12 6 13 7 14 8 6 9 5 10 4 11 3 12 2 13
REMARK SMILES IDX 1 14
REMARK H PARENT
REMARK Flexibility Score: inf
ROOT
ATOM      1  C   UNL     1      -7.704  -6.391  -5.131  1.00  0.00     0.000 C 
ENDROOT
BRANCH   1   2
ATOM      2  C   UNL     1      -6.292  -6.996  -5.198  1.00  0.00     0.000 C 
BRANCH   2   3
ATOM      3  C   UNL     1      -5.552  -6.631  -6.493  1.00  0.00     0.000 C 
BRANCH   3   4
ATOM      4  C   UNL     1      -4.288  -5.814  -6.190  1.00  0.00     0.006 C 
BRANCH   4   5
ATOM      5  C   UNL     1      -4.570  -4.306  -6.128  1.00  0.00     0.053 C 
BRANCH   5   6
ATOM      6  C   UNL     1      -3.346  -3.525  -5.761  1.00  0.00     0.041 C 
ATOM      7  O   UNL     1      -2.286  -4.125  -5.439  1.00  0.00    -0.550 OA
ATOM      8  O   UNL     1      -3.384  -2.138  -5.743  1.00  0.00    -0.550 OA
ENDBRANCH   5   6
ENDBRANCH   4   5
ENDBRANCH   3   4
ENDBRANCH   2   3
ENDBRANCH   1   2
BRANCH   1   9
ATOM      9  C   UNL     1      -7.976  -5.393  -6.271  1.00  0.00     0.000 C 
BRANCH   9  10
ATOM     10  C   UNL     1      -9.101  -4.398  -5.916  1.00  0.00    -0.000 C 
BRANCH  10  11
ATOM     11  C   UNL     1      -9.048  -3.901  -4.460  1.00  0.00    -0.000 C 
BRANCH  11  12
ATOM     12  C   UNL     1     -10.438  -3.757  -3.826  1.00  0.00    -0.000 C 
BRANCH  12  13
ATOM     13  C   UNL     1     -10.332  -3.546  -2.312  1.00  0.00    -0.003 C 
ATOM     14  C   UNL     1      -8.878  -3.601  -1.850  1.00  0.00     0.004 C 
ENDBRANCH  12  13
ENDBRANCH  11  12
ENDBRANCH  10  11
ENDBRANCH   9  10
ENDBRANCH   1   9
TORSDOF 10
ENDMDL
MODEL 9
REMARK VINA RESULT:    -4.012      2.044      3.109
REMARK INTER + INTRA:          -6.863
REMARK INTER:                  -6.343
REMARK INTRA:                  -0.520
REMARK UNBOUND:                -0.505
REMARK SMILES CCCCCCCCCCCC(=O)[O-]
REMARK SMILES IDX 7 1 8 2 9 3 10 4 11 5 12 6 13 7 14 8 6 9 5 10 4 11 3 12 2 13
REMARK SMILES IDX 1 14
REMARK H PARENT
REMARK Flexibility Score: inf
ROOT
ATOM      1  C   UNL     1     -10.152  -5.443  -5.316  1.00  0.00     0.000 C 
ENDROOT
BRANCH   1   2
ATOM      2  C   UNL     1     -10.014  -4.214  -4.404  1.00  0.00     0.000 C 
BRANCH   2   3
ATOM      3  C   UNL     1     -10.759  -4.379  -3.071  1.00  0.00     0.000 C 
BRANCH   3   4
ATOM      4  C   UNL     1     -10.439  -3.218  -2.118  1.00  0.00     0.006 C 
BRANCH   4   5
ATOM      5  C   UNL     1      -8.990  -3.261  -1.615  1.00  0.00     0.053 C 
BRANCH   5   6
ATOM      6  C   UNL     1      -8.238  -2.018  -1.979  1.00  0.00     0.041 C 
ATOM      7  O   UNL     1      -8.160  -1.063  -1.161  1.00  0.00    -0.550 OA
ATOM      8  O   UNL     1      -7.652  -1.900  -3.233  1.00  0.00    -0.550 OA
ENDBRANCH   5   6
ENDBRANCH   4   5
ENDBRANCH   3   4
ENDBRANCH   2   3
ENDBRANCH   1   2
BRANCH   1   9
ATOM      9  C   UNL     1      -9.267  -5.351  -6.573  1.00  0.00     0.000 C 
BRANCH   9  10
ATOM     10  C   UNL     1      -7.765  -5.288  -6.223  1.00  0.00    -0.000 C 
BRANCH  10  11
ATOM     11  C   UNL     1      -6.845  -5.283  -7.456  1.00  0.00    -0.000 C 
BRANCH  11  12
ATOM     12  C   UNL     1      -5.965  -6.537  -7.550  1.00  0.00    -0.000 C 
BRANCH  12  13
ATOM     13  C   UNL     1      -5.457  -6.955  -6.166  1.00  0.00    -0.003 C 
ATOM     14  C   UNL     1      -4.023  -6.485  -5.940  1.00  0.00     0.004 C 
ENDBRANCH  12  13
ENDBRANCH  11  12
ENDBRANCH  10  11
ENDBRANCH   9  10
ENDBRANCH   1   9
TORSDOF 10
ENDMDL
