MODEL 1
REMARK VINA RESULT:    -3.719      0.000      0.000
REMARK INTER + INTRA:          -5.104
REMARK INTER:                  -4.806
REMARK INTRA:                  -0.298
REMARK UNBOUND:                -0.298
REMARK SMILES CCCCCCC(=O)[O-]
REMARK SMILES IDX 5 1 6 2 7 3 8 4 9 5 4 6 3 7 2 8 1 9
REMARK H PARENT
REMARK Flexibility Score: inf
ROOT
ATOM      1  C   UNL     1     112.187 110.291 121.586  1.00  0.00     0.006 C 
ENDROOT
BRANCH   1   2
ATOM      2  C   UNL     1     111.768 111.458 122.489  1.00  0.00     0.053 C 
BRANCH   2   3
ATOM      3  C   UNL     1     111.550 112.695 121.675  1.00  0.00     0.041 C 
ATOM      4  O   UNL     1     110.779 112.672 120.680  1.00  0.00    -0.550 OA
ATOM      5  O   UNL     1     112.238 113.862 121.985  1.00  0.00    -0.550 OA
ENDBRANCH   2   3
ENDBRANCH   1   2
BRANCH   1   6
ATOM      6  C   UNL     1     113.624 110.435 121.059  1.00  0.00     0.000 C 
BRANCH   6   7
ATOM      7  C   UNL     1     114.560 109.334 121.585  1.00  0.00    -0.000 C 
BRANCH   7   8
ATOM      8  C   UNL     1     115.776 109.902 122.331  1.00  0.00    -0.003 C 
ATOM      9  C   UNL     1     115.566 111.343 122.798  1.00  0.00     0.004 C 
ENDBRANCH   7   8
ENDBRANCH   6   7
ENDBRANCH   1   6
TORSDOF 5
ENDMDL
MODEL 2
REMARK VINA RESULT:    -3.634      0.415      1.144
REMARK INTER + INTRA:          -4.994
REMARK INTER:                  -4.647
REMARK INTRA:                  -0.348
REMARK UNBOUND:                -0.298
REMARK SMILES CCCCCCC(=O)[O-]
REMARK SMILES IDX 5 1 6 2 7 3 8 4 9 5 4 6 3 7 2 8 1 9
REMARK H PARENT
REMARK Flexibility Score: inf
ROOT
ATOM      1  C   UNL     1     111.913 110.118 121.545  1.00  0.00     0.006 C 
ENDROOT
BRANCH   1   2
ATOM      2  C   UNL     1     111.883 111.344 122.466  1.00  0.00     0.053 C 
BRANCH   2   3
ATOM      3  C   UNL     1     111.768 112.600 121.659  1.00  0.00     0.041 C 
ATOM      4  O   UNL     1     112.555 113.561 121.868  1.00  0.00    -0.550 OA
ATOM      5  O   UNL     1     110.759 112.729 120.714  1.00  0.00    -0.550 OA
ENDBRANCH   2   3
ENDBRANCH   1   2
BRANCH   1   6
ATOM      6  C   UNL     1     113.221 110.008 120.744  1.00  0.00     0.000 C 
BRANCH   6   7
ATOM      7  C   UNL     1     114.354 109.353 121.552  1.00  0.00    -0.000 C 
BRANCH   7   8
ATOM      8  C   UNL     1     115.606 110.239 121.633  1.00  0.00    -0.003 C 
ATOM      9  C   UNL     1     115.590 111.181 122.838  1.00  0.00     0.004 C 
ENDBRANCH   7   8
ENDBRANCH   6   7
ENDBRANCH   1   6
TORSDOF 5
ENDMDL
MODEL 3
REMARK VINA RESULT:    -3.603     13.219     13.895
REMARK INTER + INTRA:          -4.954
REMARK INTER:                  -4.907
REMARK INTRA:                  -0.047
REMARK UNBOUND:                -0.298
REMARK SMILES CCCCCCC(=O)[O-]
REMARK SMILES IDX 5 1 6 2 7 3 8 4 9 5 4 6 3 7 2 8 1 9
REMARK H PARENT
REMARK Flexibility Score: inf
ROOT
ATOM      1  C   UNL     1     108.147 103.576 129.593  1.00  0.00     0.006 C 
ENDROOT
BRANCH   1   2
ATOM      2  C   UNL     1     109.638 103.845 129.834  1.00  0.00     0.053 C 
BRANCH   2   3
ATOM      3  C   UNL     1     109.866 104.300 131.241  1.00  0.00     0.041 C 
ATOM      4  O   UNL     1     109.293 105.335 131.673  1.00  0.00    -0.550 OA
ATOM      5  O   UNL     1     110.752 103.611 132.060  1.00  0.00    -0.550 OA
ENDBRANCH   2   3
ENDBRANCH   1   2
BRANCH   1   6
ATOM      6  C   UNL     1     107.744 102.130 129.927  1.00  0.00     0.000 C 
BRANCH   6   7
ATOM      7  C   UNL     1     107.448 101.930 131.423  1.00  0.00    -0.000 C 
BRANCH   7   8
ATOM      8  C   UNL     1     105.980 101.561 131.688  1.00  0.00    -0.003 C 
ATOM      9  C   UNL     1     105.797 100.089 132.059  1.00  0.00     0.004 C 
ENDBRANCH   7   8
ENDBRANCH   6   7
ENDBRANCH   1   6
TORSDOF 5
ENDMDL
MODEL 4
REMARK VINA RESULT:    -3.600      2.374      4.055
REMARK INTER + INTRA:          -4.950
REMARK INTER:                  -4.610
REMARK INTRA:                  -0.340
REMARK UNBOUND:                -0.298
REMARK SMILES CCCCCCC(=O)[O-]
REMARK SMILES IDX 5 1 6 2 7 3 8 4 9 5 4 6 3 7 2 8 1 9
REMARK H PARENT
REMARK Flexibility Score: inf
ROOT
ATOM      1  C   UNL     1     113.075 109.952 120.971  1.00  0.00     0.006 C 
ENDROOT
BRANCH   1   2
ATOM      2  C   UNL     1     114.336 109.281 121.531  1.00  0.00     0.053 C 
BRANCH   2   3
ATOM      3  C   UNL     1     115.305 110.312 122.016  1.00  0.00     0.041 C 
ATOM      4  O   UNL     1     115.149 111.524 121.709  1.00  0.00    -0.550 OA
ATOM      5  O   UNL     1     116.411 109.930 122.765  1.00  0.00    -0.550 OA
ENDBRANCH   2   3
ENDBRANCH   1   2
BRANCH   1   6
ATOM      6  C   UNL     1     111.918 109.977 121.983  1.00  0.00     0.000 C 
BRANCH   6   7
ATOM      7  C   UNL     1     111.719 111.362 122.620  1.00  0.00    -0.000 C 
BRANCH   7   8
ATOM      8  C   UNL     1     111.515 112.468 121.573  1.00  0.00    -0.003 C 
ATOM      9  C   UNL     1     112.325 113.728 121.876  1.00  0.00     0.004 C 
ENDBRANCH   7   8
ENDBRANCH   6   7
ENDBRANCH   1   6
TORSDOF 5
ENDMDL
MODEL 5
REMARK VINA RESULT:    -3.351      2.522      4.196
REMARK INTER + INTRA:          -4.629
REMARK INTER:                  -4.371
REMARK INTRA:                  -0.258
REMARK UNBOUND:                -0.298
REMARK SMILES CCCCCCC(=O)[O-]
REMARK SMILES IDX 5 1 6 2 7 3 8 4 9 5 4 6 3 7 2 8 1 9
REMARK H PARENT
REMARK Flexibility Score: inf
ROOT
ATOM      1  C   UNL     1     115.880 109.981 122.357  1.00  0.00     0.006 C 
ENDROOT
BRANCH   1   2
ATOM      2  C   UNL     1     115.582 111.380 122.910  1.00  0.00     0.053 C 
BRANCH   2   3
ATOM      3  C   UNL     1     116.673 112.333 122.537  1.00  0.00     0.041 C 
ATOM      4  O   UNL     1     116.534 113.100 121.548  1.00  0.00    -0.550 OA
ATOM      5  O   UNL     1     117.866 112.337 123.249  1.00  0.00    -0.550 OA
ENDBRANCH   2   3
ENDBRANCH   1   2
BRANCH   1   6
ATOM      6  C   UNL     1     114.704 109.395 121.558  1.00  0.00     0.000 C 
BRANCH   6   7
ATOM      7  C   UNL     1     113.655 110.457 121.187  1.00  0.00    -0.000 C 
BRANCH   7   8
ATOM      8  C   UNL     1     112.287 110.184 121.831  1.00  0.00    -0.003 C 
ATOM      9  C   UNL     1     111.658 111.436 122.441  1.00  0.00     0.004 C 
ENDBRANCH   7   8
ENDBRANCH   6   7
ENDBRANCH   1   6
TORSDOF 5
ENDMDL
MODEL 6
REMARK VINA RESULT:    -3.331      1.170      1.713
REMARK INTER + INTRA:          -4.603
REMARK INTER:                  -4.218
REMARK INTRA:                  -0.385
REMARK UNBOUND:                -0.298
REMARK SMILES CCCCCCC(=O)[O-]
REMARK SMILES IDX 5 1 6 2 7 3 8 4 9 5 4 6 3 7 2 8 1 9
REMARK H PARENT
REMARK Flexibility Score: inf
ROOT
ATOM      1  C   UNL     1     113.660 109.907 120.585  1.00  0.00     0.006 C 
ENDROOT
BRANCH   1   2
ATOM      2  C   UNL     1     112.203 110.172 120.984  1.00  0.00     0.053 C 
BRANCH   2   3
ATOM      3  C   UNL     1     112.081 111.499 121.664  1.00  0.00     0.041 C 
ATOM      4  O   UNL     1     111.487 111.592 122.771  1.00  0.00    -0.550 OA
ATOM      5  O   UNL     1     112.577 112.643 121.051  1.00  0.00    -0.550 OA
ENDBRANCH   2   3
ENDBRANCH   1   2
BRANCH   1   6
ATOM      6  C   UNL     1     114.468 109.229 121.704  1.00  0.00     0.000 C 
BRANCH   6   7
ATOM      7  C   UNL     1     115.780 109.968 122.016  1.00  0.00    -0.000 C 
BRANCH   7   8
ATOM      8  C   UNL     1     115.556 111.236 122.855  1.00  0.00    -0.003 C 
ATOM      9  C   UNL     1     116.021 112.507 122.144  1.00  0.00     0.004 C 
ENDBRANCH   7   8
ENDBRANCH   6   7
ENDBRANCH   1   6
TORSDOF 5
ENDMDL
MODEL 7
REMARK VINA RESULT:    -3.284      1.158      1.886
REMARK INTER + INTRA:          -4.542
REMARK INTER:                  -4.152
REMARK INTRA:                  -0.390
REMARK UNBOUND:                -0.298
REMARK SMILES CCCCCCC(=O)[O-]
REMARK SMILES IDX 5 1 6 2 7 3 8 4 9 5 4 6 3 7 2 8 1 9
REMARK H PARENT
REMARK Flexibility Score: inf
ROOT
ATOM      1  C   UNL     1     113.141 110.643 121.621  1.00  0.00     0.006 C 
ENDROOT
BRANCH   1   2
ATOM      2  C   UNL     1     112.575 111.800 122.454  1.00  0.00     0.053 C 
BRANCH   2   3
ATOM      3  C   UNL     1     112.241 112.963 121.574  1.00  0.00     0.041 C 
ATOM      4  O   UNL     1     112.313 114.138 122.022  1.00  0.00    -0.550 OA
ATOM      5  O   UNL     1     111.799 112.748 120.274  1.00  0.00    -0.550 OA
ENDBRANCH   2   3
ENDBRANCH   1   2
BRANCH   1   6
ATOM      6  C   UNL     1     114.675 110.679 121.520  1.00  0.00     0.000 C 
BRANCH   6   7
ATOM      7  C   UNL     1     115.338 111.206 122.804  1.00  0.00    -0.000 C 
BRANCH   7   8
ATOM      8  C   UNL     1     116.345 112.333 122.526  1.00  0.00    -0.003 C 
ATOM      9  C   UNL     1     115.960 113.188 121.319  1.00  0.00     0.004 C 
ENDBRANCH   7   8
ENDBRANCH   6   7
ENDBRANCH   1   6
TORSDOF 5
ENDMDL
MODEL 8
REMARK VINA RESULT:    -3.274      1.471      2.228
REMARK INTER + INTRA:          -4.529
REMARK INTER:                  -4.217
REMARK INTRA:                  -0.312
REMARK UNBOUND:                -0.298
REMARK SMILES CCCCCCC(=O)[O-]
REMARK SMILES IDX 5 1 6 2 7 3 8 4 9 5 4 6 3 7 2 8 1 9
REMARK H PARENT
REMARK Flexibility Score: inf
ROOT
ATOM      1  C   UNL     1     111.985 112.465 122.036  1.00  0.00     0.006 C 
ENDROOT
BRANCH   1   2
ATOM      2  C   UNL     1     110.780 113.062 121.299  1.00  0.00     0.053 C 
BRANCH   2   3
ATOM      3  C   UNL     1     110.688 112.508 119.912  1.00  0.00     0.041 C 
ATOM      4  O   UNL     1     109.623 111.965 119.516  1.00  0.00    -0.550 OA
ATOM      5  O   UNL     1     111.796 112.544 119.074  1.00  0.00    -0.550 OA
ENDBRANCH   2   3
ENDBRANCH   1   2
BRANCH   1   6
ATOM      6  C   UNL     1     111.768 110.995 122.434  1.00  0.00     0.000 C 
BRANCH   6   7
ATOM      7  C   UNL     1     112.700 110.035 121.676  1.00  0.00    -0.000 C 
BRANCH   7   8
ATOM      8  C   UNL     1     114.079 110.652 121.395  1.00  0.00    -0.003 C 
ATOM      9  C   UNL     1     115.231 109.788 121.908  1.00  0.00     0.004 C 
ENDBRANCH   7   8
ENDBRANCH   6   7
ENDBRANCH   1   6
TORSDOF 5
ENDMDL
MODEL 9
REMARK VINA RESULT:    -3.184      1.508      2.280
REMARK INTER + INTRA:          -4.413
REMARK INTER:                  -4.045
REMARK INTRA:                  -0.368
REMARK UNBOUND:                -0.298
REMARK SMILES CCCCCCC(=O)[O-]
REMARK SMILES IDX 5 1 6 2 7 3 8 4 9 5 4 6 3 7 2 8 1 9
REMARK H PARENT
REMARK Flexibility Score: inf
ROOT
ATOM      1  C   UNL     1     113.839 113.058 120.805  1.00  0.00     0.006 C 
ENDROOT
BRANCH   1   2
ATOM      2  C   UNL     1     112.640 113.430 121.686  1.00  0.00     0.053 C 
BRANCH   2   3
ATOM      3  C   UNL     1     111.623 112.333 121.675  1.00  0.00     0.041 C 
ATOM      4  O   UNL     1     110.809 112.231 120.719  1.00  0.00    -0.550 OA
ATOM      5  O   UNL     1     111.539 111.452 122.747  1.00  0.00    -0.550 OA
ENDBRANCH   2   3
ENDBRANCH   1   2
BRANCH   1   6
ATOM      6  C   UNL     1     115.130 112.855 121.615  1.00  0.00     0.000 C 
BRANCH   6   7
ATOM      7  C   UNL     1     115.180 111.485 122.314  1.00  0.00    -0.000 C 
BRANCH   7   8
ATOM      8  C   UNL     1     115.240 110.318 121.316  1.00  0.00    -0.003 C 
ATOM      9  C   UNL     1     114.157 109.269 121.565  1.00  0.00     0.004 C 
ENDBRANCH   7   8
ENDBRANCH   6   7
ENDBRANCH   1   6
TORSDOF 5
ENDMDL
