MODEL 1
REMARK VINA RESULT:    -1.897      0.000      0.000
REMARK INTER + INTRA:          -1.897
REMARK INTER:                  -1.897
REMARK INTRA:                   0.000
REMARK UNBOUND:                 0.000
REMARK SMILES CC(=O)[O-]
REMARK SMILES IDX 1 1 2 2 3 3 4 4
REMARK H PARENT
REMARK Flexibility Score: inf
ROOT
ATOM      1  C   UNL     1     -44.268 -45.444  40.517  1.00  0.00     0.063 C 
ATOM      2  C   UNL     1     -42.907 -45.408  41.125  1.00  0.00     0.038 C 
ATOM      3  O   UNL     1     -42.009 -44.681  40.623  1.00  0.00    -0.550 OA
ATOM      4  O   UNL     1     -42.641 -46.135  42.279  1.00  0.00    -0.550 OA
ENDROOT
TORSDOF 0
ENDMDL
MODEL 2
REMARK VINA RESULT:    -1.860      1.854      2.151
REMARK INTER + INTRA:          -1.860
REMARK INTER:                  -1.860
REMARK INTRA:                   0.000
REMARK UNBOUND:                 0.000
REMARK SMILES CC(=O)[O-]
REMARK SMILES IDX 1 1 2 2 3 3 4 4
REMARK H PARENT
REMARK Flexibility Score: inf
ROOT
ATOM      1  C   UNL     1     -42.408 -45.282  41.662  1.00  0.00     0.063 C 
ATOM      2  C   UNL     1     -43.291 -45.794  40.574  1.00  0.00     0.038 C 
ATOM      3  O   UNL     1     -42.865 -46.667  39.773  1.00  0.00    -0.550 OA
ATOM      4  O   UNL     1     -44.603 -45.348  40.476  1.00  0.00    -0.550 OA
ENDROOT
TORSDOF 0
ENDMDL
MODEL 3
REMARK VINA RESULT:    -1.836      8.723      9.184
REMARK INTER + INTRA:          -1.836
REMARK INTER:                  -1.836
REMARK INTRA:                   0.000
REMARK UNBOUND:                 0.000
REMARK SMILES CC(=O)[O-]
REMARK SMILES IDX 1 1 2 2 3 3 4 4
REMARK H PARENT
REMARK Flexibility Score: inf
ROOT
ATOM      1  C   UNL     1     -48.357 -50.957  41.660  1.00  0.00     0.063 C 
ATOM      2  C   UNL     1     -48.761 -52.383  41.825  1.00  0.00     0.038 C 
ATOM      3  O   UNL     1     -49.592 -52.900  41.033  1.00  0.00    -0.550 OA
ATOM      4  O   UNL     1     -48.181 -53.159  42.820  1.00  0.00    -0.550 OA
ENDROOT
TORSDOF 0
ENDMDL
MODEL 4
REMARK VINA RESULT:    -1.834      8.579      9.154
REMARK INTER + INTRA:          -1.834
REMARK INTER:                  -1.834
REMARK INTRA:                   0.000
REMARK UNBOUND:                 0.000
REMARK SMILES CC(=O)[O-]
REMARK SMILES IDX 1 1 2 2 3 3 4 4
REMARK H PARENT
REMARK Flexibility Score: inf
ROOT
ATOM      1  C   UNL     1     -48.152 -50.943  41.617  1.00  0.00     0.063 C 
ATOM      2  C   UNL     1     -48.632 -52.320  41.930  1.00  0.00     0.038 C 
ATOM      3  O   UNL     1     -48.228 -52.910  42.967  1.00  0.00    -0.550 OA
ATOM      4  O   UNL     1     -49.567 -52.935  41.107  1.00  0.00    -0.550 OA
ENDROOT
TORSDOF 0
ENDMDL
MODEL 5
REMARK VINA RESULT:    -1.813      8.531      9.138
REMARK INTER + INTRA:          -1.813
REMARK INTER:                  -1.813
REMARK INTRA:                   0.000
REMARK UNBOUND:                 0.000
REMARK SMILES CC(=O)[O-]
REMARK SMILES IDX 1 1 2 2 3 3 4 4
REMARK H PARENT
REMARK Flexibility Score: inf
ROOT
ATOM      1  C   UNL     1     -48.022 -52.753  42.986  1.00  0.00     0.063 C 
ATOM      2  C   UNL     1     -48.767 -52.110  41.866  1.00  0.00     0.038 C 
ATOM      3  O   UNL     1     -49.527 -52.798  41.135  1.00  0.00    -0.550 OA
ATOM      4  O   UNL     1     -48.667 -50.740  41.661  1.00  0.00    -0.550 OA
ENDROOT
TORSDOF 0
ENDMDL
MODEL 6
REMARK VINA RESULT:    -1.771      6.562      6.821
REMARK INTER + INTRA:          -1.771
REMARK INTER:                  -1.771
REMARK INTRA:                   0.000
REMARK UNBOUND:                 0.000
REMARK SMILES CC(=O)[O-]
REMARK SMILES IDX 1 1 2 2 3 3 4 4
REMARK H PARENT
REMARK Flexibility Score: inf
ROOT
ATOM      1  C   UNL     1     -45.524 -48.575  37.716  1.00  0.00     0.063 C 
ATOM      2  C   UNL     1     -46.884 -49.002  37.277  1.00  0.00     0.038 C 
ATOM      3  O   UNL     1     -47.778 -48.141  37.064  1.00  0.00    -0.550 OA
ATOM      4  O   UNL     1     -47.153 -50.346  37.052  1.00  0.00    -0.550 OA
ENDROOT
TORSDOF 0
ENDMDL
MODEL 7
REMARK VINA RESULT:    -1.714      5.174      5.396
REMARK INTER + INTRA:          -1.714
REMARK INTER:                  -1.714
REMARK INTRA:                   0.000
REMARK UNBOUND:                 0.000
REMARK SMILES CC(=O)[O-]
REMARK SMILES IDX 1 1 2 2 3 3 4 4
REMARK H PARENT
REMARK Flexibility Score: inf
ROOT
ATOM      1  C   UNL     1     -44.271 -48.783  36.669  1.00  0.00     0.063 C 
ATOM      2  C   UNL     1     -45.291 -48.321  37.654  1.00  0.00     0.038 C 
ATOM      3  O   UNL     1     -46.518 -48.439  37.396  1.00  0.00    -0.550 OA
ATOM      4  O   UNL     1     -44.890 -47.808  38.881  1.00  0.00    -0.550 OA
ENDROOT
TORSDOF 0
ENDMDL
MODEL 8
REMARK VINA RESULT:    -1.701      1.722      2.543
REMARK INTER + INTRA:          -1.701
REMARK INTER:                  -1.701
REMARK INTRA:                   0.000
REMARK UNBOUND:                 0.000
REMARK SMILES CC(=O)[O-]
REMARK SMILES IDX 1 1 2 2 3 3 4 4
REMARK H PARENT
REMARK Flexibility Score: inf
ROOT
ATOM      1  C   UNL     1     -40.880 -43.505  40.942  1.00  0.00     0.063 C 
ATOM      2  C   UNL     1     -41.830 -44.627  41.196  1.00  0.00     0.038 C 
ATOM      3  O   UNL     1     -41.784 -45.259  42.284  1.00  0.00    -0.550 OA
ATOM      4  O   UNL     1     -42.802 -44.942  40.256  1.00  0.00    -0.550 OA
ENDROOT
TORSDOF 0
ENDMDL
MODEL 9
REMARK VINA RESULT:    -1.670      7.962      8.418
REMARK INTER + INTRA:          -1.670
REMARK INTER:                  -1.670
REMARK INTRA:                   0.000
REMARK UNBOUND:                 0.000
REMARK SMILES CC(=O)[O-]
REMARK SMILES IDX 1 1 2 2 3 3 4 4
REMARK H PARENT
REMARK Flexibility Score: inf
ROOT
ATOM      1  C   UNL     1     -46.728 -50.343  37.088  1.00  0.00     0.063 C 
ATOM      2  C   UNL     1     -47.073 -51.650  37.717  1.00  0.00     0.038 C 
ATOM      3  O   UNL     1     -46.961 -51.801  38.963  1.00  0.00    -0.550 OA
ATOM      4  O   UNL     1     -47.568 -52.688  36.939  1.00  0.00    -0.550 OA
ENDROOT
TORSDOF 0
ENDMDL
