MODEL 1
REMARK VINA RESULT:    -5.219      0.000      0.000
REMARK INTER + INTRA:          -5.219
REMARK INTER:                  -5.219
REMARK INTRA:                   0.000
REMARK UNBOUND:                 0.000
REMARK SMILES O=c1ccc2ccccc2o1
REMARK SMILES IDX 7 1 8 2 9 3 10 4 5 5 6 6 4 7 3 8 2 9 1 10 11 11
REMARK H PARENT
REMARK Flexibility Score: inf
ROOT
ATOM      1  C   UNL     1     -24.633 -33.406 100.251  1.00  0.00     0.001 A 
ATOM      2  C   UNL     1     -24.377 -33.730  98.913  1.00  0.00     0.004 A 
ATOM      3  C   UNL     1     -23.442 -32.993  98.178  1.00  0.00     0.048 A 
ATOM      4  C   UNL     1     -22.760 -31.929  98.778  1.00  0.00     0.138 A 
ATOM      5  C   UNL     1     -23.019 -31.603 100.128  1.00  0.00     0.018 A 
ATOM      6  C   UNL     1     -23.957 -32.345 100.860  1.00  0.00     0.012 A 
ATOM      7  C   UNL     1     -22.322 -30.534 100.701  1.00  0.00     0.019 A 
ATOM      8  C   UNL     1     -21.399 -29.827  99.930  1.00  0.00     0.094 A 
ATOM      9  C   UNL     1     -21.194 -30.208  98.600  1.00  0.00     0.336 A 
ATOM     10  O   UNL     1     -20.366 -29.582  97.888  1.00  0.00    -0.246 OA
ATOM     11  O   UNL     1     -21.871 -31.228  98.078  1.00  0.00    -0.423 OA
ENDROOT
TORSDOF 0
ENDMDL
MODEL 2
REMARK VINA RESULT:    -5.143     14.092     15.455
REMARK INTER + INTRA:          -5.143
REMARK INTER:                  -5.143
REMARK INTRA:                   0.000
REMARK UNBOUND:                 0.000
REMARK SMILES O=c1ccc2ccccc2o1
REMARK SMILES IDX 7 1 8 2 9 3 10 4 5 5 6 6 4 7 3 8 2 9 1 10 11 11
REMARK H PARENT
REMARK Flexibility Score: inf
ROOT
ATOM      1  C   UNL     1     -22.751 -26.354 111.360  1.00  0.00     0.001 A 
ATOM      2  C   UNL     1     -23.176 -25.295 112.169  1.00  0.00     0.004 A 
ATOM      3  C   UNL     1     -23.922 -25.549 113.326  1.00  0.00     0.048 A 
ATOM      4  C   UNL     1     -24.246 -26.865 113.676  1.00  0.00     0.138 A 
ATOM      5  C   UNL     1     -23.816 -27.934 112.857  1.00  0.00     0.018 A 
ATOM      6  C   UNL     1     -23.069 -27.672 111.700  1.00  0.00     0.012 A 
ATOM      7  C   UNL     1     -24.155 -29.238 113.232  1.00  0.00     0.019 A 
ATOM      8  C   UNL     1     -24.899 -29.445 114.393  1.00  0.00     0.094 A 
ATOM      9  C   UNL     1     -25.290 -28.338 115.155  1.00  0.00     0.336 A 
ATOM     10  O   UNL     1     -25.963 -28.504 116.205  1.00  0.00    -0.246 OA
ATOM     11  O   UNL     1     -24.955 -27.107 114.775  1.00  0.00    -0.423 OA
ENDROOT
TORSDOF 0
ENDMDL
MODEL 3
REMARK VINA RESULT:    -5.101     13.942     15.033
REMARK INTER + INTRA:          -5.101
REMARK INTER:                  -5.101
REMARK INTRA:                   0.000
REMARK UNBOUND:                 0.000
REMARK SMILES O=c1ccc2ccccc2o1
REMARK SMILES IDX 7 1 8 2 9 3 10 4 5 5 6 6 4 7 3 8 2 9 1 10 11 11
REMARK H PARENT
REMARK Flexibility Score: inf
ROOT
ATOM      1  C   UNL     1     -24.769 -29.389 114.276  1.00  0.00     0.001 A 
ATOM      2  C   UNL     1     -25.363 -28.449 115.126  1.00  0.00     0.004 A 
ATOM      3  C   UNL     1     -25.179 -27.080 114.899  1.00  0.00     0.048 A 
ATOM      4  C   UNL     1     -24.399 -26.647 113.821  1.00  0.00     0.138 A 
ATOM      5  C   UNL     1     -23.799 -27.597 112.964  1.00  0.00     0.018 A 
ATOM      6  C   UNL     1     -23.988 -28.966 113.196  1.00  0.00     0.012 A 
ATOM      7  C   UNL     1     -23.025 -27.134 111.895  1.00  0.00     0.019 A 
ATOM      8  C   UNL     1     -22.869 -25.761 111.707  1.00  0.00     0.094 A 
ATOM      9  C   UNL     1     -23.493 -24.879 112.596  1.00  0.00     0.336 A 
ATOM     10  O   UNL     1     -23.363 -23.637 112.443  1.00  0.00    -0.246 OA
ATOM     11  O   UNL     1     -24.224 -25.345 113.605  1.00  0.00    -0.423 OA
ENDROOT
TORSDOF 0
ENDMDL
MODEL 4
REMARK VINA RESULT:    -5.087     13.136     14.152
REMARK INTER + INTRA:          -5.087
REMARK INTER:                  -5.087
REMARK INTRA:                   0.000
REMARK UNBOUND:                 0.000
REMARK SMILES O=c1ccc2ccccc2o1
REMARK SMILES IDX 7 1 8 2 9 3 10 4 5 5 6 6 4 7 3 8 2 9 1 10 11 11
REMARK H PARENT
REMARK Flexibility Score: inf
ROOT
ATOM      1  C   UNL     1     -24.258 -29.768 112.498  1.00  0.00     0.001 A 
ATOM      2  C   UNL     1     -24.128 -29.342 111.171  1.00  0.00     0.004 A 
ATOM      3  C   UNL     1     -23.888 -27.994 110.886  1.00  0.00     0.048 A 
ATOM      4  C   UNL     1     -23.777 -27.066 111.927  1.00  0.00     0.138 A 
ATOM      5  C   UNL     1     -23.908 -27.497 113.266  1.00  0.00     0.018 A 
ATOM      6  C   UNL     1     -24.149 -28.849 113.546  1.00  0.00     0.012 A 
ATOM      7  C   UNL     1     -23.792 -26.547 114.286  1.00  0.00     0.019 A 
ATOM      8  C   UNL     1     -23.553 -25.213 113.956  1.00  0.00     0.094 A 
ATOM      9  C   UNL     1     -23.434 -24.860 112.607  1.00  0.00     0.336 A 
ATOM     10  O   UNL     1     -23.218 -23.662 112.288  1.00  0.00    -0.246 OA
ATOM     11  O   UNL     1     -23.548 -25.783 111.656  1.00  0.00    -0.423 OA
ENDROOT
TORSDOF 0
ENDMDL
MODEL 5
REMARK VINA RESULT:    -5.032     12.642     14.032
REMARK INTER + INTRA:          -5.032
REMARK INTER:                  -5.032
REMARK INTRA:                   0.000
REMARK UNBOUND:                 0.000
REMARK SMILES O=c1ccc2ccccc2o1
REMARK SMILES IDX 7 1 8 2 9 3 10 4 5 5 6 6 4 7 3 8 2 9 1 10 11 11
REMARK H PARENT
REMARK Flexibility Score: inf
ROOT
ATOM      1  C   UNL     1     -23.544 -25.323 114.001  1.00  0.00     0.001 A 
ATOM      2  C   UNL     1     -23.557 -24.773 112.714  1.00  0.00     0.004 A 
ATOM      3  C   UNL     1     -23.766 -25.594 111.601  1.00  0.00     0.048 A 
ATOM      4  C   UNL     1     -23.962 -26.969 111.770  1.00  0.00     0.138 A 
ATOM      5  C   UNL     1     -23.948 -27.524 113.070  1.00  0.00     0.018 A 
ATOM      6  C   UNL     1     -23.739 -26.696 114.182  1.00  0.00     0.012 A 
ATOM      7  C   UNL     1     -24.147 -28.901 113.208  1.00  0.00     0.019 A 
ATOM      8  C   UNL     1     -24.352 -29.681 112.071  1.00  0.00     0.094 A 
ATOM      9  C   UNL     1     -24.353 -29.063 110.816  1.00  0.00     0.336 A 
ATOM     10  O   UNL     1     -24.535 -29.750 109.777  1.00  0.00    -0.246 OA
ATOM     11  O   UNL     1     -24.161 -27.750 110.711  1.00  0.00    -0.423 OA
ENDROOT
TORSDOF 0
ENDMDL
MODEL 6
REMARK VINA RESULT:    -4.972     14.580     15.853
REMARK INTER + INTRA:          -4.972
REMARK INTER:                  -4.972
REMARK INTRA:                   0.000
REMARK UNBOUND:                 0.000
REMARK SMILES O=c1ccc2ccccc2o1
REMARK SMILES IDX 7 1 8 2 9 3 10 4 5 5 6 6 4 7 3 8 2 9 1 10 11 11
REMARK H PARENT
REMARK Flexibility Score: inf
ROOT
ATOM      1  C   UNL     1     -22.897 -25.705 111.770  1.00  0.00     0.001 A 
ATOM      2  C   UNL     1     -22.871 -27.087 111.557  1.00  0.00     0.004 A 
ATOM      3  C   UNL     1     -23.507 -27.950 112.457  1.00  0.00     0.048 A 
ATOM      4  C   UNL     1     -24.171 -27.432 113.574  1.00  0.00     0.138 A 
ATOM      5  C   UNL     1     -24.197 -26.036 113.789  1.00  0.00     0.018 A 
ATOM      6  C   UNL     1     -23.558 -25.177 112.884  1.00  0.00     0.012 A 
ATOM      7  C   UNL     1     -24.869 -25.547 114.914  1.00  0.00     0.019 A 
ATOM      8  C   UNL     1     -25.489 -26.443 115.784  1.00  0.00     0.094 A 
ATOM      9  C   UNL     1     -25.422 -27.813 115.507  1.00  0.00     0.336 A 
ATOM     10  O   UNL     1     -25.975 -28.638 116.280  1.00  0.00    -0.246 OA
ATOM     11  O   UNL     1     -24.776 -28.252 114.430  1.00  0.00    -0.423 OA
ENDROOT
TORSDOF 0
ENDMDL
MODEL 7
REMARK VINA RESULT:    -4.957      9.857     10.397
REMARK INTER + INTRA:          -4.957
REMARK INTER:                  -4.957
REMARK INTRA:                   0.000
REMARK UNBOUND:                 0.000
REMARK SMILES O=c1ccc2ccccc2o1
REMARK SMILES IDX 7 1 8 2 9 3 10 4 5 5 6 6 4 7 3 8 2 9 1 10 11 11
REMARK H PARENT
REMARK Flexibility Score: inf
ROOT
ATOM      1  C   UNL     1     -28.753 -26.947 100.902  1.00  0.00     0.001 A 
ATOM      2  C   UNL     1     -28.061 -26.008 100.130  1.00  0.00     0.004 A 
ATOM      3  C   UNL     1     -28.093 -24.652 100.476  1.00  0.00     0.048 A 
ATOM      4  C   UNL     1     -28.819 -24.231 101.595  1.00  0.00     0.138 A 
ATOM      5  C   UNL     1     -29.518 -25.181 102.374  1.00  0.00     0.018 A 
ATOM      6  C   UNL     1     -29.482 -26.537 102.023  1.00  0.00     0.012 A 
ATOM      7  C   UNL     1     -30.235 -24.730 103.487  1.00  0.00     0.019 A 
ATOM      8  C   UNL     1     -30.240 -23.370 103.795  1.00  0.00     0.094 A 
ATOM      9  C   UNL     1     -29.523 -22.488 102.978  1.00  0.00     0.336 A 
ATOM     10  O   UNL     1     -29.515 -21.257 103.238  1.00  0.00    -0.246 OA
ATOM     11  O   UNL     1     -28.850 -22.942 101.924  1.00  0.00    -0.423 OA
ENDROOT
TORSDOF 0
ENDMDL
MODEL 8
REMARK VINA RESULT:    -4.943      1.344      2.210
REMARK INTER + INTRA:          -4.943
REMARK INTER:                  -4.943
REMARK INTRA:                   0.000
REMARK UNBOUND:                 0.000
REMARK SMILES O=c1ccc2ccccc2o1
REMARK SMILES IDX 7 1 8 2 9 3 10 4 5 5 6 6 4 7 3 8 2 9 1 10 11 11
REMARK H PARENT
REMARK Flexibility Score: inf
ROOT
ATOM      1  C   UNL     1     -24.353 -33.211  99.601  1.00  0.00     0.001 A 
ATOM      2  C   UNL     1     -24.126 -32.866 100.938  1.00  0.00     0.004 A 
ATOM      3  C   UNL     1     -23.050 -32.039 101.278  1.00  0.00     0.048 A 
ATOM      4  C   UNL     1     -22.196 -31.554 100.281  1.00  0.00     0.138 A 
ATOM      5  C   UNL     1     -22.426 -31.902  98.931  1.00  0.00     0.018 A 
ATOM      6  C   UNL     1     -23.506 -32.732  98.597  1.00  0.00     0.012 A 
ATOM      7  C   UNL     1     -21.556 -31.402  97.957  1.00  0.00     0.019 A 
ATOM      8  C   UNL     1     -20.497 -30.581  98.341  1.00  0.00     0.094 A 
ATOM      9  C   UNL     1     -20.331 -30.277  99.697  1.00  0.00     0.336 A 
ATOM     10  O   UNL     1     -19.381 -29.538 100.064  1.00  0.00    -0.246 OA
ATOM     11  O   UNL     1     -21.173 -30.767 100.605  1.00  0.00    -0.423 OA
ENDROOT
TORSDOF 0
ENDMDL
MODEL 9
REMARK VINA RESULT:    -4.898      8.425      8.955
REMARK INTER + INTRA:          -4.898
REMARK INTER:                  -4.898
REMARK INTRA:                   0.000
REMARK UNBOUND:                 0.000
REMARK SMILES O=c1ccc2ccccc2o1
REMARK SMILES IDX 7 1 8 2 9 3 10 4 5 5 6 6 4 7 3 8 2 9 1 10 11 11
REMARK H PARENT
REMARK Flexibility Score: inf
ROOT
ATOM      1  C   UNL     1     -28.850 -26.906 101.859  1.00  0.00     0.001 A 
ATOM      2  C   UNL     1     -28.564 -26.582 100.529  1.00  0.00     0.004 A 
ATOM      3  C   UNL     1     -27.840 -25.423 100.227  1.00  0.00     0.048 A 
ATOM      4  C   UNL     1     -27.399 -24.584 101.256  1.00  0.00     0.138 A 
ATOM      5  C   UNL     1     -27.689 -24.912 102.600  1.00  0.00     0.018 A 
ATOM      6  C   UNL     1     -28.414 -26.074 102.895  1.00  0.00     0.012 A 
ATOM      7  C   UNL     1     -27.235 -24.054 103.607  1.00  0.00     0.019 A 
ATOM      8  C   UNL     1     -26.517 -22.910 103.260  1.00  0.00     0.094 A 
ATOM      9  C   UNL     1     -26.267 -22.650 101.908  1.00  0.00     0.336 A 
ATOM     10  O   UNL     1     -25.622 -21.623 101.575  1.00  0.00    -0.246 OA
ATOM     11  O   UNL     1     -26.711 -23.482 100.969  1.00  0.00    -0.423 OA
ENDROOT
TORSDOF 0
ENDMDL
