MODEL 1
REMARK VINA RESULT:    -6.348      0.000      0.000
REMARK INTER + INTRA:          -7.155
REMARK INTER:                  -7.461
REMARK INTRA:                   0.306
REMARK UNBOUND:                 0.306
REMARK SMILES O=c1c(O)c(-c2ccc(O)c(O)c2)oc2cc(O)ccc12
REMARK SMILES IDX 5 1 3 2 2 3 1 4 21 5 15 6 14 7 16 8 17 9 19 10 20 11 6 12
REMARK SMILES IDX 7 13 8 14 9 15 13 16 11 17 10 18 12 20 4 22 18 24
REMARK H PARENT 10 19 12 21 4 23 18 25
REMARK Flexibility Score: inf
ROOT
ATOM      1  C   UNL     1      -4.637  -6.745  -5.420  1.00  0.00     0.180 A 
ATOM      2  C   UNL     1      -3.362  -7.281  -5.139  1.00  0.00     0.208 A 
ATOM      3  C   UNL     1      -3.232  -8.200  -4.086  1.00  0.00     0.235 A 
ATOM      4  O   UNL     1      -2.104  -8.701  -3.823  1.00  0.00    -0.285 OA
ATOM      5  C   UNL     1      -4.361  -8.546  -3.328  1.00  0.00     0.069 A 
ATOM      6  C   UNL     1      -5.597  -7.948  -3.657  1.00  0.00     0.142 A 
ATOM      7  O   UNL     1      -5.679  -7.089  -4.667  1.00  0.00    -0.452 OA
ATOM      8  C   UNL     1      -6.743  -8.260  -2.919  1.00  0.00     0.094 A 
ATOM      9  C   UNL     1      -6.674  -9.165  -1.856  1.00  0.00     0.119 A 
ATOM     10  C   UNL     1      -5.449  -9.763  -1.527  1.00  0.00     0.047 A 
ATOM     11  C   UNL     1      -4.297  -9.456  -2.257  1.00  0.00     0.020 A 
ENDROOT
BRANCH   1  12
ATOM     12  C   UNL     1      -4.860  -5.785  -6.525  1.00  0.00     0.025 A 
ATOM     13  C   UNL     1      -5.831  -4.776  -6.430  1.00  0.00     0.016 A 
ATOM     14  C   UNL     1      -6.007  -3.868  -7.476  1.00  0.00     0.051 A 
ATOM     15  C   UNL     1      -5.215  -3.939  -8.626  1.00  0.00     0.157 A 
ATOM     16  C   UNL     1      -4.049  -5.846  -7.668  1.00  0.00     0.062 A 
ATOM     17  C   UNL     1      -4.219  -4.940  -8.723  1.00  0.00     0.158 A 
BRANCH  15  18
ATOM     18  O   UNL     1      -5.445  -3.003  -9.637  1.00  0.00    -0.504 OA
ATOM     19  H   UNL     1      -5.204  -3.149 -10.606  1.00  0.00     0.293 HD
ENDBRANCH  15  18
BRANCH  17  20
ATOM     20  O   UNL     1      -3.382  -5.067  -9.833  1.00  0.00    -0.504 OA
ATOM     21  H   UNL     1      -2.661  -4.404 -10.076  1.00  0.00     0.293 HD
ENDBRANCH  17  20
ENDBRANCH   1  12
BRANCH   2  22
ATOM     22  O   UNL     1      -2.248  -6.880  -5.879  1.00  0.00    -0.502 OA
ATOM     23  H   UNL     1      -1.609  -7.545  -6.300  1.00  0.00     0.293 HD
ENDBRANCH   2  22
BRANCH   9  24
ATOM     24  O   UNL     1      -7.825  -9.465  -1.131  1.00  0.00    -0.508 OA
ATOM     25  H   UNL     1      -8.274  -8.776  -0.539  1.00  0.00     0.293 HD
ENDBRANCH   9  24
TORSDOF 5
ENDMDL
MODEL 2
REMARK VINA RESULT:    -5.741      2.199      3.406
REMARK INTER + INTRA:          -6.442
REMARK INTER:                  -6.163
REMARK INTRA:                  -0.279
REMARK UNBOUND:                 0.306
REMARK SMILES O=c1c(O)c(-c2ccc(O)c(O)c2)oc2cc(O)ccc12
REMARK SMILES IDX 5 1 3 2 2 3 1 4 21 5 15 6 14 7 16 8 17 9 19 10 20 11 6 12
REMARK SMILES IDX 7 13 8 14 9 15 13 16 11 17 10 18 12 20 4 22 18 24
REMARK H PARENT 10 19 12 21 4 23 18 25
REMARK Flexibility Score: inf
ROOT
ATOM      1  C   UNL     1      -5.282  -7.610  -5.625  1.00  0.00     0.180 A 
ATOM      2  C   UNL     1      -5.996  -8.368  -6.577  1.00  0.00     0.208 A 
ATOM      3  C   UNL     1      -7.046  -9.189  -6.137  1.00  0.00     0.235 A 
ATOM      4  O   UNL     1      -7.707  -9.868  -6.969  1.00  0.00    -0.285 OA
ATOM      5  C   UNL     1      -7.345  -9.252  -4.766  1.00  0.00     0.069 A 
ATOM      6  C   UNL     1      -6.568  -8.481  -3.876  1.00  0.00     0.142 A 
ATOM      7  O   UNL     1      -5.589  -7.710  -4.334  1.00  0.00    -0.452 OA
ATOM      8  C   UNL     1      -6.830  -8.524  -2.502  1.00  0.00     0.094 A 
ATOM      9  C   UNL     1      -7.861  -9.327  -2.004  1.00  0.00     0.119 A 
ATOM     10  C   UNL     1      -8.636 -10.093  -2.886  1.00  0.00     0.047 A 
ATOM     11  C   UNL     1      -8.382 -10.058  -4.260  1.00  0.00     0.020 A 
ENDROOT
BRANCH   1  12
ATOM     12  C   UNL     1      -4.173  -6.707  -6.011  1.00  0.00     0.025 A 
ATOM     13  C   UNL     1      -4.420  -5.463  -6.611  1.00  0.00     0.016 A 
ATOM     14  C   UNL     1      -3.359  -4.618  -6.945  1.00  0.00     0.051 A 
ATOM     15  C   UNL     1      -2.038  -4.990  -6.676  1.00  0.00     0.157 A 
ATOM     16  C   UNL     1      -2.850  -7.074  -5.721  1.00  0.00     0.062 A 
ATOM     17  C   UNL     1      -1.779  -6.233  -6.052  1.00  0.00     0.158 A 
BRANCH  15  18
ATOM     18  O   UNL     1      -1.023  -4.102  -7.038  1.00  0.00    -0.504 OA
ATOM     19  H   UNL     1      -0.790  -3.268  -6.518  1.00  0.00     0.293 HD
ENDBRANCH  15  18
BRANCH  17  20
ATOM     20  O   UNL     1      -0.489  -6.669  -5.742  1.00  0.00    -0.504 OA
ATOM     21  H   UNL     1      -0.185  -7.629  -5.816  1.00  0.00     0.293 HD
ENDBRANCH  17  20
ENDBRANCH   1  12
BRANCH   2  22
ATOM     22  O   UNL     1      -5.643  -8.323  -7.927  1.00  0.00    -0.502 OA
ATOM     23  H   UNL     1      -6.308  -8.083  -8.653  1.00  0.00     0.293 HD
ENDBRANCH   2  22
BRANCH   9  24
ATOM     24  O   UNL     1      -8.108  -9.358  -0.634  1.00  0.00    -0.508 OA
ATOM     25  H   UNL     1      -8.469  -8.549  -0.141  1.00  0.00     0.293 HD
ENDBRANCH   9  24
TORSDOF 5
ENDMDL
MODEL 3
REMARK VINA RESULT:    -5.726      4.725      6.914
REMARK INTER + INTRA:          -6.425
REMARK INTER:                  -6.138
REMARK INTRA:                  -0.287
REMARK UNBOUND:                 0.306
REMARK SMILES O=c1c(O)c(-c2ccc(O)c(O)c2)oc2cc(O)ccc12
REMARK SMILES IDX 5 1 3 2 2 3 1 4 21 5 15 6 14 7 16 8 17 9 19 10 20 11 6 12
REMARK SMILES IDX 7 13 8 14 9 15 13 16 11 17 10 18 12 20 4 22 18 24
REMARK H PARENT 10 19 12 21 4 23 18 25
REMARK Flexibility Score: inf
ROOT
ATOM      1  C   UNL     1      -0.214  -7.534  -6.344  1.00  0.00     0.180 A 
ATOM      2  C   UNL     1      -0.026  -8.237  -5.135  1.00  0.00     0.208 A 
ATOM      3  C   UNL     1       1.136  -9.007  -4.975  1.00  0.00     0.235 A 
ATOM      4  O   UNL     1       1.332  -9.636  -3.900  1.00  0.00    -0.285 OA
ATOM      5  C   UNL     1       2.068  -9.076  -6.023  1.00  0.00     0.069 A 
ATOM      6  C   UNL     1       1.796  -8.362  -7.210  1.00  0.00     0.142 A 
ATOM      7  O   UNL     1       0.688  -7.638  -7.318  1.00  0.00    -0.452 OA
ATOM      8  C   UNL     1       2.696  -8.414  -8.280  1.00  0.00     0.094 A 
ATOM      9  C   UNL     1       3.869  -9.168  -8.180  1.00  0.00     0.119 A 
ATOM     10  C   UNL     1       4.144  -9.877  -7.002  1.00  0.00     0.047 A 
ATOM     11  C   UNL     1       3.250  -9.834  -5.928  1.00  0.00     0.020 A 
ENDROOT
BRANCH   1  12
ATOM     12  C   UNL     1      -1.404  -6.685  -6.583  1.00  0.00     0.025 A 
ATOM     13  C   UNL     1      -1.338  -5.287  -6.478  1.00  0.00     0.016 A 
ATOM     14  C   UNL     1      -2.467  -4.507  -6.732  1.00  0.00     0.051 A 
ATOM     15  C   UNL     1      -3.677  -5.101  -7.106  1.00  0.00     0.157 A 
ATOM     16  C   UNL     1      -2.611  -7.282  -6.978  1.00  0.00     0.062 A 
ATOM     17  C   UNL     1      -3.750  -6.508  -7.234  1.00  0.00     0.158 A 
BRANCH  15  18
ATOM     18  O   UNL     1      -4.770  -4.264  -7.340  1.00  0.00    -0.504 OA
ATOM     19  H   UNL     1      -5.233  -4.176  -8.233  1.00  0.00     0.293 HD
ENDBRANCH  15  18
BRANCH  17  20
ATOM     20  O   UNL     1      -4.918  -7.172  -7.613  1.00  0.00    -0.504 OA
ATOM     21  H   UNL     1      -5.697  -7.342  -6.993  1.00  0.00     0.293 HD
ENDBRANCH  17  20
ENDBRANCH   1  12
BRANCH   2  22
ATOM     22  O   UNL     1      -0.995  -8.189  -4.131  1.00  0.00    -0.502 OA
ATOM     23  H   UNL     1      -1.662  -8.938  -3.986  1.00  0.00     0.293 HD
ENDBRANCH   2  22
BRANCH   9  24
ATOM     24  O   UNL     1       4.754  -9.208  -9.254  1.00  0.00    -0.508 OA
ATOM     25  H   UNL     1       5.016 -10.083  -9.694  1.00  0.00     0.293 HD
ENDBRANCH   9  24
TORSDOF 5
ENDMDL
MODEL 4
REMARK VINA RESULT:    -5.711      3.342      5.886
REMARK INTER + INTRA:          -6.407
REMARK INTER:                  -6.103
REMARK INTRA:                  -0.304
REMARK UNBOUND:                 0.306
REMARK SMILES O=c1c(O)c(-c2ccc(O)c(O)c2)oc2cc(O)ccc12
REMARK SMILES IDX 5 1 3 2 2 3 1 4 21 5 15 6 14 7 16 8 17 9 19 10 20 11 6 12
REMARK SMILES IDX 7 13 8 14 9 15 13 16 11 17 10 18 12 20 4 22 18 24
REMARK H PARENT 10 19 12 21 4 23 18 25
REMARK Flexibility Score: inf
ROOT
ATOM      1  C   UNL     1      -2.492  -7.210  -7.121  1.00  0.00     0.180 A 
ATOM      2  C   UNL     1      -2.177  -7.297  -8.494  1.00  0.00     0.208 A 
ATOM      3  C   UNL     1      -0.938  -7.838  -8.871  1.00  0.00     0.235 A 
ATOM      4  O   UNL     1      -0.639  -7.936 -10.092  1.00  0.00    -0.285 OA
ATOM      5  C   UNL     1      -0.038  -8.258  -7.879  1.00  0.00     0.069 A 
ATOM      6  C   UNL     1      -0.418  -8.116  -6.527  1.00  0.00     0.142 A 
ATOM      7  O   UNL     1      -1.604  -7.607  -6.212  1.00  0.00    -0.452 OA
ATOM      8  C   UNL     1       0.456  -8.515  -5.509  1.00  0.00     0.094 A 
ATOM      9  C   UNL     1       1.705  -9.057  -5.824  1.00  0.00     0.119 A 
ATOM     10  C   UNL     1       2.085  -9.202  -7.166  1.00  0.00     0.047 A 
ATOM     11  C   UNL     1       1.221  -8.805  -8.190  1.00  0.00     0.020 A 
ENDROOT
BRANCH   1  12
ATOM     12  C   UNL     1      -3.785  -6.668  -6.643  1.00  0.00     0.025 A 
ATOM     13  C   UNL     1      -3.992  -5.287  -6.506  1.00  0.00     0.016 A 
ATOM     14  C   UNL     1      -5.228  -4.799  -6.076  1.00  0.00     0.051 A 
ATOM     15  C   UNL     1      -6.281  -5.674  -5.788  1.00  0.00     0.157 A 
ATOM     16  C   UNL     1      -4.846  -7.547  -6.376  1.00  0.00     0.062 A 
ATOM     17  C   UNL     1      -6.089  -7.067  -5.944  1.00  0.00     0.158 A 
BRANCH  15  18
ATOM     18  O   UNL     1      -7.489  -5.122  -5.359  1.00  0.00    -0.504 OA
ATOM     19  H   UNL     1      -7.584  -4.540  -4.539  1.00  0.00     0.293 HD
ENDBRANCH  15  18
BRANCH  17  20
ATOM     20  O   UNL     1      -7.094  -8.001  -5.686  1.00  0.00    -0.504 OA
ATOM     21  H   UNL     1      -7.309  -8.360  -4.767  1.00  0.00     0.293 HD
ENDBRANCH  17  20
ENDBRANCH   1  12
BRANCH   2  22
ATOM     22  O   UNL     1      -3.073  -6.824  -9.456  1.00  0.00    -0.502 OA
ATOM     23  H   UNL     1      -4.074  -6.810  -9.303  1.00  0.00     0.293 HD
ENDBRANCH   2  22
BRANCH   9  24
ATOM     24  O   UNL     1       2.562  -9.450  -4.799  1.00  0.00    -0.508 OA
ATOM     25  H   UNL     1       3.532  -9.682  -4.978  1.00  0.00     0.293 HD
ENDBRANCH   9  24
TORSDOF 5
ENDMDL
MODEL 5
REMARK VINA RESULT:    -5.516      3.308      6.005
REMARK INTER + INTRA:          -6.178
REMARK INTER:                  -6.274
REMARK INTRA:                   0.096
REMARK UNBOUND:                 0.306
REMARK SMILES O=c1c(O)c(-c2ccc(O)c(O)c2)oc2cc(O)ccc12
REMARK SMILES IDX 5 1 3 2 2 3 1 4 21 5 15 6 14 7 16 8 17 9 19 10 20 11 6 12
REMARK SMILES IDX 7 13 8 14 9 15 13 16 11 17 10 18 12 20 4 22 18 24
REMARK H PARENT 10 19 12 21 4 23 18 25
REMARK Flexibility Score: inf
ROOT
ATOM      1  C   UNL     1      -1.580  -7.451  -5.850  1.00  0.00     0.180 A 
ATOM      2  C   UNL     1      -1.792  -6.177  -6.418  1.00  0.00     0.208 A 
ATOM      3  C   UNL     1      -3.074  -5.610  -6.347  1.00  0.00     0.235 A 
ATOM      4  O   UNL     1      -3.285  -4.468  -6.837  1.00  0.00    -0.285 OA
ATOM      5  C   UNL     1      -4.114  -6.328  -5.735  1.00  0.00     0.069 A 
ATOM      6  C   UNL     1      -3.826  -7.607  -5.211  1.00  0.00     0.142 A 
ATOM      7  O   UNL     1      -2.597  -8.104  -5.291  1.00  0.00    -0.452 OA
ATOM      8  C   UNL     1      -4.838  -8.357  -4.602  1.00  0.00     0.094 A 
ATOM      9  C   UNL     1      -6.135  -7.845  -4.506  1.00  0.00     0.119 A 
ATOM     10  C   UNL     1      -6.425  -6.575  -5.023  1.00  0.00     0.047 A 
ATOM     11  C   UNL     1      -5.421  -5.818  -5.635  1.00  0.00     0.020 A 
ENDROOT
BRANCH   1  12
ATOM     12  C   UNL     1      -0.254  -8.109  -5.867  1.00  0.00     0.025 A 
ATOM     13  C   UNL     1       0.544  -8.114  -7.022  1.00  0.00     0.016 A 
ATOM     14  C   UNL     1       1.802  -8.720  -7.007  1.00  0.00     0.051 A 
ATOM     15  C   UNL     1       2.292  -9.320  -5.843  1.00  0.00     0.157 A 
ATOM     16  C   UNL     1       0.245  -8.692  -4.692  1.00  0.00     0.062 A 
ATOM     17  C   UNL     1       1.505  -9.303  -4.667  1.00  0.00     0.158 A 
BRANCH  15  18
ATOM     18  O   UNL     1       3.555  -9.913  -5.896  1.00  0.00    -0.504 OA
ATOM     19  H   UNL     1       4.258  -9.812  -5.178  1.00  0.00     0.293 HD
ENDBRANCH  15  18
BRANCH  17  20
ATOM     20  O   UNL     1       1.930  -9.871  -3.465  1.00  0.00    -0.504 OA
ATOM     21  H   UNL     1       2.407  -9.360  -2.737  1.00  0.00     0.293 HD
ENDBRANCH  17  20
ENDBRANCH   1  12
BRANCH   2  22
ATOM     22  O   UNL     1      -0.750  -5.509  -7.064  1.00  0.00    -0.502 OA
ATOM     23  H   UNL     1      -0.207  -5.940  -7.803  1.00  0.00     0.293 HD
ENDBRANCH   2  22
BRANCH   9  24
ATOM     24  O   UNL     1      -7.131  -8.605  -3.896  1.00  0.00    -0.508 OA
ATOM     25  H   UNL     1      -7.950  -8.174  -3.484  1.00  0.00     0.293 HD
ENDBRANCH   9  24
TORSDOF 5
ENDMDL
MODEL 6
REMARK VINA RESULT:    -5.512      2.779      6.363
REMARK INTER + INTRA:          -6.173
REMARK INTER:                  -6.553
REMARK INTRA:                   0.380
REMARK UNBOUND:                 0.306
REMARK SMILES O=c1c(O)c(-c2ccc(O)c(O)c2)oc2cc(O)ccc12
REMARK SMILES IDX 5 1 3 2 2 3 1 4 21 5 15 6 14 7 16 8 17 9 19 10 20 11 6 12
REMARK SMILES IDX 7 13 8 14 9 15 13 16 11 17 10 18 12 20 4 22 18 24
REMARK H PARENT 10 19 12 21 4 23 18 25
REMARK Flexibility Score: inf
ROOT
ATOM      1  C   UNL     1      -2.292  -7.325  -5.817  1.00  0.00     0.180 A 
ATOM      2  C   UNL     1      -3.213  -7.826  -4.873  1.00  0.00     0.208 A 
ATOM      3  C   UNL     1      -4.502  -7.273  -4.826  1.00  0.00     0.235 A 
ATOM      4  O   UNL     1      -5.346  -7.711  -3.998  1.00  0.00    -0.285 OA
ATOM      5  C   UNL     1      -4.836  -6.226  -5.700  1.00  0.00     0.069 A 
ATOM      6  C   UNL     1      -3.851  -5.765  -6.599  1.00  0.00     0.142 A 
ATOM      7  O   UNL     1      -2.646  -6.321  -6.617  1.00  0.00    -0.452 OA
ATOM      8  C   UNL     1      -4.143  -4.717  -7.479  1.00  0.00     0.094 A 
ATOM      9  C   UNL     1      -5.409  -4.124  -7.476  1.00  0.00     0.119 A 
ATOM     10  C   UNL     1      -6.391  -4.580  -6.585  1.00  0.00     0.047 A 
ATOM     11  C   UNL     1      -6.109  -5.625  -5.700  1.00  0.00     0.020 A 
ENDROOT
BRANCH   1  12
ATOM     12  C   UNL     1      -0.920  -7.867  -5.941  1.00  0.00     0.025 A 
ATOM     13  C   UNL     1      -0.192  -7.746  -7.135  1.00  0.00     0.016 A 
ATOM     14  C   UNL     1       1.109  -8.244  -7.221  1.00  0.00     0.051 A 
ATOM     15  C   UNL     1       1.713  -8.859  -6.120  1.00  0.00     0.157 A 
ATOM     16  C   UNL     1      -0.309  -8.464  -4.829  1.00  0.00     0.062 A 
ATOM     17  C   UNL     1       0.996  -8.968  -4.905  1.00  0.00     0.158 A 
BRANCH  15  18
ATOM     18  O   UNL     1       3.015  -9.340  -6.274  1.00  0.00    -0.504 OA
ATOM     19  H   UNL     1       3.657  -9.488  -5.508  1.00  0.00     0.293 HD
ENDBRANCH  15  18
BRANCH  17  20
ATOM     20  O   UNL     1       1.535  -9.558  -3.761  1.00  0.00    -0.504 OA
ATOM     21  H   UNL     1       1.362 -10.514  -3.484  1.00  0.00     0.293 HD
ENDBRANCH  17  20
ENDBRANCH   1  12
BRANCH   2  22
ATOM     22  O   UNL     1      -2.836  -8.833  -3.983  1.00  0.00    -0.502 OA
ATOM     23  H   UNL     1      -3.426  -9.124  -3.211  1.00  0.00     0.293 HD
ENDBRANCH   2  22
BRANCH   9  24
ATOM     24  O   UNL     1      -5.683  -3.083  -8.359  1.00  0.00    -0.508 OA
ATOM     25  H   UNL     1      -5.917  -2.154  -8.028  1.00  0.00     0.293 HD
ENDBRANCH   9  24
TORSDOF 5
ENDMDL
MODEL 7
REMARK VINA RESULT:    -5.370      3.430      6.139
REMARK INTER + INTRA:          -6.006
REMARK INTER:                  -6.012
REMARK INTRA:                   0.006
REMARK UNBOUND:                 0.306
REMARK SMILES O=c1c(O)c(-c2ccc(O)c(O)c2)oc2cc(O)ccc12
REMARK SMILES IDX 5 1 3 2 2 3 1 4 21 5 15 6 14 7 16 8 17 9 19 10 20 11 6 12
REMARK SMILES IDX 7 13 8 14 9 15 13 16 11 17 10 18 12 20 4 22 18 24
REMARK H PARENT 10 19 12 21 4 23 18 25
REMARK Flexibility Score: inf
ROOT
ATOM      1  C   UNL     1      -2.099  -7.548  -5.861  1.00  0.00     0.180 A 
ATOM      2  C   UNL     1      -1.461  -8.195  -4.783  1.00  0.00     0.208 A 
ATOM      3  C   UNL     1      -0.191  -8.756  -4.986  1.00  0.00     0.235 A 
ATOM      4  O   UNL     1       0.404  -9.330  -4.034  1.00  0.00    -0.285 OA
ATOM      5  C   UNL     1       0.401  -8.680  -6.257  1.00  0.00     0.069 A 
ATOM      6  C   UNL     1      -0.312  -8.036  -7.290  1.00  0.00     0.142 A 
ATOM      7  O   UNL     1      -1.508  -7.510  -7.054  1.00  0.00    -0.452 OA
ATOM      8  C   UNL     1       0.241  -7.949  -8.573  1.00  0.00     0.094 A 
ATOM      9  C   UNL     1       1.501  -8.494  -8.837  1.00  0.00     0.119 A 
ATOM     10  C   UNL     1       2.214  -9.132  -7.812  1.00  0.00     0.047 A 
ATOM     11  C   UNL     1       1.669  -9.227  -6.528  1.00  0.00     0.020 A 
ENDROOT
BRANCH   1  12
ATOM     12  C   UNL     1      -3.431  -6.915  -5.723  1.00  0.00     0.025 A 
ATOM     13  C   UNL     1      -3.659  -5.594  -6.139  1.00  0.00     0.016 A 
ATOM     14  C   UNL     1      -4.929  -5.026  -6.020  1.00  0.00     0.051 A 
ATOM     15  C   UNL     1      -5.995  -5.765  -5.498  1.00  0.00     0.157 A 
ATOM     16  C   UNL     1      -4.504  -7.665  -5.218  1.00  0.00     0.062 A 
ATOM     17  C   UNL     1      -5.781  -7.104  -5.094  1.00  0.00     0.158 A 
BRANCH  15  18
ATOM     18  O   UNL     1      -7.239  -5.137  -5.401  1.00  0.00    -0.504 OA
ATOM     19  H   UNL     1      -7.673  -4.625  -6.155  1.00  0.00     0.293 HD
ENDBRANCH  15  18
BRANCH  17  20
ATOM     20  O   UNL     1      -6.798  -7.907  -4.574  1.00  0.00    -0.504 OA
ATOM     21  H   UNL     1      -7.046  -8.814  -4.943  1.00  0.00     0.293 HD
ENDBRANCH  17  20
ENDBRANCH   1  12
BRANCH   2  22
ATOM     22  O   UNL     1      -2.097  -8.298  -3.544  1.00  0.00    -0.502 OA
ATOM     23  H   UNL     1      -2.234  -7.498  -2.937  1.00  0.00     0.293 HD
ENDBRANCH   2  22
BRANCH   9  24
ATOM     24  O   UNL     1       2.037  -8.397 -10.119  1.00  0.00    -0.508 OA
ATOM     25  H   UNL     1       1.473  -8.109 -10.910  1.00  0.00     0.293 HD
ENDBRANCH   9  24
TORSDOF 5
ENDMDL
MODEL 8
REMARK VINA RESULT:    -5.206      3.034      5.591
REMARK INTER + INTRA:          -5.813
REMARK INTER:                  -5.503
REMARK INTRA:                  -0.310
REMARK UNBOUND:                 0.306
REMARK SMILES O=c1c(O)c(-c2ccc(O)c(O)c2)oc2cc(O)ccc12
REMARK SMILES IDX 5 1 3 2 2 3 1 4 21 5 15 6 14 7 16 8 17 9 19 10 20 11 6 12
REMARK SMILES IDX 7 13 8 14 9 15 13 16 11 17 10 18 12 20 4 22 18 24
REMARK H PARENT 10 19 12 21 4 23 18 25
REMARK Flexibility Score: inf
ROOT
ATOM      1  C   UNL     1      -3.370  -6.676  -6.539  1.00  0.00     0.180 A 
ATOM      2  C   UNL     1      -3.480  -5.378  -7.082  1.00  0.00     0.208 A 
ATOM      3  C   UNL     1      -4.754  -4.884  -7.400  1.00  0.00     0.235 A 
ATOM      4  O   UNL     1      -4.879  -3.723  -7.875  1.00  0.00    -0.285 OA
ATOM      5  C   UNL     1      -5.881  -5.696  -7.192  1.00  0.00     0.069 A 
ATOM      6  C   UNL     1      -5.685  -6.991  -6.668  1.00  0.00     0.142 A 
ATOM      7  O   UNL     1      -4.463  -7.418  -6.372  1.00  0.00    -0.452 OA
ATOM      8  C   UNL     1      -6.782  -7.833  -6.456  1.00  0.00     0.094 A 
ATOM      9  C   UNL     1      -8.075  -7.397  -6.758  1.00  0.00     0.119 A 
ATOM     10  C   UNL     1      -8.275  -6.110  -7.277  1.00  0.00     0.047 A 
ATOM     11  C   UNL     1      -7.185  -5.262  -7.495  1.00  0.00     0.020 A 
ENDROOT
BRANCH   1  12
ATOM     12  C   UNL     1      -2.064  -7.263  -6.161  1.00  0.00     0.025 A 
ATOM     13  C   UNL     1      -1.599  -7.218  -4.837  1.00  0.00     0.016 A 
ATOM     14  C   UNL     1      -0.375  -7.799  -4.500  1.00  0.00     0.051 A 
ATOM     15  C   UNL     1       0.401  -8.444  -5.468  1.00  0.00     0.157 A 
ATOM     16  C   UNL     1      -1.297  -7.928  -7.130  1.00  0.00     0.062 A 
ATOM     17  C   UNL     1      -0.068  -8.513  -6.801  1.00  0.00     0.158 A 
BRANCH  15  18
ATOM     18  O   UNL     1       1.617  -9.000  -5.066  1.00  0.00    -0.504 OA
ATOM     19  H   UNL     1       1.860  -9.192  -4.105  1.00  0.00     0.293 HD
ENDBRANCH  15  18
BRANCH  17  20
ATOM     20  O   UNL     1       0.644  -9.149  -7.820  1.00  0.00    -0.504 OA
ATOM     21  H   UNL     1       0.597  -8.882  -8.793  1.00  0.00     0.293 HD
ENDBRANCH  17  20
ENDBRANCH   1  12
BRANCH   2  22
ATOM     22  O   UNL     1      -2.336  -4.614  -7.323  1.00  0.00    -0.502 OA
ATOM     23  H   UNL     1      -2.085  -3.819  -6.747  1.00  0.00     0.293 HD
ENDBRANCH   2  22
BRANCH   9  24
ATOM     24  O   UNL     1      -9.156  -8.248  -6.540  1.00  0.00    -0.508 OA
ATOM     25  H   UNL     1     -10.005  -8.178  -7.089  1.00  0.00     0.293 HD
ENDBRANCH   9  24
TORSDOF 5
ENDMDL
