MODEL 1
REMARK VINA RESULT:    -4.497      0.000      0.000
REMARK INTER + INTRA:          -5.294
REMARK INTER:                  -5.154
REMARK INTRA:                  -0.140
REMARK UNBOUND:                -0.140
REMARK SMILES O=C([O-])C=Cc1ccc(O)cc1
REMARK SMILES IDX 6 1 7 2 12 3 8 4 11 5 9 6 5 7 4 8 2 9 1 10 3 11 10 12
REMARK H PARENT 10 13
REMARK Flexibility Score: inf
ROOT
ATOM      1  C   UNL     1     478.112  36.429 461.208  1.00  0.00    -0.025 A 
ATOM      2  C   UNL     1     478.204  35.022 461.245  1.00  0.00     0.012 A 
ATOM      3  C   UNL     1     477.097  37.061 461.947  1.00  0.00     0.012 A 
ATOM      4  C   UNL     1     477.315  34.275 462.023  1.00  0.00     0.047 A 
ATOM      5  C   UNL     1     476.210  36.309 462.724  1.00  0.00     0.047 A 
ATOM      6  C   UNL     1     476.318  34.914 462.767  1.00  0.00     0.115 A 
ENDROOT
BRANCH   1   7
ATOM      7  C   UNL     1     479.022  37.268 460.391  1.00  0.00     0.010 C 
ATOM      8  C   UNL     1     479.757  36.797 459.372  1.00  0.00     0.025 C 
BRANCH   8   9
ATOM      9  C   UNL     1     480.659  37.659 458.590  1.00  0.00     0.064 C 
ATOM     10  O   UNL     1     480.467  37.858 457.360  1.00  0.00    -0.545 OA
ATOM     11  O   UNL     1     481.741  38.262 459.217  1.00  0.00    -0.545 OA
ENDBRANCH   8   9
ENDBRANCH   1   7
BRANCH   6  12
ATOM     12  O   UNL     1     475.441  34.156 463.538  1.00  0.00    -0.508 OA
ATOM     13  H   UNL     1     475.249  33.184 463.321  1.00  0.00     0.293 HD
ENDBRANCH   6  12
TORSDOF 3
ENDMDL
MODEL 2
REMARK VINA RESULT:    -4.462      0.115      1.401
REMARK INTER + INTRA:          -5.254
REMARK INTER:                  -5.105
REMARK INTRA:                  -0.149
REMARK UNBOUND:                -0.140
REMARK SMILES O=C([O-])C=Cc1ccc(O)cc1
REMARK SMILES IDX 6 1 7 2 12 3 8 4 11 5 9 6 5 7 4 8 2 9 1 10 3 11 10 12
REMARK H PARENT 10 13
REMARK Flexibility Score: inf
ROOT
ATOM      1  C   UNL     1     478.072  36.465 461.229  1.00  0.00    -0.025 A 
ATOM      2  C   UNL     1     477.040  37.022 462.012  1.00  0.00     0.012 A 
ATOM      3  C   UNL     1     478.253  35.072 461.239  1.00  0.00     0.012 A 
ATOM      4  C   UNL     1     476.198  36.197 462.763  1.00  0.00     0.047 A 
ATOM      5  C   UNL     1     477.408  34.251 461.991  1.00  0.00     0.047 A 
ATOM      6  C   UNL     1     476.376  34.810 462.754  1.00  0.00     0.115 A 
ENDROOT
BRANCH   1   7
ATOM      7  C   UNL     1     479.001  37.296 460.424  1.00  0.00     0.010 C 
ATOM      8  C   UNL     1     479.723  36.826 459.396  1.00  0.00     0.025 C 
BRANCH   8   9
ATOM      9  C   UNL     1     480.644  37.679 458.627  1.00  0.00     0.064 C 
ATOM     10  O   UNL     1     480.566  37.757 457.372  1.00  0.00    -0.545 OA
ATOM     11  O   UNL     1     481.617  38.410 459.295  1.00  0.00    -0.545 OA
ENDBRANCH   8   9
ENDBRANCH   1   7
BRANCH   6  12
ATOM     12  O   UNL     1     475.528  34.002 463.506  1.00  0.00    -0.508 OA
ATOM     13  H   UNL     1     475.136  34.319 464.385  1.00  0.00     0.293 HD
ENDBRANCH   6  12
TORSDOF 3
ENDMDL
MODEL 3
REMARK VINA RESULT:    -4.210      2.981      5.253
REMARK INTER + INTRA:          -4.965
REMARK INTER:                  -4.830
REMARK INTRA:                  -0.136
REMARK UNBOUND:                -0.140
REMARK SMILES O=C([O-])C=Cc1ccc(O)cc1
REMARK SMILES IDX 6 1 7 2 12 3 8 4 11 5 9 6 5 7 4 8 2 9 1 10 3 11 10 12
REMARK H PARENT 10 13
REMARK Flexibility Score: inf
ROOT
ATOM      1  C   UNL     1     477.728  37.295 461.495  1.00  0.00    -0.025 A 
ATOM      2  C   UNL     1     477.563  35.926 461.791  1.00  0.00     0.012 A 
ATOM      3  C   UNL     1     478.628  37.666 460.483  1.00  0.00     0.012 A 
ATOM      4  C   UNL     1     478.267  34.957 461.071  1.00  0.00     0.047 A 
ATOM      5  C   UNL     1     479.330  36.693 459.764  1.00  0.00     0.047 A 
ATOM      6  C   UNL     1     479.149  35.335 460.055  1.00  0.00     0.115 A 
ENDROOT
BRANCH   1   7
ATOM      7  C   UNL     1     477.014  38.364 462.237  1.00  0.00     0.010 C 
ATOM      8  C   UNL     1     475.730  38.281 462.614  1.00  0.00     0.025 C 
BRANCH   8   9
ATOM      9  C   UNL     1     475.052  39.368 463.339  1.00  0.00     0.064 C 
ATOM     10  O   UNL     1     475.613  39.961 464.299  1.00  0.00    -0.545 OA
ATOM     11  O   UNL     1     473.771  39.746 462.961  1.00  0.00    -0.545 OA
ENDBRANCH   8   9
ENDBRANCH   1   7
BRANCH   6  12
ATOM     12  O   UNL     1     479.842  34.358 459.345  1.00  0.00    -0.508 OA
ATOM     13  H   UNL     1     479.358  33.671 458.778  1.00  0.00     0.293 HD
ENDBRANCH   6  12
TORSDOF 3
ENDMDL
MODEL 4
REMARK VINA RESULT:    -4.175      2.986      5.191
REMARK INTER + INTRA:          -4.925
REMARK INTER:                  -4.780
REMARK INTRA:                  -0.145
REMARK UNBOUND:                -0.140
REMARK SMILES O=C([O-])C=Cc1ccc(O)cc1
REMARK SMILES IDX 6 1 7 2 12 3 8 4 11 5 9 6 5 7 4 8 2 9 1 10 3 11 10 12
REMARK H PARENT 10 13
REMARK Flexibility Score: inf
ROOT
ATOM      1  C   UNL     1     477.877  37.353 461.520  1.00  0.00    -0.025 A 
ATOM      2  C   UNL     1     478.757  37.689 460.470  1.00  0.00     0.012 A 
ATOM      3  C   UNL     1     477.636  35.996 461.794  1.00  0.00     0.012 A 
ATOM      4  C   UNL     1     479.394  36.686 459.733  1.00  0.00     0.047 A 
ATOM      5  C   UNL     1     478.276  34.997 461.054  1.00  0.00     0.047 A 
ATOM      6  C   UNL     1     479.159  35.339 460.023  1.00  0.00     0.115 A 
ENDROOT
BRANCH   1   7
ATOM      7  C   UNL     1     477.167  38.377 462.325  1.00  0.00     0.010 C 
ATOM      8  C   UNL     1     475.845  38.363 462.552  1.00  0.00     0.025 C 
BRANCH   8   9
ATOM      9  C   UNL     1     475.173  39.403 463.347  1.00  0.00     0.064 C 
ATOM     10  O   UNL     1     473.928  39.372 463.544  1.00  0.00    -0.545 OA
ATOM     11  O   UNL     1     475.922  40.440 463.887  1.00  0.00    -0.545 OA
ENDBRANCH   8   9
ENDBRANCH   1   7
BRANCH   6  12
ATOM     12  O   UNL     1     479.803  34.352 459.281  1.00  0.00    -0.508 OA
ATOM     13  H   UNL     1     479.282  33.638 458.786  1.00  0.00     0.293 HD
ENDBRANCH   6  12
TORSDOF 3
ENDMDL
MODEL 5
REMARK VINA RESULT:    -4.137      1.278      5.763
REMARK INTER + INTRA:          -4.881
REMARK INTER:                  -4.733
REMARK INTRA:                  -0.148
REMARK UNBOUND:                -0.140
REMARK SMILES O=C([O-])C=Cc1ccc(O)cc1
REMARK SMILES IDX 6 1 7 2 12 3 8 4 11 5 9 6 5 7 4 8 2 9 1 10 3 11 10 12
REMARK H PARENT 10 13
REMARK Flexibility Score: inf
ROOT
ATOM      1  C   UNL     1     478.298  36.230 461.309  1.00  0.00    -0.025 A 
ATOM      2  C   UNL     1     478.988  36.043 460.094  1.00  0.00     0.012 A 
ATOM      3  C   UNL     1     478.447  37.449 461.992  1.00  0.00     0.012 A 
ATOM      4  C   UNL     1     479.785  37.064 459.568  1.00  0.00     0.047 A 
ATOM      5  C   UNL     1     479.244  38.468 461.462  1.00  0.00     0.047 A 
ATOM      6  C   UNL     1     479.914  38.279 460.247  1.00  0.00     0.115 A 
ENDROOT
BRANCH   1   7
ATOM      7  C   UNL     1     477.450  35.175 461.917  1.00  0.00     0.010 C 
ATOM      8  C   UNL     1     476.369  35.429 462.669  1.00  0.00     0.025 C 
BRANCH   8   9
ATOM      9  C   UNL     1     475.557  34.355 463.266  1.00  0.00     0.064 C 
ATOM     10  O   UNL     1     474.724  34.597 464.180  1.00  0.00    -0.545 OA
ATOM     11  O   UNL     1     475.713  33.051 462.815  1.00  0.00    -0.545 OA
ENDBRANCH   8   9
ENDBRANCH   1   7
BRANCH   6  12
ATOM     12  O   UNL     1     480.710  39.287 459.709  1.00  0.00    -0.508 OA
ATOM     13  H   UNL     1     481.290  39.875 460.297  1.00  0.00     0.293 HD
ENDBRANCH   6  12
TORSDOF 3
ENDMDL
MODEL 6
REMARK VINA RESULT:    -3.999      1.487      2.582
REMARK INTER + INTRA:          -4.723
REMARK INTER:                  -4.587
REMARK INTRA:                  -0.136
REMARK UNBOUND:                -0.140
REMARK SMILES O=C([O-])C=Cc1ccc(O)cc1
REMARK SMILES IDX 6 1 7 2 12 3 8 4 11 5 9 6 5 7 4 8 2 9 1 10 3 11 10 12
REMARK H PARENT 10 13
REMARK Flexibility Score: inf
ROOT
ATOM      1  C   UNL     1     479.411  36.988 459.834  1.00  0.00    -0.025 A 
ATOM      2  C   UNL     1     478.638  37.811 460.680  1.00  0.00     0.012 A 
ATOM      3  C   UNL     1     479.302  35.593 459.962  1.00  0.00     0.012 A 
ATOM      4  C   UNL     1     477.762  37.244 461.610  1.00  0.00     0.047 A 
ATOM      5  C   UNL     1     478.424  35.031 460.893  1.00  0.00     0.047 A 
ATOM      6  C   UNL     1     477.649  35.854 461.718  1.00  0.00     0.115 A 
ENDROOT
BRANCH   1   7
ATOM      7  C   UNL     1     480.364  37.538 458.839  1.00  0.00     0.010 C 
ATOM      8  C   UNL     1     481.451  38.254 459.163  1.00  0.00     0.025 C 
BRANCH   8   9
ATOM      9  C   UNL     1     482.369  38.794 458.146  1.00  0.00     0.064 C 
ATOM     10  O   UNL     1     482.825  39.965 458.234  1.00  0.00    -0.545 OA
ATOM     11  O   UNL     1     482.737  38.000 457.069  1.00  0.00    -0.545 OA
ENDBRANCH   8   9
ENDBRANCH   1   7
BRANCH   6  12
ATOM     12  O   UNL     1     476.771  35.305 462.649  1.00  0.00    -0.508 OA
ATOM     13  H   UNL     1     476.708  35.664 463.594  1.00  0.00     0.293 HD
ENDBRANCH   6  12
TORSDOF 3
ENDMDL
MODEL 7
REMARK VINA RESULT:    -3.980      1.864      2.416
REMARK INTER + INTRA:          -4.702
REMARK INTER:                  -4.566
REMARK INTRA:                  -0.136
REMARK UNBOUND:                -0.140
REMARK SMILES O=C([O-])C=Cc1ccc(O)cc1
REMARK SMILES IDX 6 1 7 2 12 3 8 4 11 5 9 6 5 7 4 8 2 9 1 10 3 11 10 12
REMARK H PARENT 10 13
REMARK Flexibility Score: inf
ROOT
ATOM      1  C   UNL     1     477.884  36.385 461.587  1.00  0.00    -0.025 A 
ATOM      2  C   UNL     1     476.778  36.626 462.428  1.00  0.00     0.012 A 
ATOM      3  C   UNL     1     478.210  35.057 461.260  1.00  0.00     0.012 A 
ATOM      4  C   UNL     1     476.008  35.562 462.906  1.00  0.00     0.047 A 
ATOM      5  C   UNL     1     477.436  33.997 461.741  1.00  0.00     0.047 A 
ATOM      6  C   UNL     1     476.331  34.246 462.563  1.00  0.00     0.115 A 
ENDROOT
BRANCH   1   7
ATOM      7  C   UNL     1     478.741  37.476 461.061  1.00  0.00     0.010 C 
ATOM      8  C   UNL     1     479.388  38.357 461.839  1.00  0.00     0.025 C 
BRANCH   8   9
ATOM      9  C   UNL     1     480.221  39.434 461.281  1.00  0.00     0.064 C 
ATOM     10  O   UNL     1     479.704  40.483 460.812  1.00  0.00    -0.545 OA
ATOM     11  O   UNL     1     481.602  39.293 461.269  1.00  0.00    -0.545 OA
ENDBRANCH   8   9
ENDBRANCH   1   7
BRANCH   6  12
ATOM     12  O   UNL     1     475.552  33.197 463.047  1.00  0.00    -0.508 OA
ATOM     13  H   UNL     1     474.670  33.366 463.517  1.00  0.00     0.293 HD
ENDBRANCH   6  12
TORSDOF 3
ENDMDL
