MODEL 1
REMARK VINA RESULT:    -3.269      0.000      0.000
REMARK INTER + INTRA:          -4.603
REMARK INTER:                  -4.224
REMARK INTRA:                  -0.379
REMARK UNBOUND:                -0.379
REMARK SMILES CCCCCCC(=O)[O-]
REMARK SMILES IDX 5 1 6 2 7 3 8 4 9 5 4 6 3 7 2 8 1 9
REMARK H PARENT
REMARK Flexibility Score: inf
ROOT
ATOM      1  C   UNL     1     156.419 172.946 163.383  1.00  0.00     0.006 C 
ENDROOT
BRANCH   1   2
ATOM      2  C   UNL     1     156.143 173.508 164.784  1.00  0.00     0.053 C 
BRANCH   2   3
ATOM      3  C   UNL     1     155.457 174.838 164.725  1.00  0.00     0.041 C 
ATOM      4  O   UNL     1     156.103 175.871 164.409  1.00  0.00    -0.550 OA
ATOM      5  O   UNL     1     154.110 174.942 165.051  1.00  0.00    -0.550 OA
ENDBRANCH   2   3
ENDBRANCH   1   2
BRANCH   1   6
ATOM      6  C   UNL     1     157.922 172.806 163.098  1.00  0.00     0.000 C 
BRANCH   6   7
ATOM      7  C   UNL     1     158.452 174.030 162.339  1.00  0.00    -0.000 C 
BRANCH   7   8
ATOM      8  C   UNL     1     157.479 174.453 161.232  1.00  0.00    -0.003 C 
ATOM      9  C   UNL     1     157.529 175.961 161.002  1.00  0.00     0.004 C 
ENDBRANCH   7   8
ENDBRANCH   6   7
ENDBRANCH   1   6
TORSDOF 5
ENDMDL
MODEL 2
REMARK VINA RESULT:    -3.180      3.003      5.119
REMARK INTER + INTRA:          -4.488
REMARK INTER:                  -4.322
REMARK INTRA:                  -0.166
REMARK UNBOUND:                -0.379
REMARK SMILES CCCCCCC(=O)[O-]
REMARK SMILES IDX 5 1 6 2 7 3 8 4 9 5 4 6 3 7 2 8 1 9
REMARK H PARENT
REMARK Flexibility Score: inf
ROOT
ATOM      1  C   UNL     1     155.244 171.528 163.714  1.00  0.00     0.006 C 
ENDROOT
BRANCH   1   2
ATOM      2  C   UNL     1     155.839 172.939 163.831  1.00  0.00     0.053 C 
BRANCH   2   3
ATOM      3  C   UNL     1     156.929 173.166 162.830  1.00  0.00     0.041 C 
ATOM      4  O   UNL     1     158.084 172.709 163.035  1.00  0.00    -0.550 OA
ATOM      5  O   UNL     1     156.679 173.913 161.685  1.00  0.00    -0.550 OA
ENDBRANCH   2   3
ENDBRANCH   1   2
BRANCH   1   6
ATOM      6  C   UNL     1     154.219 171.236 164.821  1.00  0.00     0.000 C 
BRANCH   6   7
ATOM      7  C   UNL     1     154.699 171.784 166.171  1.00  0.00    -0.000 C 
BRANCH   7   8
ATOM      8  C   UNL     1     154.891 170.651 167.186  1.00  0.00    -0.003 C 
ATOM      9  C   UNL     1     156.058 170.943 168.125  1.00  0.00     0.004 C 
ENDBRANCH   7   8
ENDBRANCH   6   7
ENDBRANCH   1   6
TORSDOF 5
ENDMDL
MODEL 3
REMARK VINA RESULT:    -3.139      2.626      4.719
REMARK INTER + INTRA:          -4.435
REMARK INTER:                  -4.100
REMARK INTRA:                  -0.335
REMARK UNBOUND:                -0.379
REMARK SMILES CCCCCCC(=O)[O-]
REMARK SMILES IDX 5 1 6 2 7 3 8 4 9 5 4 6 3 7 2 8 1 9
REMARK H PARENT
REMARK Flexibility Score: inf
ROOT
ATOM      1  C   UNL     1     156.168 174.551 165.169  1.00  0.00     0.006 C 
ENDROOT
BRANCH   1   2
ATOM      2  C   UNL     1     157.434 173.798 164.735  1.00  0.00     0.053 C 
BRANCH   2   3
ATOM      3  C   UNL     1     157.213 173.022 163.473  1.00  0.00     0.041 C 
ATOM      4  O   UNL     1     158.065 173.063 162.547  1.00  0.00    -0.550 OA
ATOM      5  O   UNL     1     156.051 172.279 163.306  1.00  0.00    -0.550 OA
ENDBRANCH   2   3
ENDBRANCH   1   2
BRANCH   1   6
ATOM      6  C   UNL     1     155.413 173.821 166.290  1.00  0.00     0.000 C 
BRANCH   6   7
ATOM      7  C   UNL     1     156.360 172.917 167.090  1.00  0.00    -0.000 C 
BRANCH   7   8
ATOM      8  C   UNL     1     155.678 171.594 167.455  1.00  0.00    -0.003 C 
ATOM      9  C   UNL     1     154.682 171.172 166.378  1.00  0.00     0.004 C 
ENDBRANCH   7   8
ENDBRANCH   6   7
ENDBRANCH   1   6
TORSDOF 5
ENDMDL
MODEL 4
REMARK VINA RESULT:    -3.136      2.538      4.368
REMARK INTER + INTRA:          -4.431
REMARK INTER:                  -4.123
REMARK INTRA:                  -0.308
REMARK UNBOUND:                -0.379
REMARK SMILES CCCCCCC(=O)[O-]
REMARK SMILES IDX 5 1 6 2 7 3 8 4 9 5 4 6 3 7 2 8 1 9
REMARK H PARENT
REMARK Flexibility Score: inf
ROOT
ATOM      1  C   UNL     1     155.822 172.413 163.636  1.00  0.00     0.006 C 
ENDROOT
BRANCH   1   2
ATOM      2  C   UNL     1     156.132 173.501 162.598  1.00  0.00     0.053 C 
BRANCH   2   3
ATOM      3  C   UNL     1     157.597 173.579 162.296  1.00  0.00     0.041 C 
ATOM      4  O   UNL     1     158.015 174.325 161.372  1.00  0.00    -0.550 OA
ATOM      5  O   UNL     1     158.499 172.803 163.014  1.00  0.00    -0.550 OA
ENDBRANCH   2   3
ENDBRANCH   1   2
BRANCH   1   6
ATOM      6  C   UNL     1     154.921 172.929 164.768  1.00  0.00     0.000 C 
BRANCH   6   7
ATOM      7  C   UNL     1     155.605 174.066 165.538  1.00  0.00    -0.000 C 
BRANCH   7   8
ATOM      8  C   UNL     1     156.828 173.550 166.306  1.00  0.00    -0.003 C 
ATOM      9  C   UNL     1     156.415 172.599 167.425  1.00  0.00     0.004 C 
ENDBRANCH   7   8
ENDBRANCH   6   7
ENDBRANCH   1   6
TORSDOF 5
ENDMDL
MODEL 5
REMARK VINA RESULT:    -3.113      3.146      5.079
REMARK INTER + INTRA:          -4.403
REMARK INTER:                  -4.004
REMARK INTRA:                  -0.399
REMARK UNBOUND:                -0.379
REMARK SMILES CCCCCCC(=O)[O-]
REMARK SMILES IDX 5 1 6 2 7 3 8 4 9 5 4 6 3 7 2 8 1 9
REMARK H PARENT
REMARK Flexibility Score: inf
ROOT
ATOM      1  C   UNL     1     155.728 173.500 164.503  1.00  0.00     0.006 C 
ENDROOT
BRANCH   1   2
ATOM      2  C   UNL     1     155.817 172.195 163.699  1.00  0.00     0.053 C 
BRANCH   2   3
ATOM      3  C   UNL     1     154.597 171.346 163.882  1.00  0.00     0.041 C 
ATOM      4  O   UNL     1     154.595 170.148 163.496  1.00  0.00    -0.550 OA
ATOM      5  O   UNL     1     153.449 171.888 164.448  1.00  0.00    -0.550 OA
ENDBRANCH   2   3
ENDBRANCH   1   2
BRANCH   1   6
ATOM      6  C   UNL     1     156.530 173.432 165.812  1.00  0.00     0.000 C 
BRANCH   6   7
ATOM      7  C   UNL     1     155.620 173.078 166.995  1.00  0.00    -0.000 C 
BRANCH   7   8
ATOM      8  C   UNL     1     156.088 171.790 167.681  1.00  0.00    -0.003 C 
ATOM      9  C   UNL     1     155.056 170.676 167.526  1.00  0.00     0.004 C 
ENDBRANCH   7   8
ENDBRANCH   6   7
ENDBRANCH   1   6
TORSDOF 5
ENDMDL
MODEL 6
REMARK VINA RESULT:    -3.112      2.141      3.985
REMARK INTER + INTRA:          -4.401
REMARK INTER:                  -4.007
REMARK INTRA:                  -0.394
REMARK UNBOUND:                -0.379
REMARK SMILES CCCCCCC(=O)[O-]
REMARK SMILES IDX 5 1 6 2 7 3 8 4 9 5 4 6 3 7 2 8 1 9
REMARK H PARENT
REMARK Flexibility Score: inf
ROOT
ATOM      1  C   UNL     1     158.909 173.756 163.956  1.00  0.00     0.006 C 
ENDROOT
BRANCH   1   2
ATOM      2  C   UNL     1     158.094 172.950 162.934  1.00  0.00     0.053 C 
BRANCH   2   3
ATOM      3  C   UNL     1     157.312 173.841 162.019  1.00  0.00     0.041 C 
ATOM      4  O   UNL     1     156.059 173.735 161.950  1.00  0.00    -0.550 OA
ATOM      5  O   UNL     1     157.969 174.767 161.217  1.00  0.00    -0.550 OA
ENDBRANCH   2   3
ENDBRANCH   1   2
BRANCH   1   6
ATOM      6  C   UNL     1     158.017 174.631 164.849  1.00  0.00     0.000 C 
BRANCH   6   7
ATOM      7  C   UNL     1     157.698 173.920 166.171  1.00  0.00    -0.000 C 
BRANCH   7   8
ATOM      8  C   UNL     1     156.247 173.428 166.193  1.00  0.00    -0.003 C 
ATOM      9  C   UNL     1     155.321 174.409 165.479  1.00  0.00     0.004 C 
ENDBRANCH   7   8
ENDBRANCH   6   7
ENDBRANCH   1   6
TORSDOF 5
ENDMDL
MODEL 7
REMARK VINA RESULT:    -3.034      1.908      3.983
REMARK INTER + INTRA:          -4.300
REMARK INTER:                  -4.051
REMARK INTRA:                  -0.249
REMARK UNBOUND:                -0.379
REMARK SMILES CCCCCCC(=O)[O-]
REMARK SMILES IDX 5 1 6 2 7 3 8 4 9 5 4 6 3 7 2 8 1 9
REMARK H PARENT
REMARK Flexibility Score: inf
ROOT
ATOM      1  C   UNL     1     157.537 172.794 163.206  1.00  0.00     0.006 C 
ENDROOT
BRANCH   1   2
ATOM      2  C   UNL     1     158.066 173.775 162.149  1.00  0.00     0.053 C 
BRANCH   2   3
ATOM      3  C   UNL     1     157.664 175.186 162.451  1.00  0.00     0.041 C 
ATOM      4  O   UNL     1     158.031 175.734 163.523  1.00  0.00    -0.550 OA
ATOM      5  O   UNL     1     156.855 175.885 161.563  1.00  0.00    -0.550 OA
ENDBRANCH   2   3
ENDBRANCH   1   2
BRANCH   1   6
ATOM      6  C   UNL     1     156.001 172.752 163.242  1.00  0.00     0.000 C 
BRANCH   6   7
ATOM      7  C   UNL     1     155.485 172.836 164.684  1.00  0.00    -0.000 C 
BRANCH   7   8
ATOM      8  C   UNL     1     154.745 171.552 165.077  1.00  0.00    -0.003 C 
ATOM      9  C   UNL     1     154.430 170.700 163.851  1.00  0.00     0.004 C 
ENDBRANCH   7   8
ENDBRANCH   6   7
ENDBRANCH   1   6
TORSDOF 5
ENDMDL
MODEL 8
REMARK VINA RESULT:    -3.013      1.808      3.075
REMARK INTER + INTRA:          -4.273
REMARK INTER:                  -3.833
REMARK INTRA:                  -0.440
REMARK UNBOUND:                -0.379
REMARK SMILES CCCCCCC(=O)[O-]
REMARK SMILES IDX 5 1 6 2 7 3 8 4 9 5 4 6 3 7 2 8 1 9
REMARK H PARENT
REMARK Flexibility Score: inf
ROOT
ATOM      1  C   UNL     1     157.855 174.463 161.985  1.00  0.00     0.006 C 
ENDROOT
BRANCH   1   2
ATOM      2  C   UNL     1     156.439 174.182 161.462  1.00  0.00     0.053 C 
BRANCH   2   3
ATOM      3  C   UNL     1     155.440 174.108 162.575  1.00  0.00     0.041 C 
ATOM      4  O   UNL     1     154.888 173.013 162.859  1.00  0.00    -0.550 OA
ATOM      5  O   UNL     1     155.094 175.255 163.279  1.00  0.00    -0.550 OA
ENDBRANCH   2   3
ENDBRANCH   1   2
BRANCH   1   6
ATOM      6  C   UNL     1     158.403 173.303 162.830  1.00  0.00     0.000 C 
BRANCH   6   7
ATOM      7  C   UNL     1     159.190 173.828 164.037  1.00  0.00    -0.000 C 
BRANCH   7   8
ATOM      8  C   UNL     1     158.305 174.706 164.930  1.00  0.00    -0.003 C 
ATOM      9  C   UNL     1     157.370 173.855 165.784  1.00  0.00     0.004 C 
ENDBRANCH   7   8
ENDBRANCH   6   7
ENDBRANCH   1   6
TORSDOF 5
ENDMDL
MODEL 9
REMARK VINA RESULT:    -2.985      1.808      2.395
REMARK INTER + INTRA:          -4.237
REMARK INTER:                  -3.851
REMARK INTRA:                  -0.385
REMARK UNBOUND:                -0.379
REMARK SMILES CCCCCCC(=O)[O-]
REMARK SMILES IDX 5 1 6 2 7 3 8 4 9 5 4 6 3 7 2 8 1 9
REMARK H PARENT
REMARK Flexibility Score: inf
ROOT
ATOM      1  C   UNL     1     156.109 173.373 164.602  1.00  0.00     0.006 C 
ENDROOT
BRANCH   1   2
ATOM      2  C   UNL     1     155.462 172.343 163.665  1.00  0.00     0.053 C 
BRANCH   2   3
ATOM      3  C   UNL     1     154.174 172.848 163.089  1.00  0.00     0.041 C 
ATOM      4  O   UNL     1     153.228 172.051 162.857  1.00  0.00    -0.550 OA
ATOM      5  O   UNL     1     154.031 174.195 162.775  1.00  0.00    -0.550 OA
ENDBRANCH   2   3
ENDBRANCH   1   2
BRANCH   1   6
ATOM      6  C   UNL     1     157.576 173.648 164.238  1.00  0.00     0.000 C 
BRANCH   6   7
ATOM      7  C   UNL     1     157.902 173.120 162.835  1.00  0.00    -0.000 C 
BRANCH   7   8
ATOM      8  C   UNL     1     158.094 174.274 161.845  1.00  0.00    -0.003 C 
ATOM      9  C   UNL     1     157.011 174.265 160.771  1.00  0.00     0.004 C 
ENDBRANCH   7   8
ENDBRANCH   6   7
ENDBRANCH   1   6
TORSDOF 5
ENDMDL
