MODEL 1
REMARK VINA RESULT:    -3.517      0.000      0.000
REMARK INTER + INTRA:          -4.744
REMARK INTER:                  -4.544
REMARK INTRA:                  -0.200
REMARK UNBOUND:                -0.200
REMARK SMILES CCCCCCC(=O)[O-]
REMARK SMILES IDX 5 1 6 2 7 3 8 4 9 5 4 6 3 7 2 8 1 9
REMARK H PARENT
REMARK Flexibility Score: inf
ROOT
ATOM      1  C   UNL     1      25.810  56.830  24.400  1.00  0.00     0.006 C 
ENDROOT
BRANCH   1   2
ATOM      2  C   UNL     1      26.011  58.326  24.679  1.00  0.00     0.053 C 
BRANCH   2   3
ATOM      3  C   UNL     1      27.051  58.524  25.735  1.00  0.00     0.041 C 
ATOM      4  O   UNL     1      27.016  59.540  26.479  1.00  0.00    -0.550 OA
ATOM      5  O   UNL     1      28.033  57.561  25.935  1.00  0.00    -0.550 OA
ENDBRANCH   2   3
ENDBRANCH   1   2
BRANCH   1   6
ATOM      6  C   UNL     1      24.883  56.158  25.424  1.00  0.00     0.000 C 
BRANCH   6   7
ATOM      7  C   UNL     1      23.648  57.008  25.755  1.00  0.00    -0.000 C 
BRANCH   7   8
ATOM      8  C   UNL     1      22.561  56.160  26.426  1.00  0.00    -0.003 C 
ATOM      9  C   UNL     1      22.118  55.015  25.520  1.00  0.00     0.004 C 
ENDBRANCH   7   8
ENDBRANCH   6   7
ENDBRANCH   1   6
TORSDOF 5
ENDMDL
MODEL 2
REMARK VINA RESULT:    -3.461     20.435     22.045
REMARK INTER + INTRA:          -4.672
REMARK INTER:                  -4.456
REMARK INTRA:                  -0.216
REMARK UNBOUND:                -0.200
REMARK SMILES CCCCCCC(=O)[O-]
REMARK SMILES IDX 5 1 6 2 7 3 8 4 9 5 4 6 3 7 2 8 1 9
REMARK H PARENT
REMARK Flexibility Score: inf
ROOT
ATOM      1  C   UNL     1       9.132  57.054  41.976  1.00  0.00     0.006 C 
ENDROOT
BRANCH   1   2
ATOM      2  C   UNL     1       9.751  58.270  42.677  1.00  0.00     0.053 C 
BRANCH   2   3
ATOM      3  C   UNL     1       9.888  59.411  41.720  1.00  0.00     0.041 C 
ATOM      4  O   UNL     1       8.948  60.237  41.578  1.00  0.00    -0.550 OA
ATOM      5  O   UNL     1      11.074  59.593  41.019  1.00  0.00    -0.550 OA
ENDBRANCH   2   3
ENDBRANCH   1   2
BRANCH   1   6
ATOM      6  C   UNL     1      10.078  55.843  41.946  1.00  0.00     0.000 C 
BRANCH   6   7
ATOM      7  C   UNL     1      11.509  56.198  42.376  1.00  0.00    -0.000 C 
BRANCH   7   8
ATOM      8  C   UNL     1      12.510  55.890  41.257  1.00  0.00    -0.003 C 
ATOM      9  C   UNL     1      13.514  54.827  41.694  1.00  0.00     0.004 C 
ENDBRANCH   7   8
ENDBRANCH   6   7
ENDBRANCH   1   6
TORSDOF 5
ENDMDL
MODEL 3
REMARK VINA RESULT:    -3.456      3.183      4.879
REMARK INTER + INTRA:          -4.666
REMARK INTER:                  -4.464
REMARK INTRA:                  -0.202
REMARK UNBOUND:                -0.200
REMARK SMILES CCCCCCC(=O)[O-]
REMARK SMILES IDX 5 1 6 2 7 3 8 4 9 5 4 6 3 7 2 8 1 9
REMARK H PARENT
REMARK Flexibility Score: inf
ROOT
ATOM      1  C   UNL     1      25.022  56.604  24.901  1.00  0.00     0.006 C 
ENDROOT
BRANCH   1   2
ATOM      2  C   UNL     1      23.968  55.960  25.812  1.00  0.00     0.053 C 
BRANCH   2   3
ATOM      3  C   UNL     1      22.784  55.519  25.010  1.00  0.00     0.041 C 
ATOM      4  O   UNL     1      22.797  55.617  23.754  1.00  0.00    -0.550 OA
ATOM      5  O   UNL     1      21.686  54.953  25.644  1.00  0.00    -0.550 OA
ENDBRANCH   2   3
ENDBRANCH   1   2
BRANCH   1   6
ATOM      6  C   UNL     1      26.459  56.282  25.340  1.00  0.00     0.000 C 
BRANCH   6   7
ATOM      7  C   UNL     1      27.296  57.543  25.600  1.00  0.00    -0.000 C 
BRANCH   7   8
ATOM      8  C   UNL     1      26.440  58.807  25.461  1.00  0.00    -0.003 C 
ATOM      9  C   UNL     1      26.908  59.898  26.421  1.00  0.00     0.004 C 
ENDBRANCH   7   8
ENDBRANCH   6   7
ENDBRANCH   1   6
TORSDOF 5
ENDMDL
MODEL 4
REMARK VINA RESULT:    -3.410     20.485     21.837
REMARK INTER + INTRA:          -4.606
REMARK INTER:                  -4.354
REMARK INTRA:                  -0.252
REMARK UNBOUND:                -0.200
REMARK SMILES CCCCCCC(=O)[O-]
REMARK SMILES IDX 5 1 6 2 7 3 8 4 9 5 4 6 3 7 2 8 1 9
REMARK H PARENT
REMARK Flexibility Score: inf
ROOT
ATOM      1  C   UNL     1      11.427  58.377  41.824  1.00  0.00     0.006 C 
ENDROOT
BRANCH   1   2
ATOM      2  C   UNL     1      10.457  57.926  42.924  1.00  0.00     0.053 C 
BRANCH   2   3
ATOM      3  C   UNL     1       9.360  57.093  42.342  1.00  0.00     0.041 C 
ATOM      4  O   UNL     1       9.437  55.836  42.365  1.00  0.00    -0.550 OA
ATOM      5  O   UNL     1       8.226  57.702  41.819  1.00  0.00    -0.550 OA
ENDBRANCH   2   3
ENDBRANCH   1   2
BRANCH   1   6
ATOM      6  C   UNL     1      12.872  57.924  42.088  1.00  0.00     0.000 C 
BRANCH   6   7
ATOM      7  C   UNL     1      13.458  57.107  40.927  1.00  0.00    -0.000 C 
BRANCH   7   8
ATOM      8  C   UNL     1      12.872  55.691  40.903  1.00  0.00    -0.003 C 
ATOM      9  C   UNL     1      13.763  54.712  41.662  1.00  0.00     0.004 C 
ENDBRANCH   7   8
ENDBRANCH   6   7
ENDBRANCH   1   6
TORSDOF 5
ENDMDL
MODEL 5
REMARK VINA RESULT:    -3.408      1.442      1.993
REMARK INTER + INTRA:          -4.604
REMARK INTER:                  -4.273
REMARK INTRA:                  -0.331
REMARK UNBOUND:                -0.200
REMARK SMILES CCCCCCC(=O)[O-]
REMARK SMILES IDX 5 1 6 2 7 3 8 4 9 5 4 6 3 7 2 8 1 9
REMARK H PARENT
REMARK Flexibility Score: inf
ROOT
ATOM      1  C   UNL     1      27.023  57.549  25.526  1.00  0.00     0.006 C 
ENDROOT
BRANCH   1   2
ATOM      2  C   UNL     1      26.285  58.817  25.076  1.00  0.00     0.053 C 
BRANCH   2   3
ATOM      3  C   UNL     1      26.138  59.769  26.220  1.00  0.00     0.041 C 
ATOM      4  O   UNL     1      27.144  60.383  26.668  1.00  0.00    -0.550 OA
ATOM      5  O   UNL     1      24.884  60.020  26.761  1.00  0.00    -0.550 OA
ENDBRANCH   2   3
ENDBRANCH   1   2
BRANCH   1   6
ATOM      6  C   UNL     1      26.245  56.265  25.200  1.00  0.00     0.000 C 
BRANCH   6   7
ATOM      7  C   UNL     1      24.809  56.544  24.733  1.00  0.00    -0.000 C 
BRANCH   7   8
ATOM      8  C   UNL     1      23.789  55.931  25.701  1.00  0.00    -0.003 C 
ATOM      9  C   UNL     1      22.944  57.013  26.367  1.00  0.00     0.004 C 
ENDBRANCH   7   8
ENDBRANCH   6   7
ENDBRANCH   1   6
TORSDOF 5
ENDMDL
MODEL 6
REMARK VINA RESULT:    -3.365      3.282      4.733
REMARK INTER + INTRA:          -4.548
REMARK INTER:                  -4.150
REMARK INTRA:                  -0.398
REMARK UNBOUND:                -0.200
REMARK SMILES CCCCCCC(=O)[O-]
REMARK SMILES IDX 5 1 6 2 7 3 8 4 9 5 4 6 3 7 2 8 1 9
REMARK H PARENT
REMARK Flexibility Score: inf
ROOT
ATOM      1  C   UNL     1      23.075  57.819  25.572  1.00  0.00     0.006 C 
ENDROOT
BRANCH   1   2
ATOM      2  C   UNL     1      22.883  56.474  26.286  1.00  0.00     0.053 C 
BRANCH   2   3
ATOM      3  C   UNL     1      22.272  55.473  25.359  1.00  0.00     0.041 C 
ATOM      4  O   UNL     1      21.470  54.607  25.799  1.00  0.00    -0.550 OA
ATOM      5  O   UNL     1      22.546  55.526  23.998  1.00  0.00    -0.550 OA
ENDBRANCH   2   3
ENDBRANCH   1   2
BRANCH   1   6
ATOM      6  C   UNL     1      24.549  58.247  25.503  1.00  0.00     0.000 C 
BRANCH   6   7
ATOM      7  C   UNL     1      25.176  57.993  24.124  1.00  0.00    -0.000 C 
BRANCH   7   8
ATOM      8  C   UNL     1      25.946  56.668  24.107  1.00  0.00    -0.003 C 
ATOM      9  C   UNL     1      26.655  56.426  25.436  1.00  0.00     0.004 C 
ENDBRANCH   7   8
ENDBRANCH   6   7
ENDBRANCH   1   6
TORSDOF 5
ENDMDL
MODEL 7
REMARK VINA RESULT:    -3.346      2.902      4.190
REMARK INTER + INTRA:          -4.523
REMARK INTER:                  -4.315
REMARK INTRA:                  -0.208
REMARK UNBOUND:                -0.200
REMARK SMILES CCCCCCC(=O)[O-]
REMARK SMILES IDX 5 1 6 2 7 3 8 4 9 5 4 6 3 7 2 8 1 9
REMARK H PARENT
REMARK Flexibility Score: inf
ROOT
ATOM      1  C   UNL     1      26.903  59.726  26.189  1.00  0.00     0.006 C 
ENDROOT
BRANCH   1   2
ATOM      2  C   UNL     1      26.157  58.769  25.250  1.00  0.00     0.053 C 
BRANCH   2   3
ATOM      3  C   UNL     1      26.879  57.462  25.155  1.00  0.00     0.041 C 
ATOM      4  O   UNL     1      26.445  56.551  24.401  1.00  0.00    -0.550 OA
ATOM      5  O   UNL     1      28.061  57.268  25.858  1.00  0.00    -0.550 OA
ENDBRANCH   2   3
ENDBRANCH   1   2
BRANCH   1   6
ATOM      6  C   UNL     1      26.002  60.847  26.729  1.00  0.00     0.000 C 
BRANCH   6   7
ATOM      7  C   UNL     1      24.551  60.391  26.943  1.00  0.00    -0.000 C 
BRANCH   7   8
ATOM      8  C   UNL     1      24.042  60.814  28.326  1.00  0.00    -0.003 C 
ATOM      9  C   UNL     1      25.168  61.403  29.171  1.00  0.00     0.004 C 
ENDBRANCH   7   8
ENDBRANCH   6   7
ENDBRANCH   1   6
TORSDOF 5
ENDMDL
MODEL 8
REMARK VINA RESULT:    -3.318     20.644     21.912
REMARK INTER + INTRA:          -4.488
REMARK INTER:                  -4.099
REMARK INTRA:                  -0.389
REMARK UNBOUND:                -0.200
REMARK SMILES CCCCCCC(=O)[O-]
REMARK SMILES IDX 5 1 6 2 7 3 8 4 9 5 4 6 3 7 2 8 1 9
REMARK H PARENT
REMARK Flexibility Score: inf
ROOT
ATOM      1  C   UNL     1       9.655  56.026  42.385  1.00  0.00     0.006 C 
ENDROOT
BRANCH   1   2
ATOM      2  C   UNL     1      10.559  55.469  41.277  1.00  0.00     0.053 C 
BRANCH   2   3
ATOM      3  C   UNL     1      11.999  55.639  41.645  1.00  0.00     0.041 C 
ATOM      4  O   UNL     1      12.329  55.830  42.845  1.00  0.00    -0.550 OA
ATOM      5  O   UNL     1      12.983  55.536  40.669  1.00  0.00    -0.550 OA
ENDBRANCH   2   3
ENDBRANCH   1   2
BRANCH   1   6
ATOM      6  C   UNL     1       9.026  57.377  42.012  1.00  0.00     0.000 C 
BRANCH   6   7
ATOM      7  C   UNL     1       9.733  58.565  42.681  1.00  0.00    -0.000 C 
BRANCH   7   8
ATOM      8  C   UNL     1      10.233  59.566  41.633  1.00  0.00    -0.003 C 
ATOM      9  C   UNL     1      11.694  59.306  41.276  1.00  0.00     0.004 C 
ENDBRANCH   7   8
ENDBRANCH   6   7
ENDBRANCH   1   6
TORSDOF 5
ENDMDL
MODEL 9
REMARK VINA RESULT:    -3.318      2.797      4.667
REMARK INTER + INTRA:          -4.487
REMARK INTER:                  -4.297
REMARK INTRA:                  -0.190
REMARK UNBOUND:                -0.200
REMARK SMILES CCCCCCC(=O)[O-]
REMARK SMILES IDX 5 1 6 2 7 3 8 4 9 5 4 6 3 7 2 8 1 9
REMARK H PARENT
REMARK Flexibility Score: inf
ROOT
ATOM      1  C   UNL     1      26.322  56.627  24.777  1.00  0.00     0.006 C 
ENDROOT
BRANCH   1   2
ATOM      2  C   UNL     1      25.050  57.124  24.076  1.00  0.00     0.053 C 
BRANCH   2   3
ATOM      3  C   UNL     1      23.872  56.300  24.488  1.00  0.00     0.041 C 
ATOM      4  O   UNL     1      23.032  55.919  23.629  1.00  0.00    -0.550 OA
ATOM      5  O   UNL     1      23.726  55.908  25.812  1.00  0.00    -0.550 OA
ENDBRANCH   2   3
ENDBRANCH   1   2
BRANCH   1   6
ATOM      6  C   UNL     1      27.075  57.754  25.502  1.00  0.00     0.000 C 
BRANCH   6   7
ATOM      7  C   UNL     1      26.245  59.041  25.620  1.00  0.00    -0.000 C 
BRANCH   7   8
ATOM      8  C   UNL     1      26.919  60.043  26.564  1.00  0.00    -0.003 C 
ATOM      9  C   UNL     1      27.054  61.414  25.908  1.00  0.00     0.004 C 
ENDBRANCH   7   8
ENDBRANCH   6   7
ENDBRANCH   1   6
TORSDOF 5
ENDMDL
