MODEL 1
REMARK VINA RESULT:    -1.155      0.000      0.000
REMARK INTER + INTRA:           2.662
REMARK INTER:                  -1.762
REMARK INTRA:                   4.425
REMARK UNBOUND:                 4.425
REMARK SMILES CC1=CCC[C@H](C)C(=O)C[C@H](C(C)C)C(=O)C1
REMARK SMILES IDX 8 1 9 2 6 3 7 4 5 5 4 6 3 7 2 8 1 9 10 11 11 12 15 13 16 14
REMARK SMILES IDX 17 15 12 17 13 18 14 19
REMARK H PARENT
REMARK Flexibility Score: 70.00
ROOT
ATOM      1  C   UNL     1      -3.886  -4.517 -15.966  1.00  0.00     0.136 C 
ATOM      2  O   UNL     1      -3.846  -3.305 -15.805  1.00  0.00    -0.299 OA
ENDROOT
BRANCH   1   3
ATOM      3  C   UNL     1      -4.842  -5.103 -16.978  1.00  0.00     0.053 C 
ATOM      4  C   UNL     1      -5.368  -4.018 -17.923  1.00  0.00     0.016 C 
BRANCH   3   5
ATOM      5  C   UNL     1      -4.131  -6.235 -17.761  1.00  0.00     0.015 C 
BRANCH   5   6
ATOM      6  C   UNL     1      -4.304  -7.661 -17.199  1.00  0.00     0.028 C 
BRANCH   6   7
ATOM      7  C   UNL     1      -3.355  -8.729 -17.700  1.00  0.00    -0.028 C 
ATOM      8  C   UNL     1      -2.048  -8.878 -17.377  1.00  0.00    -0.070 CG0
ATOM      9  C   UNL     1      -1.262  -9.927 -18.125  1.00  0.00     0.039 C 
ATOM     10  G   UNL     1      -1.337  -8.086 -16.290  1.00  0.00     0.000 G0
ENDBRANCH   6   7
ENDBRANCH   5   6
ENDBRANCH   3   5
ENDBRANCH   1   3
BRANCH   1  11
ATOM     11  C   UNL     1      -2.971  -5.403 -15.155  1.00  0.00     0.087 C 
BRANCH  11  12
ATOM     12  C   UNL     1      -1.495  -5.443 -15.647  1.00  0.00     0.066 C 
BRANCH  12  13
ATOM     13  C   UNL     1      -1.284  -6.597 -16.630  1.00  0.00     0.140 C 
ATOM     14  O   UNL     1      -1.072  -6.298 -17.797  1.00  0.00    -0.299 OA
BRANCH  13  15
ATOM     15  C   UNL     1      -1.358  -8.077 -16.277  1.00  0.00     0.106 CG0
ATOM     16  G   UNL     1      -2.018  -8.884 -17.385  1.00  0.00     0.000 G0
ENDBRANCH  13  15
ENDBRANCH  12  13
BRANCH  12  17
ATOM     17  C   UNL     1      -0.900  -4.061 -16.076  1.00  0.00    -0.006 C 
ATOM     18  C   UNL     1      -1.531  -2.906 -15.274  1.00  0.00     0.008 C 
ATOM     19  C   UNL     1      -1.128  -3.779 -17.574  1.00  0.00     0.008 C 
ENDBRANCH  12  17
ENDBRANCH  11  12
ENDBRANCH   1  11
TORSDOF 1
ENDMDL
MODEL 2
REMARK VINA RESULT:    -0.288      2.137      4.574
REMARK INTER + INTRA:           3.985
REMARK INTER:                  -0.199
REMARK INTRA:                   4.184
REMARK UNBOUND:                 4.425
REMARK SMILES CC1=CCC[C@H](C)C(=O)C[C@H](C(C)C)C(=O)C1
REMARK SMILES IDX 8 1 9 2 6 3 7 4 5 5 4 6 3 7 2 8 1 9 10 11 11 12 15 13 16 14
REMARK SMILES IDX 17 15 12 17 13 18 14 19
REMARK H PARENT
REMARK Flexibility Score: 70.00
ROOT
ATOM      1  C   UNL     1      -3.109  -7.042 -14.583  1.00  0.00     0.136 C 
ATOM      2  O   UNL     1      -2.721  -7.533 -13.532  1.00  0.00    -0.299 OA
ENDROOT
BRANCH   1   3
ATOM      3  C   UNL     1      -3.177  -5.539 -14.721  1.00  0.00     0.053 C 
ATOM      4  C   UNL     1      -4.074  -4.932 -13.636  1.00  0.00     0.016 C 
BRANCH   3   5
ATOM      5  C   UNL     1      -1.745  -4.951 -14.663  1.00  0.00     0.015 C 
BRANCH   5   6
ATOM      6  C   UNL     1      -1.301  -4.125 -15.887  1.00  0.00     0.028 C 
BRANCH   6   7
ATOM      7  C   UNL     1      -2.369  -3.363 -16.641  1.00  0.00    -0.028 C 
ATOM      8  C   UNL     1      -3.420  -3.883 -17.318  1.00  0.00    -0.070 CG0
ATOM      9  C   UNL     1      -4.269  -2.930 -18.124  1.00  0.00     0.039 C 
ATOM     10  G   UNL     1      -3.819  -5.351 -17.289  1.00  0.00     0.000 G0
ENDBRANCH   6   7
ENDBRANCH   5   6
ENDBRANCH   3   5
ENDBRANCH   1   3
BRANCH   1  11
ATOM     11  C   UNL     1      -3.502  -7.947 -15.725  1.00  0.00     0.087 C 
BRANCH  11  12
ATOM     12  C   UNL     1      -2.649  -7.780 -17.016  1.00  0.00     0.066 C 
BRANCH  12  13
ATOM     13  C   UNL     1      -2.689  -6.330 -17.506  1.00  0.00     0.140 C 
ATOM     14  O   UNL     1      -1.685  -5.906 -18.061  1.00  0.00    -0.299 OA
BRANCH  13  15
ATOM     15  C   UNL     1      -3.859  -5.372 -17.322  1.00  0.00     0.106 CG0
ATOM     16  G   UNL     1      -3.405  -3.920 -17.368  1.00  0.00     0.000 G0
ENDBRANCH  13  15
ENDBRANCH  12  13
BRANCH  12  17
ATOM     17  C   UNL     1      -1.234  -8.447 -16.968  1.00  0.00    -0.006 C 
ATOM     18  C   UNL     1      -1.072  -9.495 -18.086  1.00  0.00     0.008 C 
ATOM     19  C   UNL     1      -0.976  -9.148 -15.620  1.00  0.00     0.008 C 
ENDBRANCH  12  17
ENDBRANCH  11  12
ENDBRANCH   1  11
TORSDOF 1
ENDMDL
