MODEL 1
REMARK VINA RESULT:    -6.815      0.000      0.000
REMARK INTER + INTRA:          -8.512
REMARK INTER:                  -8.209
REMARK INTRA:                  -0.303
REMARK UNBOUND:                -0.303
REMARK SMILES Oc1cc(O)c2c(c1)O[C@@H](c1ccc(O)c(O)c1)[C@H](O)C2
REMARK SMILES IDX 21 1 19 2 10 3 9 4 7 5 8 6 2 7 3 8 4 9 6 10 20 11 11 13
REMARK SMILES IDX 18 14 12 15 16 16 13 17 14 18 17 19 15 21 5 23 1 25
REMARK H PARENT 20 12 17 20 15 22 5 24 1 26
REMARK Flexibility Score: inf
ROOT
ATOM      1  C   UNL     1       8.953   3.761  26.485  1.00  0.00     0.079 C 
ATOM      2  C   UNL     1       8.942   2.221  26.556  1.00  0.00     0.164 C 
ATOM      3  C   UNL     1       7.676   1.729  27.285  1.00  0.00     0.232 C 
ATOM      4  O   UNL     1       6.516   2.239  26.628  1.00  0.00    -0.482 OA
ATOM      5  C   UNL     1       6.464   3.533  26.098  1.00  0.00     0.131 A 
ATOM      6  C   UNL     1       5.239   4.029  25.642  1.00  0.00     0.093 A 
ATOM      7  C   UNL     1       5.152   5.323  25.121  1.00  0.00     0.122 A 
ATOM      8  C   UNL     1       6.292   6.128  25.067  1.00  0.00     0.092 A 
ATOM      9  C   UNL     1       7.527   5.650  25.520  1.00  0.00     0.126 A 
ATOM     10  C   UNL     1       7.630   4.325  26.008  1.00  0.00     0.039 A 
ENDROOT
BRANCH   2  11
ATOM     11  O   UNL     1      10.111   1.747  27.178  1.00  0.00    -0.389 OA
ATOM     12  H   UNL     1      10.723   1.427  26.465  1.00  0.00     0.211 HD
ENDBRANCH   2  11
BRANCH   3  13
ATOM     13  C   UNL     1       7.619   0.220  27.318  1.00  0.00    -0.001 A 
ATOM     14  C   UNL     1       7.208  -0.506  26.187  1.00  0.00     0.057 A 
ATOM     15  C   UNL     1       8.024  -0.477  28.469  1.00  0.00     0.012 A 
ATOM     16  C   UNL     1       7.183  -1.908  26.212  1.00  0.00     0.157 A 
ATOM     17  C   UNL     1       7.998  -1.874  28.495  1.00  0.00     0.050 A 
ATOM     18  C   UNL     1       7.577  -2.593  27.368  1.00  0.00     0.157 A 
BRANCH  16  19
ATOM     19  O   UNL     1       6.770  -2.626  25.091  1.00  0.00    -0.504 OA
ATOM     20  H   UNL     1       6.795  -2.221  24.163  1.00  0.00     0.293 HD
ENDBRANCH  16  19
BRANCH  18  21
ATOM     21  O   UNL     1       7.549  -3.986  27.390  1.00  0.00    -0.504 OA
ATOM     22  H   UNL     1       8.378  -4.536  27.190  1.00  0.00     0.293 HD
ENDBRANCH  18  21
ENDBRANCH   3  13
BRANCH   9  23
ATOM     23  O   UNL     1       8.622   6.517  25.481  1.00  0.00    -0.507 OA
ATOM     24  H   UNL     1       8.546   7.514  25.626  1.00  0.00     0.293 HD
ENDBRANCH   9  23
BRANCH   7  25
ATOM     25  O   UNL     1       3.935   5.824  24.663  1.00  0.00    -0.508 OA
ATOM     26  H   UNL     1       3.177   5.208  24.394  1.00  0.00     0.293 HD
ENDBRANCH   7  25
TORSDOF 6
ENDMDL
MODEL 2
REMARK VINA RESULT:    -6.072      3.868      8.763
REMARK INTER + INTRA:          -7.617
REMARK INTER:                  -7.270
REMARK INTRA:                  -0.347
REMARK UNBOUND:                -0.303
REMARK SMILES Oc1cc(O)c2c(c1)O[C@@H](c1ccc(O)c(O)c1)[C@H](O)C2
REMARK SMILES IDX 21 1 19 2 10 3 9 4 7 5 8 6 2 7 3 8 4 9 6 10 20 11 11 13
REMARK SMILES IDX 18 14 12 15 16 16 13 17 14 18 17 19 15 21 5 23 1 25
REMARK H PARENT 20 12 17 20 15 22 5 24 1 26
REMARK Flexibility Score: inf
ROOT
ATOM      1  C   UNL     1       3.315   2.729  24.877  1.00  0.00     0.079 C 
ATOM      2  C   UNL     1       2.414   3.547  23.931  1.00  0.00     0.164 C 
ATOM      3  C   UNL     1       2.227   4.977  24.475  1.00  0.00     0.232 C 
ATOM      4  O   UNL     1       3.503   5.590  24.658  1.00  0.00    -0.482 OA
ATOM      5  C   UNL     1       4.613   4.884  25.137  1.00  0.00     0.131 A 
ATOM      6  C   UNL     1       5.772   5.589  25.470  1.00  0.00     0.093 A 
ATOM      7  C   UNL     1       6.891   4.913  25.964  1.00  0.00     0.122 A 
ATOM      8  C   UNL     1       6.847   3.528  26.135  1.00  0.00     0.092 A 
ATOM      9  C   UNL     1       5.694   2.805  25.808  1.00  0.00     0.126 A 
ATOM     10  C   UNL     1       4.573   3.478  25.266  1.00  0.00     0.039 A 
ENDROOT
BRANCH   2  11
ATOM     11  O   UNL     1       1.179   2.902  23.744  1.00  0.00    -0.389 OA
ATOM     12  H   UNL     1       0.464   3.579  23.867  1.00  0.00     0.211 HD
ENDBRANCH   2  11
BRANCH   3  13
ATOM     13  C   UNL     1       1.391   5.812  23.536  1.00  0.00    -0.001 A 
ATOM     14  C   UNL     1       0.066   6.146  23.862  1.00  0.00     0.057 A 
ATOM     15  C   UNL     1       1.948   6.307  22.345  1.00  0.00     0.012 A 
ATOM     16  C   UNL     1      -0.699   6.946  23.002  1.00  0.00     0.157 A 
ATOM     17  C   UNL     1       1.186   7.104  21.486  1.00  0.00     0.050 A 
ATOM     18  C   UNL     1      -0.139   7.425  21.811  1.00  0.00     0.157 A 
BRANCH  16  19
ATOM     19  O   UNL     1      -2.016   7.271  23.325  1.00  0.00    -0.504 OA
ATOM     20  H   UNL     1      -2.234   8.015  23.977  1.00  0.00     0.293 HD
ENDBRANCH  16  19
BRANCH  18  21
ATOM     21  O   UNL     1      -0.903   8.218  20.957  1.00  0.00    -0.504 OA
ATOM     22  H   UNL     1      -0.648   9.179  20.757  1.00  0.00     0.293 HD
ENDBRANCH  18  21
ENDBRANCH   3  13
BRANCH   9  23
ATOM     23  O   UNL     1       5.694   1.427  26.043  1.00  0.00    -0.507 OA
ATOM     24  H   UNL     1       5.372   0.748  25.366  1.00  0.00     0.293 HD
ENDBRANCH   9  23
BRANCH   7  25
ATOM     25  O   UNL     1       8.051   5.609  26.297  1.00  0.00    -0.508 OA
ATOM     26  H   UNL     1       8.504   6.232  25.638  1.00  0.00     0.293 HD
ENDBRANCH   7  25
TORSDOF 6
ENDMDL
MODEL 3
REMARK VINA RESULT:    -5.951      1.606      6.929
REMARK INTER + INTRA:          -7.471
REMARK INTER:                  -7.118
REMARK INTRA:                  -0.353
REMARK UNBOUND:                -0.303
REMARK SMILES Oc1cc(O)c2c(c1)O[C@@H](c1ccc(O)c(O)c1)[C@H](O)C2
REMARK SMILES IDX 21 1 19 2 10 3 9 4 7 5 8 6 2 7 3 8 4 9 6 10 20 11 11 13
REMARK SMILES IDX 18 14 12 15 16 16 13 17 14 18 17 19 15 21 5 23 1 25
REMARK H PARENT 20 12 17 20 15 22 5 24 1 26
REMARK Flexibility Score: inf
ROOT
ATOM      1  C   UNL     1       8.476  -0.572  28.924  1.00  0.00     0.079 C 
ATOM      2  C   UNL     1       7.861   0.790  28.548  1.00  0.00     0.164 C 
ATOM      3  C   UNL     1       8.326   1.217  27.142  1.00  0.00     0.232 C 
ATOM      4  O   UNL     1       7.988   0.201  26.197  1.00  0.00    -0.482 OA
ATOM      5  C   UNL     1       8.084  -1.163  26.496  1.00  0.00     0.131 A 
ATOM      6  C   UNL     1       7.921  -2.094  25.467  1.00  0.00     0.093 A 
ATOM      7  C   UNL     1       8.026  -3.463  25.732  1.00  0.00     0.122 A 
ATOM      8  C   UNL     1       8.306  -3.900  27.029  1.00  0.00     0.092 A 
ATOM      9  C   UNL     1       8.474  -2.982  28.071  1.00  0.00     0.126 A 
ATOM     10  C   UNL     1       8.325  -1.597  27.818  1.00  0.00     0.039 A 
ENDROOT
BRANCH   2  11
ATOM     11  O   UNL     1       8.184   1.761  29.513  1.00  0.00    -0.389 OA
ATOM     12  H   UNL     1       8.598   2.530  29.040  1.00  0.00     0.211 HD
ENDBRANCH   2  11
BRANCH   3  13
ATOM     13  C   UNL     1       7.693   2.524  26.731  1.00  0.00    -0.001 A 
ATOM     14  C   UNL     1       6.322   2.592  26.430  1.00  0.00     0.057 A 
ATOM     15  C   UNL     1       8.461   3.700  26.693  1.00  0.00     0.012 A 
ATOM     16  C   UNL     1       5.731   3.814  26.077  1.00  0.00     0.157 A 
ATOM     17  C   UNL     1       7.873   4.918  26.340  1.00  0.00     0.050 A 
ATOM     18  C   UNL     1       6.508   4.978  26.030  1.00  0.00     0.157 A 
BRANCH  16  19
ATOM     19  O   UNL     1       4.372   3.878  25.773  1.00  0.00    -0.504 OA
ATOM     20  H   UNL     1       3.812   4.686  26.016  1.00  0.00     0.293 HD
ENDBRANCH  16  19
BRANCH  18  21
ATOM     21  O   UNL     1       5.917   6.190  25.677  1.00  0.00    -0.504 OA
ATOM     22  H   UNL     1       6.456   6.941  25.259  1.00  0.00     0.293 HD
ENDBRANCH  18  21
ENDBRANCH   3  13
BRANCH   9  23
ATOM     23  O   UNL     1       8.796  -3.477  29.337  1.00  0.00    -0.507 OA
ATOM     24  H   UNL     1       8.686  -4.448  29.598  1.00  0.00     0.293 HD
ENDBRANCH   9  23
BRANCH   7  25
ATOM     25  O   UNL     1       7.862  -4.398  24.712  1.00  0.00    -0.508 OA
ATOM     26  H   UNL     1       8.561  -4.519  23.988  1.00  0.00     0.293 HD
ENDBRANCH   7  25
TORSDOF 6
ENDMDL
MODEL 4
REMARK VINA RESULT:    -5.740      2.001      3.112
REMARK INTER + INTRA:          -7.216
REMARK INTER:                  -6.851
REMARK INTRA:                  -0.366
REMARK UNBOUND:                -0.303
REMARK SMILES Oc1cc(O)c2c(c1)O[C@@H](c1ccc(O)c(O)c1)[C@H](O)C2
REMARK SMILES IDX 21 1 19 2 10 3 9 4 7 5 8 6 2 7 3 8 4 9 6 10 20 11 11 13
REMARK SMILES IDX 18 14 12 15 16 16 13 17 14 18 17 19 15 21 5 23 1 25
REMARK H PARENT 20 12 17 20 15 22 5 24 1 26
REMARK Flexibility Score: inf
ROOT
ATOM      1  C   UNL     1       6.005   5.434  25.244  1.00  0.00     0.079 C 
ATOM      2  C   UNL     1       6.897   4.245  25.653  1.00  0.00     0.164 C 
ATOM      3  C   UNL     1       6.143   3.325  26.633  1.00  0.00     0.232 C 
ATOM      4  O   UNL     1       4.919   2.892  26.039  1.00  0.00    -0.482 OA
ATOM      5  C   UNL     1       4.131   3.735  25.248  1.00  0.00     0.131 A 
ATOM      6  C   UNL     1       2.860   3.306  24.859  1.00  0.00     0.093 A 
ATOM      7  C   UNL     1       2.043   4.132  24.081  1.00  0.00     0.122 A 
ATOM      8  C   UNL     1       2.496   5.396  23.701  1.00  0.00     0.092 A 
ATOM      9  C   UNL     1       3.766   5.845  24.081  1.00  0.00     0.126 A 
ATOM     10  C   UNL     1       4.615   4.996  24.832  1.00  0.00     0.039 A 
ENDROOT
BRANCH   2  11
ATOM     11  O   UNL     1       8.107   4.703  26.205  1.00  0.00    -0.389 OA
ATOM     12  H   UNL     1       8.848   4.265  25.710  1.00  0.00     0.211 HD
ENDBRANCH   2  11
BRANCH   3  13
ATOM     13  C   UNL     1       6.979   2.124  27.006  1.00  0.00    -0.001 A 
ATOM     14  C   UNL     1       7.302   1.150  26.046  1.00  0.00     0.057 A 
ATOM     15  C   UNL     1       7.486   1.994  28.310  1.00  0.00     0.012 A 
ATOM     16  C   UNL     1       8.102   0.051  26.388  1.00  0.00     0.157 A 
ATOM     17  C   UNL     1       8.284   0.898  28.652  1.00  0.00     0.050 A 
ATOM     18  C   UNL     1       8.593  -0.076  27.694  1.00  0.00     0.157 A 
BRANCH  16  19
ATOM     19  O   UNL     1       8.416  -0.917  25.436  1.00  0.00    -0.504 OA
ATOM     20  H   UNL     1       7.711  -1.300  24.816  1.00  0.00     0.293 HD
ENDBRANCH  16  19
BRANCH  18  21
ATOM     21  O   UNL     1       9.387  -1.171  28.031  1.00  0.00    -0.504 OA
ATOM     22  H   UNL     1       9.947  -1.179  28.876  1.00  0.00     0.293 HD
ENDBRANCH  18  21
ENDBRANCH   3  13
BRANCH   9  23
ATOM     23  O   UNL     1       4.146   7.137  23.708  1.00  0.00    -0.507 OA
ATOM     24  H   UNL     1       3.611   7.711  23.070  1.00  0.00     0.293 HD
ENDBRANCH   9  23
BRANCH   7  25
ATOM     25  O   UNL     1       0.775   3.710  23.688  1.00  0.00    -0.508 OA
ATOM     26  H   UNL     1       0.436   3.856  22.744  1.00  0.00     0.293 HD
ENDBRANCH   7  25
TORSDOF 6
ENDMDL
MODEL 5
REMARK VINA RESULT:    -5.663      3.274      8.253
REMARK INTER + INTRA:          -7.124
REMARK INTER:                  -7.008
REMARK INTRA:                  -0.116
REMARK UNBOUND:                -0.303
REMARK SMILES Oc1cc(O)c2c(c1)O[C@@H](c1ccc(O)c(O)c1)[C@H](O)C2
REMARK SMILES IDX 21 1 19 2 10 3 9 4 7 5 8 6 2 7 3 8 4 9 6 10 20 11 11 13
REMARK SMILES IDX 18 14 12 15 16 16 13 17 14 18 17 19 15 21 5 23 1 25
REMARK H PARENT 20 12 17 20 15 22 5 24 1 26
REMARK Flexibility Score: inf
ROOT
ATOM      1  C   UNL     1       4.008   2.684  25.256  1.00  0.00     0.079 C 
ATOM      2  C   UNL     1       3.133   3.483  24.270  1.00  0.00     0.164 C 
ATOM      3  C   UNL     1       2.996   4.945  24.742  1.00  0.00     0.232 C 
ATOM      4  O   UNL     1       4.292   5.523  24.893  1.00  0.00    -0.482 OA
ATOM      5  C   UNL     1       5.378   4.805  25.406  1.00  0.00     0.131 A 
ATOM      6  C   UNL     1       6.561   5.487  25.702  1.00  0.00     0.093 A 
ATOM      7  C   UNL     1       7.658   4.799  26.229  1.00  0.00     0.122 A 
ATOM      8  C   UNL     1       7.567   3.427  26.470  1.00  0.00     0.092 A 
ATOM      9  C   UNL     1       6.391   2.727  26.181  1.00  0.00     0.126 A 
ATOM     10  C   UNL     1       5.291   3.409  25.606  1.00  0.00     0.039 A 
ENDROOT
BRANCH   2  11
ATOM     11  O   UNL     1       1.877   2.872  24.117  1.00  0.00    -0.389 OA
ATOM     12  H   UNL     1       2.018   2.002  23.660  1.00  0.00     0.211 HD
ENDBRANCH   2  11
BRANCH   3  13
ATOM     13  C   UNL     1       2.186   5.760  23.763  1.00  0.00    -0.001 A 
ATOM     14  C   UNL     1       2.823   6.539  22.781  1.00  0.00     0.057 A 
ATOM     15  C   UNL     1       0.782   5.709  23.792  1.00  0.00     0.012 A 
ATOM     16  C   UNL     1       2.068   7.272  21.855  1.00  0.00     0.157 A 
ATOM     17  C   UNL     1       0.029   6.441  22.869  1.00  0.00     0.050 A 
ATOM     18  C   UNL     1       0.669   7.224  21.900  1.00  0.00     0.157 A 
BRANCH  16  19
ATOM     19  O   UNL     1       2.702   8.049  20.886  1.00  0.00    -0.504 OA
ATOM     20  H   UNL     1       3.361   8.777  21.137  1.00  0.00     0.293 HD
ENDBRANCH  16  19
BRANCH  18  21
ATOM     21  O   UNL     1      -0.077   7.956  20.978  1.00  0.00    -0.504 OA
ATOM     22  H   UNL     1      -0.753   7.509  20.368  1.00  0.00     0.293 HD
ENDBRANCH  18  21
ENDBRANCH   3  13
BRANCH   9  23
ATOM     23  O   UNL     1       6.345   1.364  26.485  1.00  0.00    -0.507 OA
ATOM     24  H   UNL     1       5.785   0.981  27.234  1.00  0.00     0.293 HD
ENDBRANCH   9  23
BRANCH   7  25
ATOM     25  O   UNL     1       8.842   5.472  26.526  1.00  0.00    -0.508 OA
ATOM     26  H   UNL     1       8.880   6.484  26.568  1.00  0.00     0.293 HD
ENDBRANCH   7  25
TORSDOF 6
ENDMDL
MODEL 6
REMARK VINA RESULT:    -5.494      1.511      6.761
REMARK INTER + INTRA:          -6.921
REMARK INTER:                  -6.702
REMARK INTRA:                  -0.219
REMARK UNBOUND:                -0.303
REMARK SMILES Oc1cc(O)c2c(c1)O[C@@H](c1ccc(O)c(O)c1)[C@H](O)C2
REMARK SMILES IDX 21 1 19 2 10 3 9 4 7 5 8 6 2 7 3 8 4 9 6 10 20 11 11 13
REMARK SMILES IDX 18 14 12 15 16 16 13 17 14 18 17 19 15 21 5 23 1 25
REMARK H PARENT 20 12 17 20 15 22 5 24 1 26
REMARK Flexibility Score: inf
ROOT
ATOM      1  C   UNL     1       9.630   2.155  28.183  1.00  0.00     0.079 C 
ATOM      2  C   UNL     1       8.928   3.403  27.614  1.00  0.00     0.164 C 
ATOM      3  C   UNL     1       8.535   3.169  26.142  1.00  0.00     0.232 C 
ATOM      4  O   UNL     1       7.712   2.006  26.045  1.00  0.00    -0.482 OA
ATOM      5  C   UNL     1       7.941   0.861  26.816  1.00  0.00     0.131 A 
ATOM      6  C   UNL     1       7.219  -0.301  26.532  1.00  0.00     0.093 A 
ATOM      7  C   UNL     1       7.435  -1.465  27.275  1.00  0.00     0.122 A 
ATOM      8  C   UNL     1       8.385  -1.469  28.299  1.00  0.00     0.092 A 
ATOM      9  C   UNL     1       9.120  -0.316  28.596  1.00  0.00     0.126 A 
ATOM     10  C   UNL     1       8.874   0.879  27.876  1.00  0.00     0.039 A 
ENDROOT
BRANCH   2  11
ATOM     11  O   UNL     1       9.748   4.537  27.753  1.00  0.00    -0.389 OA
ATOM     12  H   UNL     1      10.075   4.560  28.690  1.00  0.00     0.211 HD
ENDBRANCH   2  11
BRANCH   3  13
ATOM     13  C   UNL     1       7.798   4.361  25.579  1.00  0.00    -0.001 A 
ATOM     14  C   UNL     1       6.404   4.473  25.720  1.00  0.00     0.057 A 
ATOM     15  C   UNL     1       8.507   5.397  24.949  1.00  0.00     0.012 A 
ATOM     16  C   UNL     1       5.726   5.594  25.221  1.00  0.00     0.157 A 
ATOM     17  C   UNL     1       7.831   6.515  24.451  1.00  0.00     0.050 A 
ATOM     18  C   UNL     1       6.441   6.616  24.584  1.00  0.00     0.157 A 
BRANCH  16  19
ATOM     19  O   UNL     1       4.342   5.700  25.357  1.00  0.00    -0.504 OA
ATOM     20  H   UNL     1       3.885   6.600  25.444  1.00  0.00     0.293 HD
ENDBRANCH  16  19
BRANCH  18  21
ATOM     21  O   UNL     1       5.763   7.728  24.088  1.00  0.00    -0.504 OA
ATOM     22  H   UNL     1       4.750   7.786  24.110  1.00  0.00     0.293 HD
ENDBRANCH  18  21
ENDBRANCH   3  13
BRANCH   9  23
ATOM     23  O   UNL     1      10.087  -0.394  29.601  1.00  0.00    -0.507 OA
ATOM     24  H   UNL     1      10.443  -1.269  29.963  1.00  0.00     0.293 HD
ENDBRANCH   9  23
BRANCH   7  25
ATOM     25  O   UNL     1       6.717  -2.627  27.000  1.00  0.00    -0.508 OA
ATOM     26  H   UNL     1       7.139  -3.544  27.089  1.00  0.00     0.293 HD
ENDBRANCH   7  25
TORSDOF 6
ENDMDL
MODEL 7
REMARK VINA RESULT:    -5.424      8.515     10.391
REMARK INTER + INTRA:          -6.836
REMARK INTER:                  -7.266
REMARK INTRA:                   0.430
REMARK UNBOUND:                -0.303
REMARK SMILES Oc1cc(O)c2c(c1)O[C@@H](c1ccc(O)c(O)c1)[C@H](O)C2
REMARK SMILES IDX 21 1 19 2 10 3 9 4 7 5 8 6 2 7 3 8 4 9 6 10 20 11 11 13
REMARK SMILES IDX 18 14 12 15 16 16 13 17 14 18 17 19 15 21 5 23 1 25
REMARK H PARENT 20 12 17 20 15 22 5 24 1 26
REMARK Flexibility Score: inf
ROOT
ATOM      1  C   UNL     1       1.873  11.097  21.308  1.00  0.00     0.079 C 
ATOM      2  C   UNL     1       0.906  10.099  21.974  1.00  0.00     0.164 C 
ATOM      3  C   UNL     1       1.380   8.652  21.729  1.00  0.00     0.232 C 
ATOM      4  O   UNL     1       2.716   8.498  22.207  1.00  0.00    -0.482 OA
ATOM      5  C   UNL     1       3.683   9.500  22.066  1.00  0.00     0.131 A 
ATOM      6  C   UNL     1       5.011   9.209  22.384  1.00  0.00     0.093 A 
ATOM      7  C   UNL     1       6.002  10.185  22.240  1.00  0.00     0.122 A 
ATOM      8  C   UNL     1       5.663  11.454  21.765  1.00  0.00     0.092 A 
ATOM      9  C   UNL     1       4.337  11.764  21.440  1.00  0.00     0.126 A 
ATOM     10  C   UNL     1       3.323  10.794  21.626  1.00  0.00     0.039 A 
ENDROOT
BRANCH   2  11
ATOM     11  O   UNL     1      -0.405  10.296  21.508  1.00  0.00    -0.389 OA
ATOM     12  H   UNL     1      -0.595   9.593  20.832  1.00  0.00     0.211 HD
ENDBRANCH   2  11
BRANCH   3  13
ATOM     13  C   UNL     1       0.476   7.658  22.417  1.00  0.00    -0.001 A 
ATOM     14  C   UNL     1       0.954   6.388  22.781  1.00  0.00     0.057 A 
ATOM     15  C   UNL     1      -0.843   8.013  22.747  1.00  0.00     0.012 A 
ATOM     16  C   UNL     1       0.121   5.477  23.446  1.00  0.00     0.157 A 
ATOM     17  C   UNL     1      -1.675   7.105  23.409  1.00  0.00     0.050 A 
ATOM     18  C   UNL     1      -1.196   5.836  23.759  1.00  0.00     0.157 A 
BRANCH  16  19
ATOM     19  O   UNL     1       0.595   4.215  23.800  1.00  0.00    -0.504 OA
ATOM     20  H   UNL     1       1.582   3.988  23.755  1.00  0.00     0.293 HD
ENDBRANCH  16  19
BRANCH  18  21
ATOM     21  O   UNL     1      -2.022   4.927  24.418  1.00  0.00    -0.504 OA
ATOM     22  H   UNL     1      -1.942   4.765  25.416  1.00  0.00     0.293 HD
ENDBRANCH  18  21
ENDBRANCH   3  13
BRANCH   9  23
ATOM     23  O   UNL     1       4.067  13.035  20.928  1.00  0.00    -0.507 OA
ATOM     24  H   UNL     1       4.523  13.875  21.257  1.00  0.00     0.293 HD
ENDBRANCH   9  23
BRANCH   7  25
ATOM     25  O   UNL     1       7.329   9.902  22.556  1.00  0.00    -0.508 OA
ATOM     26  H   UNL     1       7.901  10.558  23.077  1.00  0.00     0.293 HD
ENDBRANCH   7  25
TORSDOF 6
ENDMDL
MODEL 8
REMARK VINA RESULT:    -5.297      1.480      2.943
REMARK INTER + INTRA:          -6.683
REMARK INTER:                  -6.566
REMARK INTRA:                  -0.118
REMARK UNBOUND:                -0.303
REMARK SMILES Oc1cc(O)c2c(c1)O[C@@H](c1ccc(O)c(O)c1)[C@H](O)C2
REMARK SMILES IDX 21 1 19 2 10 3 9 4 7 5 8 6 2 7 3 8 4 9 6 10 20 11 11 13
REMARK SMILES IDX 18 14 12 15 16 16 13 17 14 18 17 19 15 21 5 23 1 25
REMARK H PARENT 20 12 17 20 15 22 5 24 1 26
REMARK Flexibility Score: inf
ROOT
ATOM      1  C   UNL     1       5.800   4.339  25.352  1.00  0.00     0.079 C 
ATOM      2  C   UNL     1       5.873   3.000  26.111  1.00  0.00     0.164 C 
ATOM      3  C   UNL     1       7.297   2.415  26.026  1.00  0.00     0.232 C 
ATOM      4  O   UNL     1       8.236   3.365  26.530  1.00  0.00    -0.482 OA
ATOM      5  C   UNL     1       8.114   4.739  26.292  1.00  0.00     0.131 A 
ATOM      6  C   UNL     1       9.166   5.584  26.652  1.00  0.00     0.093 A 
ATOM      7  C   UNL     1       9.080   6.959  26.413  1.00  0.00     0.122 A 
ATOM      8  C   UNL     1       7.940   7.487  25.803  1.00  0.00     0.092 A 
ATOM      9  C   UNL     1       6.877   6.656  25.434  1.00  0.00     0.126 A 
ATOM     10  C   UNL     1       6.939   5.269  25.713  1.00  0.00     0.039 A 
ENDROOT
BRANCH   2  11
ATOM     11  O   UNL     1       4.916   2.098  25.614  1.00  0.00    -0.389 OA
ATOM     12  H   UNL     1       4.581   1.562  26.380  1.00  0.00     0.211 HD
ENDBRANCH   2  11
BRANCH   3  13
ATOM     13  C   UNL     1       7.405   1.129  26.808  1.00  0.00    -0.001 A 
ATOM     14  C   UNL     1       6.984  -0.089  26.246  1.00  0.00     0.057 A 
ATOM     15  C   UNL     1       7.974   1.128  28.092  1.00  0.00     0.012 A 
ATOM     16  C   UNL     1       7.112  -1.287  26.963  1.00  0.00     0.157 A 
ATOM     17  C   UNL     1       8.102  -0.065  28.809  1.00  0.00     0.050 A 
ATOM     18  C   UNL     1       7.671  -1.274  28.248  1.00  0.00     0.157 A 
BRANCH  16  19
ATOM     19  O   UNL     1       6.689  -2.492  26.406  1.00  0.00    -0.504 OA
ATOM     20  H   UNL     1       5.731  -2.630  26.106  1.00  0.00     0.293 HD
ENDBRANCH  16  19
BRANCH  18  21
ATOM     21  O   UNL     1       7.794  -2.467  28.959  1.00  0.00    -0.504 OA
ATOM     22  H   UNL     1       6.986  -2.936  29.351  1.00  0.00     0.293 HD
ENDBRANCH  18  21
ENDBRANCH   3  13
BRANCH   9  23
ATOM     23  O   UNL     1       5.783   7.237  24.787  1.00  0.00    -0.507 OA
ATOM     24  H   UNL     1       4.978   7.604  25.277  1.00  0.00     0.293 HD
ENDBRANCH   9  23
BRANCH   7  25
ATOM     25  O   UNL     1      10.124   7.809  26.770  1.00  0.00    -0.508 OA
ATOM     26  H   UNL     1      10.141   8.279  27.668  1.00  0.00     0.293 HD
ENDBRANCH   7  25
TORSDOF 6
ENDMDL
MODEL 9
REMARK VINA RESULT:    -5.180      2.328      7.060
REMARK INTER + INTRA:          -6.543
REMARK INTER:                  -6.175
REMARK INTRA:                  -0.368
REMARK UNBOUND:                -0.303
REMARK SMILES Oc1cc(O)c2c(c1)O[C@@H](c1ccc(O)c(O)c1)[C@H](O)C2
REMARK SMILES IDX 21 1 19 2 10 3 9 4 7 5 8 6 2 7 3 8 4 9 6 10 20 11 11 13
REMARK SMILES IDX 18 14 12 15 16 16 13 17 14 18 17 19 15 21 5 23 1 25
REMARK H PARENT 20 12 17 20 15 22 5 24 1 26
REMARK Flexibility Score: inf
ROOT
ATOM      1  C   UNL     1       9.843   4.626  28.272  1.00  0.00     0.079 C 
ATOM      2  C   UNL     1       9.212   5.508  27.176  1.00  0.00     0.164 C 
ATOM      3  C   UNL     1       9.169   4.747  25.836  1.00  0.00     0.232 C 
ATOM      4  O   UNL     1       8.460   3.520  26.005  1.00  0.00    -0.482 OA
ATOM      5  C   UNL     1       8.580   2.738  27.159  1.00  0.00     0.131 A 
ATOM      6  C   UNL     1       8.009   1.463  27.175  1.00  0.00     0.093 A 
ATOM      7  C   UNL     1       8.123   0.652  28.309  1.00  0.00     0.122 A 
ATOM      8  C   UNL     1       8.822   1.116  29.426  1.00  0.00     0.092 A 
ATOM      9  C   UNL     1       9.402   2.390  29.428  1.00  0.00     0.126 A 
ATOM     10  C   UNL     1       9.251   3.232  28.300  1.00  0.00     0.039 A 
ENDROOT
BRANCH   2  11
ATOM     11  O   UNL     1       9.911   6.722  27.056  1.00  0.00    -0.389 OA
ATOM     12  H   UNL     1      10.876   6.506  26.960  1.00  0.00     0.211 HD
ENDBRANCH   2  11
BRANCH   3  13
ATOM     13  C   UNL     1       8.506   5.574  24.761  1.00  0.00    -0.001 A 
ATOM     14  C   UNL     1       7.143   5.902  24.849  1.00  0.00     0.057 A 
ATOM     15  C   UNL     1       9.260   6.066  23.682  1.00  0.00     0.012 A 
ATOM     16  C   UNL     1       6.536   6.694  23.864  1.00  0.00     0.157 A 
ATOM     17  C   UNL     1       8.656   6.855  22.699  1.00  0.00     0.050 A 
ATOM     18  C   UNL     1       7.293   7.169  22.786  1.00  0.00     0.157 A 
BRANCH  16  19
ATOM     19  O   UNL     1       5.182   7.013  23.950  1.00  0.00    -0.504 OA
ATOM     20  H   UNL     1       4.817   7.883  23.579  1.00  0.00     0.293 HD
ENDBRANCH  16  19
BRANCH  18  21
ATOM     21  O   UNL     1       6.686   7.955  21.808  1.00  0.00    -0.504 OA
ATOM     22  H   UNL     1       6.564   7.618  20.859  1.00  0.00     0.293 HD
ENDBRANCH  18  21
ENDBRANCH   3  13
BRANCH   9  23
ATOM     23  O   UNL     1      10.125   2.780  30.558  1.00  0.00    -0.507 OA
ATOM     24  H   UNL     1       9.691   3.111  31.409  1.00  0.00     0.293 HD
ENDBRANCH   9  23
BRANCH   7  25
ATOM     25  O   UNL     1       7.556  -0.619  28.333  1.00  0.00    -0.508 OA
ATOM     26  H   UNL     1       7.213  -1.063  27.488  1.00  0.00     0.293 HD
ENDBRANCH   7  25
TORSDOF 6
ENDMDL
