MODEL 1
REMARK VINA RESULT:    -4.451      0.000      0.000
REMARK INTER + INTRA:          -5.165
REMARK INTER:                  -5.101
REMARK INTRA:                  -0.064
REMARK UNBOUND:                -0.064
REMARK SMILES CC(C)[C@@H]([NH3+])C(=O)[O-]
REMARK SMILES IDX 4 1 5 2 6 6 7 7 8 8 2 9 1 10 3 11
REMARK H PARENT 5 3 5 4 5 5
REMARK Flexibility Score: inf
ROOT
ATOM      1  C   UNL     1     -18.755 -13.469  12.679  1.00  0.00     0.230 C 
ENDROOT
BRANCH   1   2
ATOM      2  N   UNL     1     -18.529 -13.477  11.226  1.00  0.00    -0.350 N 
ATOM      3  H   UNL     1     -17.513 -13.320  11.032  1.00  0.00     0.345 HD
ATOM      4  H   UNL     1     -18.787 -14.405  10.822  1.00  0.00     0.345 HD
ATOM      5  H   UNL     1     -19.077 -12.726  10.749  1.00  0.00     0.345 HD
ENDBRANCH   1   2
BRANCH   1   6
ATOM      6  C   UNL     1     -17.499 -13.066  13.412  1.00  0.00     0.099 C 
ATOM      7  O   UNL     1     -17.574 -12.310  14.418  1.00  0.00    -0.544 OA
ATOM      8  O   UNL     1     -16.250 -13.481  12.965  1.00  0.00    -0.544 OA
ENDBRANCH   1   6
BRANCH   1   9
ATOM      9  C   UNL     1     -19.957 -12.572  13.105  1.00  0.00     0.047 C 
ATOM     10  C   UNL     1     -20.591 -11.798  11.939  1.00  0.00     0.014 C 
ATOM     11  C   UNL     1     -21.031 -13.375  13.855  1.00  0.00     0.014 C 
ENDBRANCH   1   9
TORSDOF 3
ENDMDL
MODEL 2
REMARK VINA RESULT:    -4.421     19.514     20.031
REMARK INTER + INTRA:          -5.131
REMARK INTER:                  -5.085
REMARK INTRA:                  -0.046
REMARK UNBOUND:                -0.064
REMARK SMILES CC(C)[C@@H]([NH3+])C(=O)[O-]
REMARK SMILES IDX 4 1 5 2 6 6 7 7 8 8 2 9 1 10 3 11
REMARK H PARENT 5 3 5 4 5 5
REMARK Flexibility Score: inf
ROOT
ATOM      1  C   UNL     1     -13.115   3.427  21.495  1.00  0.00     0.230 C 
ENDROOT
BRANCH   1   2
ATOM      2  N   UNL     1     -14.313   3.257  20.660  1.00  0.00    -0.350 N 
ATOM      3  H   UNL     1     -14.076   2.668  19.829  1.00  0.00     0.345 HD
ATOM      4  H   UNL     1     -15.062   2.762  21.193  1.00  0.00     0.345 HD
ATOM      5  H   UNL     1     -14.678   4.176  20.321  1.00  0.00     0.345 HD
ENDBRANCH   1   2
BRANCH   1   6
ATOM      6  C   UNL     1     -11.937   3.862  20.658  1.00  0.00     0.099 C 
ATOM      7  O   UNL     1     -11.507   3.111  19.741  1.00  0.00    -0.544 OA
ATOM      8  O   UNL     1     -11.287   5.063  20.915  1.00  0.00    -0.544 OA
ENDBRANCH   1   6
BRANCH   1   9
ATOM      9  C   UNL     1     -13.337   4.405  22.689  1.00  0.00     0.047 C 
ATOM     10  C   UNL     1     -14.818   4.673  22.999  1.00  0.00     0.014 C 
ATOM     11  C   UNL     1     -12.606   3.937  23.956  1.00  0.00     0.014 C 
ENDBRANCH   1   9
TORSDOF 3
ENDMDL
MODEL 3
REMARK VINA RESULT:    -4.339     20.145     20.564
REMARK INTER + INTRA:          -5.037
REMARK INTER:                  -4.972
REMARK INTRA:                  -0.065
REMARK UNBOUND:                -0.064
REMARK SMILES CC(C)[C@@H]([NH3+])C(=O)[O-]
REMARK SMILES IDX 4 1 5 2 6 6 7 7 8 8 2 9 1 10 3 11
REMARK H PARENT 5 3 5 4 5 5
REMARK Flexibility Score: inf
ROOT
ATOM      1  C   UNL     1     -12.840   4.739  22.577  1.00  0.00     0.230 C 
ENDROOT
BRANCH   1   2
ATOM      2  N   UNL     1     -11.772   4.605  23.579  1.00  0.00    -0.350 N 
ATOM      3  H   UNL     1     -12.192   4.619  24.537  1.00  0.00     0.345 HD
ATOM      4  H   UNL     1     -11.278   3.692  23.465  1.00  0.00     0.345 HD
ATOM      5  H   UNL     1     -11.081   5.386  23.509  1.00  0.00     0.345 HD
ENDBRANCH   1   2
BRANCH   1   6
ATOM      6  C   UNL     1     -12.387   4.208  21.239  1.00  0.00     0.099 C 
ATOM      7  O   UNL     1     -13.133   3.429  20.586  1.00  0.00    -0.544 OA
ATOM      8  O   UNL     1     -11.132   4.530  20.734  1.00  0.00    -0.544 OA
ENDBRANCH   1   6
BRANCH   1   9
ATOM      9  C   UNL     1     -14.177   4.066  23.015  1.00  0.00     0.047 C 
ATOM     10  C   UNL     1     -14.101   3.383  24.389  1.00  0.00     0.014 C 
ATOM     11  C   UNL     1     -15.353   5.054  22.979  1.00  0.00     0.014 C 
ENDBRANCH   1   9
TORSDOF 3
ENDMDL
MODEL 4
REMARK VINA RESULT:    -4.319      1.998      2.503
REMARK INTER + INTRA:          -5.014
REMARK INTER:                  -4.980
REMARK INTRA:                  -0.035
REMARK UNBOUND:                -0.064
REMARK SMILES CC(C)[C@@H]([NH3+])C(=O)[O-]
REMARK SMILES IDX 4 1 5 2 6 6 7 7 8 8 2 9 1 10 3 11
REMARK H PARENT 5 3 5 4 5 5
REMARK Flexibility Score: inf
ROOT
ATOM      1  C   UNL     1     -17.684 -12.297  13.628  1.00  0.00     0.230 C 
ENDROOT
BRANCH   1   2
ATOM      2  N   UNL     1     -17.941 -11.890  15.017  1.00  0.00    -0.350 N 
ATOM      3  H   UNL     1     -18.777 -11.261  15.045  1.00  0.00     0.345 HD
ATOM      4  H   UNL     1     -18.154 -12.724  15.608  1.00  0.00     0.345 HD
ATOM      5  H   UNL     1     -17.126 -11.375  15.422  1.00  0.00     0.345 HD
ENDBRANCH   1   2
BRANCH   1   6
ATOM      6  C   UNL     1     -16.277 -12.821  13.476  1.00  0.00     0.099 C 
ATOM      7  O   UNL     1     -16.076 -14.059  13.357  1.00  0.00    -0.544 OA
ATOM      8  O   UNL     1     -15.189 -11.956  13.513  1.00  0.00    -0.544 OA
ENDBRANCH   1   6
BRANCH   1   9
ATOM      9  C   UNL     1     -18.720 -13.333  13.093  1.00  0.00     0.047 C 
ATOM     10  C   UNL     1     -20.083 -13.261  13.800  1.00  0.00     0.014 C 
ATOM     11  C   UNL     1     -18.905 -13.224  11.572  1.00  0.00     0.014 C 
ENDBRANCH   1   9
TORSDOF 3
ENDMDL
MODEL 5
REMARK VINA RESULT:    -4.164      2.124      3.245
REMARK INTER + INTRA:          -4.837
REMARK INTER:                  -4.811
REMARK INTRA:                  -0.026
REMARK UNBOUND:                -0.064
REMARK SMILES CC(C)[C@@H]([NH3+])C(=O)[O-]
REMARK SMILES IDX 4 1 5 2 6 6 7 7 8 8 2 9 1 10 3 11
REMARK H PARENT 5 3 5 4 5 5
REMARK Flexibility Score: inf
ROOT
ATOM      1  C   UNL     1     -18.813 -12.750  12.366  1.00  0.00     0.230 C 
ENDROOT
BRANCH   1   2
ATOM      2  N   UNL     1     -18.725 -13.651  11.207  1.00  0.00    -0.350 N 
ATOM      3  H   UNL     1     -19.689 -13.901  10.888  1.00  0.00     0.345 HD
ATOM      4  H   UNL     1     -18.242 -13.177  10.412  1.00  0.00     0.345 HD
ATOM      5  H   UNL     1     -18.217 -14.533  11.446  1.00  0.00     0.345 HD
ENDBRANCH   1   2
BRANCH   1   6
ATOM      6  C   UNL     1     -20.221 -12.715  12.910  1.00  0.00     0.099 C 
ATOM      7  O   UNL     1     -21.031 -11.841  12.499  1.00  0.00    -0.544 OA
ATOM      8  O   UNL     1     -20.624 -13.607  13.896  1.00  0.00    -0.544 OA
ENDBRANCH   1   6
BRANCH   1   9
ATOM      9  C   UNL     1     -17.794 -13.101  13.492  1.00  0.00     0.047 C 
ATOM     10  C   UNL     1     -16.387 -13.432  12.968  1.00  0.00     0.014 C 
ATOM     11  C   UNL     1     -17.716 -11.998  14.558  1.00  0.00     0.014 C 
ENDBRANCH   1   9
TORSDOF 3
ENDMDL
MODEL 6
REMARK VINA RESULT:    -4.149      2.692      3.588
REMARK INTER + INTRA:          -4.819
REMARK INTER:                  -4.767
REMARK INTRA:                  -0.052
REMARK UNBOUND:                -0.064
REMARK SMILES CC(C)[C@@H]([NH3+])C(=O)[O-]
REMARK SMILES IDX 4 1 5 2 6 6 7 7 8 8 2 9 1 10 3 11
REMARK H PARENT 5 3 5 4 5 5
REMARK Flexibility Score: inf
ROOT
ATOM      1  C   UNL     1     -20.271 -12.231  13.069  1.00  0.00     0.230 C 
ENDROOT
BRANCH   1   2
ATOM      2  N   UNL     1     -20.552 -11.511  11.818  1.00  0.00    -0.350 N 
ATOM      3  H   UNL     1     -19.649 -11.238  11.365  1.00  0.00     0.345 HD
ATOM      4  H   UNL     1     -21.067 -12.127  11.150  1.00  0.00     0.345 HD
ATOM      5  H   UNL     1     -21.109 -10.643  11.992  1.00  0.00     0.345 HD
ENDBRANCH   1   2
BRANCH   1   6
ATOM      6  C   UNL     1     -21.509 -12.932  13.571  1.00  0.00     0.099 C 
ATOM      7  O   UNL     1     -22.649 -12.529  13.213  1.00  0.00    -0.544 OA
ATOM      8  O   UNL     1     -21.413 -13.994  14.464  1.00  0.00    -0.544 OA
ENDBRANCH   1   6
BRANCH   1   9
ATOM      9  C   UNL     1     -19.081 -13.230  12.945  1.00  0.00     0.047 C 
ATOM     10  C   UNL     1     -18.596 -13.434  11.501  1.00  0.00     0.014 C 
ATOM     11  C   UNL     1     -17.904 -12.832  13.849  1.00  0.00     0.014 C 
ENDBRANCH   1   9
TORSDOF 3
ENDMDL
MODEL 7
REMARK VINA RESULT:    -4.130      2.400      3.506
REMARK INTER + INTRA:          -4.798
REMARK INTER:                  -4.754
REMARK INTRA:                  -0.043
REMARK UNBOUND:                -0.064
REMARK SMILES CC(C)[C@@H]([NH3+])C(=O)[O-]
REMARK SMILES IDX 4 1 5 2 6 6 7 7 8 8 2 9 1 10 3 11
REMARK H PARENT 5 3 5 4 5 5
REMARK Flexibility Score: inf
ROOT
ATOM      1  C   UNL     1     -18.551 -13.319  13.399  1.00  0.00     0.230 C 
ENDROOT
BRANCH   1   2
ATOM      2  N   UNL     1     -19.372 -13.267  14.619  1.00  0.00    -0.350 N 
ATOM      3  H   UNL     1     -20.362 -13.510  14.381  1.00  0.00     0.345 HD
ATOM      4  H   UNL     1     -19.034 -13.967  15.316  1.00  0.00     0.345 HD
ATOM      5  H   UNL     1     -19.359 -12.314  15.048  1.00  0.00     0.345 HD
ENDBRANCH   1   2
BRANCH   1   6
ATOM      6  C   UNL     1     -19.294 -12.720  12.230  1.00  0.00     0.099 C 
ATOM      7  O   UNL     1     -20.331 -12.034  12.429  1.00  0.00    -0.544 OA
ATOM      8  O   UNL     1     -18.873 -12.955  10.925  1.00  0.00    -0.544 OA
ENDBRANCH   1   6
BRANCH   1   9
ATOM      9  C   UNL     1     -17.156 -12.646  13.573  1.00  0.00     0.047 C 
ATOM     10  C   UNL     1     -16.826 -12.278  15.028  1.00  0.00     0.014 C 
ATOM     11  C   UNL     1     -16.030 -13.502  12.974  1.00  0.00     0.014 C 
ENDBRANCH   1   9
TORSDOF 3
ENDMDL
MODEL 8
REMARK VINA RESULT:    -4.055     20.142     20.803
REMARK INTER + INTRA:          -4.712
REMARK INTER:                  -4.752
REMARK INTRA:                   0.041
REMARK UNBOUND:                -0.064
REMARK SMILES CC(C)[C@@H]([NH3+])C(=O)[O-]
REMARK SMILES IDX 4 1 5 2 6 6 7 7 8 8 2 9 1 10 3 11
REMARK H PARENT 5 3 5 4 5 5
REMARK Flexibility Score: inf
ROOT
ATOM      1  C   UNL     1     -13.960   4.230  22.129  1.00  0.00     0.230 C 
ENDROOT
BRANCH   1   2
ATOM      2  N   UNL     1     -13.881   2.774  21.932  1.00  0.00    -0.350 N 
ATOM      3  H   UNL     1     -14.842   2.365  21.985  1.00  0.00     0.345 HD
ATOM      4  H   UNL     1     -13.497   2.555  20.987  1.00  0.00     0.345 HD
ATOM      5  H   UNL     1     -13.287   2.321  22.664  1.00  0.00     0.345 HD
ENDBRANCH   1   2
BRANCH   1   6
ATOM      6  C   UNL     1     -15.048   4.578  23.116  1.00  0.00     0.099 C 
ATOM      7  O   UNL     1     -15.273   3.818  24.096  1.00  0.00    -0.544 OA
ATOM      8  O   UNL     1     -15.840   5.705  22.933  1.00  0.00    -0.544 OA
ENDBRANCH   1   6
BRANCH   1   9
ATOM      9  C   UNL     1     -12.601   4.863  22.557  1.00  0.00     0.047 C 
ATOM     10  C   UNL     1     -12.022   4.262  23.848  1.00  0.00     0.014 C 
ATOM     11  C   UNL     1     -11.560   4.800  21.429  1.00  0.00     0.014 C 
ENDBRANCH   1   9
TORSDOF 3
ENDMDL
MODEL 9
REMARK VINA RESULT:    -3.909     20.009     20.612
REMARK INTER + INTRA:          -4.545
REMARK INTER:                  -4.502
REMARK INTRA:                  -0.042
REMARK UNBOUND:                -0.064
REMARK SMILES CC(C)[C@@H]([NH3+])C(=O)[O-]
REMARK SMILES IDX 4 1 5 2 6 6 7 7 8 8 2 9 1 10 3 11
REMARK H PARENT 5 3 5 4 5 5
REMARK Flexibility Score: inf
ROOT
ATOM      1  C   UNL     1     -12.997   3.965  22.946  1.00  0.00     0.230 C 
ENDROOT
BRANCH   1   2
ATOM      2  N   UNL     1     -12.012   4.680  23.771  1.00  0.00    -0.350 N 
ATOM      3  H   UNL     1     -12.479   5.039  24.636  1.00  0.00     0.345 HD
ATOM      4  H   UNL     1     -11.248   4.034  24.069  1.00  0.00     0.345 HD
ATOM      5  H   UNL     1     -11.600   5.492  23.256  1.00  0.00     0.345 HD
ENDBRANCH   1   2
BRANCH   1   6
ATOM      6  C   UNL     1     -14.400   4.238  23.432  1.00  0.00     0.099 C 
ATOM      7  O   UNL     1     -14.881   3.557  24.377  1.00  0.00    -0.544 OA
ATOM      8  O   UNL     1     -15.189   5.203  22.818  1.00  0.00    -0.544 OA
ENDBRANCH   1   6
BRANCH   1   9
ATOM      9  C   UNL     1     -12.867   4.282  21.426  1.00  0.00     0.047 C 
ATOM     10  C   UNL     1     -11.420   4.530  20.970  1.00  0.00     0.014 C 
ATOM     11  C   UNL     1     -13.517   3.194  20.557  1.00  0.00     0.014 C 
ENDBRANCH   1   9
TORSDOF 3
ENDMDL
