MODEL 1
REMARK VINA RESULT:    -3.290      0.000      0.000
REMARK INTER + INTRA:          -3.290
REMARK INTER:                  -3.290
REMARK INTRA:                   0.000
REMARK UNBOUND:                 0.000
REMARK SMILES CC1(C)O[C@]2(C)CC[C@H]1CC2
REMARK SMILES IDX 1 1 2 2 9 3 8 4 7 5 5 6 4 7 11 8 10 9 6 10 3 11
REMARK H PARENT
REMARK Flexibility Score: inf
ROOT
ATOM      1  C   UNL     1     110.505 112.119 106.212  1.00  0.00     0.042 C 
ATOM      2  C   UNL     1     109.529 111.763 105.069  1.00  0.00     0.066 C 
ATOM      3  C   UNL     1     108.033 111.959 105.530  1.00  0.00     0.021 C 
ATOM      4  C   UNL     1     107.744 110.972 106.686  1.00  0.00     0.009 C 
ATOM      5  C   UNL     1     108.162 109.545 106.253  1.00  0.00     0.035 C 
ATOM      6  C   UNL     1     108.645 109.564 104.774  1.00  0.00     0.066 C 
ATOM      7  O   UNL     1     109.790 110.411 104.665  1.00  0.00    -0.369 OA
ATOM      8  C   UNL     1     107.505 110.128 103.877  1.00  0.00     0.035 C 
ATOM      9  C   UNL     1     107.103 111.541 104.366  1.00  0.00     0.009 C 
ATOM     10  C   UNL     1     109.030 108.151 104.321  1.00  0.00     0.042 C 
ATOM     11  C   UNL     1     109.859 112.691 103.879  1.00  0.00     0.042 C 
ENDROOT
TORSDOF 0
ENDMDL
MODEL 2
REMARK VINA RESULT:    -3.255      1.730      3.095
REMARK INTER + INTRA:          -3.255
REMARK INTER:                  -3.255
REMARK INTRA:                   0.000
REMARK UNBOUND:                 0.000
REMARK SMILES CC1(C)O[C@]2(C)CC[C@H]1CC2
REMARK SMILES IDX 1 1 2 2 9 3 8 4 7 5 5 6 4 7 11 8 10 9 6 10 3 11
REMARK H PARENT
REMARK Flexibility Score: inf
ROOT
ATOM      1  C   UNL     1     108.114 110.672 106.175  1.00  0.00     0.042 C 
ATOM      2  C   UNL     1     108.331 109.635 105.051  1.00  0.00     0.066 C 
ATOM      3  C   UNL     1     107.988 108.181 105.559  1.00  0.00     0.021 C 
ATOM      4  C   UNL     1     108.970 107.816 106.698  1.00  0.00     0.009 C 
ATOM      5  C   UNL     1     110.421 108.065 106.218  1.00  0.00     0.035 C 
ATOM      6  C   UNL     1     110.413 108.510 104.727  1.00  0.00     0.066 C 
ATOM      7  O   UNL     1     109.692 109.737 104.607  1.00  0.00    -0.369 OA
ATOM      8  C   UNL     1     109.705 107.416 103.876  1.00  0.00     0.035 C 
ATOM      9  C   UNL     1     108.271 107.182 104.411  1.00  0.00     0.009 C 
ATOM     10  C   UNL     1     111.846 108.729 104.228  1.00  0.00     0.042 C 
ATOM     11  C   UNL     1     107.412 110.034 103.877  1.00  0.00     0.042 C 
ENDROOT
TORSDOF 0
ENDMDL
MODEL 3
REMARK VINA RESULT:    -3.253      2.587      4.511
REMARK INTER + INTRA:          -3.253
REMARK INTER:                  -3.253
REMARK INTRA:                   0.000
REMARK UNBOUND:                 0.000
REMARK SMILES CC1(C)O[C@]2(C)CC[C@H]1CC2
REMARK SMILES IDX 1 1 2 2 9 3 8 4 7 5 5 6 4 7 11 8 10 9 6 10 3 11
REMARK H PARENT
REMARK Flexibility Score: inf
ROOT
ATOM      1  C   UNL     1     109.505 108.085 106.166  1.00  0.00     0.042 C 
ATOM      2  C   UNL     1     110.533 108.407 105.059  1.00  0.00     0.066 C 
ATOM      3  C   UNL     1     112.005 108.203 105.589  1.00  0.00     0.021 C 
ATOM      4  C   UNL     1     112.257 109.208 106.737  1.00  0.00     0.009 C 
ATOM      5  C   UNL     1     111.877 110.631 106.259  1.00  0.00     0.035 C 
ATOM      6  C   UNL     1     111.457 110.590 104.761  1.00  0.00     0.066 C 
ATOM      7  O   UNL     1     110.307 109.754 104.620  1.00  0.00    -0.369 OA
ATOM      8  C   UNL     1     112.627 109.995 103.925  1.00  0.00     0.035 C 
ATOM      9  C   UNL     1     112.989 108.587 104.458  1.00  0.00     0.009 C 
ATOM     10  C   UNL     1     111.110 111.998 104.266  1.00  0.00     0.042 C 
ATOM     11  C   UNL     1     110.242 107.461 103.875  1.00  0.00     0.042 C 
ENDROOT
TORSDOF 0
ENDMDL
MODEL 4
REMARK VINA RESULT:    -3.203      1.900      3.438
REMARK INTER + INTRA:          -3.203
REMARK INTER:                  -3.203
REMARK INTRA:                   0.000
REMARK UNBOUND:                 0.000
REMARK SMILES CC1(C)O[C@]2(C)CC[C@H]1CC2
REMARK SMILES IDX 1 1 2 2 9 3 8 4 7 5 5 6 4 7 11 8 10 9 6 10 3 11
REMARK H PARENT
REMARK Flexibility Score: inf
ROOT
ATOM      1  C   UNL     1     112.241 109.657 106.304  1.00  0.00     0.042 C 
ATOM      2  C   UNL     1     111.862 110.557 105.107  1.00  0.00     0.066 C 
ATOM      3  C   UNL     1     112.246 112.060 105.396  1.00  0.00     0.021 C 
ATOM      4  C   UNL     1     111.416 112.553 106.605  1.00  0.00     0.009 C 
ATOM      5  C   UNL     1     109.919 112.249 106.353  1.00  0.00     0.035 C 
ATOM      6  C   UNL     1     109.738 111.635 104.935  1.00  0.00     0.066 C 
ATOM      7  O   UNL     1     110.457 110.403 104.862  1.00  0.00    -0.369 OA
ATOM      8  C   UNL     1     110.311 112.624 103.878  1.00  0.00     0.035 C 
ATOM      9  C   UNL     1     111.799 112.919 104.189  1.00  0.00     0.009 C 
ATOM     10  C   UNL     1     108.256 111.360 104.658  1.00  0.00     0.042 C 
ATOM     11  C   UNL     1     112.625 110.025 103.875  1.00  0.00     0.042 C 
ENDROOT
TORSDOF 0
ENDMDL
MODEL 5
REMARK VINA RESULT:    -3.187      1.256      2.914
REMARK INTER + INTRA:          -3.187
REMARK INTER:                  -3.187
REMARK INTRA:                   0.000
REMARK UNBOUND:                 0.000
REMARK SMILES CC1(C)O[C@]2(C)CC[C@H]1CC2
REMARK SMILES IDX 1 1 2 2 9 3 8 4 7 5 5 6 4 7 11 8 10 9 6 10 3 11
REMARK H PARENT
REMARK Flexibility Score: inf
ROOT
ATOM      1  C   UNL     1     107.807 110.366 107.371  1.00  0.00     0.042 C 
ATOM      2  C   UNL     1     107.835 111.488 106.310  1.00  0.00     0.066 C 
ATOM      3  C   UNL     1     107.342 110.946 104.912  1.00  0.00     0.021 C 
ATOM      4  C   UNL     1     108.329 109.855 104.434  1.00  0.00     0.009 C 
ATOM      5  C   UNL     1     109.773 110.412 104.499  1.00  0.00     0.035 C 
ATOM      6  C   UNL     1     109.742 111.906 104.934  1.00  0.00     0.066 C 
ATOM      7  O   UNL     1     109.172 112.002 106.240  1.00  0.00    -0.369 OA
ATOM      8  C   UNL     1     108.861 112.706 103.932  1.00  0.00     0.035 C 
ATOM      9  C   UNL     1     107.439 112.095 103.880  1.00  0.00     0.009 C 
ATOM     10  C   UNL     1     111.163 112.480 104.971  1.00  0.00     0.042 C 
ATOM     11  C   UNL     1     106.912 112.618 106.814  1.00  0.00     0.042 C 
ENDROOT
TORSDOF 0
ENDMDL
MODEL 6
REMARK VINA RESULT:    -3.186      2.381      2.975
REMARK INTER + INTRA:          -3.186
REMARK INTER:                  -3.186
REMARK INTRA:                   0.000
REMARK UNBOUND:                 0.000
REMARK SMILES CC1(C)O[C@]2(C)CC[C@H]1CC2
REMARK SMILES IDX 1 1 2 2 9 3 8 4 7 5 5 6 4 7 11 8 10 9 6 10 3 11
REMARK H PARENT
REMARK Flexibility Score: inf
ROOT
ATOM      1  C   UNL     1     112.663 113.139 106.151  1.00  0.00     0.042 C 
ATOM      2  C   UNL     1     111.875 112.410 105.040  1.00  0.00     0.066 C 
ATOM      3  C   UNL     1     110.476 111.919 105.580  1.00  0.00     0.021 C 
ATOM      4  C   UNL     1     110.720 110.885 106.704  1.00  0.00     0.009 C 
ATOM      5  C   UNL     1     111.694 109.796 106.191  1.00  0.00     0.035 C 
ATOM      6  C   UNL     1     112.029 110.052 104.693  1.00  0.00     0.066 C 
ATOM      7  O   UNL     1     112.677 111.319 104.568  1.00  0.00    -0.369 OA
ATOM      8  C   UNL     1     110.705 110.072 103.875  1.00  0.00     0.035 C 
ATOM      9  C   UNL     1     109.755 111.155 104.443  1.00  0.00     0.009 C 
ATOM     10  C   UNL     1     112.966 108.962 104.162  1.00  0.00     0.042 C 
ATOM     11  C   UNL     1     111.692 113.409 103.878  1.00  0.00     0.042 C 
ENDROOT
TORSDOF 0
ENDMDL
MODEL 7
REMARK VINA RESULT:    -3.143      2.872      3.752
REMARK INTER + INTRA:          -3.143
REMARK INTER:                  -3.143
REMARK INTRA:                   0.000
REMARK UNBOUND:                 0.000
REMARK SMILES CC1(C)O[C@]2(C)CC[C@H]1CC2
REMARK SMILES IDX 1 1 2 2 9 3 8 4 7 5 5 6 4 7 11 8 10 9 6 10 3 11
REMARK H PARENT
REMARK Flexibility Score: inf
ROOT
ATOM      1  C   UNL     1     113.070 107.438 106.134  1.00  0.00     0.042 C 
ATOM      2  C   UNL     1     112.372 108.274 105.040  1.00  0.00     0.066 C 
ATOM      3  C   UNL     1     111.887 109.660 105.620  1.00  0.00     0.021 C 
ATOM      4  C   UNL     1     110.830 109.389 106.716  1.00  0.00     0.009 C 
ATOM      5  C   UNL     1     109.739 108.448 106.149  1.00  0.00     0.035 C 
ATOM      6  C   UNL     1     110.018 108.163 104.645  1.00  0.00     0.066 C 
ATOM      7  O   UNL     1     111.280 107.503 104.519  1.00  0.00    -0.369 OA
ATOM      8  C   UNL     1     110.070 109.515 103.876  1.00  0.00     0.035 C 
ATOM      9  C   UNL     1     111.153 110.430 104.496  1.00  0.00     0.009 C 
ATOM     10  C   UNL     1     108.927 107.259 104.062  1.00  0.00     0.042 C 
ATOM     11  C   UNL     1     113.394 108.486 103.903  1.00  0.00     0.042 C 
ENDROOT
TORSDOF 0
ENDMDL
MODEL 8
REMARK VINA RESULT:    -3.119      1.891      3.869
REMARK INTER + INTRA:          -3.119
REMARK INTER:                  -3.119
REMARK INTRA:                   0.000
REMARK UNBOUND:                 0.000
REMARK SMILES CC1(C)O[C@]2(C)CC[C@H]1CC2
REMARK SMILES IDX 1 1 2 2 9 3 8 4 7 5 5 6 4 7 11 8 10 9 6 10 3 11
REMARK H PARENT
REMARK Flexibility Score: inf
ROOT
ATOM      1  C   UNL     1     110.049 108.103 107.167  1.00  0.00     0.042 C 
ATOM      2  C   UNL     1     108.844 107.987 106.209  1.00  0.00     0.066 C 
ATOM      3  C   UNL     1     109.297 107.415 104.810  1.00  0.00     0.021 C 
ATOM      4  C   UNL     1     110.283 108.418 104.166  1.00  0.00     0.009 C 
ATOM      5  C   UNL     1     109.648 109.830 104.172  1.00  0.00     0.035 C 
ATOM      6  C   UNL     1     108.200 109.754 104.736  1.00  0.00     0.066 C 
ATOM      7  O   UNL     1     108.247 109.286 106.085  1.00  0.00    -0.369 OA
ATOM      8  C   UNL     1     107.374 108.755 103.876  1.00  0.00     0.035 C 
ATOM      9  C   UNL     1     108.062 107.368 103.878  1.00  0.00     0.009 C 
ATOM     10  C   UNL     1     107.548 111.141 104.717  1.00  0.00     0.042 C 
ATOM     11  C   UNL     1     107.816 107.048 106.876  1.00  0.00     0.042 C 
ENDROOT
TORSDOF 0
ENDMDL
MODEL 9
REMARK VINA RESULT:    -3.111      1.379      3.569
REMARK INTER + INTRA:          -3.111
REMARK INTER:                  -3.111
REMARK INTRA:                   0.000
REMARK UNBOUND:                 0.000
REMARK SMILES CC1(C)O[C@]2(C)CC[C@H]1CC2
REMARK SMILES IDX 1 1 2 2 9 3 8 4 7 5 5 6 4 7 11 8 10 9 6 10 3 11
REMARK H PARENT
REMARK Flexibility Score: inf
ROOT
ATOM      1  C   UNL     1     110.813 107.754 103.877  1.00  0.00     0.042 C 
ATOM      2  C   UNL     1     110.156 108.394 105.120  1.00  0.00     0.066 C 
ATOM      3  C   UNL     1     108.769 107.709 105.431  1.00  0.00     0.021 C 
ATOM      4  C   UNL     1     107.816 107.967 104.240  1.00  0.00     0.009 C 
ATOM      5  C   UNL     1     107.793 109.483 103.927  1.00  0.00     0.035 C 
ATOM      6  C   UNL     1     108.659 110.249 104.968  1.00  0.00     0.066 C 
ATOM      7  O   UNL     1     110.012 109.800 104.874  1.00  0.00    -0.369 OA
ATOM      8  C   UNL     1     108.119 109.947 106.396  1.00  0.00     0.035 C 
ATOM      9  C   UNL     1     108.135 108.420 106.650  1.00  0.00     0.009 C 
ATOM     10  C   UNL     1     108.618 111.756 104.690  1.00  0.00     0.042 C 
ATOM     11  C   UNL     1     111.133 108.210 106.301  1.00  0.00     0.042 C 
ENDROOT
TORSDOF 0
ENDMDL
