MODEL 1
REMARK VINA RESULT:    -6.679      0.000      0.000
REMARK INTER + INTRA:         -10.012
REMARK INTER:                  -9.022
REMARK INTRA:                  -0.990
REMARK UNBOUND:                -0.990
REMARK SMILES O=c1c(-c2ccc(O)cc2)coc2c([C@@H]3O[C@H](CO)[C@H](O)[C@@H](O)[C@@H]3O)c(O)ccc12
REMARK SMILES IDX 3 1 11 2 12 3 13 4 30 5 2 6 1 7 29 8 28 9 26 10 14 11 4 12
REMARK SMILES IDX 5 13 6 14 7 15 10 16 9 17 8 18 15 20 24 21 16 22 22 23 17 24
REMARK SMILES IDX 20 25 25 26 23 28 18 30 19 31 21 33 27 35
REMARK H PARENT 8 19 25 27 23 29 19 32 21 34 27 36
REMARK Flexibility Score: inf
ROOT
ATOM      1  C   UNL     1     106.817 120.439 121.749  1.00  0.00     0.065 A 
ATOM      2  C   UNL     1     106.503 119.699 122.897  1.00  0.00     0.208 A 
ATOM      3  O   UNL     1     105.425 119.984 123.616  1.00  0.00    -0.463 OA
ATOM      4  C   UNL     1     104.583 120.969 123.312  1.00  0.00     0.147 A 
ATOM      5  C   UNL     1     104.831 121.774 122.175  1.00  0.00     0.066 A 
ATOM      6  C   UNL     1     105.967 121.502 121.391  1.00  0.00     0.200 A 
ATOM      7  O   UNL     1     106.233 122.217 120.386  1.00  0.00    -0.288 OA
ATOM      8  C   UNL     1     103.955 122.825 121.867  1.00  0.00     0.020 A 
ATOM      9  C   UNL     1     102.856 123.084 122.681  1.00  0.00     0.047 A 
ATOM     10  C   UNL     1     102.602 122.298 123.811  1.00  0.00     0.125 A 
ATOM     11  C   UNL     1     103.451 121.209 124.126  1.00  0.00     0.069 A 
ENDROOT
BRANCH   1  12
ATOM     12  C   UNL     1     108.023 120.097 120.954  1.00  0.00    -0.011 A 
ATOM     13  C   UNL     1     107.902 119.607 119.640  1.00  0.00     0.013 A 
ATOM     14  C   UNL     1     109.041 119.277 118.901  1.00  0.00     0.047 A 
ATOM     15  C   UNL     1     110.315 119.426 119.465  1.00  0.00     0.115 A 
ATOM     16  C   UNL     1     109.306 120.237 121.514  1.00  0.00     0.013 A 
ATOM     17  C   UNL     1     110.442 119.906 120.772  1.00  0.00     0.047 A 
BRANCH  15  18
ATOM     18  O   UNL     1     111.457 119.100 118.737  1.00  0.00    -0.508 OA
ATOM     19  H   UNL     1     111.536 118.220 118.241  1.00  0.00     0.293 HD
ENDBRANCH  15  18
ENDBRANCH   1  12
BRANCH  11  20
ATOM     20  C   UNL     1     103.215 120.349 125.362  1.00  0.00     0.188 C 
ATOM     21  C   UNL     1     103.799 121.033 126.624  1.00  0.00     0.179 C 
ATOM     22  O   UNL     1     101.831 120.084 125.524  1.00  0.00    -0.362 OA
ATOM     23  C   UNL     1     103.507 120.192 127.887  1.00  0.00     0.177 C 
ATOM     24  C   UNL     1     101.618 119.127 126.549  1.00  0.00     0.176 C 
ATOM     25  C   UNL     1     102.039 119.705 127.923  1.00  0.00     0.177 C 
BRANCH  21  26
ATOM     26  O   UNL     1     103.235 122.311 126.792  1.00  0.00    -0.387 OA
ATOM     27  H   UNL     1     103.083 122.439 127.764  1.00  0.00     0.211 HD
ENDBRANCH  21  26
BRANCH  23  28
ATOM     28  O   UNL     1     104.410 119.120 128.013  1.00  0.00    -0.387 OA
ATOM     29  H   UNL     1     105.244 119.458 128.427  1.00  0.00     0.211 HD
ENDBRANCH  23  28
BRANCH  24  30
ATOM     30  C   UNL     1     100.138 118.718 126.530  1.00  0.00     0.191 C 
BRANCH  30  31
ATOM     31  O   UNL     1      99.709 118.337 127.811  1.00  0.00    -0.394 OA
ATOM     32  H   UNL     1      99.346 119.151 128.247  1.00  0.00     0.210 HD
ENDBRANCH  30  31
ENDBRANCH  24  30
BRANCH  25  33
ATOM     33  O   UNL     1     101.194 120.776 128.262  1.00  0.00    -0.388 OA
ATOM     34  H   UNL     1     100.299 120.567 127.887  1.00  0.00     0.211 HD
ENDBRANCH  25  33
ENDBRANCH  11  20
BRANCH  10  35
ATOM     35  O   UNL     1     101.512 122.607 124.625  1.00  0.00    -0.507 OA
ATOM     36  H   UNL     1     101.613 122.745 125.624  1.00  0.00     0.293 HD
ENDBRANCH  10  35
TORSDOF 9
ENDMDL
MODEL 2
REMARK VINA RESULT:    -6.493      2.394      3.738
REMARK INTER + INTRA:          -9.761
REMARK INTER:                  -8.820
REMARK INTRA:                  -0.941
REMARK UNBOUND:                -0.990
REMARK SMILES O=c1c(-c2ccc(O)cc2)coc2c([C@@H]3O[C@H](CO)[C@H](O)[C@@H](O)[C@@H]3O)c(O)ccc12
REMARK SMILES IDX 3 1 11 2 12 3 13 4 30 5 2 6 1 7 29 8 28 9 26 10 14 11 4 12
REMARK SMILES IDX 5 13 6 14 7 15 10 16 9 17 8 18 15 20 24 21 16 22 22 23 17 24
REMARK SMILES IDX 20 25 25 26 23 28 18 30 19 31 21 33 27 35
REMARK H PARENT 8 19 25 27 23 29 19 32 21 34 27 36
REMARK Flexibility Score: inf
ROOT
ATOM      1  C   UNL     1     105.503 121.485 120.946  1.00  0.00     0.065 A 
ATOM      2  C   UNL     1     105.189 122.058 122.186  1.00  0.00     0.208 A 
ATOM      3  O   UNL     1     104.656 121.329 123.158  1.00  0.00    -0.463 OA
ATOM      4  C   UNL     1     104.384 120.032 123.032  1.00  0.00     0.147 A 
ATOM      5  C   UNL     1     104.659 119.375 121.809  1.00  0.00     0.066 A 
ATOM      6  C   UNL     1     105.223 120.119 120.756  1.00  0.00     0.200 A 
ATOM      7  O   UNL     1     105.455 119.572 119.643  1.00  0.00    -0.288 OA
ATOM      8  C   UNL     1     104.353 118.014 121.670  1.00  0.00     0.020 A 
ATOM      9  C   UNL     1     103.770 117.314 122.724  1.00  0.00     0.047 A 
ATOM     10  C   UNL     1     103.489 117.953 123.937  1.00  0.00     0.125 A 
ATOM     11  C   UNL     1     103.819 119.319 124.115  1.00  0.00     0.069 A 
ENDROOT
BRANCH   1  12
ATOM     12  C   UNL     1     106.109 122.319 119.877  1.00  0.00    -0.011 A 
ATOM     13  C   UNL     1     107.444 122.121 119.482  1.00  0.00     0.013 A 
ATOM     14  C   UNL     1     108.011 122.915 118.482  1.00  0.00     0.047 A 
ATOM     15  C   UNL     1     107.254 123.921 117.867  1.00  0.00     0.115 A 
ATOM     16  C   UNL     1     105.357 123.335 119.259  1.00  0.00     0.013 A 
ATOM     17  C   UNL     1     105.928 124.127 118.259  1.00  0.00     0.047 A 
BRANCH  15  18
ATOM     18  O   UNL     1     107.808 124.719 116.869  1.00  0.00    -0.508 OA
ATOM     19  H   UNL     1     107.490 124.663 115.908  1.00  0.00     0.293 HD
ENDBRANCH  15  18
ENDBRANCH   1  12
BRANCH  11  20
ATOM     20  C   UNL     1     103.504 120.049 125.416  1.00  0.00     0.188 C 
ATOM     21  C   UNL     1     102.144 120.784 125.315  1.00  0.00     0.179 C 
ATOM     22  O   UNL     1     103.510 119.142 126.507  1.00  0.00    -0.362 OA
ATOM     23  C   UNL     1     101.793 121.473 126.652  1.00  0.00     0.177 C 
ATOM     24  C   UNL     1     103.415 119.837 127.740  1.00  0.00     0.176 C 
ATOM     25  C   UNL     1     102.040 120.539 127.860  1.00  0.00     0.177 C 
BRANCH  21  26
ATOM     26  O   UNL     1     101.120 119.874 124.994  1.00  0.00    -0.387 OA
ATOM     27  H   UNL     1     101.106 119.183 125.708  1.00  0.00     0.211 HD
ENDBRANCH  21  26
BRANCH  23  28
ATOM     28  O   UNL     1     102.477 122.695 126.797  1.00  0.00    -0.387 OA
ATOM     29  H   UNL     1     102.562 122.896 127.763  1.00  0.00     0.211 HD
ENDBRANCH  23  28
BRANCH  24  30
ATOM     30  C   UNL     1     103.648 118.834 128.880  1.00  0.00     0.191 C 
BRANCH  30  31
ATOM     31  O   UNL     1     103.043 119.279 130.065  1.00  0.00    -0.394 OA
ATOM     32  H   UNL     1     102.125 118.902 130.078  1.00  0.00     0.210 HD
ENDBRANCH  30  31
ENDBRANCH  24  30
BRANCH  25  33
ATOM     33  O   UNL     1     101.022 119.571 127.923  1.00  0.00    -0.388 OA
ATOM     34  H   UNL     1     100.629 119.624 128.833  1.00  0.00     0.211 HD
ENDBRANCH  25  33
ENDBRANCH  11  20
BRANCH  10  35
ATOM     35  O   UNL     1     102.872 117.232 124.959  1.00  0.00    -0.507 OA
ATOM     36  H   UNL     1     102.174 117.651 125.563  1.00  0.00     0.293 HD
ENDBRANCH  10  35
TORSDOF 9
ENDMDL
MODEL 3
REMARK VINA RESULT:    -6.336      2.183      3.183
REMARK INTER + INTRA:          -9.548
REMARK INTER:                  -8.485
REMARK INTRA:                  -1.063
REMARK UNBOUND:                -0.990
REMARK SMILES O=c1c(-c2ccc(O)cc2)coc2c([C@@H]3O[C@H](CO)[C@H](O)[C@@H](O)[C@@H]3O)c(O)ccc12
REMARK SMILES IDX 3 1 11 2 12 3 13 4 30 5 2 6 1 7 29 8 28 9 26 10 14 11 4 12
REMARK SMILES IDX 5 13 6 14 7 15 10 16 9 17 8 18 15 20 24 21 16 22 22 23 17 24
REMARK SMILES IDX 20 25 25 26 23 28 18 30 19 31 21 33 27 35
REMARK H PARENT 8 19 25 27 23 29 19 32 21 34 27 36
REMARK Flexibility Score: inf
ROOT
ATOM      1  C   UNL     1     106.239 120.653 121.681  1.00  0.00     0.065 A 
ATOM      2  C   UNL     1     106.073 121.238 122.944  1.00  0.00     0.208 A 
ATOM      3  O   UNL     1     105.282 120.682 123.854  1.00  0.00    -0.463 OA
ATOM      4  C   UNL     1     104.602 119.558 123.640  1.00  0.00     0.147 A 
ATOM      5  C   UNL     1     104.702 118.907 122.388  1.00  0.00     0.066 A 
ATOM      6  C   UNL     1     105.530 119.470 121.400  1.00  0.00     0.200 A 
ATOM      7  O   UNL     1     105.621 118.931 120.262  1.00  0.00    -0.288 OA
ATOM      8  C   UNL     1     103.969 117.734 122.157  1.00  0.00     0.020 A 
ATOM      9  C   UNL     1     103.138 117.220 123.149  1.00  0.00     0.047 A 
ATOM     10  C   UNL     1     103.026 117.856 124.390  1.00  0.00     0.125 A 
ATOM     11  C   UNL     1     103.781 119.023 124.661  1.00  0.00     0.069 A 
ENDROOT
BRANCH   1  12
ATOM     12  C   UNL     1     107.136 121.287 120.683  1.00  0.00    -0.011 A 
ATOM     13  C   UNL     1     108.529 121.100 120.749  1.00  0.00     0.013 A 
ATOM     14  C   UNL     1     109.369 121.708 119.813  1.00  0.00     0.047 A 
ATOM     15  C   UNL     1     108.831 122.515 118.801  1.00  0.00     0.115 A 
ATOM     16  C   UNL     1     106.605 122.104 119.669  1.00  0.00     0.013 A 
ATOM     17  C   UNL     1     107.448 122.710 118.734  1.00  0.00     0.047 A 
BRANCH  15  18
ATOM     18  O   UNL     1     109.659 123.125 117.863  1.00  0.00    -0.508 OA
ATOM     19  H   UNL     1     109.337 123.903 117.298  1.00  0.00     0.293 HD
ENDBRANCH  15  18
ENDBRANCH   1  12
BRANCH  11  20
ATOM     20  C   UNL     1     103.665 119.753 125.995  1.00  0.00     0.188 C 
ATOM     21  C   UNL     1     102.562 120.839 125.929  1.00  0.00     0.179 C 
ATOM     22  O   UNL     1     103.407 118.832 127.043  1.00  0.00    -0.362 OA
ATOM     23  C   UNL     1     102.400 121.538 127.297  1.00  0.00     0.177 C 
ATOM     24  C   UNL     1     103.493 119.470 128.306  1.00  0.00     0.176 C 
ATOM     25  C   UNL     1     102.364 120.519 128.460  1.00  0.00     0.177 C 
BRANCH  21  26
ATOM     26  O   UNL     1     101.330 120.263 125.567  1.00  0.00    -0.387 OA
ATOM     27  H   UNL     1     100.767 120.989 125.190  1.00  0.00     0.211 HD
ENDBRANCH  21  26
BRANCH  23  28
ATOM     28  O   UNL     1     103.392 122.516 127.498  1.00  0.00    -0.387 OA
ATOM     29  H   UNL     1     102.959 123.338 127.839  1.00  0.00     0.211 HD
ENDBRANCH  23  28
BRANCH  24  30
ATOM     30  C   UNL     1     103.426 118.392 129.398  1.00  0.00     0.191 C 
BRANCH  30  31
ATOM     31  O   UNL     1     102.690 118.847 130.503  1.00  0.00    -0.394 OA
ATOM     32  H   UNL     1     103.064 118.397 131.304  1.00  0.00     0.210 HD
ENDBRANCH  30  31
ENDBRANCH  24  30
BRANCH  25  33
ATOM     33  O   UNL     1     101.118 119.868 128.479  1.00  0.00    -0.388 OA
ATOM     34  H   UNL     1     100.523 120.401 129.069  1.00  0.00     0.211 HD
ENDBRANCH  25  33
ENDBRANCH  11  20
BRANCH  10  35
ATOM     35  O   UNL     1     102.157 117.334 125.348  1.00  0.00    -0.507 OA
ATOM     36  H   UNL     1     102.343 117.418 126.341  1.00  0.00     0.293 HD
ENDBRANCH  10  35
TORSDOF 9
ENDMDL
MODEL 4
REMARK VINA RESULT:    -6.314      2.697      4.556
REMARK INTER + INTRA:          -9.519
REMARK INTER:                  -8.899
REMARK INTRA:                  -0.619
REMARK UNBOUND:                -0.990
REMARK SMILES O=c1c(-c2ccc(O)cc2)coc2c([C@@H]3O[C@H](CO)[C@H](O)[C@@H](O)[C@@H]3O)c(O)ccc12
REMARK SMILES IDX 3 1 11 2 12 3 13 4 30 5 2 6 1 7 29 8 28 9 26 10 14 11 4 12
REMARK SMILES IDX 5 13 6 14 7 15 10 16 9 17 8 18 15 20 24 21 16 22 22 23 17 24
REMARK SMILES IDX 20 25 25 26 23 28 18 30 19 31 21 33 27 35
REMARK H PARENT 8 19 25 27 23 29 19 32 21 34 27 36
REMARK Flexibility Score: inf
ROOT
ATOM      1  C   UNL     1     107.387 121.467 120.106  1.00  0.00     0.065 A 
ATOM      2  C   UNL     1     106.344 121.037 120.938  1.00  0.00     0.208 A 
ATOM      3  O   UNL     1     105.115 121.517 120.793  1.00  0.00    -0.463 OA
ATOM      4  C   UNL     1     104.789 122.422 119.873  1.00  0.00     0.147 A 
ATOM      5  C   UNL     1     105.784 122.920 118.999  1.00  0.00     0.066 A 
ATOM      6  C   UNL     1     107.098 122.434 119.125  1.00  0.00     0.200 A 
ATOM      7  O   UNL     1     108.015 122.877 118.380  1.00  0.00    -0.288 OA
ATOM      8  C   UNL     1     105.443 123.888 118.043  1.00  0.00     0.020 A 
ATOM      9  C   UNL     1     104.138 124.367 117.963  1.00  0.00     0.047 A 
ATOM     10  C   UNL     1     103.146 123.887 118.825  1.00  0.00     0.125 A 
ATOM     11  C   UNL     1     103.455 122.884 119.777  1.00  0.00     0.069 A 
ENDROOT
BRANCH   1  12
ATOM     12  C   UNL     1     108.751 120.908 120.280  1.00  0.00    -0.011 A 
ATOM     13  C   UNL     1     109.229 119.901 119.422  1.00  0.00     0.013 A 
ATOM     14  C   UNL     1     110.511 119.372 119.597  1.00  0.00     0.047 A 
ATOM     15  C   UNL     1     111.330 119.838 120.634  1.00  0.00     0.115 A 
ATOM     16  C   UNL     1     109.578 121.366 121.323  1.00  0.00     0.013 A 
ATOM     17  C   UNL     1     110.859 120.834 121.494  1.00  0.00     0.047 A 
BRANCH  15  18
ATOM     18  O   UNL     1     112.609 119.318 120.818  1.00  0.00    -0.508 OA
ATOM     19  H   UNL     1     112.825 118.706 121.596  1.00  0.00     0.293 HD
ENDBRANCH  15  18
ENDBRANCH   1  12
BRANCH  11  20
ATOM     20  C   UNL     1     102.403 122.356 120.745  1.00  0.00     0.188 C 
ATOM     21  C   UNL     1     101.729 121.081 120.178  1.00  0.00     0.179 C 
ATOM     22  O   UNL     1     102.982 122.101 122.015  1.00  0.00    -0.362 OA
ATOM     23  C   UNL     1     100.706 120.509 121.184  1.00  0.00     0.177 C 
ATOM     24  C   UNL     1     101.981 121.799 122.973  1.00  0.00     0.176 C 
ATOM     25  C   UNL     1     101.279 120.465 122.621  1.00  0.00     0.177 C 
BRANCH  21  26
ATOM     26  O   UNL     1     102.696 120.096 119.908  1.00  0.00    -0.387 OA
ATOM     27  H   UNL     1     102.558 119.362 120.562  1.00  0.00     0.211 HD
ENDBRANCH  21  26
BRANCH  23  28
ATOM     28  O   UNL     1      99.487 121.211 121.137  1.00  0.00    -0.387 OA
ATOM     29  H   UNL     1      98.765 120.610 121.450  1.00  0.00     0.211 HD
ENDBRANCH  23  28
BRANCH  24  30
ATOM     30  C   UNL     1     102.638 121.751 124.361  1.00  0.00     0.191 C 
BRANCH  30  31
ATOM     31  O   UNL     1     103.954 121.272 124.273  1.00  0.00    -0.394 OA
ATOM     32  H   UNL     1     103.982 120.413 124.768  1.00  0.00     0.210 HD
ENDBRANCH  30  31
ENDBRANCH  24  30
BRANCH  25  33
ATOM     33  O   UNL     1     102.199 119.407 122.729  1.00  0.00    -0.388 OA
ATOM     34  H   UNL     1     101.856 118.797 123.433  1.00  0.00     0.211 HD
ENDBRANCH  25  33
ENDBRANCH  11  20
BRANCH  10  35
ATOM     35  O   UNL     1     101.858 124.414 118.742  1.00  0.00    -0.507 OA
ATOM     36  H   UNL     1     101.587 125.048 117.999  1.00  0.00     0.293 HD
ENDBRANCH  10  35
TORSDOF 9
ENDMDL
MODEL 5
REMARK VINA RESULT:    -6.275      3.976      5.308
REMARK INTER + INTRA:          -9.467
REMARK INTER:                  -8.301
REMARK INTRA:                  -1.165
REMARK UNBOUND:                -0.990
REMARK SMILES O=c1c(-c2ccc(O)cc2)coc2c([C@@H]3O[C@H](CO)[C@H](O)[C@@H](O)[C@@H]3O)c(O)ccc12
REMARK SMILES IDX 3 1 11 2 12 3 13 4 30 5 2 6 1 7 29 8 28 9 26 10 14 11 4 12
REMARK SMILES IDX 5 13 6 14 7 15 10 16 9 17 8 18 15 20 24 21 16 22 22 23 17 24
REMARK SMILES IDX 20 25 25 26 23 28 18 30 19 31 21 33 27 35
REMARK H PARENT 8 19 25 27 23 29 19 32 21 34 27 36
REMARK Flexibility Score: inf
ROOT
ATOM      1  C   UNL     1     107.167 121.129 119.708  1.00  0.00     0.065 A 
ATOM      2  C   UNL     1     106.063 120.403 120.176  1.00  0.00     0.208 A 
ATOM      3  O   UNL     1     104.826 120.835 119.969  1.00  0.00    -0.463 OA
ATOM      4  C   UNL     1     104.546 121.962 119.319  1.00  0.00     0.147 A 
ATOM      5  C   UNL     1     105.601 122.763 118.821  1.00  0.00     0.066 A 
ATOM      6  C   UNL     1     106.926 122.336 119.026  1.00  0.00     0.200 A 
ATOM      7  O   UNL     1     107.892 123.040 118.620  1.00  0.00    -0.288 OA
ATOM      8  C   UNL     1     105.306 123.961 118.155  1.00  0.00     0.020 A 
ATOM      9  C   UNL     1     103.984 124.367 117.994  1.00  0.00     0.047 A 
ATOM     10  C   UNL     1     102.931 123.587 118.485  1.00  0.00     0.125 A 
ATOM     11  C   UNL     1     103.200 122.356 119.132  1.00  0.00     0.069 A 
ENDROOT
BRANCH   1  12
ATOM     12  C   UNL     1     108.542 120.621 119.944  1.00  0.00    -0.011 A 
ATOM     13  C   UNL     1     109.100 119.641 119.102  1.00  0.00     0.013 A 
ATOM     14  C   UNL     1     110.390 119.160 119.335  1.00  0.00     0.047 A 
ATOM     15  C   UNL     1     111.140 119.646 120.415  1.00  0.00     0.115 A 
ATOM     16  C   UNL     1     109.298 121.099 121.029  1.00  0.00     0.013 A 
ATOM     17  C   UNL     1     110.589 120.615 121.259  1.00  0.00     0.047 A 
BRANCH  15  18
ATOM     18  O   UNL     1     112.427 119.173 120.657  1.00  0.00    -0.508 OA
ATOM     19  H   UNL     1     113.021 118.846 119.904  1.00  0.00     0.293 HD
ENDBRANCH  15  18
ENDBRANCH   1  12
BRANCH  11  20
ATOM     20  C   UNL     1     102.077 121.494 119.698  1.00  0.00     0.188 C 
ATOM     21  C   UNL     1     101.755 121.906 121.157  1.00  0.00     0.179 C 
ATOM     22  O   UNL     1     100.922 121.585 118.879  1.00  0.00    -0.362 OA
ATOM     23  C   UNL     1     100.576 121.076 121.712  1.00  0.00     0.177 C 
ATOM     24  C   UNL     1      99.944 120.641 119.283  1.00  0.00     0.176 C 
ATOM     25  C   UNL     1      99.413 120.983 120.697  1.00  0.00     0.177 C 
BRANCH  21  26
ATOM     26  O   UNL     1     101.415 123.269 121.216  1.00  0.00    -0.387 OA
ATOM     27  H   UNL     1     100.624 123.349 121.811  1.00  0.00     0.211 HD
ENDBRANCH  21  26
BRANCH  23  28
ATOM     28  O   UNL     1     100.997 119.800 122.133  1.00  0.00    -0.387 OA
ATOM     29  H   UNL     1     100.736 119.680 123.081  1.00  0.00     0.211 HD
ENDBRANCH  23  28
BRANCH  24  30
ATOM     30  C   UNL     1      98.820 120.632 118.236  1.00  0.00     0.191 C 
BRANCH  30  31
ATOM     31  O   UNL     1      98.627 121.914 117.700  1.00  0.00    -0.394 OA
ATOM     32  H   UNL     1      99.162 122.541 118.254  1.00  0.00     0.210 HD
ENDBRANCH  30  31
ENDBRANCH  24  30
BRANCH  25  33
ATOM     33  O   UNL     1      98.724 122.208 120.656  1.00  0.00    -0.388 OA
ATOM     34  H   UNL     1      98.835 122.571 119.739  1.00  0.00     0.211 HD
ENDBRANCH  25  33
ENDBRANCH  11  20
BRANCH  10  35
ATOM     35  O   UNL     1     101.621 124.041 118.338  1.00  0.00    -0.507 OA
ATOM     36  H   UNL     1     100.855 123.644 118.870  1.00  0.00     0.293 HD
ENDBRANCH  10  35
TORSDOF 9
ENDMDL
MODEL 6
REMARK VINA RESULT:    -6.182      2.061      3.452
REMARK INTER + INTRA:          -9.341
REMARK INTER:                  -9.001
REMARK INTRA:                  -0.340
REMARK UNBOUND:                -0.990
REMARK SMILES O=c1c(-c2ccc(O)cc2)coc2c([C@@H]3O[C@H](CO)[C@H](O)[C@@H](O)[C@@H]3O)c(O)ccc12
REMARK SMILES IDX 3 1 11 2 12 3 13 4 30 5 2 6 1 7 29 8 28 9 26 10 14 11 4 12
REMARK SMILES IDX 5 13 6 14 7 15 10 16 9 17 8 18 15 20 24 21 16 22 22 23 17 24
REMARK SMILES IDX 20 25 25 26 23 28 18 30 19 31 21 33 27 35
REMARK H PARENT 8 19 25 27 23 29 19 32 21 34 27 36
REMARK Flexibility Score: inf
ROOT
ATOM      1  C   UNL     1     105.608 119.961 122.861  1.00  0.00     0.065 A 
ATOM      2  C   UNL     1     105.278 120.655 124.034  1.00  0.00     0.208 A 
ATOM      3  O   UNL     1     104.335 120.203 124.850  1.00  0.00    -0.463 OA
ATOM      4  C   UNL     1     103.646 119.087 124.622  1.00  0.00     0.147 A 
ATOM      5  C   UNL     1     103.906 118.330 123.455  1.00  0.00     0.066 A 
ATOM      6  C   UNL     1     104.899 118.782 122.566  1.00  0.00     0.200 A 
ATOM      7  O   UNL     1     105.137 118.147 121.502  1.00  0.00    -0.288 OA
ATOM      8  C   UNL     1     103.166 117.166 123.206  1.00  0.00     0.020 A 
ATOM      9  C   UNL     1     102.171 116.763 124.093  1.00  0.00     0.047 A 
ATOM     10  C   UNL     1     101.900 117.505 125.249  1.00  0.00     0.125 A 
ATOM     11  C   UNL     1     102.657 118.666 125.542  1.00  0.00     0.069 A 
ENDROOT
BRANCH   1  12
ATOM     12  C   UNL     1     106.674 120.481 121.968  1.00  0.00    -0.011 A 
ATOM     13  C   UNL     1     106.348 121.179 120.791  1.00  0.00     0.013 A 
ATOM     14  C   UNL     1     107.356 121.657 119.950  1.00  0.00     0.047 A 
ATOM     15  C   UNL     1     108.703 121.440 120.270  1.00  0.00     0.115 A 
ATOM     16  C   UNL     1     108.028 120.262 122.279  1.00  0.00     0.013 A 
ATOM     17  C   UNL     1     109.034 120.742 121.435  1.00  0.00     0.047 A 
BRANCH  15  18
ATOM     18  O   UNL     1     109.716 121.913 119.439  1.00  0.00    -0.508 OA
ATOM     19  H   UNL     1     109.720 122.867 119.099  1.00  0.00     0.293 HD
ENDBRANCH  15  18
ENDBRANCH   1  12
BRANCH  11  20
ATOM     20  C   UNL     1     102.371 119.508 126.780  1.00  0.00     0.188 C 
ATOM     21  C   UNL     1     103.379 119.177 127.910  1.00  0.00     0.179 C 
ATOM     22  O   UNL     1     102.407 120.889 126.459  1.00  0.00    -0.362 OA
ATOM     23  C   UNL     1     103.131 120.072 129.144  1.00  0.00     0.177 C 
ATOM     24  C   UNL     1     101.952 121.672 127.551  1.00  0.00     0.176 C 
ATOM     25  C   UNL     1     102.929 121.553 128.746  1.00  0.00     0.177 C 
BRANCH  21  26
ATOM     26  O   UNL     1     104.697 119.378 127.464  1.00  0.00    -0.387 OA
ATOM     27  H   UNL     1     104.846 118.761 126.699  1.00  0.00     0.211 HD
ENDBRANCH  21  26
BRANCH  23  28
ATOM     28  O   UNL     1     102.058 119.595 129.921  1.00  0.00    -0.387 OA
ATOM     29  H   UNL     1     101.462 119.059 129.339  1.00  0.00     0.211 HD
ENDBRANCH  23  28
BRANCH  24  30
ATOM     30  C   UNL     1     101.803 123.125 127.075  1.00  0.00     0.191 C 
BRANCH  30  31
ATOM     31  O   UNL     1     101.841 123.197 125.675  1.00  0.00    -0.394 OA
ATOM     32  H   UNL     1     102.631 122.673 125.381  1.00  0.00     0.210 HD
ENDBRANCH  30  31
ENDBRANCH  24  30
BRANCH  25  33
ATOM     33  O   UNL     1     104.167 122.121 128.399  1.00  0.00    -0.388 OA
ATOM     34  H   UNL     1     103.975 123.004 127.987  1.00  0.00     0.211 HD
ENDBRANCH  25  33
ENDBRANCH  11  20
BRANCH  10  35
ATOM     35  O   UNL     1     100.873 117.092 126.097  1.00  0.00    -0.507 OA
ATOM     36  H   UNL     1      99.952 116.856 125.746  1.00  0.00     0.293 HD
ENDBRANCH  10  35
TORSDOF 9
ENDMDL
MODEL 7
REMARK VINA RESULT:    -6.089      4.121      6.982
REMARK INTER + INTRA:          -9.215
REMARK INTER:                  -8.072
REMARK INTRA:                  -1.143
REMARK UNBOUND:                -0.990
REMARK SMILES O=c1c(-c2ccc(O)cc2)coc2c([C@@H]3O[C@H](CO)[C@H](O)[C@@H](O)[C@@H]3O)c(O)ccc12
REMARK SMILES IDX 3 1 11 2 12 3 13 4 30 5 2 6 1 7 29 8 28 9 26 10 14 11 4 12
REMARK SMILES IDX 5 13 6 14 7 15 10 16 9 17 8 18 15 20 24 21 16 22 22 23 17 24
REMARK SMILES IDX 20 25 25 26 23 28 18 30 19 31 21 33 27 35
REMARK H PARENT 8 19 25 27 23 29 19 32 21 34 27 36
REMARK Flexibility Score: inf
ROOT
ATOM      1  C   UNL     1     107.571 120.927 120.287  1.00  0.00     0.065 A 
ATOM      2  C   UNL     1     107.115 121.599 119.145  1.00  0.00     0.208 A 
ATOM      3  O   UNL     1     105.820 121.819 118.955  1.00  0.00    -0.463 OA
ATOM      4  C   UNL     1     104.880 121.426 119.811  1.00  0.00     0.147 A 
ATOM      5  C   UNL     1     105.251 120.730 120.986  1.00  0.00     0.066 A 
ATOM      6  C   UNL     1     106.616 120.478 121.218  1.00  0.00     0.200 A 
ATOM      7  O   UNL     1     106.980 119.836 122.242  1.00  0.00    -0.288 OA
ATOM      8  C   UNL     1     104.258 120.298 121.877  1.00  0.00     0.020 A 
ATOM      9  C   UNL     1     102.915 120.541 121.602  1.00  0.00     0.047 A 
ATOM     10  C   UNL     1     102.534 121.223 120.442  1.00  0.00     0.125 A 
ATOM     11  C   UNL     1     103.518 121.700 119.542  1.00  0.00     0.069 A 
ENDROOT
BRANCH   1  12
ATOM     12  C   UNL     1     109.025 120.702 120.483  1.00  0.00    -0.011 A 
ATOM     13  C   UNL     1     109.761 121.499 121.379  1.00  0.00     0.013 A 
ATOM     14  C   UNL     1     111.131 121.288 121.551  1.00  0.00     0.047 A 
ATOM     15  C   UNL     1     111.786 120.283 120.829  1.00  0.00     0.115 A 
ATOM     16  C   UNL     1     109.692 119.698 119.757  1.00  0.00     0.013 A 
ATOM     17  C   UNL     1     111.062 119.490 119.933  1.00  0.00     0.047 A 
BRANCH  15  18
ATOM     18  O   UNL     1     113.152 120.063 120.993  1.00  0.00    -0.508 OA
ATOM     19  H   UNL     1     113.668 119.447 120.376  1.00  0.00     0.293 HD
ENDBRANCH  15  18
ENDBRANCH   1  12
BRANCH  11  20
ATOM     20  C   UNL     1     103.136 122.427 118.258  1.00  0.00     0.188 C 
ATOM     21  C   UNL     1     102.824 121.414 117.128  1.00  0.00     0.179 C 
ATOM     22  O   UNL     1     102.031 123.287 118.486  1.00  0.00    -0.362 OA
ATOM     23  C   UNL     1     102.376 122.146 115.844  1.00  0.00     0.177 C 
ATOM     24  C   UNL     1     101.792 124.111 117.356  1.00  0.00     0.176 C 
ATOM     25  C   UNL     1     101.341 123.254 116.148  1.00  0.00     0.177 C 
BRANCH  21  26
ATOM     26  O   UNL     1     101.800 120.536 117.528  1.00  0.00    -0.387 OA
ATOM     27  H   UNL     1     102.173 119.616 117.497  1.00  0.00     0.211 HD
ENDBRANCH  21  26
BRANCH  23  28
ATOM     28  O   UNL     1     103.478 122.651 115.127  1.00  0.00    -0.387 OA
ATOM     29  H   UNL     1     103.468 122.260 114.217  1.00  0.00     0.211 HD
ENDBRANCH  23  28
BRANCH  24  30
ATOM     30  C   UNL     1     100.740 125.163 117.737  1.00  0.00     0.191 C 
BRANCH  30  31
ATOM     31  O   UNL     1      99.833 124.643 118.673  1.00  0.00    -0.394 OA
ATOM     32  H   UNL     1      99.654 125.364 119.332  1.00  0.00     0.210 HD
ENDBRANCH  30  31
ENDBRANCH  24  30
BRANCH  25  33
ATOM     33  O   UNL     1     100.093 122.670 116.426  1.00  0.00    -0.388 OA
ATOM     34  H   UNL     1      99.421 123.146 115.872  1.00  0.00     0.211 HD
ENDBRANCH  25  33
ENDBRANCH  11  20
BRANCH  10  35
ATOM     35  O   UNL     1     101.178 121.418 120.179  1.00  0.00    -0.507 OA
ATOM     36  H   UNL     1     100.544 120.639 120.042  1.00  0.00     0.293 HD
ENDBRANCH  10  35
TORSDOF 9
ENDMDL
MODEL 8
REMARK VINA RESULT:    -6.086      3.428      6.540
REMARK INTER + INTRA:          -9.212
REMARK INTER:                  -8.688
REMARK INTRA:                  -0.524
REMARK UNBOUND:                -0.990
REMARK SMILES O=c1c(-c2ccc(O)cc2)coc2c([C@@H]3O[C@H](CO)[C@H](O)[C@@H](O)[C@@H]3O)c(O)ccc12
REMARK SMILES IDX 3 1 11 2 12 3 13 4 30 5 2 6 1 7 29 8 28 9 26 10 14 11 4 12
REMARK SMILES IDX 5 13 6 14 7 15 10 16 9 17 8 18 15 20 24 21 16 22 22 23 17 24
REMARK SMILES IDX 20 25 25 26 23 28 18 30 19 31 21 33 27 35
REMARK H PARENT 8 19 25 27 23 29 19 32 21 34 27 36
REMARK Flexibility Score: inf
ROOT
ATOM      1  C   UNL     1     107.463 120.744 120.946  1.00  0.00     0.065 A 
ATOM      2  C   UNL     1     106.816 121.412 119.897  1.00  0.00     0.208 A 
ATOM      3  O   UNL     1     105.495 121.533 119.878  1.00  0.00    -0.463 OA
ATOM      4  C   UNL     1     104.703 121.039 120.827  1.00  0.00     0.147 A 
ATOM      5  C   UNL     1     105.271 120.340 121.918  1.00  0.00     0.066 A 
ATOM      6  C   UNL     1     106.670 120.191 121.969  1.00  0.00     0.200 A 
ATOM      7  O   UNL     1     107.208 119.549 122.913  1.00  0.00    -0.288 OA
ATOM      8  C   UNL     1     104.435 119.802 122.907  1.00  0.00     0.020 A 
ATOM      9  C   UNL     1     103.053 119.944 122.810  1.00  0.00     0.047 A 
ATOM     10  C   UNL     1     102.478 120.630 121.734  1.00  0.00     0.125 A 
ATOM     11  C   UNL     1     103.302 121.211 120.739  1.00  0.00     0.069 A 
ENDROOT
BRANCH   1  12
ATOM     12  C   UNL     1     108.943 120.630 120.952  1.00  0.00    -0.011 A 
ATOM     13  C   UNL     1     109.721 121.433 121.805  1.00  0.00     0.013 A 
ATOM     14  C   UNL     1     111.115 121.328 121.798  1.00  0.00     0.047 A 
ATOM     15  C   UNL     1     111.750 120.425 120.936  1.00  0.00     0.115 A 
ATOM     16  C   UNL     1     109.588 119.730 120.085  1.00  0.00     0.013 A 
ATOM     17  C   UNL     1     110.982 119.628 120.081  1.00  0.00     0.047 A 
BRANCH  15  18
ATOM     18  O   UNL     1     113.138 120.312 120.921  1.00  0.00    -0.508 OA
ATOM     19  H   UNL     1     113.651 119.988 121.733  1.00  0.00     0.293 HD
ENDBRANCH  15  18
ENDBRANCH   1  12
BRANCH  11  20
ATOM     20  C   UNL     1     102.706 121.945 119.543  1.00  0.00     0.188 C 
ATOM     21  C   UNL     1     102.670 123.472 119.800  1.00  0.00     0.179 C 
ATOM     22  O   UNL     1     103.437 121.647 118.365  1.00  0.00    -0.362 OA
ATOM     23  C   UNL     1     102.124 124.223 118.566  1.00  0.00     0.177 C 
ATOM     24  C   UNL     1     102.779 122.162 117.219  1.00  0.00     0.176 C 
ATOM     25  C   UNL     1     102.764 123.710 117.254  1.00  0.00     0.177 C 
BRANCH  21  26
ATOM     26  O   UNL     1     103.962 123.950 120.085  1.00  0.00    -0.387 OA
ATOM     27  H   UNL     1     103.857 124.815 120.561  1.00  0.00     0.211 HD
ENDBRANCH  21  26
BRANCH  23  28
ATOM     28  O   UNL     1     100.718 124.169 118.510  1.00  0.00    -0.387 OA
ATOM     29  H   UNL     1     100.417 124.653 117.699  1.00  0.00     0.211 HD
ENDBRANCH  23  28
BRANCH  24  30
ATOM     30  C   UNL     1     103.490 121.625 115.969  1.00  0.00     0.191 C 
BRANCH  30  31
ATOM     31  O   UNL     1     103.344 122.512 114.892  1.00  0.00    -0.394 OA
ATOM     32  H   UNL     1     102.376 122.716 114.816  1.00  0.00     0.210 HD
ENDBRANCH  30  31
ENDBRANCH  24  30
BRANCH  25  33
ATOM     33  O   UNL     1     104.080 124.195 117.151  1.00  0.00    -0.388 OA
ATOM     34  H   UNL     1     104.036 125.040 116.632  1.00  0.00     0.211 HD
ENDBRANCH  25  33
ENDBRANCH  11  20
BRANCH  10  35
ATOM     35  O   UNL     1     101.089 120.722 121.649  1.00  0.00    -0.507 OA
ATOM     36  H   UNL     1     100.611 121.616 121.667  1.00  0.00     0.293 HD
ENDBRANCH  10  35
TORSDOF 9
ENDMDL
MODEL 9
REMARK VINA RESULT:    -5.850      1.985      2.340
REMARK INTER + INTRA:          -8.893
REMARK INTER:                  -8.003
REMARK INTRA:                  -0.890
REMARK UNBOUND:                -0.990
REMARK SMILES O=c1c(-c2ccc(O)cc2)coc2c([C@@H]3O[C@H](CO)[C@H](O)[C@@H](O)[C@@H]3O)c(O)ccc12
REMARK SMILES IDX 3 1 11 2 12 3 13 4 30 5 2 6 1 7 29 8 28 9 26 10 14 11 4 12
REMARK SMILES IDX 5 13 6 14 7 15 10 16 9 17 8 18 15 20 24 21 16 22 22 23 17 24
REMARK SMILES IDX 20 25 25 26 23 28 18 30 19 31 21 33 27 35
REMARK H PARENT 8 19 25 27 23 29 19 32 21 34 27 36
REMARK Flexibility Score: inf
ROOT
ATOM      1  C   UNL     1     107.171 120.250 121.887  1.00  0.00     0.065 A 
ATOM      2  C   UNL     1     106.719 119.418 122.920  1.00  0.00     0.208 A 
ATOM      3  O   UNL     1     105.423 119.285 123.170  1.00  0.00    -0.463 OA
ATOM      4  C   UNL     1     104.478 119.917 122.480  1.00  0.00     0.147 A 
ATOM      5  C   UNL     1     104.845 120.787 121.426  1.00  0.00     0.066 A 
ATOM      6  C   UNL     1     106.212 120.953 121.134  1.00  0.00     0.200 A 
ATOM      7  O   UNL     1     106.576 121.742 120.219  1.00  0.00    -0.288 OA
ATOM      8  C   UNL     1     103.850 121.468 120.711  1.00  0.00     0.020 A 
ATOM      9  C   UNL     1     102.508 121.302 121.045  1.00  0.00     0.047 A 
ATOM     10  C   UNL     1     102.131 120.448 122.088  1.00  0.00     0.125 A 
ATOM     11  C   UNL     1     103.114 119.722 122.803  1.00  0.00     0.069 A 
ENDROOT
BRANCH   1  12
ATOM     12  C   UNL     1     108.626 120.376 121.618  1.00  0.00    -0.011 A 
ATOM     13  C   UNL     1     109.216 119.704 120.532  1.00  0.00     0.013 A 
ATOM     14  C   UNL     1     110.587 119.818 120.291  1.00  0.00     0.047 A 
ATOM     15  C   UNL     1     111.389 120.600 121.133  1.00  0.00     0.115 A 
ATOM     16  C   UNL     1     109.438 121.153 122.463  1.00  0.00     0.013 A 
ATOM     17  C   UNL     1     110.810 121.265 122.218  1.00  0.00     0.047 A 
BRANCH  15  18
ATOM     18  O   UNL     1     112.757 120.721 120.902  1.00  0.00    -0.508 OA
ATOM     19  H   UNL     1     113.439 120.430 121.593  1.00  0.00     0.293 HD
ENDBRANCH  15  18
ENDBRANCH   1  12
BRANCH  11  20
ATOM     20  C   UNL     1     102.739 118.802 123.959  1.00  0.00     0.188 C 
ATOM     21  C   UNL     1     102.554 119.614 125.266  1.00  0.00     0.179 C 
ATOM     22  O   UNL     1     101.564 118.069 123.648  1.00  0.00    -0.362 OA
ATOM     23  C   UNL     1     102.113 118.693 126.425  1.00  0.00     0.177 C 
ATOM     24  C   UNL     1     101.318 117.073 124.626  1.00  0.00     0.176 C 
ATOM     25  C   UNL     1     100.986 117.726 125.991  1.00  0.00     0.177 C 
BRANCH  21  26
ATOM     26  O   UNL     1     101.579 120.613 125.086  1.00  0.00    -0.387 OA
ATOM     27  H   UNL     1     101.766 121.328 125.750  1.00  0.00     0.211 HD
ENDBRANCH  21  26
BRANCH  23  28
ATOM     28  O   UNL     1     103.206 117.998 126.976  1.00  0.00    -0.387 OA
ATOM     29  H   UNL     1     103.420 117.231 126.388  1.00  0.00     0.211 HD
ENDBRANCH  23  28
BRANCH  24  30
ATOM     30  C   UNL     1     100.175 116.176 124.128  1.00  0.00     0.191 C 
BRANCH  30  31
ATOM     31  O   UNL     1     100.274 114.890 124.679  1.00  0.00    -0.394 OA
ATOM     32  H   UNL     1     100.456 114.268 123.927  1.00  0.00     0.210 HD
ENDBRANCH  30  31
ENDBRANCH  24  30
BRANCH  25  33
ATOM     33  O   UNL     1      99.773 118.429 125.892  1.00  0.00    -0.388 OA
ATOM     34  H   UNL     1      99.210 117.942 125.236  1.00  0.00     0.211 HD
ENDBRANCH  25  33
ENDBRANCH  11  20
BRANCH  10  35
ATOM     35  O   UNL     1     100.781 120.332 122.419  1.00  0.00    -0.507 OA
ATOM     36  H   UNL     1     100.091 120.998 122.090  1.00  0.00     0.293 HD
ENDBRANCH  10  35
TORSDOF 9
ENDMDL
