MODEL 1
REMARK VINA RESULT:    -5.559      0.000      0.000
REMARK INTER + INTRA:          -8.773
REMARK INTER:                  -7.996
REMARK INTRA:                  -0.777
REMARK UNBOUND:                -0.777
REMARK SMILES O=c1cc(-c2ccc(O)c(O)c2)oc2cc(O[C@@H]3O[C@H](CO)[C@@H](O)[C@H](O)[C@H]3O)cc(O)c12
REMARK SMILES IDX 17 1 16 2 4 3 3 4 13 5 2 6 14 7 1 8 32 9 15 10 30 11 29 12
REMARK SMILES IDX 5 13 6 14 7 15 8 16 12 17 10 18 9 19 11 21 31 23 18 25 27 26
REMARK SMILES IDX 19 27 25 28 20 29 23 30 28 31 26 33 21 35 22 36 24 38
REMARK H PARENT 9 20 11 22 31 24 28 32 26 34 22 37 24 39
REMARK Flexibility Score: inf
ROOT
ATOM      1  O   UNL     1      22.799  19.793   9.549  1.00  0.00    -0.462 OA
ENDROOT
BRANCH   1   2
ATOM      2  C   UNL     1      23.051  19.625   8.177  1.00  0.00     0.130 A 
ATOM      3  C   UNL     1      22.361  16.881   4.337  1.00  0.00     0.138 A 
ATOM      4  C   UNL     1      23.095  17.747   3.509  1.00  0.00     0.100 A 
ATOM      5  O   UNL     1      22.210  17.182   5.625  1.00  0.00    -0.456 OA
ATOM      6  C   UNL     1      23.664  18.900   4.052  1.00  0.00     0.197 A 
ATOM      7  C   UNL     1      22.732  18.266   6.188  1.00  0.00     0.146 A 
ATOM      8  O   UNL     1      24.319  19.670   3.300  1.00  0.00    -0.289 OA
ATOM      9  C   UNL     1      23.491  19.180   5.422  1.00  0.00     0.107 A 
ATOM     10  C   UNL     1      22.521  18.495   7.550  1.00  0.00     0.094 A 
ATOM     11  C   UNL     1      24.036  20.323   6.053  1.00  0.00     0.134 A 
ATOM     12  C   UNL     1      23.814  20.535   7.422  1.00  0.00     0.093 A 
BRANCH   3  13
ATOM     13  C   UNL     1      21.733  15.642   3.814  1.00  0.00     0.021 A 
ATOM     14  C   UNL     1      22.428  14.760   2.966  1.00  0.00     0.016 A 
ATOM     15  C   UNL     1      21.814  13.596   2.497  1.00  0.00     0.051 A 
ATOM     16  C   UNL     1      20.501  13.287   2.873  1.00  0.00     0.157 A 
ATOM     17  C   UNL     1      20.418  15.318   4.198  1.00  0.00     0.062 A 
ATOM     18  C   UNL     1      19.802  14.152   3.729  1.00  0.00     0.158 A 
BRANCH  16  19
ATOM     19  O   UNL     1      19.892  12.125   2.403  1.00  0.00    -0.504 OA
ATOM     20  H   UNL     1      19.416  11.485   3.028  1.00  0.00     0.293 HD
ENDBRANCH  16  19
BRANCH  18  21
ATOM     21  O   UNL     1      18.494  13.873   4.125  1.00  0.00    -0.504 OA
ATOM     22  H   UNL     1      17.742  13.753   3.455  1.00  0.00     0.293 HD
ENDBRANCH  18  21
ENDBRANCH   3  13
BRANCH  11  23
ATOM     23  O   UNL     1      24.792  21.246   5.331  1.00  0.00    -0.507 OA
ATOM     24  H   UNL     1      24.663  21.378   4.334  1.00  0.00     0.293 HD
ENDBRANCH  11  23
ENDBRANCH   1   2
BRANCH   1  25
ATOM     25  C   UNL     1      21.520  20.000  10.154  1.00  0.00     0.339 C 
ATOM     26  C   UNL     1      20.951  18.696  10.759  1.00  0.00     0.214 C 
ATOM     27  O   UNL     1      21.584  21.052  11.107  1.00  0.00    -0.332 OA
ATOM     28  C   UNL     1      21.745  18.268  12.000  1.00  0.00     0.180 C 
ATOM     29  C   UNL     1      22.369  20.756  12.257  1.00  0.00     0.179 C 
ATOM     30  C   UNL     1      21.943  19.446  12.977  1.00  0.00     0.177 C 
BRANCH  26  31
ATOM     31  O   UNL     1      19.599  18.874  11.098  1.00  0.00    -0.384 OA
ATOM     32  H   UNL     1      19.546  19.703  11.642  1.00  0.00     0.211 HD
ENDBRANCH  26  31
BRANCH  28  33
ATOM     33  O   UNL     1      22.988  17.750  11.599  1.00  0.00    -0.387 OA
ATOM     34  H   UNL     1      22.808  16.891  11.135  1.00  0.00     0.211 HD
ENDBRANCH  28  33
BRANCH  29  35
ATOM     35  C   UNL     1      23.889  20.842  11.994  1.00  0.00     0.191 C 
BRANCH  35  36
ATOM     36  O   UNL     1      24.465  21.873  12.750  1.00  0.00    -0.394 OA
ATOM     37  H   UNL     1      25.124  21.447  13.356  1.00  0.00     0.210 HD
ENDBRANCH  35  36
ENDBRANCH  29  35
BRANCH  30  38
ATOM     38  O   UNL     1      20.779  19.646  13.745  1.00  0.00    -0.387 OA
ATOM     39  H   UNL     1      20.816  19.043  14.531  1.00  0.00     0.211 HD
ENDBRANCH  30  38
ENDBRANCH   1  25
TORSDOF 11
ENDMDL
MODEL 2
REMARK VINA RESULT:    -4.669      1.190      2.466
REMARK INTER + INTRA:          -7.493
REMARK INTER:                  -6.517
REMARK INTRA:                  -0.976
REMARK UNBOUND:                -0.777
REMARK SMILES O=c1cc(-c2ccc(O)c(O)c2)oc2cc(O[C@@H]3O[C@H](CO)[C@@H](O)[C@H](O)[C@H]3O)cc(O)c12
REMARK SMILES IDX 17 1 16 2 4 3 3 4 13 5 2 6 14 7 1 8 32 9 15 10 30 11 29 12
REMARK SMILES IDX 5 13 6 14 7 15 8 16 12 17 10 18 9 19 11 21 31 23 18 25 27 26
REMARK SMILES IDX 19 27 25 28 20 29 23 30 28 31 26 33 21 35 22 36 24 38
REMARK H PARENT 9 20 11 22 31 24 28 32 26 34 22 37 24 39
REMARK Flexibility Score: inf
ROOT
ATOM      1  O   UNL     1      22.055  19.449   9.258  1.00  0.00    -0.462 OA
ENDROOT
BRANCH   1   2
ATOM      2  C   UNL     1      22.548  19.363   7.945  1.00  0.00     0.130 A 
ATOM      3  C   UNL     1      23.348  16.517   4.201  1.00  0.00     0.138 A 
ATOM      4  C   UNL     1      23.880  17.568   3.437  1.00  0.00     0.100 A 
ATOM      5  O   UNL     1      22.920  16.761   5.439  1.00  0.00    -0.456 OA
ATOM      6  C   UNL     1      23.964  18.847   3.989  1.00  0.00     0.197 A 
ATOM      7  C   UNL     1      22.978  17.960   6.008  1.00  0.00     0.146 A 
ATOM      8  O   UNL     1      24.441  19.783   3.294  1.00  0.00    -0.289 OA
ATOM      9  C   UNL     1      23.510  19.066   5.305  1.00  0.00     0.107 A 
ATOM     10  C   UNL     1      22.506  18.117   7.313  1.00  0.00     0.094 A 
ATOM     11  C   UNL     1      23.560  20.328   5.942  1.00  0.00     0.134 A 
ATOM     12  C   UNL     1      23.082  20.466   7.253  1.00  0.00     0.093 A 
BRANCH   3  13
ATOM     13  C   UNL     1      23.234  15.137   3.665  1.00  0.00     0.021 A 
ATOM     14  C   UNL     1      24.334  14.260   3.638  1.00  0.00     0.016 A 
ATOM     15  C   UNL     1      24.194  12.964   3.137  1.00  0.00     0.051 A 
ATOM     16  C   UNL     1      22.955  12.517   2.663  1.00  0.00     0.157 A 
ATOM     17  C   UNL     1      21.988  14.677   3.200  1.00  0.00     0.062 A 
ATOM     18  C   UNL     1      21.847  13.378   2.697  1.00  0.00     0.158 A 
BRANCH  16  19
ATOM     19  O   UNL     1      22.819  11.223   2.163  1.00  0.00    -0.504 OA
ATOM     20  H   UNL     1      23.100  10.413   2.704  1.00  0.00     0.293 HD
ENDBRANCH  16  19
BRANCH  18  21
ATOM     21  O   UNL     1      20.597  12.965   2.236  1.00  0.00    -0.504 OA
ATOM     22  H   UNL     1      19.801  13.591   2.202  1.00  0.00     0.293 HD
ENDBRANCH  18  21
ENDBRANCH   3  13
BRANCH  11  23
ATOM     23  O   UNL     1      24.080  21.441   5.282  1.00  0.00    -0.507 OA
ATOM     24  H   UNL     1      24.877  21.368   4.659  1.00  0.00     0.293 HD
ENDBRANCH  11  23
ENDBRANCH   1   2
BRANCH   1  25
ATOM     25  C   UNL     1      22.819  19.308  10.459  1.00  0.00     0.339 C 
ATOM     26  C   UNL     1      23.022  20.664  11.173  1.00  0.00     0.214 C 
ATOM     27  O   UNL     1      22.235  18.332  11.310  1.00  0.00    -0.332 OA
ATOM     28  C   UNL     1      21.708  21.175  11.777  1.00  0.00     0.180 C 
ATOM     29  C   UNL     1      20.971  18.705  11.850  1.00  0.00     0.179 C 
ATOM     30  C   UNL     1      20.993  20.073  12.587  1.00  0.00     0.177 C 
BRANCH  26  31
ATOM     31  O   UNL     1      23.989  20.533  12.185  1.00  0.00    -0.384 OA
ATOM     32  H   UNL     1      24.125  19.560  12.329  1.00  0.00     0.211 HD
ENDBRANCH  26  31
BRANCH  28  33
ATOM     33  O   UNL     1      20.875  21.642  10.745  1.00  0.00    -0.387 OA
ATOM     34  H   UNL     1      21.007  22.624  10.689  1.00  0.00     0.211 HD
ENDBRANCH  28  33
BRANCH  29  35
ATOM     35  C   UNL     1      19.814  18.576  10.835  1.00  0.00     0.191 C 
BRANCH  35  36
ATOM     36  O   UNL     1      18.910  19.638  10.977  1.00  0.00    -0.394 OA
ATOM     37  H   UNL     1      19.137  20.300  10.273  1.00  0.00     0.210 HD
ENDBRANCH  35  36
ENDBRANCH  29  35
BRANCH  30  38
ATOM     38  O   UNL     1      21.574  19.951  13.865  1.00  0.00    -0.387 OA
ATOM     39  H   UNL     1      21.176  19.162  14.315  1.00  0.00     0.211 HD
ENDBRANCH  30  38
ENDBRANCH   1  25
TORSDOF 11
ENDMDL
MODEL 3
REMARK VINA RESULT:    -4.220      1.608      8.616
REMARK INTER + INTRA:          -6.847
REMARK INTER:                  -5.910
REMARK INTRA:                  -0.937
REMARK UNBOUND:                -0.777
REMARK SMILES O=c1cc(-c2ccc(O)c(O)c2)oc2cc(O[C@@H]3O[C@H](CO)[C@@H](O)[C@H](O)[C@H]3O)cc(O)c12
REMARK SMILES IDX 17 1 16 2 4 3 3 4 13 5 2 6 14 7 1 8 32 9 15 10 30 11 29 12
REMARK SMILES IDX 5 13 6 14 7 15 8 16 12 17 10 18 9 19 11 21 31 23 18 25 27 26
REMARK SMILES IDX 19 27 25 28 20 29 23 30 28 31 26 33 21 35 22 36 24 38
REMARK H PARENT 9 20 11 22 31 24 28 32 26 34 22 37 24 39
REMARK Flexibility Score: inf
ROOT
ATOM      1  O   UNL     1      22.953  15.134   4.109  1.00  0.00    -0.462 OA
ENDROOT
BRANCH   1   2
ATOM      2  C   UNL     1      23.195  16.459   4.508  1.00  0.00     0.130 A 
ATOM      3  C   UNL     1      23.055  19.593   8.101  1.00  0.00     0.138 A 
ATOM      4  C   UNL     1      23.555  20.631   7.297  1.00  0.00     0.100 A 
ATOM      5  O   UNL     1      22.880  18.384   7.571  1.00  0.00    -0.456 OA
ATOM      6  C   UNL     1      23.847  20.382   5.956  1.00  0.00     0.197 A 
ATOM      7  C   UNL     1      23.144  18.098   6.301  1.00  0.00     0.146 A 
ATOM      8  O   UNL     1      24.297  21.321   5.244  1.00  0.00    -0.289 OA
ATOM      9  C   UNL     1      23.641  19.092   5.427  1.00  0.00     0.107 A 
ATOM     10  C   UNL     1      22.927  16.799   5.836  1.00  0.00     0.094 A 
ATOM     11  C   UNL     1      23.908  18.755   4.080  1.00  0.00     0.134 A 
ATOM     12  C   UNL     1      23.682  17.446   3.631  1.00  0.00     0.093 A 
BRANCH   3  13
ATOM     13  C   UNL     1      22.727  19.799   9.534  1.00  0.00     0.021 A 
ATOM     14  C   UNL     1      23.707  20.179  10.470  1.00  0.00     0.016 A 
ATOM     15  C   UNL     1      23.367  20.376  11.811  1.00  0.00     0.051 A 
ATOM     16  C   UNL     1      22.045  20.205  12.239  1.00  0.00     0.157 A 
ATOM     17  C   UNL     1      21.398  19.643   9.969  1.00  0.00     0.062 A 
ATOM     18  C   UNL     1      21.057  19.838  11.312  1.00  0.00     0.158 A 
BRANCH  16  19
ATOM     19  O   UNL     1      21.710  20.401  13.578  1.00  0.00    -0.504 OA
ATOM     20  H   UNL     1      21.644  19.626  14.227  1.00  0.00     0.293 HD
ENDBRANCH  16  19
BRANCH  18  21
ATOM     21  O   UNL     1      19.730  19.664  11.704  1.00  0.00    -0.504 OA
ATOM     22  H   UNL     1      19.459  18.974  12.396  1.00  0.00     0.293 HD
ENDBRANCH  18  21
ENDBRANCH   3  13
BRANCH  11  23
ATOM     23  O   UNL     1      24.396  19.710   3.188  1.00  0.00    -0.507 OA
ATOM     24  H   UNL     1      23.988  20.636   3.121  1.00  0.00     0.293 HD
ENDBRANCH  11  23
ENDBRANCH   1   2
BRANCH   1  25
ATOM     25  C   UNL     1      21.806  14.346   4.440  1.00  0.00     0.339 C 
ATOM     26  C   UNL     1      20.495  15.008   3.957  1.00  0.00     0.214 C 
ATOM     27  O   UNL     1      21.953  13.020   3.951  1.00  0.00    -0.332 OA
ATOM     28  C   UNL     1      20.386  14.969   2.427  1.00  0.00     0.180 C 
ATOM     29  C   UNL     1      21.938  12.913   2.531  1.00  0.00     0.179 C 
ATOM     30  C   UNL     1      20.687  13.559   1.875  1.00  0.00     0.177 C 
BRANCH  26  31
ATOM     31  O   UNL     1      19.389  14.355   4.527  1.00  0.00    -0.384 OA
ATOM     32  H   UNL     1      18.598  14.596   3.977  1.00  0.00     0.211 HD
ENDBRANCH  26  31
BRANCH  28  33
ATOM     33  O   UNL     1      21.273  15.910   1.875  1.00  0.00    -0.387 OA
ATOM     34  H   UNL     1      22.171  15.716   2.251  1.00  0.00     0.211 HD
ENDBRANCH  28  33
BRANCH  29  35
ATOM     35  C   UNL     1      23.267  13.349   1.875  1.00  0.00     0.191 C 
BRANCH  35  36
ATOM     36  O   UNL     1      24.352  13.068   2.717  1.00  0.00    -0.394 OA
ATOM     37  H   UNL     1      25.139  12.933   2.130  1.00  0.00     0.210 HD
ENDBRANCH  35  36
ENDBRANCH  29  35
BRANCH  30  38
ATOM     38  O   UNL     1      19.557  12.729   2.012  1.00  0.00    -0.387 OA
ATOM     39  H   UNL     1      19.848  11.786   1.914  1.00  0.00     0.211 HD
ENDBRANCH  30  38
ENDBRANCH   1  25
TORSDOF 11
ENDMDL
MODEL 4
REMARK VINA RESULT:    -2.979      1.549      8.730
REMARK INTER + INTRA:          -5.062
REMARK INTER:                  -4.390
REMARK INTRA:                  -0.673
REMARK UNBOUND:                -0.777
REMARK SMILES O=c1cc(-c2ccc(O)c(O)c2)oc2cc(O[C@@H]3O[C@H](CO)[C@@H](O)[C@H](O)[C@H]3O)cc(O)c12
REMARK SMILES IDX 17 1 16 2 4 3 3 4 13 5 2 6 14 7 1 8 32 9 15 10 30 11 29 12
REMARK SMILES IDX 5 13 6 14 7 15 8 16 12 17 10 18 9 19 11 21 31 23 18 25 27 26
REMARK SMILES IDX 19 27 25 28 20 29 23 30 28 31 26 33 21 35 22 36 24 38
REMARK H PARENT 9 20 11 22 31 24 28 32 26 34 22 37 24 39
REMARK Flexibility Score: inf
ROOT
ATOM      1  O   UNL     1      22.122  14.767   4.370  1.00  0.00    -0.462 OA
ENDROOT
BRANCH   1   2
ATOM      2  C   UNL     1      22.549  16.078   4.641  1.00  0.00     0.130 A 
ATOM      3  C   UNL     1      22.949  19.507   7.932  1.00  0.00     0.138 A 
ATOM      4  C   UNL     1      23.552  20.394   7.025  1.00  0.00     0.100 A 
ATOM      5  O   UNL     1      22.599  18.290   7.520  1.00  0.00    -0.456 OA
ATOM      6  C   UNL     1      23.762  19.991   5.705  1.00  0.00     0.197 A 
ATOM      7  C   UNL     1      22.778  17.860   6.276  1.00  0.00     0.146 A 
ATOM      8  O   UNL     1      24.305  20.794   4.900  1.00  0.00    -0.289 OA
ATOM      9  C   UNL     1      23.369  18.699   5.303  1.00  0.00     0.107 A 
ATOM     10  C   UNL     1      22.375  16.566   5.938  1.00  0.00     0.094 A 
ATOM     11  C   UNL     1      23.543  18.211   3.987  1.00  0.00     0.134 A 
ATOM     12  C   UNL     1      23.131  16.910   3.666  1.00  0.00     0.093 A 
BRANCH   3  13
ATOM     13  C   UNL     1      22.702  19.880   9.347  1.00  0.00     0.021 A 
ATOM     14  C   UNL     1      21.399  19.963   9.875  1.00  0.00     0.016 A 
ATOM     15  C   UNL     1      21.198  20.307  11.213  1.00  0.00     0.051 A 
ATOM     16  C   UNL     1      22.289  20.566  12.051  1.00  0.00     0.157 A 
ATOM     17  C   UNL     1      23.794  20.130  10.198  1.00  0.00     0.062 A 
ATOM     18  C   UNL     1      23.594  20.475  11.539  1.00  0.00     0.158 A 
BRANCH  16  19
ATOM     19  O   UNL     1      22.084  20.911  13.386  1.00  0.00    -0.504 OA
ATOM     20  H   UNL     1      22.508  20.384  14.141  1.00  0.00     0.293 HD
ENDBRANCH  16  19
BRANCH  18  21
ATOM     21  O   UNL     1      24.703  20.724  12.346  1.00  0.00    -0.504 OA
ATOM     22  H   UNL     1      24.698  20.535  13.342  1.00  0.00     0.293 HD
ENDBRANCH  18  21
ENDBRANCH   3  13
BRANCH  11  23
ATOM     23  O   UNL     1      24.120  19.010   2.999  1.00  0.00    -0.507 OA
ATOM     24  H   UNL     1      23.659  19.844   2.650  1.00  0.00     0.293 HD
ENDBRANCH  11  23
ENDBRANCH   1   2
BRANCH   1  25
ATOM     25  C   UNL     1      21.912  14.196   3.076  1.00  0.00     0.339 C 
ATOM     26  C   UNL     1      21.611  12.682   3.157  1.00  0.00     0.214 C 
ATOM     27  O   UNL     1      20.903  14.909   2.374  1.00  0.00    -0.332 OA
ATOM     28  C   UNL     1      20.228  12.423   3.767  1.00  0.00     0.180 C 
ATOM     29  C   UNL     1      19.598  14.778   2.929  1.00  0.00     0.179 C 
ATOM     30  C   UNL     1      19.146  13.302   3.105  1.00  0.00     0.177 C 
BRANCH  26  31
ATOM     31  O   UNL     1      21.678  12.110   1.875  1.00  0.00    -0.384 OA
ATOM     32  H   UNL     1      21.989  12.822   1.258  1.00  0.00     0.211 HD
ENDBRANCH  26  31
BRANCH  28  33
ATOM     33  O   UNL     1      20.278  12.668   5.150  1.00  0.00    -0.387 OA
ATOM     34  H   UNL     1      20.877  11.981   5.544  1.00  0.00     0.211 HD
ENDBRANCH  28  33
BRANCH  29  35
ATOM     35  C   UNL     1      19.387  15.638   4.195  1.00  0.00     0.191 C 
BRANCH  35  36
ATOM     36  O   UNL     1      18.317  15.146   4.955  1.00  0.00    -0.394 OA
ATOM     37  H   UNL     1      17.486  15.421   4.487  1.00  0.00     0.210 HD
ENDBRANCH  35  36
ENDBRANCH  29  35
BRANCH  30  38
ATOM     38  O   UNL     1      18.747  12.744   1.875  1.00  0.00    -0.387 OA
ATOM     39  H   UNL     1      18.225  11.921   2.060  1.00  0.00     0.211 HD
ENDBRANCH  30  38
ENDBRANCH   1  25
TORSDOF 11
ENDMDL
