MODEL 1
REMARK VINA RESULT:    -4.993      0.000      0.000
REMARK INTER + INTRA:          -7.210
REMARK INTER:                  -7.329
REMARK INTRA:                   0.119
REMARK UNBOUND:                 0.119
REMARK SMILES C=C1C=C[C@H](C(C)C)CCC(C)=CCC1
REMARK SMILES IDX 3 1 4 2 5 3 9 4 10 5 11 6 12 7 13 8 6 10 7 11 8 12 2 13 1 14
REMARK SMILES IDX 15 15 14 16
REMARK H PARENT
REMARK Flexibility Score: 70.00
ROOT
ATOM      1  C   UNL     1     109.350 110.036 108.523  1.00  0.00    -0.001 C 
ATOM      2  C   UNL     1     109.651 110.772 109.596  1.00  0.00    -0.023 C 
ENDROOT
BRANCH   2   3
ATOM      3  C   UNL     1     109.888 110.111 110.932  1.00  0.00     0.014 C 
BRANCH   3   4
ATOM      4  C   UNL     1     111.415 109.881 111.123  1.00  0.00     0.012 C 
BRANCH   4   5
ATOM      5  C   UNL     1     112.285 110.038 109.847  1.00  0.00     0.031 C 
BRANCH   5   6
ATOM      6  C   UNL     1     112.755 111.464 109.580  1.00  0.00    -0.077 C 
ATOM      7  C   UNL     1     113.305 112.268 110.733  1.00  0.00     0.039 C 
ATOM      8  C   UNL     1     112.632 112.101 108.384  1.00  0.00    -0.028 CG0
ATOM      9  G   UNL     1     112.034 111.553 107.100  1.00  0.00     0.000 G0
ENDBRANCH   5   6
ENDBRANCH   4   5
ENDBRANCH   3   4
BRANCH   3  10
ATOM     10  C   UNL     1     109.274 110.973 112.075  1.00  0.00    -0.010 C 
ATOM     11  C   UNL     1     109.858 112.397 112.100  1.00  0.00     0.008 C 
ATOM     12  C   UNL     1     109.498 110.315 113.449  1.00  0.00     0.008 C 
ENDBRANCH   3  10
ENDBRANCH   2   3
BRANCH   1  13
ATOM     13  C   UNL     1     109.727 110.477 107.171  1.00  0.00    -0.055 C 
ATOM     14  C   UNL     1     109.362 109.782 106.087  1.00  0.00     0.012 C 
BRANCH  13  15
ATOM     15  C   UNL     1     110.492 111.772 107.045  1.00  0.00     0.039 C 
BRANCH  15  16
ATOM     16  C   UNL     1     112.017 111.548 107.104  1.00  0.00     0.032 CG0
ATOM     17  G   UNL     1     112.631 112.101 108.377  1.00  0.00     0.000 G0
ENDBRANCH  15  16
ENDBRANCH  13  15
ENDBRANCH   1  13
TORSDOF 1
ENDMDL
MODEL 2
REMARK VINA RESULT:    -4.965      3.092      4.821
REMARK INTER + INTRA:          -7.169
REMARK INTER:                  -7.246
REMARK INTRA:                   0.077
REMARK UNBOUND:                 0.119
REMARK SMILES C=C1C=C[C@H](C(C)C)CCC(C)=CCC1
REMARK SMILES IDX 3 1 4 2 5 3 9 4 10 5 11 6 12 7 13 8 6 10 7 11 8 12 2 13 1 14
REMARK SMILES IDX 15 15 14 16
REMARK H PARENT
REMARK Flexibility Score: 70.00
ROOT
ATOM      1  C   UNL     1     109.338 110.088 113.358  1.00  0.00    -0.001 C 
ATOM      2  C   UNL     1     109.693 110.782 114.443  1.00  0.00    -0.023 C 
ENDROOT
BRANCH   2   3
ATOM      3  C   UNL     1     109.945 110.076 115.752  1.00  0.00     0.014 C 
BRANCH   3   4
ATOM      4  C   UNL     1     111.477 109.883 115.942  1.00  0.00     0.012 C 
BRANCH   4   5
ATOM      5  C   UNL     1     112.340 110.047 114.661  1.00  0.00     0.031 C 
BRANCH   5   6
ATOM      6  C   UNL     1     112.790 111.479 114.388  1.00  0.00    -0.077 C 
ATOM      7  C   UNL     1     113.353 112.287 115.531  1.00  0.00     0.039 C 
ATOM      8  C   UNL     1     112.636 112.116 113.195  1.00  0.00    -0.028 CG0
ATOM      9  G   UNL     1     112.019 111.564 111.923  1.00  0.00     0.000 G0
ENDBRANCH   5   6
ENDBRANCH   4   5
ENDBRANCH   3   4
BRANCH   3  10
ATOM     10  C   UNL     1     109.301 110.873 116.926  1.00  0.00    -0.010 C 
ATOM     11  C   UNL     1     109.575 112.384 116.815  1.00  0.00     0.008 C 
ATOM     12  C   UNL     1     109.814 110.369 118.287  1.00  0.00     0.008 C 
ENDBRANCH   3  10
ENDBRANCH   2   3
BRANCH   1  13
ATOM     13  C   UNL     1     109.692 110.554 112.009  1.00  0.00    -0.055 C 
ATOM     14  C   UNL     1     109.289 109.893 110.918  1.00  0.00     0.012 C 
BRANCH  13  15
ATOM     15  C   UNL     1     110.479 111.837 111.896  1.00  0.00     0.039 C 
BRANCH  15  16
ATOM     16  C   UNL     1     111.999 111.584 111.929  1.00  0.00     0.032 CG0
ATOM     17  G   UNL     1     112.646 112.128 113.190  1.00  0.00     0.000 G0
ENDBRANCH  15  16
ENDBRANCH  13  15
ENDBRANCH   1  13
TORSDOF 1
ENDMDL
MODEL 3
REMARK VINA RESULT:    -4.956      3.484      6.345
REMARK INTER + INTRA:          -7.155
REMARK INTER:                  -7.141
REMARK INTRA:                  -0.015
REMARK UNBOUND:                 0.119
REMARK SMILES C=C1C=C[C@H](C(C)C)CCC(C)=CCC1
REMARK SMILES IDX 3 1 4 2 5 3 9 4 10 5 11 6 12 7 13 8 6 10 7 11 8 12 2 13 1 14
REMARK SMILES IDX 15 15 14 16
REMARK H PARENT
REMARK Flexibility Score: 70.00
ROOT
ATOM      1  C   UNL     1     109.734 112.502 114.385  1.00  0.00    -0.001 C 
ATOM      2  C   UNL     1     109.833 111.638 113.372  1.00  0.00    -0.023 C 
ENDROOT
BRANCH   2   3
ATOM      3  C   UNL     1     110.332 112.095 112.024  1.00  0.00     0.014 C 
BRANCH   3   4
ATOM      4  C   UNL     1     111.859 111.814 111.922  1.00  0.00     0.012 C 
BRANCH   4   5
ATOM      5  C   UNL     1     112.605 111.650 113.274  1.00  0.00     0.031 C 
BRANCH   5   6
ATOM      6  C   UNL     1     112.784 110.202 113.719  1.00  0.00    -0.077 C 
ATOM      7  C   UNL     1     113.262 109.191 112.706  1.00  0.00     0.039 C 
ATOM      8  C   UNL     1     112.455 109.734 114.954  1.00  0.00    -0.028 CG0
ATOM      9  G   UNL     1     111.872 110.518 116.117  1.00  0.00     0.000 G0
ENDBRANCH   5   6
ENDBRANCH   4   5
ENDBRANCH   3   4
BRANCH   3  10
ATOM     10  C   UNL     1     109.527 111.398 110.886  1.00  0.00    -0.010 C 
ATOM     11  C   UNL     1     109.416 109.879 111.107  1.00  0.00     0.008 C 
ATOM     12  C   UNL     1     110.168 111.659 109.511  1.00  0.00     0.008 C 
ENDBRANCH   3  10
ENDBRANCH   2   3
BRANCH   1  13
ATOM     13  C   UNL     1     109.886 112.059 115.779  1.00  0.00    -0.055 C 
ATOM     14  C   UNL     1     109.603 112.874 116.802  1.00  0.00     0.012 C 
BRANCH  13  15
ATOM     15  C   UNL     1     110.319 110.632 116.017  1.00  0.00     0.039 C 
BRANCH  15  16
ATOM     16  C   UNL     1     111.852 110.507 116.121  1.00  0.00     0.032 CG0
ATOM     17  G   UNL     1     112.446 109.733 114.957  1.00  0.00     0.000 G0
ENDBRANCH  15  16
ENDBRANCH  13  15
ENDBRANCH   1  13
TORSDOF 1
ENDMDL
MODEL 4
REMARK VINA RESULT:    -4.923      1.834      4.990
REMARK INTER + INTRA:          -7.106
REMARK INTER:                  -7.166
REMARK INTRA:                   0.060
REMARK UNBOUND:                 0.119
REMARK SMILES C=C1C=C[C@H](C(C)C)CCC(C)=CCC1
REMARK SMILES IDX 3 1 4 2 5 3 9 4 10 5 11 6 12 7 13 8 6 10 7 11 8 12 2 13 1 14
REMARK SMILES IDX 15 15 14 16
REMARK H PARENT
REMARK Flexibility Score: 70.00
ROOT
ATOM      1  C   UNL     1     112.559 109.625 109.624  1.00  0.00    -0.001 C 
ATOM      2  C   UNL     1     112.502 110.474 108.594  1.00  0.00    -0.023 C 
ENDROOT
BRANCH   2   3
ATOM      3  C   UNL     1     112.000 110.009 107.249  1.00  0.00     0.014 C 
BRANCH   3   4
ATOM      4  C   UNL     1     110.459 110.214 107.180  1.00  0.00     0.012 C 
BRANCH   4   5
ATOM      5  C   UNL     1     109.750 110.441 108.542  1.00  0.00     0.031 C 
BRANCH   5   6
ATOM      6  C   UNL     1     109.562 111.908 108.915  1.00  0.00    -0.077 C 
ATOM      7  C   UNL     1     109.071 112.863 107.854  1.00  0.00     0.039 C 
ATOM      8  C   UNL     1     109.895 112.441 110.122  1.00  0.00    -0.028 CG0
ATOM      9  G   UNL     1     110.489 111.722 111.320  1.00  0.00     0.000 G0
ENDBRANCH   5   6
ENDBRANCH   4   5
ENDBRANCH   3   4
BRANCH   3  10
ATOM     10  C   UNL     1     112.747 110.761 106.107  1.00  0.00    -0.010 C 
ATOM     11  C   UNL     1     112.795 112.280 106.352  1.00  0.00     0.008 C 
ATOM     12  C   UNL     1     112.086 110.496 104.741  1.00  0.00     0.008 C 
ENDBRANCH   3  10
ENDBRANCH   2   3
BRANCH   1  13
ATOM     13  C   UNL     1     112.410 110.101 111.008  1.00  0.00    -0.055 C 
ATOM     14  C   UNL     1     112.660 109.297 112.048  1.00  0.00     0.012 C 
BRANCH  13  15
ATOM     15  C   UNL     1     112.018 111.544 111.214  1.00  0.00     0.039 C 
BRANCH  15  16
ATOM     16  C   UNL     1     110.490 111.714 111.330  1.00  0.00     0.032 CG0
ATOM     17  G   UNL     1     109.900 112.443 110.135  1.00  0.00     0.000 G0
ENDBRANCH  15  16
ENDBRANCH  13  15
ENDBRANCH   1  13
TORSDOF 1
ENDMDL
MODEL 5
REMARK VINA RESULT:    -4.922      1.613      4.573
REMARK INTER + INTRA:          -7.105
REMARK INTER:                  -7.014
REMARK INTRA:                  -0.090
REMARK UNBOUND:                 0.119
REMARK SMILES C=C1C=C[C@H](C(C)C)CCC(C)=CCC1
REMARK SMILES IDX 3 1 4 2 5 3 9 4 10 5 11 6 12 7 13 8 6 10 7 11 8 12 2 13 1 14
REMARK SMILES IDX 15 15 14 16
REMARK H PARENT
REMARK Flexibility Score: 70.00
ROOT
ATOM      1  C   UNL     1     109.607 112.328 110.121  1.00  0.00    -0.001 C 
ATOM      2  C   UNL     1     109.736 111.585 109.019  1.00  0.00    -0.023 C 
ENDROOT
BRANCH   2   3
ATOM      3  C   UNL     1     110.175 112.215 107.720  1.00  0.00     0.014 C 
BRANCH   3   4
ATOM      4  C   UNL     1     111.675 111.884 107.473  1.00  0.00     0.012 C 
BRANCH   4   5
ATOM      5  C   UNL     1     112.536 111.672 108.748  1.00  0.00     0.031 C 
BRANCH   5   6
ATOM      6  C   UNL     1     112.779 110.210 109.105  1.00  0.00    -0.077 C 
ATOM      7  C   UNL     1     113.261 109.275 108.023  1.00  0.00     0.039 C 
ATOM      8  C   UNL     1     112.504 109.661 110.320  1.00  0.00    -0.028 CG0
ATOM      9  G   UNL     1     111.930 110.356 111.542  1.00  0.00     0.000 G0
ENDBRANCH   5   6
ENDBRANCH   4   5
ENDBRANCH   3   4
BRANCH   3  10
ATOM     10  C   UNL     1     109.264 111.730 106.552  1.00  0.00    -0.010 C 
ATOM     11  C   UNL     1     109.125 110.198 106.527  1.00  0.00     0.008 C 
ATOM     12  C   UNL     1     109.805 112.207 105.191  1.00  0.00     0.008 C 
ENDBRANCH   3  10
ENDBRANCH   2   3
BRANCH   1  13
ATOM     13  C   UNL     1     109.817 111.749 111.456  1.00  0.00    -0.055 C 
ATOM     14  C   UNL     1     109.477 112.417 112.565  1.00  0.00     0.012 C 
BRANCH  13  15
ATOM     15  C   UNL     1     110.379 110.350 111.532  1.00  0.00     0.039 C 
BRANCH  15  16
ATOM     16  C   UNL     1     111.921 110.349 111.549  1.00  0.00     0.032 CG0
ATOM     17  G   UNL     1     112.510 109.646 110.339  1.00  0.00     0.000 G0
ENDBRANCH  15  16
ENDBRANCH  13  15
ENDBRANCH   1  13
TORSDOF 1
ENDMDL
MODEL 6
REMARK VINA RESULT:    -4.916      3.508      6.613
REMARK INTER + INTRA:          -7.096
REMARK INTER:                  -7.204
REMARK INTRA:                   0.107
REMARK UNBOUND:                 0.119
REMARK SMILES C=C1C=C[C@H](C(C)C)CCC(C)=CCC1
REMARK SMILES IDX 3 1 4 2 5 3 9 4 10 5 11 6 12 7 13 8 6 10 7 11 8 12 2 13 1 14
REMARK SMILES IDX 15 15 14 16
REMARK H PARENT
REMARK Flexibility Score: 70.00
ROOT
ATOM      1  C   UNL     1     112.456 109.709 114.366  1.00  0.00    -0.001 C 
ATOM      2  C   UNL     1     112.456 110.543 113.322  1.00  0.00    -0.023 C 
ENDROOT
BRANCH   2   3
ATOM      3  C   UNL     1     111.904 110.099 111.990  1.00  0.00     0.014 C 
BRANCH   3   4
ATOM      4  C   UNL     1     110.364 110.319 111.976  1.00  0.00     0.012 C 
BRANCH   4   5
ATOM      5  C   UNL     1     109.704 110.543 113.364  1.00  0.00     0.031 C 
BRANCH   5   6
ATOM      6  C   UNL     1     109.499 112.009 113.731  1.00  0.00    -0.077 C 
ATOM      7  C   UNL     1     108.961 112.946 112.677  1.00  0.00     0.039 C 
ATOM      8  C   UNL     1     109.853 112.558 114.925  1.00  0.00    -0.028 CG0
ATOM      9  G   UNL     1     110.494 111.859 116.111  1.00  0.00     0.000 G0
ENDBRANCH   5   6
ENDBRANCH   4   5
ENDBRANCH   3   4
BRANCH   3  10
ATOM     10  C   UNL     1     112.618 110.858 110.832  1.00  0.00    -0.010 C 
ATOM     11  C   UNL     1     113.019 112.287 111.240  1.00  0.00     0.008 C 
ATOM     12  C   UNL     1     111.726 110.926 109.579  1.00  0.00     0.008 C 
ENDBRANCH   3  10
ENDBRANCH   2   3
BRANCH   1  13
ATOM     13  C   UNL     1     112.360 110.216 115.743  1.00  0.00    -0.055 C 
ATOM     14  C   UNL     1     112.617 109.428 116.793  1.00  0.00     0.012 C 
BRANCH  13  15
ATOM     15  C   UNL     1     112.015 111.674 115.930  1.00  0.00     0.039 C 
BRANCH  15  16
ATOM     16  C   UNL     1     110.500 111.886 116.127  1.00  0.00     0.032 CG0
ATOM     17  G   UNL     1     109.851 112.553 114.927  1.00  0.00     0.000 G0
ENDBRANCH  15  16
ENDBRANCH  13  15
ENDBRANCH   1  13
TORSDOF 1
ENDMDL
MODEL 7
REMARK VINA RESULT:    -4.898      3.230      5.534
REMARK INTER + INTRA:          -7.069
REMARK INTER:                  -7.196
REMARK INTRA:                   0.127
REMARK UNBOUND:                 0.119
REMARK SMILES C=C1C=C[C@H](C(C)C)CCC(C)=CCC1
REMARK SMILES IDX 3 1 4 2 5 3 9 4 10 5 11 6 12 7 13 8 6 10 7 11 8 12 2 13 1 14
REMARK SMILES IDX 15 15 14 16
REMARK H PARENT
REMARK Flexibility Score: 70.00
ROOT
ATOM      1  C   UNL     1     112.878 112.102 112.810  1.00  0.00    -0.001 C 
ATOM      2  C   UNL     1     112.590 111.406 113.914  1.00  0.00    -0.023 C 
ENDROOT
BRANCH   2   3
ATOM      3  C   UNL     1     112.470 112.104 115.246  1.00  0.00     0.014 C 
BRANCH   3   4
ATOM      4  C   UNL     1     110.982 112.491 115.488  1.00  0.00     0.012 C 
BRANCH   4   5
ATOM      5  C   UNL     1     110.039 112.337 114.264  1.00  0.00     0.031 C 
BRANCH   5   6
ATOM      6  C   UNL     1     109.473 110.933 114.081  1.00  0.00    -0.077 C 
ATOM      7  C   UNL     1     108.947 110.206 115.294  1.00  0.00     0.039 C 
ATOM      8  C   UNL     1     109.489 110.246 112.906  1.00  0.00    -0.028 CG0
ATOM      9  G   UNL     1     110.041 110.710 111.570  1.00  0.00     0.000 G0
ENDBRANCH   5   6
ENDBRANCH   4   5
ENDBRANCH   3   4
BRANCH   3  10
ATOM     10  C   UNL     1     113.035 111.199 116.381  1.00  0.00    -0.010 C 
ATOM     11  C   UNL     1     112.523 109.751 116.272  1.00  0.00     0.008 C 
ATOM     12  C   UNL     1     112.672 111.756 117.770  1.00  0.00     0.008 C 
ENDBRANCH   3  10
ENDBRANCH   2   3
BRANCH   1  13
ATOM     13  C   UNL     1     112.399 111.664 111.490  1.00  0.00    -0.055 C 
ATOM     14  C   UNL     1     112.733 112.325 110.376  1.00  0.00     0.012 C 
BRANCH  13  15
ATOM     15  C   UNL     1     111.564 110.408 111.430  1.00  0.00     0.039 C 
BRANCH  15  16
ATOM     16  C   UNL     1     110.058 110.712 111.564  1.00  0.00     0.032 CG0
ATOM     17  G   UNL     1     109.493 110.247 112.894  1.00  0.00     0.000 G0
ENDBRANCH  15  16
ENDBRANCH  13  15
ENDBRANCH   1  13
TORSDOF 1
ENDMDL
MODEL 8
REMARK VINA RESULT:    -4.864      1.553      3.378
REMARK INTER + INTRA:          -7.020
REMARK INTER:                  -7.241
REMARK INTRA:                   0.221
REMARK UNBOUND:                 0.119
REMARK SMILES C=C1C=C[C@H](C(C)C)CCC(C)=CCC1
REMARK SMILES IDX 3 1 4 2 5 3 9 4 10 5 11 6 12 7 13 8 6 10 7 11 8 12 2 13 1 14
REMARK SMILES IDX 15 15 14 16
REMARK H PARENT
REMARK Flexibility Score: 70.00
ROOT
ATOM      1  C   UNL     1     112.877 112.093 108.162  1.00  0.00    -0.001 C 
ATOM      2  C   UNL     1     112.438 111.429 109.235  1.00  0.00    -0.023 C 
ENDROOT
BRANCH   2   3
ATOM      3  C   UNL     1     112.291 112.134 110.561  1.00  0.00     0.014 C 
BRANCH   3   4
ATOM      4  C   UNL     1     110.791 112.475 110.794  1.00  0.00     0.012 C 
BRANCH   4   5
ATOM      5  C   UNL     1     109.862 112.299 109.563  1.00  0.00     0.031 C 
BRANCH   5   6
ATOM      6  C   UNL     1     109.419 110.861 109.311  1.00  0.00    -0.077 C 
ATOM      7  C   UNL     1     108.910 110.050 110.477  1.00  0.00     0.039 C 
ATOM      8  C   UNL     1     109.536 110.222 108.115  1.00  0.00    -0.028 CG0
ATOM      9  G   UNL     1     110.097 110.777 106.819  1.00  0.00     0.000 G0
ENDBRANCH   5   6
ENDBRANCH   4   5
ENDBRANCH   3   4
BRANCH   3  10
ATOM     10  C   UNL     1     112.881 111.257 111.705  1.00  0.00    -0.010 C 
ATOM     11  C   UNL     1     112.497 109.774 111.551  1.00  0.00     0.008 C 
ATOM     12  C   UNL     1     112.412 111.754 113.085  1.00  0.00     0.008 C 
ENDBRANCH   3  10
ENDBRANCH   2   3
BRANCH   1  13
ATOM     13  C   UNL     1     112.456 111.708 106.807  1.00  0.00    -0.055 C 
ATOM     14  C   UNL     1     112.849 112.404 105.733  1.00  0.00     0.012 C 
BRANCH  13  15
ATOM     15  C   UNL     1     111.610 110.466 106.663  1.00  0.00     0.039 C 
BRANCH  15  16
ATOM     16  C   UNL     1     110.107 110.773 106.813  1.00  0.00     0.032 CG0
ATOM     17  G   UNL     1     109.530 110.207 108.099  1.00  0.00     0.000 G0
ENDBRANCH  15  16
ENDBRANCH  13  15
ENDBRANCH   1  13
TORSDOF 1
ENDMDL
MODEL 9
REMARK VINA RESULT:    -4.828      2.547      4.655
REMARK INTER + INTRA:          -6.967
REMARK INTER:                  -7.067
REMARK INTRA:                   0.101
REMARK UNBOUND:                 0.119
REMARK SMILES C=C1C=C[C@H](C(C)C)CCC(C)=CCC1
REMARK SMILES IDX 3 1 4 2 5 3 9 4 10 5 11 6 12 7 13 8 6 10 7 11 8 12 2 13 1 14
REMARK SMILES IDX 15 15 14 16
REMARK H PARENT
REMARK Flexibility Score: 70.00
ROOT
ATOM      1  C   UNL     1     110.242 111.468 110.134  1.00  0.00    -0.001 C 
ATOM      2  C   UNL     1     111.205 111.018 109.325  1.00  0.00    -0.023 C 
ENDROOT
BRANCH   2   3
ATOM      3  C   UNL     1     112.490 111.791 109.165  1.00  0.00     0.014 C 
BRANCH   3   4
ATOM      4  C   UNL     1     113.356 111.613 110.446  1.00  0.00     0.012 C 
BRANCH   4   5
ATOM      5  C   UNL     1     112.874 112.396 111.698  1.00  0.00     0.031 C 
BRANCH   5   6
ATOM      6  C   UNL     1     112.572 111.518 112.908  1.00  0.00    -0.077 C 
ATOM      7  C   UNL     1     113.711 110.772 113.558  1.00  0.00     0.039 C 
ATOM      8  C   UNL     1     111.322 111.287 113.395  1.00  0.00    -0.028 CG0
ATOM      9  G   UNL     1     110.008 111.838 112.871  1.00  0.00     0.000 G0
ENDBRANCH   5   6
ENDBRANCH   4   5
ENDBRANCH   3   4
BRANCH   3  10
ATOM     10  C   UNL     1     113.239 111.330 107.879  1.00  0.00    -0.010 C 
ATOM     11  C   UNL     1     112.846 112.170 106.651  1.00  0.00     0.008 C 
ATOM     12  C   UNL     1     112.966 109.845 107.579  1.00  0.00     0.008 C 
ENDBRANCH   3  10
ENDBRANCH   2   3
BRANCH   1  13
ATOM     13  C   UNL     1     109.323 110.540 110.811  1.00  0.00    -0.055 C 
ATOM     14  C   UNL     1     108.751 109.526 110.151  1.00  0.00     0.012 C 
BRANCH  13  15
ATOM     15  C   UNL     1     109.092 110.736 112.290  1.00  0.00     0.039 C 
BRANCH  15  16
ATOM     16  C   UNL     1     109.992 111.846 112.870  1.00  0.00     0.032 CG0
ATOM     17  G   UNL     1     111.311 111.303 113.391  1.00  0.00     0.000 G0
ENDBRANCH  15  16
ENDBRANCH  13  15
ENDBRANCH   1  13
TORSDOF 1
ENDMDL
