MODEL 1
REMARK VINA RESULT:    -2.936      0.000      0.000
REMARK INTER + INTRA:          -4.923
REMARK INTER:                  -4.480
REMARK INTRA:                  -0.443
REMARK UNBOUND:                -0.443
REMARK SMILES CCCCCCCCCCC(=O)[O-]
REMARK SMILES IDX 7 1 8 2 9 3 10 4 11 5 12 6 13 7 6 8 5 9 4 10 3 11 2 12 1 13
REMARK H PARENT
REMARK Flexibility Score: inf
ROOT
ATOM      1  C   UNL     1     -28.945 -21.026 -23.495  1.00  0.00     0.000 C 
ENDROOT
BRANCH   1   2
ATOM      2  C   UNL     1     -29.744 -21.695 -24.627  1.00  0.00     0.000 C 
BRANCH   2   3
ATOM      3  C   UNL     1     -31.195 -21.200 -24.779  1.00  0.00     0.006 C 
BRANCH   3   4
ATOM      4  C   UNL     1     -31.416 -19.807 -24.177  1.00  0.00     0.053 C 
BRANCH   4   5
ATOM      5  C   UNL     1     -32.163 -19.909 -22.884  1.00  0.00     0.041 C 
ATOM      6  O   UNL     1     -32.137 -20.979 -22.221  1.00  0.00    -0.550 OA
ATOM      7  O   UNL     1     -32.846 -18.807 -22.386  1.00  0.00    -0.550 OA
ENDBRANCH   4   5
ENDBRANCH   3   4
ENDBRANCH   2   3
ENDBRANCH   1   2
BRANCH   1   8
ATOM      8  C   UNL     1     -27.609 -21.728 -23.208  1.00  0.00     0.000 C 
BRANCH   8   9
ATOM      9  C   UNL     1     -27.493 -22.104 -21.724  1.00  0.00    -0.000 C 
BRANCH   9  10
ATOM     10  C   UNL     1     -28.725 -21.687 -20.900  1.00  0.00    -0.000 C 
BRANCH  10  11
ATOM     11  C   UNL     1     -28.682 -22.092 -19.416  1.00  0.00    -0.000 C 
BRANCH  11  12
ATOM     12  C   UNL     1     -27.256 -22.125 -18.847  1.00  0.00    -0.003 C 
ATOM     13  C   UNL     1     -27.273 -22.125 -17.321  1.00  0.00     0.004 C 
ENDBRANCH  11  12
ENDBRANCH  10  11
ENDBRANCH   9  10
ENDBRANCH   8   9
ENDBRANCH   1   8
TORSDOF 9
ENDMDL
MODEL 2
REMARK VINA RESULT:    -2.554      2.912      5.800
REMARK INTER + INTRA:          -4.340
REMARK INTER:                  -3.617
REMARK INTRA:                  -0.722
REMARK UNBOUND:                -0.443
REMARK SMILES CCCCCCCCCCC(=O)[O-]
REMARK SMILES IDX 7 1 8 2 9 3 10 4 11 5 12 6 13 7 6 8 5 9 4 10 3 11 2 12 1 13
REMARK H PARENT
REMARK Flexibility Score: inf
ROOT
ATOM      1  C   UNL     1     -27.924 -21.575 -22.044  1.00  0.00     0.000 C 
ENDROOT
BRANCH   1   2
ATOM      2  C   UNL     1     -29.054 -21.295 -21.037  1.00  0.00     0.000 C 
BRANCH   2   3
ATOM      3  C   UNL     1     -28.855 -21.923 -19.646  1.00  0.00     0.006 C 
BRANCH   3   4
ATOM      4  C   UNL     1     -27.407 -21.829 -19.149  1.00  0.00     0.053 C 
BRANCH   4   5
ATOM      5  C   UNL     1     -27.350 -22.019 -17.665  1.00  0.00     0.041 C 
ATOM      6  O   UNL     1     -26.239 -22.125 -17.083  1.00  0.00    -0.550 OA
ATOM      7  O   UNL     1     -28.522 -22.029 -16.920  1.00  0.00    -0.550 OA
ENDBRANCH   4   5
ENDBRANCH   3   4
ENDBRANCH   2   3
ENDBRANCH   1   2
BRANCH   1   8
ATOM      8  C   UNL     1     -28.441 -21.871 -23.460  1.00  0.00     0.000 C 
BRANCH   8   9
ATOM      9  C   UNL     1     -28.865 -20.577 -24.170  1.00  0.00    -0.000 C 
BRANCH   9  10
ATOM     10  C   UNL     1     -30.061 -20.777 -25.120  1.00  0.00    -0.000 C 
BRANCH  10  11
ATOM     11  C   UNL     1     -31.434 -20.852 -24.428  1.00  0.00    -0.000 C 
BRANCH  11  12
ATOM     12  C   UNL     1     -31.668 -19.701 -23.439  1.00  0.00    -0.003 C 
ATOM     13  C   UNL     1     -32.429 -20.182 -22.206  1.00  0.00     0.004 C 
ENDBRANCH  11  12
ENDBRANCH  10  11
ENDBRANCH   9  10
ENDBRANCH   8   9
ENDBRANCH   1   8
TORSDOF 9
ENDMDL
MODEL 3
REMARK VINA RESULT:    -2.259      3.136      6.405
REMARK INTER + INTRA:          -3.890
REMARK INTER:                  -4.771
REMARK INTRA:                   0.882
REMARK UNBOUND:                -0.443
REMARK SMILES CCCCCCCCCCC(=O)[O-]
REMARK SMILES IDX 7 1 8 2 9 3 10 4 11 5 12 6 13 7 6 8 5 9 4 10 3 11 2 12 1 13
REMARK H PARENT
REMARK Flexibility Score: inf
ROOT
ATOM      1  C   UNL     1     -28.538 -21.661 -22.062  1.00  0.00     0.000 C 
ENDROOT
BRANCH   1   2
ATOM      2  C   UNL     1     -28.966 -21.047 -20.718  1.00  0.00     0.000 C 
BRANCH   2   3
ATOM      3  C   UNL     1     -28.760 -21.956 -19.492  1.00  0.00     0.006 C 
BRANCH   3   4
ATOM      4  C   UNL     1     -27.282 -22.125 -19.116  1.00  0.00     0.053 C 
BRANCH   4   5
ATOM      5  C   UNL     1     -27.114 -22.087 -17.629  1.00  0.00     0.041 C 
ATOM      6  O   UNL     1     -28.123 -22.124 -16.877  1.00  0.00    -0.550 OA
ATOM      7  O   UNL     1     -25.841 -22.062 -17.074  1.00  0.00    -0.550 OA
ENDBRANCH   4   5
ENDBRANCH   3   4
ENDBRANCH   2   3
ENDBRANCH   1   2
BRANCH   1   8
ATOM      8  C   UNL     1     -29.566 -21.435 -23.180  1.00  0.00     0.000 C 
BRANCH   8   9
ATOM      9  C   UNL     1     -30.818 -20.729 -22.640  1.00  0.00    -0.000 C 
BRANCH   9  10
ATOM     10  C   UNL     1     -31.847 -20.405 -23.739  1.00  0.00    -0.000 C 
BRANCH  10  11
ATOM     11  C   UNL     1     -31.242 -20.025 -25.103  1.00  0.00    -0.000 C 
BRANCH  11  12
ATOM     12  C   UNL     1     -30.166 -21.012 -25.575  1.00  0.00    -0.003 C 
ATOM     13  C   UNL     1     -30.314 -21.316 -27.064  1.00  0.00     0.004 C 
ENDBRANCH  11  12
ENDBRANCH  10  11
ENDBRANCH   9  10
ENDBRANCH   8   9
ENDBRANCH   1   8
TORSDOF 9
ENDMDL
MODEL 4
REMARK VINA RESULT:    -2.044      2.061      2.696
REMARK INTER + INTRA:          -3.562
REMARK INTER:                  -3.908
REMARK INTRA:                   0.346
REMARK UNBOUND:                -0.443
REMARK SMILES CCCCCCCCCCC(=O)[O-]
REMARK SMILES IDX 7 1 8 2 9 3 10 4 11 5 12 6 13 7 6 8 5 9 4 10 3 11 2 12 1 13
REMARK H PARENT
REMARK Flexibility Score: inf
ROOT
ATOM      1  C   UNL     1     -31.125 -21.180 -22.486  1.00  0.00     0.000 C 
ENDROOT
BRANCH   1   2
ATOM      2  C   UNL     1     -31.585 -19.759 -22.858  1.00  0.00     0.000 C 
BRANCH   2   3
ATOM      3  C   UNL     1     -31.997 -19.574 -24.331  1.00  0.00     0.006 C 
BRANCH   3   4
ATOM      4  C   UNL     1     -30.798 -19.555 -25.288  1.00  0.00     0.053 C 
BRANCH   4   5
ATOM      5  C   UNL     1     -30.793 -20.783 -26.143  1.00  0.00     0.041 C 
ATOM      6  O   UNL     1     -29.975 -20.888 -27.095  1.00  0.00    -0.550 OA
ATOM      7  O   UNL     1     -31.656 -21.833 -25.858  1.00  0.00    -0.550 OA
ENDBRANCH   4   5
ENDBRANCH   3   4
ENDBRANCH   2   3
ENDBRANCH   1   2
BRANCH   1   8
ATOM      8  C   UNL     1     -29.833 -21.599 -23.202  1.00  0.00     0.000 C 
BRANCH   8   9
ATOM      9  C   UNL     1     -28.734 -21.954 -22.190  1.00  0.00    -0.000 C 
BRANCH   9  10
ATOM     10  C   UNL     1     -28.890 -21.214 -20.849  1.00  0.00    -0.000 C 
BRANCH  10  11
ATOM     11  C   UNL     1     -28.942 -22.122 -19.608  1.00  0.00    -0.000 C 
BRANCH  11  12
ATOM     12  C   UNL     1     -27.868 -21.775 -18.567  1.00  0.00    -0.003 C 
ATOM     13  C   UNL     1     -28.369 -22.041 -17.150  1.00  0.00     0.004 C 
ENDBRANCH  11  12
ENDBRANCH  10  11
ENDBRANCH   9  10
ENDBRANCH   8   9
ENDBRANCH   1   8
TORSDOF 9
ENDMDL
MODEL 5
REMARK VINA RESULT:    -2.025      2.797      5.864
REMARK INTER + INTRA:          -3.533
REMARK INTER:                  -3.900
REMARK INTRA:                   0.367
REMARK UNBOUND:                -0.443
REMARK SMILES CCCCCCCCCCC(=O)[O-]
REMARK SMILES IDX 7 1 8 2 9 3 10 4 11 5 12 6 13 7 6 8 5 9 4 10 3 11 2 12 1 13
REMARK H PARENT
REMARK Flexibility Score: inf
ROOT
ATOM      1  C   UNL     1     -32.058 -20.648 -22.117  1.00  0.00     0.000 C 
ENDROOT
BRANCH   1   2
ATOM      2  C   UNL     1     -31.140 -21.619 -22.881  1.00  0.00     0.000 C 
BRANCH   2   3
ATOM      3  C   UNL     1     -29.919 -22.120 -22.087  1.00  0.00     0.006 C 
BRANCH   3   4
ATOM      4  C   UNL     1     -30.150 -22.113 -20.570  1.00  0.00     0.053 C 
BRANCH   4   5
ATOM      5  C   UNL     1     -28.841 -22.105 -19.843  1.00  0.00     0.041 C 
ATOM      6  O   UNL     1     -27.761 -22.035 -20.485  1.00  0.00    -0.550 OA
ATOM      7  O   UNL     1     -28.817 -22.124 -18.454  1.00  0.00    -0.550 OA
ENDBRANCH   4   5
ENDBRANCH   3   4
ENDBRANCH   2   3
ENDBRANCH   1   2
BRANCH   1   8
ATOM      8  C   UNL     1     -32.171 -19.273 -22.791  1.00  0.00     0.000 C 
BRANCH   8   9
ATOM      9  C   UNL     1     -32.066 -19.400 -24.318  1.00  0.00    -0.000 C 
BRANCH   9  10
ATOM     10  C   UNL     1     -30.624 -19.633 -24.805  1.00  0.00    -0.000 C 
BRANCH  10  11
ATOM     11  C   UNL     1     -30.458 -19.707 -26.333  1.00  0.00    -0.000 C 
BRANCH  11  12
ATOM     12  C   UNL     1     -30.293 -21.143 -26.848  1.00  0.00    -0.003 C 
ATOM     13  C   UNL     1     -31.256 -22.095 -26.143  1.00  0.00     0.004 C 
ENDBRANCH  11  12
ENDBRANCH  10  11
ENDBRANCH   9  10
ENDBRANCH   8   9
ENDBRANCH   1   8
TORSDOF 9
ENDMDL
MODEL 6
REMARK VINA RESULT:    -1.900      2.325      5.186
REMARK INTER + INTRA:          -3.343
REMARK INTER:                  -3.556
REMARK INTRA:                   0.213
REMARK UNBOUND:                -0.443
REMARK SMILES CCCCCCCCCCC(=O)[O-]
REMARK SMILES IDX 7 1 8 2 9 3 10 4 11 5 12 6 13 7 6 8 5 9 4 10 3 11 2 12 1 13
REMARK H PARENT
REMARK Flexibility Score: inf
ROOT
ATOM      1  C   UNL     1     -28.966 -21.400 -23.579  1.00  0.00     0.000 C 
ENDROOT
BRANCH   1   2
ATOM      2  C   UNL     1     -27.560 -21.664 -23.012  1.00  0.00     0.000 C 
BRANCH   2   3
ATOM      3  C   UNL     1     -27.527 -22.123 -21.542  1.00  0.00     0.006 C 
BRANCH   3   4
ATOM      4  C   UNL     1     -28.625 -21.475 -20.689  1.00  0.00     0.053 C 
BRANCH   4   5
ATOM      5  C   UNL     1     -28.472 -21.870 -19.254  1.00  0.00     0.041 C 
ATOM      6  O   UNL     1     -27.328 -21.927 -18.731  1.00  0.00    -0.550 OA
ATOM      7  O   UNL     1     -29.596 -22.124 -18.479  1.00  0.00    -0.550 OA
ENDBRANCH   4   5
ENDBRANCH   3   4
ENDBRANCH   2   3
ENDBRANCH   1   2
BRANCH   1   8
ATOM      8  C   UNL     1     -29.003 -20.229 -24.571  1.00  0.00     0.000 C 
BRANCH   8   9
ATOM      9  C   UNL     1     -30.409 -20.056 -25.165  1.00  0.00    -0.000 C 
BRANCH   9  10
ATOM     10  C   UNL     1     -31.439 -21.031 -24.565  1.00  0.00    -0.000 C 
BRANCH  10  11
ATOM     11  C   UNL     1     -31.603 -20.945 -23.038  1.00  0.00    -0.000 C 
BRANCH  11  12
ATOM     12  C   UNL     1     -32.877 -20.200 -22.614  1.00  0.00    -0.003 C 
ATOM     13  C   UNL     1     -32.614 -18.704 -22.460  1.00  0.00     0.004 C 
ENDBRANCH  11  12
ENDBRANCH  10  11
ENDBRANCH   9  10
ENDBRANCH   8   9
ENDBRANCH   1   8
TORSDOF 9
ENDMDL
MODEL 7
REMARK VINA RESULT:    -1.593      2.331      3.606
REMARK INTER + INTRA:          -2.873
REMARK INTER:                  -2.369
REMARK INTRA:                  -0.505
REMARK UNBOUND:                -0.443
REMARK SMILES CCCCCCCCCCC(=O)[O-]
REMARK SMILES IDX 7 1 8 2 9 3 10 4 11 5 12 6 13 7 6 8 5 9 4 10 3 11 2 12 1 13
REMARK H PARENT
REMARK Flexibility Score: inf
ROOT
ATOM      1  C   UNL     1     -31.899 -19.983 -22.109  1.00  0.00     0.000 C 
ENDROOT
BRANCH   1   2
ATOM      2  C   UNL     1     -32.087 -19.958 -23.636  1.00  0.00     0.000 C 
BRANCH   2   3
ATOM      3  C   UNL     1     -30.894 -19.393 -24.429  1.00  0.00     0.006 C 
BRANCH   3   4
ATOM      4  C   UNL     1     -30.856 -19.883 -25.882  1.00  0.00     0.053 C 
BRANCH   4   5
ATOM      5  C   UNL     1     -30.382 -21.302 -25.942  1.00  0.00     0.041 C 
ATOM      6  O   UNL     1     -29.686 -21.777 -25.006  1.00  0.00    -0.550 OA
ATOM      7  O   UNL     1     -30.751 -22.114 -27.006  1.00  0.00    -0.550 OA
ENDBRANCH   4   5
ENDBRANCH   3   4
ENDBRANCH   2   3
ENDBRANCH   1   2
BRANCH   1   8
ATOM      8  C   UNL     1     -31.706 -21.400 -21.551  1.00  0.00     0.000 C 
BRANCH   8   9
ATOM      9  C   UNL     1     -30.301 -21.930 -21.871  1.00  0.00    -0.000 C 
BRANCH   9  10
ATOM     10  C   UNL     1     -29.431 -22.125 -20.615  1.00  0.00    -0.000 C 
BRANCH  10  11
ATOM     11  C   UNL     1     -27.943 -21.779 -20.796  1.00  0.00    -0.000 C 
BRANCH  11  12
ATOM     12  C   UNL     1     -27.632 -21.177 -22.174  1.00  0.00    -0.003 C 
ATOM     13  C   UNL     1     -26.768 -22.122 -23.005  1.00  0.00     0.004 C 
ENDBRANCH  11  12
ENDBRANCH  10  11
ENDBRANCH   9  10
ENDBRANCH   8   9
ENDBRANCH   1   8
TORSDOF 9
ENDMDL
MODEL 8
REMARK VINA RESULT:    -1.481      2.749      5.799
REMARK INTER + INTRA:          -2.704
REMARK INTER:                  -2.813
REMARK INTRA:                   0.110
REMARK UNBOUND:                -0.443
REMARK SMILES CCCCCCCCCCC(=O)[O-]
REMARK SMILES IDX 7 1 8 2 9 3 10 4 11 5 12 6 13 7 6 8 5 9 4 10 3 11 2 12 1 13
REMARK H PARENT
REMARK Flexibility Score: inf
ROOT
ATOM      1  C   UNL     1     -31.603 -19.721 -22.111  1.00  0.00     0.000 C 
ENDROOT
BRANCH   1   2
ATOM      2  C   UNL     1     -31.883 -21.234 -22.102  1.00  0.00     0.000 C 
BRANCH   2   3
ATOM      3  C   UNL     1     -30.651 -22.125 -22.346  1.00  0.00     0.006 C 
BRANCH   3   4
ATOM      4  C   UNL     1     -29.461 -21.757 -21.450  1.00  0.00     0.053 C 
BRANCH   4   5
ATOM      5  C   UNL     1     -28.201 -21.692 -22.256  1.00  0.00     0.041 C 
ATOM      6  O   UNL     1     -27.090 -21.928 -21.714  1.00  0.00    -0.550 OA
ATOM      7  O   UNL     1     -28.260 -21.422 -23.618  1.00  0.00    -0.550 OA
ENDBRANCH   4   5
ENDBRANCH   3   4
ENDBRANCH   2   3
ENDBRANCH   1   2
BRANCH   1   8
ATOM      8  C   UNL     1     -32.143 -19.018 -23.365  1.00  0.00     0.000 C 
BRANCH   8   9
ATOM      9  C   UNL     1     -31.859 -19.848 -24.625  1.00  0.00    -0.000 C 
BRANCH   9  10
ATOM     10  C   UNL     1     -30.484 -19.544 -25.248  1.00  0.00    -0.000 C 
BRANCH  10  11
ATOM     11  C   UNL     1     -30.385 -19.804 -26.761  1.00  0.00    -0.000 C 
BRANCH  11  12
ATOM     12  C   UNL     1     -30.377 -21.299 -27.112  1.00  0.00    -0.003 C 
ATOM     13  C   UNL     1     -31.056 -22.124 -26.021  1.00  0.00     0.004 C 
ENDBRANCH  11  12
ENDBRANCH  10  11
ENDBRANCH   9  10
ENDBRANCH   8   9
ENDBRANCH   1   8
TORSDOF 9
ENDMDL
MODEL 9
REMARK VINA RESULT:    -1.359      2.360      5.686
REMARK INTER + INTRA:          -2.516
REMARK INTER:                  -3.149
REMARK INTRA:                   0.633
REMARK UNBOUND:                -0.443
REMARK SMILES CCCCCCCCCCC(=O)[O-]
REMARK SMILES IDX 7 1 8 2 9 3 10 4 11 5 12 6 13 7 6 8 5 9 4 10 3 11 2 12 1 13
REMARK H PARENT
REMARK Flexibility Score: inf
ROOT
ATOM      1  C   UNL     1     -28.269 -21.107 -23.378  1.00  0.00     0.000 C 
ENDROOT
BRANCH   1   2
ATOM      2  C   UNL     1     -27.224 -22.085 -22.815  1.00  0.00     0.000 C 
BRANCH   2   3
ATOM      3  C   UNL     1     -27.128 -22.122 -21.279  1.00  0.00     0.006 C 
BRANCH   3   4
ATOM      4  C   UNL     1     -28.501 -22.124 -20.594  1.00  0.00     0.053 C 
BRANCH   4   5
ATOM      5  C   UNL     1     -28.477 -21.259 -19.373  1.00  0.00     0.041 C 
ATOM      6  O   UNL     1     -28.138 -20.050 -19.460  1.00  0.00    -0.550 OA
ATOM      7  O   UNL     1     -28.880 -21.775 -18.148  1.00  0.00    -0.550 OA
ENDBRANCH   4   5
ENDBRANCH   3   4
ENDBRANCH   2   3
ENDBRANCH   1   2
BRANCH   1   8
ATOM      8  C   UNL     1     -29.466 -21.816 -24.029  1.00  0.00     0.000 C 
BRANCH   8   9
ATOM      9  C   UNL     1     -30.789 -21.338 -23.413  1.00  0.00    -0.000 C 
BRANCH   9  10
ATOM     10  C   UNL     1     -31.404 -20.142 -24.163  1.00  0.00    -0.000 C 
BRANCH  10  11
ATOM     11  C   UNL     1     -30.519 -19.546 -25.272  1.00  0.00    -0.000 C 
BRANCH  11  12
ATOM     12  C   UNL     1     -30.812 -20.144 -26.656  1.00  0.00    -0.003 C 
ATOM     13  C   UNL     1     -30.670 -21.664 -26.639  1.00  0.00     0.004 C 
ENDBRANCH  11  12
ENDBRANCH  10  11
ENDBRANCH   9  10
ENDBRANCH   8   9
ENDBRANCH   1   8
TORSDOF 9
ENDMDL
