MODEL 1
REMARK VINA RESULT:    -1.018      0.000      0.000
REMARK INTER + INTRA:          -1.130
REMARK INTER:                  -1.107
REMARK INTRA:                  -0.023
REMARK UNBOUND:                -0.023
REMARK SMILES CC1(C)[C@@H]2CC=C(CO)[C@H]1C2
REMARK SMILES IDX 8 1 7 2 1 3 2 4 4 5 3 6 10 7 5 8 11 9 6 10 9 11
REMARK H PARENT 9 12
REMARK Flexibility Score: inf
ROOT
ATOM      1  C   UNL     1     -24.551   7.077 -48.229  1.00  0.00     0.187 C 
ENDROOT
BRANCH   1   2
ATOM      2  C   UNL     1     -23.289   7.114 -47.418  1.00  0.00    -0.045 C 
ATOM      3  C   UNL     1     -20.922   4.262 -46.205  1.00  0.00     0.012 C 
ATOM      4  C   UNL     1     -21.764   5.561 -46.151  1.00  0.00    -0.026 C 
ATOM      5  C   UNL     1     -20.875   6.836 -46.125  1.00  0.00    -0.000 C 
ATOM      6  C   UNL     1     -22.854   5.390 -45.056  1.00  0.00     0.012 C 
ATOM      7  C   UNL     1     -22.204   6.037 -47.561  1.00  0.00     0.023 C 
ATOM      8  C   UNL     1     -21.729   8.087 -45.717  1.00  0.00     0.031 C 
ATOM      9  C   UNL     1     -20.878   6.814 -47.667  1.00  0.00     0.013 C 
ATOM     10  C   UNL     1     -23.036   8.125 -46.534  1.00  0.00    -0.025 C 
ENDBRANCH   1   2
BRANCH   1  11
ATOM     11  O   UNL     1     -25.426   8.072 -47.779  1.00  0.00    -0.392 OA
ATOM     12  H   UNL     1     -26.295   7.896 -48.223  1.00  0.00     0.211 HD
ENDBRANCH   1  11
TORSDOF 2
ENDMDL
MODEL 2
REMARK VINA RESULT:     0.397      1.865      3.226
REMARK INTER + INTRA:           0.409
REMARK INTER:                   0.458
REMARK INTRA:                  -0.049
REMARK UNBOUND:                -0.023
REMARK SMILES CC1(C)[C@@H]2CC=C(CO)[C@H]1C2
REMARK SMILES IDX 8 1 7 2 1 3 2 4 4 5 3 6 10 7 5 8 11 9 6 10 9 11
REMARK H PARENT 9 12
REMARK Flexibility Score: inf
ROOT
ATOM      1  C   UNL     1     -22.479   5.119 -44.875  1.00  0.00     0.187 C 
ENDROOT
BRANCH   1   2
ATOM      2  C   UNL     1     -22.225   6.219 -45.865  1.00  0.00    -0.045 C 
ATOM      3  C   UNL     1     -23.309   6.636 -49.587  1.00  0.00     0.012 C 
ATOM      4  C   UNL     1     -22.394   6.666 -48.337  1.00  0.00    -0.026 C 
ATOM      5  C   UNL     1     -22.108   8.116 -47.855  1.00  0.00    -0.000 C 
ATOM      6  C   UNL     1     -21.193   5.714 -48.588  1.00  0.00     0.012 C 
ATOM      7  C   UNL     1     -23.197   6.509 -47.017  1.00  0.00     0.023 C 
ATOM      8  C   UNL     1     -20.919   8.125 -46.832  1.00  0.00     0.031 C 
ATOM      9  C   UNL     1     -23.391   8.037 -47.003  1.00  0.00     0.013 C 
ATOM     10  C   UNL     1     -21.130   7.029 -45.767  1.00  0.00    -0.025 C 
ENDBRANCH   1   2
BRANCH   1  11
ATOM     11  O   UNL     1     -23.636   4.420 -45.239  1.00  0.00    -0.392 OA
ATOM     12  H   UNL     1     -24.209   5.069 -45.723  1.00  0.00     0.211 HD
ENDBRANCH   1  11
TORSDOF 2
ENDMDL
MODEL 3
REMARK VINA RESULT:     1.159     15.906     17.736
REMARK INTER + INTRA:           1.237
REMARK INTER:                   1.262
REMARK INTRA:                  -0.025
REMARK UNBOUND:                -0.023
REMARK SMILES CC1(C)[C@@H]2CC=C(CO)[C@H]1C2
REMARK SMILES IDX 8 1 7 2 1 3 2 4 4 5 3 6 10 7 5 8 11 9 6 10 9 11
REMARK H PARENT 9 12
REMARK Flexibility Score: inf
ROOT
ATOM      1  C   UNL     1     -36.047   7.008 -55.018  1.00  0.00     0.187 C 
ENDROOT
BRANCH   1   2
ATOM      2  C   UNL     1     -37.320   6.905 -54.229  1.00  0.00    -0.045 C 
ATOM      3  C   UNL     1     -40.530   4.763 -54.786  1.00  0.00     0.012 C 
ATOM      4  C   UNL     1     -39.659   6.000 -54.450  1.00  0.00    -0.026 C 
ATOM      5  C   UNL     1     -39.680   6.338 -52.933  1.00  0.00    -0.000 C 
ATOM      6  C   UNL     1     -39.994   7.124 -55.469  1.00  0.00     0.012 C 
ATOM      7  C   UNL     1     -38.168   5.626 -54.227  1.00  0.00     0.023 C 
ATOM      8  C   UNL     1     -39.093   7.772 -52.686  1.00  0.00     0.031 C 
ATOM      9  C   UNL     1     -38.498   5.365 -52.745  1.00  0.00     0.013 C 
ATOM     10  C   UNL     1     -37.765   7.938 -53.453  1.00  0.00    -0.025 C 
ENDBRANCH   1   2
BRANCH   1  11
ATOM     11  O   UNL     1     -34.997   7.375 -54.168  1.00  0.00    -0.392 OA
ATOM     12  H   UNL     1     -35.145   6.883 -53.319  1.00  0.00     0.211 HD
ENDBRANCH   1  11
TORSDOF 2
ENDMDL
MODEL 4
REMARK VINA RESULT:     1.617      1.235      2.534
REMARK INTER + INTRA:           1.735
REMARK INTER:                   1.780
REMARK INTRA:                  -0.045
REMARK UNBOUND:                -0.023
REMARK SMILES CC1(C)[C@@H]2CC=C(CO)[C@H]1C2
REMARK SMILES IDX 8 1 7 2 1 3 2 4 4 5 3 6 10 7 5 8 11 9 6 10 9 11
REMARK H PARENT 9 12
REMARK Flexibility Score: inf
ROOT
ATOM      1  C   UNL     1     -24.771   5.326 -46.998  1.00  0.00     0.187 C 
ENDROOT
BRANCH   1   2
ATOM      2  C   UNL     1     -23.446   5.892 -46.577  1.00  0.00    -0.045 C 
ATOM      3  C   UNL     1     -20.875   8.124 -48.478  1.00  0.00     0.012 C 
ATOM      4  C   UNL     1     -21.408   6.982 -47.576  1.00  0.00    -0.026 C 
ATOM      5  C   UNL     1     -21.092   7.226 -46.074  1.00  0.00    -0.000 C 
ATOM      6  C   UNL     1     -20.998   5.626 -48.213  1.00  0.00     0.012 C 
ATOM      7  C   UNL     1     -22.894   7.192 -47.179  1.00  0.00     0.023 C 
ATOM      8  C   UNL     1     -21.322   5.912 -45.249  1.00  0.00     0.031 C 
ATOM      9  C   UNL     1     -22.411   8.019 -45.972  1.00  0.00     0.013 C 
ATOM     10  C   UNL     1     -22.684   5.288 -45.617  1.00  0.00    -0.025 C 
ENDBRANCH   1   2
BRANCH   1  11
ATOM     11  O   UNL     1     -25.604   6.361 -47.437  1.00  0.00    -0.392 OA
ATOM     12  H   UNL     1     -26.502   6.169 -47.064  1.00  0.00     0.211 HD
ENDBRANCH   1  11
TORSDOF 2
ENDMDL
