MODEL 1
REMARK VINA RESULT:    -7.272      0.000      0.000
REMARK INTER + INTRA:          -7.485
REMARK INTER:                  -7.485
REMARK INTRA:                   0.000
REMARK UNBOUND:                 0.000
REMARK SMILES CC1(C)CC[C@@]2(C)CC[C@@]3(C)C(=CC[C@@H]4[C@@]5(C)CC[C@@H](O)C(C)(C)[C@H]5CC[C@@]43C)[C@@H]2C1
REMARK SMILES IDX 1 1 2 2 4 3 5 4 6 5 8 6 9 7 10 8 12 9 13 10 14 11 15 12
REMARK SMILES IDX 28 13 27 14 26 15 25 16 16 17 18 18 19 19 20 20 22 21 23 22
REMARK SMILES IDX 24 23 17 24 29 25 30 26 31 27 11 28 7 29 3 30 21 31
REMARK H PARENT 21 32
REMARK Flexibility Score: inf
ROOT
ATOM      1  C   UNL     1     152.168 140.679 134.394  1.00  0.00     0.011 C 
ATOM      2  C   UNL     1     150.827 141.265 134.893  1.00  0.00    -0.035 C 
ATOM      3  C   UNL     1     151.004 142.800 135.158  1.00  0.00     0.007 C 
ATOM      4  C   UNL     1     151.657 143.180 136.516  1.00  0.00     0.008 C 
ATOM      5  C   UNL     1     151.244 142.284 137.738  1.00  0.00    -0.026 C 
ATOM      6  C   UNL     1     150.890 143.139 139.016  1.00  0.00     0.008 C 
ATOM      7  C   UNL     1     149.374 143.278 139.295  1.00  0.00     0.012 C 
ATOM      8  C   UNL     1     148.568 141.895 139.426  1.00  0.00    -0.006 C 
ATOM      9  C   UNL     1     149.351 140.869 138.586  1.00  0.00    -0.064 C 
ATOM     10  C   UNL     1     149.821 139.726 139.093  1.00  0.00    -0.027 C 
ATOM     11  C   UNL     1     149.780 139.377 140.534  1.00  0.00     0.032 C 
ATOM     12  C   UNL     1     149.490 140.562 141.526  1.00  0.00     0.006 C 
ATOM     13  C   UNL     1     148.280 141.410 140.962  1.00  0.00    -0.020 C 
ATOM     14  C   UNL     1     147.033 140.474 141.071  1.00  0.00     0.008 C 
ATOM     15  C   UNL     1     146.784 139.893 142.478  1.00  0.00     0.005 C 
ATOM     16  C   UNL     1     147.981 139.162 143.164  1.00  0.00     0.003 C 
ATOM     17  C   UNL     1     149.343 139.967 143.018  1.00  0.00    -0.025 C 
ATOM     18  C   UNL     1     149.452 141.068 144.123  1.00  0.00     0.010 C 
ATOM     19  C   UNL     1     149.185 140.565 145.554  1.00  0.00     0.033 C 
ATOM     20  C   UNL     1     147.819 139.877 145.682  1.00  0.00     0.120 C 
ATOM     21  C   UNL     1     147.622 138.711 144.656  1.00  0.00    -0.006 C 
ATOM     22  C   UNL     1     146.153 138.203 144.757  1.00  0.00     0.014 C 
ATOM     23  C   UNL     1     148.481 137.487 145.093  1.00  0.00     0.014 C 
ATOM     24  C   UNL     1     150.578 139.025 143.248  1.00  0.00     0.012 C 
ATOM     25  C   UNL     1     147.967 142.690 141.804  1.00  0.00     0.012 C 
ATOM     26  C   UNL     1     150.007 141.428 137.331  1.00  0.00     0.022 C 
ATOM     27  C   UNL     1     150.315 140.477 136.158  1.00  0.00     0.015 C 
ATOM     28  C   UNL     1     147.203 142.103 138.692  1.00  0.00     0.017 C 
ATOM     29  C   UNL     1     152.466 141.402 138.130  1.00  0.00     0.012 C 
ATOM     30  C   UNL     1     149.797 141.096 133.753  1.00  0.00     0.011 C 
ENDROOT
BRANCH  20  31
ATOM     31  O   UNL     1     146.818 140.857 145.543  1.00  0.00    -0.393 OA
ATOM     32  H   UNL     1     146.497 140.829 144.604  1.00  0.00     0.210 HD
ENDBRANCH  20  31
TORSDOF 1
ENDMDL
MODEL 2
REMARK VINA RESULT:    -7.185      3.955      7.660
REMARK INTER + INTRA:          -7.395
REMARK INTER:                  -7.395
REMARK INTRA:                   0.000
REMARK UNBOUND:                 0.000
REMARK SMILES CC1(C)CC[C@@]2(C)CC[C@@]3(C)C(=CC[C@@H]4[C@@]5(C)CC[C@@H](O)C(C)(C)[C@H]5CC[C@@]43C)[C@@H]2C1
REMARK SMILES IDX 1 1 2 2 4 3 5 4 6 5 8 6 9 7 10 8 12 9 13 10 14 11 15 12
REMARK SMILES IDX 28 13 27 14 26 15 25 16 16 17 18 18 19 19 20 20 22 21 23 22
REMARK SMILES IDX 24 23 17 24 29 25 30 26 31 27 11 28 7 29 3 30 21 31
REMARK H PARENT 21 32
REMARK Flexibility Score: inf
ROOT
ATOM      1  C   UNL     1     151.046 140.148 142.444  1.00  0.00     0.011 C 
ATOM      2  C   UNL     1     149.578 139.737 142.186  1.00  0.00    -0.035 C 
ATOM      3  C   UNL     1     148.671 141.016 142.235  1.00  0.00     0.007 C 
ATOM      4  C   UNL     1     148.269 141.505 143.654  1.00  0.00     0.008 C 
ATOM      5  C   UNL     1     147.967 140.371 144.698  1.00  0.00    -0.026 C 
ATOM      6  C   UNL     1     146.648 140.647 145.517  1.00  0.00     0.008 C 
ATOM      7  C   UNL     1     145.425 139.811 145.065  1.00  0.00     0.012 C 
ATOM      8  C   UNL     1     145.643 138.220 145.059  1.00  0.00    -0.006 C 
ATOM      9  C   UNL     1     147.151 138.000 144.845  1.00  0.00    -0.064 C 
ATOM     10  C   UNL     1     147.909 137.304 145.695  1.00  0.00    -0.027 C 
ATOM     11  C   UNL     1     147.435 136.792 147.004  1.00  0.00     0.032 C 
ATOM     12  C   UNL     1     146.094 137.408 147.544  1.00  0.00     0.006 C 
ATOM     13  C   UNL     1     145.039 137.439 146.364  1.00  0.00    -0.020 C 
ATOM     14  C   UNL     1     144.708 135.942 146.067  1.00  0.00     0.008 C 
ATOM     15  C   UNL     1     144.246 135.126 147.292  1.00  0.00     0.005 C 
ATOM     16  C   UNL     1     145.167 135.162 148.553  1.00  0.00     0.003 C 
ATOM     17  C   UNL     1     145.670 136.631 148.892  1.00  0.00    -0.025 C 
ATOM     18  C   UNL     1     144.592 137.402 149.724  1.00  0.00     0.010 C 
ATOM     19  C   UNL     1     144.062 136.635 150.949  1.00  0.00     0.033 C 
ATOM     20  C   UNL     1     143.496 135.259 150.573  1.00  0.00     0.120 C 
ATOM     21  C   UNL     1     144.516 134.372 149.783  1.00  0.00    -0.006 C 
ATOM     22  C   UNL     1     143.788 133.080 149.306  1.00  0.00     0.014 C 
ATOM     23  C   UNL     1     145.615 133.853 150.758  1.00  0.00     0.014 C 
ATOM     24  C   UNL     1     146.947 136.590 149.805  1.00  0.00     0.012 C 
ATOM     25  C   UNL     1     143.695 138.139 146.747  1.00  0.00     0.012 C 
ATOM     26  C   UNL     1     147.829 139.017 143.937  1.00  0.00     0.022 C 
ATOM     27  C   UNL     1     149.127 138.623 143.206  1.00  0.00     0.015 C 
ATOM     28  C   UNL     1     144.939 137.679 143.771  1.00  0.00     0.017 C 
ATOM     29  C   UNL     1     149.127 140.345 145.737  1.00  0.00     0.012 C 
ATOM     30  C   UNL     1     149.505 139.158 140.755  1.00  0.00     0.011 C 
ENDROOT
BRANCH  20  31
ATOM     31  O   UNL     1     142.312 135.456 149.837  1.00  0.00    -0.393 OA
ATOM     32  H   UNL     1     142.449 135.063 148.936  1.00  0.00     0.210 HD
ENDBRANCH  20  31
TORSDOF 1
ENDMDL
MODEL 3
REMARK VINA RESULT:    -6.602      9.367     12.521
REMARK INTER + INTRA:          -6.795
REMARK INTER:                  -6.795
REMARK INTRA:                   0.000
REMARK UNBOUND:                 0.000
REMARK SMILES CC1(C)CC[C@@]2(C)CC[C@@]3(C)C(=CC[C@@H]4[C@@]5(C)CC[C@@H](O)C(C)(C)[C@H]5CC[C@@]43C)[C@@H]2C1
REMARK SMILES IDX 1 1 2 2 4 3 5 4 6 5 8 6 9 7 10 8 12 9 13 10 14 11 15 12
REMARK SMILES IDX 28 13 27 14 26 15 25 16 16 17 18 18 19 19 20 20 22 21 23 22
REMARK SMILES IDX 24 23 17 24 29 25 30 26 31 27 11 28 7 29 3 30 21 31
REMARK H PARENT 21 32
REMARK Flexibility Score: inf
ROOT
ATOM      1  C   UNL     1     147.236 134.461 149.459  1.00  0.00     0.011 C 
ATOM      2  C   UNL     1     146.865 135.028 148.070  1.00  0.00    -0.035 C 
ATOM      3  C   UNL     1     146.964 136.592 148.111  1.00  0.00     0.007 C 
ATOM      4  C   UNL     1     145.741 137.330 148.721  1.00  0.00     0.008 C 
ATOM      5  C   UNL     1     144.339 136.709 148.381  1.00  0.00    -0.026 C 
ATOM      6  C   UNL     1     143.288 137.803 147.947  1.00  0.00     0.008 C 
ATOM      7  C   UNL     1     143.026 137.871 146.423  1.00  0.00     0.012 C 
ATOM      8  C   UNL     1     142.566 136.491 145.740  1.00  0.00    -0.006 C 
ATOM      9  C   UNL     1     143.158 135.371 146.614  1.00  0.00    -0.064 C 
ATOM     10  C   UNL     1     142.409 134.421 147.179  1.00  0.00    -0.027 C 
ATOM     11  C   UNL     1     140.925 134.412 147.161  1.00  0.00     0.032 C 
ATOM     12  C   UNL     1     140.230 135.765 146.764  1.00  0.00     0.006 C 
ATOM     13  C   UNL     1     140.956 136.352 145.487  1.00  0.00    -0.020 C 
ATOM     14  C   UNL     1     140.615 135.363 144.326  1.00  0.00     0.008 C 
ATOM     15  C   UNL     1     139.109 135.103 144.121  1.00  0.00     0.005 C 
ATOM     16  C   UNL     1     138.291 134.657 145.373  1.00  0.00     0.003 C 
ATOM     17  C   UNL     1     138.639 135.520 146.661  1.00  0.00    -0.025 C 
ATOM     18  C   UNL     1     137.819 136.852 146.668  1.00  0.00     0.010 C 
ATOM     19  C   UNL     1     136.307 136.672 146.438  1.00  0.00     0.033 C 
ATOM     20  C   UNL     1     136.003 135.918 145.137  1.00  0.00     0.120 C 
ATOM     21  C   UNL     1     136.729 134.534 145.047  1.00  0.00    -0.006 C 
ATOM     22  C   UNL     1     136.491 133.938 143.628  1.00  0.00     0.014 C 
ATOM     23  C   UNL     1     136.035 133.522 146.007  1.00  0.00     0.014 C 
ATOM     24  C   UNL     1     138.216 134.768 147.973  1.00  0.00     0.012 C 
ATOM     25  C   UNL     1     140.427 137.760 145.060  1.00  0.00     0.012 C 
ATOM     26  C   UNL     1     144.518 135.679 147.225  1.00  0.00     0.022 C 
ATOM     27  C   UNL     1     145.444 134.512 147.622  1.00  0.00     0.015 C 
ATOM     28  C   UNL     1     143.308 136.406 144.366  1.00  0.00     0.017 C 
ATOM     29  C   UNL     1     143.772 136.050 149.673  1.00  0.00     0.012 C 
ATOM     30  C   UNL     1     147.920 134.512 147.064  1.00  0.00     0.011 C 
ENDROOT
BRANCH  20  31
ATOM     31  O   UNL     1     136.349 136.749 144.054  1.00  0.00    -0.393 OA
ATOM     32  H   UNL     1     137.320 136.944 144.122  1.00  0.00     0.210 HD
ENDBRANCH  20  31
TORSDOF 1
ENDMDL
MODEL 4
REMARK VINA RESULT:    -6.585      2.352      8.450
REMARK INTER + INTRA:          -6.778
REMARK INTER:                  -6.778
REMARK INTRA:                   0.000
REMARK UNBOUND:                 0.000
REMARK SMILES CC1(C)CC[C@@]2(C)CC[C@@]3(C)C(=CC[C@@H]4[C@@]5(C)CC[C@@H](O)C(C)(C)[C@H]5CC[C@@]43C)[C@@H]2C1
REMARK SMILES IDX 1 1 2 2 4 3 5 4 6 5 8 6 9 7 10 8 12 9 13 10 14 11 15 12
REMARK SMILES IDX 28 13 27 14 26 15 25 16 16 17 18 18 19 19 20 20 22 21 23 22
REMARK SMILES IDX 24 23 17 24 29 25 30 26 31 27 11 28 7 29 3 30 21 31
REMARK H PARENT 21 32
REMARK Flexibility Score: inf
ROOT
ATOM      1  C   UNL     1     146.192 136.997 147.806  1.00  0.00     0.011 C 
ATOM      2  C   UNL     1     147.667 136.821 147.374  1.00  0.00    -0.035 C 
ATOM      3  C   UNL     1     148.567 137.788 148.220  1.00  0.00     0.007 C 
ATOM      4  C   UNL     1     148.617 139.262 147.735  1.00  0.00     0.008 C 
ATOM      5  C   UNL     1     148.618 139.461 146.177  1.00  0.00    -0.026 C 
ATOM      6  C   UNL     1     149.699 140.510 145.707  1.00  0.00     0.008 C 
ATOM      7  C   UNL     1     150.973 139.884 145.088  1.00  0.00     0.012 C 
ATOM      8  C   UNL     1     150.720 138.893 143.849  1.00  0.00    -0.006 C 
ATOM      9  C   UNL     1     149.308 138.317 144.050  1.00  0.00    -0.064 C 
ATOM     10  C   UNL     1     148.343 138.428 143.133  1.00  0.00    -0.027 C 
ATOM     11  C   UNL     1     148.462 139.235 141.895  1.00  0.00     0.032 C 
ATOM     12  C   UNL     1     149.643 140.271 141.855  1.00  0.00     0.006 C 
ATOM     13  C   UNL     1     150.959 139.561 142.374  1.00  0.00    -0.020 C 
ATOM     14  C   UNL     1     151.313 138.499 141.285  1.00  0.00     0.008 C 
ATOM     15  C   UNL     1     151.432 139.058 139.852  1.00  0.00     0.005 C 
ATOM     16  C   UNL     1     150.228 139.896 139.317  1.00  0.00     0.003 C 
ATOM     17  C   UNL     1     149.697 140.942 140.389  1.00  0.00    -0.025 C 
ATOM     18  C   UNL     1     150.554 142.250 140.351  1.00  0.00     0.010 C 
ATOM     19  C   UNL     1     150.741 142.850 138.945  1.00  0.00     0.033 C 
ATOM     20  C   UNL     1     151.345 141.842 137.959  1.00  0.00     0.120 C 
ATOM     21  C   UNL     1     150.531 140.508 137.870  1.00  0.00    -0.006 C 
ATOM     22  C   UNL     1     151.320 139.501 136.981  1.00  0.00     0.014 C 
ATOM     23  C   UNL     1     149.210 140.760 137.083  1.00  0.00     0.014 C 
ATOM     24  C   UNL     1     148.232 141.397 140.051  1.00  0.00     0.012 C 
ATOM     25  C   UNL     1     152.184 140.525 142.491  1.00  0.00     0.012 C 
ATOM     26  C   UNL     1     148.905 138.086 145.500  1.00  0.00     0.022 C 
ATOM     27  C   UNL     1     147.819 137.040 145.821  1.00  0.00     0.015 C 
ATOM     28  C   UNL     1     151.708 137.694 144.030  1.00  0.00     0.017 C 
ATOM     29  C   UNL     1     147.236 140.045 145.760  1.00  0.00     0.012 C 
ATOM     30  C   UNL     1     148.078 135.371 147.714  1.00  0.00     0.011 C 
ENDROOT
BRANCH  20  31
ATOM     31  O   UNL     1     152.680 141.602 138.337  1.00  0.00    -0.393 OA
ATOM     32  H   UNL     1     152.682 140.837 138.969  1.00  0.00     0.210 HD
ENDBRANCH  20  31
TORSDOF 1
ENDMDL
MODEL 5
REMARK VINA RESULT:    -6.550      3.345      9.092
REMARK INTER + INTRA:          -6.741
REMARK INTER:                  -6.741
REMARK INTRA:                   0.000
REMARK UNBOUND:                 0.000
REMARK SMILES CC1(C)CC[C@@]2(C)CC[C@@]3(C)C(=CC[C@@H]4[C@@]5(C)CC[C@@H](O)C(C)(C)[C@H]5CC[C@@]43C)[C@@H]2C1
REMARK SMILES IDX 1 1 2 2 4 3 5 4 6 5 8 6 9 7 10 8 12 9 13 10 14 11 15 12
REMARK SMILES IDX 28 13 27 14 26 15 25 16 16 17 18 18 19 19 20 20 22 21 23 22
REMARK SMILES IDX 24 23 17 24 29 25 30 26 31 27 11 28 7 29 3 30 21 31
REMARK H PARENT 21 32
REMARK Flexibility Score: inf
ROOT
ATOM      1  C   UNL     1     139.673 135.334 143.776  1.00  0.00     0.011 C 
ATOM      2  C   UNL     1     140.860 135.482 144.755  1.00  0.00    -0.035 C 
ATOM      3  C   UNL     1     140.509 136.571 145.828  1.00  0.00     0.007 C 
ATOM      4  C   UNL     1     140.711 138.046 145.385  1.00  0.00     0.008 C 
ATOM      5  C   UNL     1     141.965 138.312 144.477  1.00  0.00    -0.026 C 
ATOM      6  C   UNL     1     142.783 139.579 144.941  1.00  0.00     0.008 C 
ATOM      7  C   UNL     1     144.084 139.254 145.715  1.00  0.00     0.012 C 
ATOM      8  C   UNL     1     145.117 138.290 144.950  1.00  0.00    -0.006 C 
ATOM      9  C   UNL     1     144.267 137.431 143.997  1.00  0.00    -0.064 C 
ATOM     10  C   UNL     1     144.478 137.386 142.679  1.00  0.00    -0.027 C 
ATOM     11  C   UNL     1     145.441 138.257 141.962  1.00  0.00     0.032 C 
ATOM     12  C   UNL     1     145.962 139.512 142.752  1.00  0.00     0.006 C 
ATOM     13  C   UNL     1     146.360 139.060 144.215  1.00  0.00    -0.020 C 
ATOM     14  C   UNL     1     147.612 138.143 144.038  1.00  0.00     0.008 C 
ATOM     15  C   UNL     1     148.773 138.780 143.246  1.00  0.00     0.005 C 
ATOM     16  C   UNL     1     148.428 139.380 141.846  1.00  0.00     0.003 C 
ATOM     17  C   UNL     1     147.096 140.246 141.872  1.00  0.00    -0.025 C 
ATOM     18  C   UNL     1     147.396 141.701 142.361  1.00  0.00     0.010 C 
ATOM     19  C   UNL     1     148.565 142.391 141.634  1.00  0.00     0.033 C 
ATOM     20  C   UNL     1     149.861 141.573 141.711  1.00  0.00     0.120 C 
ATOM     21  C   UNL     1     149.692 140.107 141.187  1.00  0.00    -0.006 C 
ATOM     22  C   UNL     1     151.008 139.323 141.469  1.00  0.00     0.014 C 
ATOM     23  C   UNL     1     149.581 140.122 139.633  1.00  0.00     0.014 C 
ATOM     24  C   UNL     1     146.505 140.410 140.426  1.00  0.00     0.012 C 
ATOM     25  C   UNL     1     146.787 140.246 145.140  1.00  0.00     0.012 C 
ATOM     26  C   UNL     1     142.888 137.057 144.522  1.00  0.00     0.022 C 
ATOM     27  C   UNL     1     142.190 135.799 143.970  1.00  0.00     0.015 C 
ATOM     28  C   UNL     1     145.690 137.309 146.025  1.00  0.00     0.017 C 
ATOM     29  C   UNL     1     141.464 138.622 143.035  1.00  0.00     0.012 C 
ATOM     30  C   UNL     1     141.026 134.131 145.487  1.00  0.00     0.011 C 
ENDROOT
BRANCH  20  31
ATOM     31  O   UNL     1     150.316 141.591 143.043  1.00  0.00    -0.393 OA
ATOM     32  H   UNL     1     150.676 142.498 143.226  1.00  0.00     0.210 HD
ENDBRANCH  20  31
TORSDOF 1
ENDMDL
MODEL 6
REMARK VINA RESULT:    -6.538      4.078     10.703
REMARK INTER + INTRA:          -6.729
REMARK INTER:                  -6.729
REMARK INTRA:                   0.000
REMARK UNBOUND:                 0.000
REMARK SMILES CC1(C)CC[C@@]2(C)CC[C@@]3(C)C(=CC[C@@H]4[C@@]5(C)CC[C@@H](O)C(C)(C)[C@H]5CC[C@@]43C)[C@@H]2C1
REMARK SMILES IDX 1 1 2 2 4 3 5 4 6 5 8 6 9 7 10 8 12 9 13 10 14 11 15 12
REMARK SMILES IDX 28 13 27 14 26 15 25 16 16 17 18 18 19 19 20 20 22 21 23 22
REMARK SMILES IDX 24 23 17 24 29 25 30 26 31 27 11 28 7 29 3 30 21 31
REMARK H PARENT 21 32
REMARK Flexibility Score: inf
ROOT
ATOM      1  C   UNL     1     141.734 134.610 149.215  1.00  0.00     0.011 C 
ATOM      2  C   UNL     1     143.236 134.246 149.248  1.00  0.00    -0.035 C 
ATOM      3  C   UNL     1     143.861 134.764 150.590  1.00  0.00     0.007 C 
ATOM      4  C   UNL     1     144.240 136.269 150.623  1.00  0.00     0.008 C 
ATOM      5  C   UNL     1     144.834 136.845 149.287  1.00  0.00    -0.026 C 
ATOM      6  C   UNL     1     146.116 137.731 149.534  1.00  0.00     0.008 C 
ATOM      7  C   UNL     1     147.454 137.029 149.195  1.00  0.00     0.012 C 
ATOM      8  C   UNL     1     147.570 136.453 147.700  1.00  0.00    -0.006 C 
ATOM      9  C   UNL     1     146.130 136.149 147.251  1.00  0.00    -0.064 C 
ATOM     10  C   UNL     1     145.586 136.683 146.154  1.00  0.00    -0.027 C 
ATOM     11  C   UNL     1     146.236 137.730 145.329  1.00  0.00     0.032 C 
ATOM     12  C   UNL     1     147.452 138.476 145.989  1.00  0.00     0.006 C 
ATOM     13  C   UNL     1     148.402 137.403 146.659  1.00  0.00    -0.020 C 
ATOM     14  C   UNL     1     149.016 136.595 145.471  1.00  0.00     0.008 C 
ATOM     15  C   UNL     1     149.711 137.456 144.396  1.00  0.00     0.005 C 
ATOM     16  C   UNL     1     148.883 138.631 143.787  1.00  0.00     0.003 C 
ATOM     17  C   UNL     1     148.109 139.464 144.898  1.00  0.00    -0.025 C 
ATOM     18  C   UNL     1     149.054 140.534 145.539  1.00  0.00     0.010 C 
ATOM     19  C   UNL     1     149.806 141.413 144.523  1.00  0.00     0.033 C 
ATOM     20  C   UNL     1     150.619 140.580 143.524  1.00  0.00     0.120 C 
ATOM     21  C   UNL     1     149.757 139.509 142.775  1.00  0.00    -0.006 C 
ATOM     22  C   UNL     1     150.706 138.614 141.922  1.00  0.00     0.014 C 
ATOM     23  C   UNL     1     148.852 140.217 141.722  1.00  0.00     0.014 C 
ATOM     24  C   UNL     1     146.928 140.282 144.264  1.00  0.00     0.012 C 
ATOM     25  C   UNL     1     149.594 138.032 147.451  1.00  0.00     0.012 C 
ATOM     26  C   UNL     1     145.201 135.654 148.352  1.00  0.00     0.022 C 
ATOM     27  C   UNL     1     143.970 134.809 147.971  1.00  0.00     0.015 C 
ATOM     28  C   UNL     1     148.290 135.068 147.812  1.00  0.00     0.017 C 
ATOM     29  C   UNL     1     143.771 137.788 148.649  1.00  0.00     0.012 C 
ATOM     30  C   UNL     1     143.339 132.705 149.240  1.00  0.00     0.011 C 
ENDROOT
BRANCH  20  31
ATOM     31  O   UNL     1     151.689 139.982 144.216  1.00  0.00    -0.393 OA
ATOM     32  H   UNL     1     152.102 140.678 144.792  1.00  0.00     0.210 HD
ENDBRANCH  20  31
TORSDOF 1
ENDMDL
MODEL 7
REMARK VINA RESULT:    -6.404      9.292     12.257
REMARK INTER + INTRA:          -6.591
REMARK INTER:                  -6.591
REMARK INTRA:                   0.000
REMARK UNBOUND:                 0.000
REMARK SMILES CC1(C)CC[C@@]2(C)CC[C@@]3(C)C(=CC[C@@H]4[C@@]5(C)CC[C@@H](O)C(C)(C)[C@H]5CC[C@@]43C)[C@@H]2C1
REMARK SMILES IDX 1 1 2 2 4 3 5 4 6 5 8 6 9 7 10 8 12 9 13 10 14 11 15 12
REMARK SMILES IDX 28 13 27 14 26 15 25 16 16 17 18 18 19 19 20 20 22 21 23 22
REMARK SMILES IDX 24 23 17 24 29 25 30 26 31 27 11 28 7 29 3 30 21 31
REMARK H PARENT 21 32
REMARK Flexibility Score: inf
ROOT
ATOM      1  C   UNL     1     137.759 142.367 147.207  1.00  0.00     0.011 C 
ATOM      2  C   UNL     1     139.010 141.539 147.580  1.00  0.00    -0.035 C 
ATOM      3  C   UNL     1     140.288 142.264 147.032  1.00  0.00     0.007 C 
ATOM      4  C   UNL     1     140.602 142.034 145.528  1.00  0.00     0.008 C 
ATOM      5  C   UNL     1     140.315 140.586 144.993  1.00  0.00    -0.026 C 
ATOM      6  C   UNL     1     141.497 140.027 144.110  1.00  0.00     0.008 C 
ATOM      7  C   UNL     1     142.404 138.999 144.829  1.00  0.00     0.012 C 
ATOM      8  C   UNL     1     141.645 137.724 145.446  1.00  0.00    -0.006 C 
ATOM      9  C   UNL     1     140.211 138.194 145.752  1.00  0.00    -0.064 C 
ATOM     10  C   UNL     1     139.130 137.596 145.244  1.00  0.00    -0.027 C 
ATOM     11  C   UNL     1     139.178 136.520 144.224  1.00  0.00     0.032 C 
ATOM     12  C   UNL     1     140.545 136.341 143.469  1.00  0.00     0.006 C 
ATOM     13  C   UNL     1     141.718 136.371 144.530  1.00  0.00    -0.020 C 
ATOM     14  C   UNL     1     141.545 135.067 145.373  1.00  0.00     0.008 C 
ATOM     15  C   UNL     1     141.487 133.766 144.546  1.00  0.00     0.005 C 
ATOM     16  C   UNL     1     140.448 133.713 143.382  1.00  0.00     0.003 C 
ATOM     17  C   UNL     1     140.446 135.045 142.514  1.00  0.00    -0.025 C 
ATOM     18  C   UNL     1     141.577 134.999 141.434  1.00  0.00     0.010 C 
ATOM     19  C   UNL     1     141.599 133.713 140.588  1.00  0.00     0.033 C 
ATOM     20  C   UNL     1     141.698 132.450 141.453  1.00  0.00     0.120 C 
ATOM     21  C   UNL     1     140.573 132.360 142.538  1.00  0.00    -0.006 C 
ATOM     22  C   UNL     1     140.868 131.141 143.462  1.00  0.00     0.014 C 
ATOM     23  C   UNL     1     139.221 132.002 141.852  1.00  0.00     0.014 C 
ATOM     24  C   UNL     1     139.107 135.185 141.706  1.00  0.00     0.012 C 
ATOM     25  C   UNL     1     143.142 136.317 143.889  1.00  0.00     0.012 C 
ATOM     26  C   UNL     1     140.089 139.640 146.211  1.00  0.00     0.022 C 
ATOM     27  C   UNL     1     138.871 140.058 147.057  1.00  0.00     0.015 C 
ATOM     28  C   UNL     1     142.311 137.438 146.833  1.00  0.00     0.017 C 
ATOM     29  C   UNL     1     139.069 140.650 144.060  1.00  0.00     0.012 C 
ATOM     30  C   UNL     1     139.104 141.513 149.123  1.00  0.00     0.011 C 
ENDROOT
BRANCH  20  31
ATOM     31  O   UNL     1     142.978 132.416 142.040  1.00  0.00    -0.393 OA
ATOM     32  H   UNL     1     142.926 132.902 142.904  1.00  0.00     0.210 HD
ENDBRANCH  20  31
TORSDOF 1
ENDMDL
MODEL 8
REMARK VINA RESULT:    -6.211      2.526      8.063
REMARK INTER + INTRA:          -6.393
REMARK INTER:                  -6.393
REMARK INTRA:                   0.000
REMARK UNBOUND:                 0.000
REMARK SMILES CC1(C)CC[C@@]2(C)CC[C@@]3(C)C(=CC[C@@H]4[C@@]5(C)CC[C@@H](O)C(C)(C)[C@H]5CC[C@@]43C)[C@@H]2C1
REMARK SMILES IDX 1 1 2 2 4 3 5 4 6 5 8 6 9 7 10 8 12 9 13 10 14 11 15 12
REMARK SMILES IDX 28 13 27 14 26 15 25 16 16 17 18 18 19 19 20 20 22 21 23 22
REMARK SMILES IDX 24 23 17 24 29 25 30 26 31 27 11 28 7 29 3 30 21 31
REMARK H PARENT 21 32
REMARK Flexibility Score: inf
ROOT
ATOM      1  C   UNL     1     147.085 138.529 145.326  1.00  0.00     0.011 C 
ATOM      2  C   UNL     1     148.552 138.403 144.857  1.00  0.00    -0.035 C 
ATOM      3  C   UNL     1     149.417 139.494 145.577  1.00  0.00     0.007 C 
ATOM      4  C   UNL     1     149.359 140.919 144.960  1.00  0.00     0.008 C 
ATOM      5  C   UNL     1     149.298 140.973 143.392  1.00  0.00    -0.026 C 
ATOM      6  C   UNL     1     150.295 142.036 142.790  1.00  0.00     0.008 C 
ATOM      7  C   UNL     1     151.585 141.433 142.181  1.00  0.00     0.012 C 
ATOM      8  C   UNL     1     151.355 140.319 141.046  1.00  0.00    -0.006 C 
ATOM      9  C   UNL     1     149.989 139.681 141.352  1.00  0.00    -0.064 C 
ATOM     10  C   UNL     1     148.990 139.650 140.466  1.00  0.00    -0.027 C 
ATOM     11  C   UNL     1     149.018 140.345 139.156  1.00  0.00     0.032 C 
ATOM     12  C   UNL     1     150.131 141.441 138.979  1.00  0.00     0.006 C 
ATOM     13  C   UNL     1     151.504 140.862 139.510  1.00  0.00    -0.020 C 
ATOM     14  C   UNL     1     151.888 139.727 138.508  1.00  0.00     0.008 C 
ATOM     15  C   UNL     1     151.927 140.158 137.027  1.00  0.00     0.005 C 
ATOM     16  C   UNL     1     150.656 140.870 136.465  1.00  0.00     0.003 C 
ATOM     17  C   UNL     1     150.095 141.977 137.458  1.00  0.00    -0.025 C 
ATOM     18  C   UNL     1     150.866 143.324 137.270  1.00  0.00     0.010 C 
ATOM     19  C   UNL     1     150.971 143.803 135.810  1.00  0.00     0.033 C 
ATOM     20  C   UNL     1     151.605 142.746 134.897  1.00  0.00     0.120 C 
ATOM     21  C   UNL     1     150.873 141.363 134.959  1.00  0.00    -0.006 C 
ATOM     22  C   UNL     1     151.694 140.328 134.135  1.00  0.00     0.014 C 
ATOM     23  C   UNL     1     149.514 141.463 134.202  1.00  0.00     0.014 C 
ATOM     24  C   UNL     1     148.595 142.310 137.136  1.00  0.00     0.012 C 
ATOM     25  C   UNL     1     152.670 141.903 139.493  1.00  0.00     0.012 C 
ATOM     26  C   UNL     1     149.648 139.561 142.831  1.00  0.00     0.022 C 
ATOM     27  C   UNL     1     148.641 138.486 143.285  1.00  0.00     0.015 C 
ATOM     28  C   UNL     1     152.421 139.202 141.298  1.00  0.00     0.017 C 
ATOM     29  C   UNL     1     147.869 141.433 142.976  1.00  0.00     0.012 C 
ATOM     30  C   UNL     1     149.064 137.017 145.309  1.00  0.00     0.011 C 
ENDROOT
BRANCH  20  31
ATOM     31  O   UNL     1     152.964 142.621 135.243  1.00  0.00    -0.393 OA
ATOM     32  H   UNL     1     153.053 141.827 135.833  1.00  0.00     0.210 HD
ENDBRANCH  20  31
TORSDOF 1
ENDMDL
MODEL 9
REMARK VINA RESULT:    -6.199     10.578     16.713
REMARK INTER + INTRA:          -6.380
REMARK INTER:                  -6.380
REMARK INTRA:                   0.000
REMARK UNBOUND:                 0.000
REMARK SMILES CC1(C)CC[C@@]2(C)CC[C@@]3(C)C(=CC[C@@H]4[C@@]5(C)CC[C@@H](O)C(C)(C)[C@H]5CC[C@@]43C)[C@@H]2C1
REMARK SMILES IDX 1 1 2 2 4 3 5 4 6 5 8 6 9 7 10 8 12 9 13 10 14 11 15 12
REMARK SMILES IDX 28 13 27 14 26 15 25 16 16 17 18 18 19 19 20 20 22 21 23 22
REMARK SMILES IDX 24 23 17 24 29 25 30 26 31 27 11 28 7 29 3 30 21 31
REMARK H PARENT 21 32
REMARK Flexibility Score: inf
ROOT
ATOM      1  C   UNL     1     135.359 130.333 151.412  1.00  0.00     0.011 C 
ATOM      2  C   UNL     1     134.662 131.536 150.736  1.00  0.00    -0.035 C 
ATOM      3  C   UNL     1     133.749 131.013 149.573  1.00  0.00     0.007 C 
ATOM      4  C   UNL     1     134.472 130.700 148.235  1.00  0.00     0.008 C 
ATOM      5  C   UNL     1     135.631 131.687 147.847  1.00  0.00    -0.026 C 
ATOM      6  C   UNL     1     135.557 132.135 146.337  1.00  0.00     0.008 C 
ATOM      7  C   UNL     1     134.998 133.563 146.118  1.00  0.00     0.012 C 
ATOM      8  C   UNL     1     135.763 134.731 146.911  1.00  0.00    -0.006 C 
ATOM      9  C   UNL     1     136.374 134.066 148.158  1.00  0.00    -0.064 C 
ATOM     10  C   UNL     1     137.680 134.108 148.434  1.00  0.00    -0.027 C 
ATOM     11  C   UNL     1     138.707 134.661 147.518  1.00  0.00     0.032 C 
ATOM     12  C   UNL     1     138.259 134.875 146.026  1.00  0.00     0.006 C 
ATOM     13  C   UNL     1     136.841 135.577 146.017  1.00  0.00    -0.020 C 
ATOM     14  C   UNL     1     137.088 137.014 146.578  1.00  0.00     0.008 C 
ATOM     15  C   UNL     1     138.183 137.815 145.843  1.00  0.00     0.005 C 
ATOM     16  C   UNL     1     139.576 137.127 145.684  1.00  0.00     0.003 C 
ATOM     17  C   UNL     1     139.452 135.610 145.226  1.00  0.00    -0.025 C 
ATOM     18  C   UNL     1     139.289 135.517 143.673  1.00  0.00     0.010 C 
ATOM     19  C   UNL     1     140.332 136.318 142.872  1.00  0.00     0.033 C 
ATOM     20  C   UNL     1     140.359 137.799 143.272  1.00  0.00     0.120 C 
ATOM     21  C   UNL     1     140.577 138.015 144.807  1.00  0.00    -0.006 C 
ATOM     22  C   UNL     1     140.416 139.532 145.124  1.00  0.00     0.014 C 
ATOM     23  C   UNL     1     142.061 137.705 145.167  1.00  0.00     0.014 C 
ATOM     24  C   UNL     1     140.766 134.817 145.553  1.00  0.00     0.012 C 
ATOM     25  C   UNL     1     136.234 135.741 144.586  1.00  0.00     0.012 C 
ATOM     26  C   UNL     1     135.542 132.944 148.764  1.00  0.00     0.022 C 
ATOM     27  C   UNL     1     135.726 132.595 150.254  1.00  0.00     0.015 C 
ATOM     28  C   UNL     1     134.661 135.708 147.438  1.00  0.00     0.017 C 
ATOM     29  C   UNL     1     136.985 130.934 148.011  1.00  0.00     0.012 C 
ATOM     30  C   UNL     1     133.750 132.196 151.795  1.00  0.00     0.011 C 
ENDROOT
BRANCH  20  31
ATOM     31  O   UNL     1     139.159 138.395 142.837  1.00  0.00    -0.393 OA
ATOM     32  H   UNL     1     139.131 139.317 143.203  1.00  0.00     0.210 HD
ENDBRANCH  20  31
TORSDOF 1
ENDMDL
