MODEL 1
REMARK VINA RESULT:    -4.651      0.000      0.000
REMARK INTER + INTRA:          -8.756
REMARK INTER:                  -7.098
REMARK INTRA:                  -1.658
REMARK UNBOUND:                -1.658
REMARK SMILES OC[C@@H]1O[C@@H](O[C@]2(CO)O[C@@H](CO)[C@H](O)[C@H]2O)[C@@H](O)[C@H](O)[C@H]1O
REMARK SMILES IDX 6 1 5 2 3 3 22 4 4 5 20 6 18 7 2 8 1 9 23 11 21 13 19 15
REMARK SMILES IDX 7 17 16 18 10 19 14 20 11 21 8 22 9 23 17 25 15 27 12 29
REMARK SMILES IDX 13 30
REMARK H PARENT 1 10 23 12 21 14 19 16 9 24 17 26 15 28 13 31
REMARK Flexibility Score: inf
ROOT
ATOM      1  O   UNL     1     162.478 175.065 178.649  1.00  0.00    -0.313 OA
ENDROOT
BRANCH   1   2
ATOM      2  C   UNL     1     161.433 175.057 179.615  1.00  0.00     0.285 C 
ATOM      3  C   UNL     1     162.565 173.494 180.961  1.00  0.00     0.178 C 
ATOM      4  C   UNL     1     161.551 172.366 180.666  1.00  0.00     0.177 C 
ATOM      5  O   UNL     1     161.930 174.763 180.914  1.00  0.00    -0.341 OA
ATOM      6  C   UNL     1     160.893 172.611 179.293  1.00  0.00     0.179 C 
ATOM      7  C   UNL     1     160.344 174.045 179.208  1.00  0.00     0.202 C 
BRANCH   3   8
ATOM      8  C   UNL     1     163.183 173.315 182.356  1.00  0.00     0.191 C 
BRANCH   8   9
ATOM      9  O   UNL     1     162.374 172.489 183.150  1.00  0.00    -0.394 OA
ATOM     10  H   UNL     1     161.775 173.090 183.667  1.00  0.00     0.210 HD
ENDBRANCH   8   9
ENDBRANCH   3   8
BRANCH   4  11
ATOM     11  O   UNL     1     162.214 171.127 180.657  1.00  0.00    -0.387 OA
ATOM     12  H   UNL     1     162.458 170.923 181.598  1.00  0.00     0.211 HD
ENDBRANCH   4  11
BRANCH   6  13
ATOM     13  O   UNL     1     159.875 171.673 179.046  1.00  0.00    -0.387 OA
ATOM     14  H   UNL     1     160.255 170.768 179.203  1.00  0.00     0.211 HD
ENDBRANCH   6  13
BRANCH   7  15
ATOM     15  O   UNL     1     159.907 174.302 177.898  1.00  0.00    -0.385 OA
ATOM     16  H   UNL     1     159.283 173.569 177.656  1.00  0.00     0.211 HD
ENDBRANCH   7  15
ENDBRANCH   1   2
BRANCH   1  17
ATOM     17  C   UNL     1     162.777 176.361 178.138  1.00  0.00     0.224 C 
ATOM     18  C   UNL     1     161.613 177.335 178.434  1.00  0.00     0.208 C 
ATOM     19  O   UNL     1     163.968 176.893 178.704  1.00  0.00    -0.337 OA
ATOM     20  C   UNL     1     162.332 178.642 178.659  1.00  0.00     0.180 C 
ATOM     21  C   UNL     1     163.696 178.193 179.185  1.00  0.00     0.179 C 
BRANCH  17  22
ATOM     22  C   UNL     1     163.041 176.207 176.624  1.00  0.00     0.225 C 
BRANCH  22  23
ATOM     23  O   UNL     1     162.145 175.289 176.056  1.00  0.00    -0.391 OA
ATOM     24  H   UNL     1     162.635 174.851 175.313  1.00  0.00     0.210 HD
ENDBRANCH  22  23
ENDBRANCH  17  22
BRANCH  18  25
ATOM     25  O   UNL     1     160.694 177.431 177.375  1.00  0.00    -0.385 OA
ATOM     26  H   UNL     1     161.161 177.905 176.637  1.00  0.00     0.211 HD
ENDBRANCH  18  25
BRANCH  20  27
ATOM     27  O   UNL     1     161.655 179.486 179.560  1.00  0.00    -0.387 OA
ATOM     28  H   UNL     1     162.025 180.404 179.468  1.00  0.00     0.211 HD
ENDBRANCH  20  27
BRANCH  21  29
ATOM     29  C   UNL     1     164.825 179.148 178.781  1.00  0.00     0.191 C 
BRANCH  29  30
ATOM     30  O   UNL     1     164.732 179.466 177.420  1.00  0.00    -0.394 OA
ATOM     31  H   UNL     1     165.584 179.916 177.184  1.00  0.00     0.210 HD
ENDBRANCH  29  30
ENDBRANCH  21  29
ENDBRANCH   1  17
TORSDOF 13
ENDMDL
MODEL 2
REMARK VINA RESULT:    -4.599     10.176     13.446
REMARK INTER + INTRA:          -8.677
REMARK INTER:                  -7.153
REMARK INTRA:                  -1.524
REMARK UNBOUND:                -1.658
REMARK SMILES OC[C@@H]1O[C@@H](O[C@]2(CO)O[C@@H](CO)[C@H](O)[C@H]2O)[C@@H](O)[C@H](O)[C@H]1O
REMARK SMILES IDX 6 1 5 2 3 3 22 4 4 5 20 6 18 7 2 8 1 9 23 11 21 13 19 15
REMARK SMILES IDX 7 17 16 18 10 19 14 20 11 21 8 22 9 23 17 25 15 27 12 29
REMARK SMILES IDX 13 30
REMARK H PARENT 1 10 23 12 21 14 19 16 9 24 17 26 15 28 13 31
REMARK Flexibility Score: inf
ROOT
ATOM      1  O   UNL     1     174.309 177.622 177.257  1.00  0.00    -0.313 OA
ENDROOT
BRANCH   1   2
ATOM      2  C   UNL     1     174.255 178.940 176.722  1.00  0.00     0.285 C 
ATOM      3  C   UNL     1     172.009 179.208 177.370  1.00  0.00     0.178 C 
ATOM      4  C   UNL     1     171.490 179.190 175.915  1.00  0.00     0.177 C 
ATOM      5  O   UNL     1     173.321 179.747 177.427  1.00  0.00    -0.341 OA
ATOM      6  C   UNL     1     172.464 178.386 175.030  1.00  0.00     0.179 C 
ATOM      7  C   UNL     1     173.905 178.888 175.223  1.00  0.00     0.202 C 
BRANCH   3   8
ATOM      8  C   UNL     1     171.096 180.065 178.260  1.00  0.00     0.191 C 
BRANCH   8   9
ATOM      9  O   UNL     1     169.930 179.360 178.591  1.00  0.00    -0.394 OA
ATOM     10  H   UNL     1     170.060 178.428 178.272  1.00  0.00     0.210 HD
ENDBRANCH   8   9
ENDBRANCH   3   8
BRANCH   4  11
ATOM     11  O   UNL     1     170.216 178.597 175.875  1.00  0.00    -0.387 OA
ATOM     12  H   UNL     1     169.601 179.262 175.469  1.00  0.00     0.211 HD
ENDBRANCH   4  11
BRANCH   6  13
ATOM     13  O   UNL     1     172.090 178.453 173.676  1.00  0.00    -0.387 OA
ATOM     14  H   UNL     1     172.753 177.928 173.154  1.00  0.00     0.211 HD
ENDBRANCH   6  13
BRANCH   7  15
ATOM     15  O   UNL     1     174.792 178.034 174.546  1.00  0.00    -0.385 OA
ATOM     16  H   UNL     1     174.664 178.200 173.575  1.00  0.00     0.211 HD
ENDBRANCH   7  15
ENDBRANCH   1   2
BRANCH   1  17
ATOM     17  C   UNL     1     175.349 177.433 178.213  1.00  0.00     0.224 C 
ATOM     18  C   UNL     1     176.585 178.282 177.835  1.00  0.00     0.208 C 
ATOM     19  O   UNL     1     174.935 177.795 179.525  1.00  0.00    -0.337 OA
ATOM     20  C   UNL     1     177.140 178.668 179.183  1.00  0.00     0.180 C 
ATOM     21  C   UNL     1     175.896 178.674 180.073  1.00  0.00     0.179 C 
BRANCH  17  22
ATOM     22  C   UNL     1     175.666 175.923 178.254  1.00  0.00     0.225 C 
BRANCH  22  23
ATOM     23  O   UNL     1     175.704 175.390 176.957  1.00  0.00    -0.391 OA
ATOM     24  H   UNL     1     174.841 174.918 176.828  1.00  0.00     0.210 HD
ENDBRANCH  22  23
ENDBRANCH  17  22
BRANCH  18  25
ATOM     25  O   UNL     1     177.529 177.569 177.077  1.00  0.00    -0.385 OA
ATOM     26  H   UNL     1     178.329 177.455 177.656  1.00  0.00     0.211 HD
ENDBRANCH  18  25
BRANCH  20  27
ATOM     27  O   UNL     1     177.797 179.912 179.164  1.00  0.00    -0.387 OA
ATOM     28  H   UNL     1     178.741 179.773 179.442  1.00  0.00     0.211 HD
ENDBRANCH  20  27
BRANCH  21  29
ATOM     29  C   UNL     1     176.206 178.273 181.520  1.00  0.00     0.191 C 
BRANCH  29  30
ATOM     30  O   UNL     1     177.148 179.147 182.078  1.00  0.00    -0.394 OA
ATOM     31  H   UNL     1     177.977 179.033 181.545  1.00  0.00     0.210 HD
ENDBRANCH  29  30
ENDBRANCH  21  29
ENDBRANCH   1  17
TORSDOF 13
ENDMDL
MODEL 3
REMARK VINA RESULT:    -4.566     10.001     13.081
REMARK INTER + INTRA:          -8.626
REMARK INTER:                  -6.994
REMARK INTRA:                  -1.633
REMARK UNBOUND:                -1.658
REMARK SMILES OC[C@@H]1O[C@@H](O[C@]2(CO)O[C@@H](CO)[C@H](O)[C@H]2O)[C@@H](O)[C@H](O)[C@H]1O
REMARK SMILES IDX 6 1 5 2 3 3 22 4 4 5 20 6 18 7 2 8 1 9 23 11 21 13 19 15
REMARK SMILES IDX 7 17 16 18 10 19 14 20 11 21 8 22 9 23 17 25 15 27 12 29
REMARK SMILES IDX 13 30
REMARK H PARENT 1 10 23 12 21 14 19 16 9 24 17 26 15 28 13 31
REMARK Flexibility Score: inf
ROOT
ATOM      1  O   UNL     1     173.674 177.380 177.663  1.00  0.00    -0.313 OA
ENDROOT
BRANCH   1   2
ATOM      2  C   UNL     1     173.877 178.786 177.756  1.00  0.00     0.285 C 
ATOM      3  C   UNL     1     172.107 179.031 179.287  1.00  0.00     0.178 C 
ATOM      4  C   UNL     1     171.213 179.784 178.276  1.00  0.00     0.177 C 
ATOM      5  O   UNL     1     173.479 179.283 179.027  1.00  0.00    -0.341 OA
ATOM      6  C   UNL     1     171.596 179.368 176.841  1.00  0.00     0.179 C 
ATOM      7  C   UNL     1     173.113 179.506 176.628  1.00  0.00     0.202 C 
BRANCH   3   8
ATOM      8  C   UNL     1     171.796 179.480 180.722  1.00  0.00     0.191 C 
BRANCH   8   9
ATOM      9  O   UNL     1     170.661 178.818 181.211  1.00  0.00    -0.394 OA
ATOM     10  H   UNL     1     170.193 179.460 181.808  1.00  0.00     0.210 HD
ENDBRANCH   8   9
ENDBRANCH   3   8
BRANCH   4  11
ATOM     11  O   UNL     1     169.864 179.470 178.514  1.00  0.00    -0.387 OA
ATOM     12  H   UNL     1     169.403 180.323 178.729  1.00  0.00     0.211 HD
ENDBRANCH   4  11
BRANCH   6  13
ATOM     13  O   UNL     1     170.889 180.125 175.890  1.00  0.00    -0.387 OA
ATOM     14  H   UNL     1     171.361 180.034 175.020  1.00  0.00     0.211 HD
ENDBRANCH   6  13
BRANCH   7  15
ATOM     15  O   UNL     1     173.461 178.961 175.380  1.00  0.00    -0.385 OA
ATOM     16  H   UNL     1     172.748 179.227 174.743  1.00  0.00     0.211 HD
ENDBRANCH   7  15
ENDBRANCH   1   2
BRANCH   1  17
ATOM     17  C   UNL     1     174.880 176.622 177.722  1.00  0.00     0.224 C 
ATOM     18  C   UNL     1     176.106 177.556 177.599  1.00  0.00     0.208 C 
ATOM     19  O   UNL     1     174.986 175.890 178.937  1.00  0.00    -0.337 OA
ATOM     20  C   UNL     1     177.123 176.874 178.481  1.00  0.00     0.180 C 
ATOM     21  C   UNL     1     176.251 176.153 179.510  1.00  0.00     0.179 C 
BRANCH  17  22
ATOM     22  C   UNL     1     174.821 175.579 176.585  1.00  0.00     0.225 C 
BRANCH  22  23
ATOM     23  O   UNL     1     174.506 176.194 175.364  1.00  0.00    -0.391 OA
ATOM     24  H   UNL     1     174.576 175.486 174.673  1.00  0.00     0.210 HD
ENDBRANCH  22  23
ENDBRANCH  17  22
BRANCH  18  25
ATOM     25  O   UNL     1     176.573 177.678 176.279  1.00  0.00    -0.385 OA
ATOM     26  H   UNL     1     175.775 177.845 175.711  1.00  0.00     0.211 HD
ENDBRANCH  18  25
BRANCH  20  27
ATOM     27  O   UNL     1     178.022 177.781 179.074  1.00  0.00    -0.387 OA
ATOM     28  H   UNL     1     178.427 177.346 179.870  1.00  0.00     0.211 HD
ENDBRANCH  20  27
BRANCH  21  29
ATOM     29  C   UNL     1     176.883 174.847 180.004  1.00  0.00     0.191 C 
BRANCH  29  30
ATOM     30  O   UNL     1     178.208 174.747 179.559  1.00  0.00    -0.394 OA
ATOM     31  H   UNL     1     178.578 175.667 179.587  1.00  0.00     0.210 HD
ENDBRANCH  29  30
ENDBRANCH  21  29
ENDBRANCH   1  17
TORSDOF 13
ENDMDL
MODEL 4
REMARK VINA RESULT:    -4.537      9.676     12.373
REMARK INTER + INTRA:          -8.581
REMARK INTER:                  -7.312
REMARK INTRA:                  -1.269
REMARK UNBOUND:                -1.658
REMARK SMILES OC[C@@H]1O[C@@H](O[C@]2(CO)O[C@@H](CO)[C@H](O)[C@H]2O)[C@@H](O)[C@H](O)[C@H]1O
REMARK SMILES IDX 6 1 5 2 3 3 22 4 4 5 20 6 18 7 2 8 1 9 23 11 21 13 19 15
REMARK SMILES IDX 7 17 16 18 10 19 14 20 11 21 8 22 9 23 17 25 15 27 12 29
REMARK SMILES IDX 13 30
REMARK H PARENT 1 10 23 12 21 14 19 16 9 24 17 26 15 28 13 31
REMARK Flexibility Score: inf
ROOT
ATOM      1  O   UNL     1     173.401 176.586 179.467  1.00  0.00    -0.313 OA
ENDROOT
BRANCH   1   2
ATOM      2  C   UNL     1     174.446 176.554 180.432  1.00  0.00     0.285 C 
ATOM      3  C   UNL     1     176.095 176.909 178.792  1.00  0.00     0.178 C 
ATOM      4  C   UNL     1     176.672 175.482 178.931  1.00  0.00     0.177 C 
ATOM      5  O   UNL     1     175.550 177.351 180.026  1.00  0.00    -0.341 OA
ATOM      6  C   UNL     1     175.570 174.527 179.430  1.00  0.00     0.179 C 
ATOM      7  C   UNL     1     174.889 175.100 180.684  1.00  0.00     0.202 C 
BRANCH   3   8
ATOM      8  C   UNL     1     177.191 177.897 178.366  1.00  0.00     0.191 C 
BRANCH   8   9
ATOM      9  O   UNL     1     177.619 177.624 177.058  1.00  0.00    -0.394 OA
ATOM     10  H   UNL     1     176.799 177.494 176.512  1.00  0.00     0.210 HD
ENDBRANCH   8   9
ENDBRANCH   3   8
BRANCH   4  11
ATOM     11  O   UNL     1     177.148 175.043 177.683  1.00  0.00    -0.387 OA
ATOM     12  H   UNL     1     177.068 175.810 177.057  1.00  0.00     0.211 HD
ENDBRANCH   4  11
BRANCH   6  13
ATOM     13  O   UNL     1     176.089 173.246 179.686  1.00  0.00    -0.387 OA
ATOM     14  H   UNL     1     175.472 172.582 179.277  1.00  0.00     0.211 HD
ENDBRANCH   6  13
BRANCH   7  15
ATOM     15  O   UNL     1     173.779 174.305 181.019  1.00  0.00    -0.385 OA
ATOM     16  H   UNL     1     174.087 173.362 181.000  1.00  0.00     0.211 HD
ENDBRANCH   7  15
ENDBRANCH   1   2
BRANCH   1  17
ATOM     17  C   UNL     1     172.331 177.465 179.809  1.00  0.00     0.224 C 
ATOM     18  C   UNL     1     172.546 178.850 179.156  1.00  0.00     0.208 C 
ATOM     19  O   UNL     1     171.072 176.954 179.387  1.00  0.00    -0.337 OA
ATOM     20  C   UNL     1     171.134 179.290 178.857  1.00  0.00     0.180 C 
ATOM     21  C   UNL     1     170.399 177.964 178.663  1.00  0.00     0.179 C 
BRANCH  17  22
ATOM     22  C   UNL     1     172.279 177.545 181.350  1.00  0.00     0.225 C 
BRANCH  22  23
ATOM     23  O   UNL     1     171.223 176.768 181.850  1.00  0.00    -0.391 OA
ATOM     24  H   UNL     1     171.600 175.865 182.015  1.00  0.00     0.210 HD
ENDBRANCH  22  23
ENDBRANCH  17  22
BRANCH  18  25
ATOM     25  O   UNL     1     173.198 179.761 180.003  1.00  0.00    -0.385 OA
ATOM     26  H   UNL     1     173.409 180.560 179.452  1.00  0.00     0.211 HD
ENDBRANCH  18  25
BRANCH  20  27
ATOM     27  O   UNL     1     171.054 180.124 177.726  1.00  0.00    -0.387 OA
ATOM     28  H   UNL     1     170.914 179.553 176.925  1.00  0.00     0.211 HD
ENDBRANCH  20  27
BRANCH  21  29
ATOM     29  C   UNL     1     168.932 178.035 179.105  1.00  0.00     0.191 C 
BRANCH  29  30
ATOM     30  O   UNL     1     168.455 179.348 179.006  1.00  0.00    -0.394 OA
ATOM     31  H   UNL     1     168.021 179.417 178.117  1.00  0.00     0.210 HD
ENDBRANCH  29  30
ENDBRANCH  21  29
ENDBRANCH   1  17
TORSDOF 13
ENDMDL
MODEL 5
REMARK VINA RESULT:    -4.529      2.027      2.833
REMARK INTER + INTRA:          -8.569
REMARK INTER:                  -7.009
REMARK INTRA:                  -1.560
REMARK UNBOUND:                -1.658
REMARK SMILES OC[C@@H]1O[C@@H](O[C@]2(CO)O[C@@H](CO)[C@H](O)[C@H]2O)[C@@H](O)[C@H](O)[C@H]1O
REMARK SMILES IDX 6 1 5 2 3 3 22 4 4 5 20 6 18 7 2 8 1 9 23 11 21 13 19 15
REMARK SMILES IDX 7 17 16 18 10 19 14 20 11 21 8 22 9 23 17 25 15 27 12 29
REMARK SMILES IDX 13 30
REMARK H PARENT 1 10 23 12 21 14 19 16 9 24 17 26 15 28 13 31
REMARK Flexibility Score: inf
ROOT
ATOM      1  O   UNL     1     163.407 175.681 177.979  1.00  0.00    -0.313 OA
ENDROOT
BRANCH   1   2
ATOM      2  C   UNL     1     162.158 176.353 178.109  1.00  0.00     0.285 C 
ATOM      3  C   UNL     1     161.304 174.680 179.526  1.00  0.00     0.178 C 
ATOM      4  C   UNL     1     160.294 174.173 178.473  1.00  0.00     0.177 C 
ATOM      5  O   UNL     1     161.546 176.069 179.360  1.00  0.00    -0.341 OA
ATOM      6  C   UNL     1     160.825 174.484 177.059  1.00  0.00     0.179 C 
ATOM      7  C   UNL     1     161.225 175.964 176.947  1.00  0.00     0.202 C 
BRANCH   3   8
ATOM      8  C   UNL     1     160.766 174.450 180.946  1.00  0.00     0.191 C 
BRANCH   8   9
ATOM      9  O   UNL     1     160.081 175.585 181.403  1.00  0.00    -0.394 OA
ATOM     10  H   UNL     1     159.194 175.272 181.724  1.00  0.00     0.210 HD
ENDBRANCH   8   9
ENDBRANCH   3   8
BRANCH   4  11
ATOM     11  O   UNL     1     160.118 172.786 178.617  1.00  0.00    -0.387 OA
ATOM     12  H   UNL     1     160.779 172.480 179.292  1.00  0.00     0.211 HD
ENDBRANCH   4  11
BRANCH   6  13
ATOM     13  O   UNL     1     159.875 174.148 176.077  1.00  0.00    -0.387 OA
ATOM     14  H   UNL     1     159.383 174.978 175.838  1.00  0.00     0.211 HD
ENDBRANCH   6  13
BRANCH   7  15
ATOM     15  O   UNL     1     161.864 176.184 175.715  1.00  0.00    -0.385 OA
ATOM     16  H   UNL     1     162.606 176.821 175.888  1.00  0.00     0.211 HD
ENDBRANCH   7  15
ENDBRANCH   1   2
BRANCH   1  17
ATOM     17  C   UNL     1     164.522 176.562 177.865  1.00  0.00     0.224 C 
ATOM     18  C   UNL     1     164.040 178.005 177.591  1.00  0.00     0.208 C 
ATOM     19  O   UNL     1     165.316 176.565 179.045  1.00  0.00    -0.337 OA
ATOM     20  C   UNL     1     165.067 178.835 178.320  1.00  0.00     0.180 C 
ATOM     21  C   UNL     1     165.518 177.904 179.447  1.00  0.00     0.179 C 
BRANCH  17  22
ATOM     22  C   UNL     1     165.420 176.019 176.733  1.00  0.00     0.225 C 
BRANCH  22  23
ATOM     23  O   UNL     1     164.655 175.706 175.600  1.00  0.00    -0.391 OA
ATOM     24  H   UNL     1     165.217 175.106 175.045  1.00  0.00     0.210 HD
ENDBRANCH  22  23
ENDBRANCH  17  22
BRANCH  18  25
ATOM     25  O   UNL     1     164.003 178.321 176.223  1.00  0.00    -0.385 OA
ATOM     26  H   UNL     1     163.182 178.864 176.079  1.00  0.00     0.211 HD
ENDBRANCH  18  25
BRANCH  20  27
ATOM     27  O   UNL     1     164.543 180.050 178.799  1.00  0.00    -0.387 OA
ATOM     28  H   UNL     1     164.690 180.090 179.781  1.00  0.00     0.211 HD
ENDBRANCH  20  27
BRANCH  21  29
ATOM     29  C   UNL     1     166.986 178.119 179.835  1.00  0.00     0.191 C 
BRANCH  29  30
ATOM     30  O   UNL     1     167.451 179.341 179.331  1.00  0.00    -0.394 OA
ATOM     31  H   UNL     1     168.170 179.115 178.686  1.00  0.00     0.210 HD
ENDBRANCH  29  30
ENDBRANCH  21  29
ENDBRANCH   1  17
TORSDOF 13
ENDMDL
MODEL 6
REMARK VINA RESULT:    -4.525      8.687     11.391
REMARK INTER + INTRA:          -8.564
REMARK INTER:                  -6.996
REMARK INTRA:                  -1.568
REMARK UNBOUND:                -1.658
REMARK SMILES OC[C@@H]1O[C@@H](O[C@]2(CO)O[C@@H](CO)[C@H](O)[C@H]2O)[C@@H](O)[C@H](O)[C@H]1O
REMARK SMILES IDX 6 1 5 2 3 3 22 4 4 5 20 6 18 7 2 8 1 9 23 11 21 13 19 15
REMARK SMILES IDX 7 17 16 18 10 19 14 20 11 21 8 22 9 23 17 25 15 27 12 29
REMARK SMILES IDX 13 30
REMARK H PARENT 1 10 23 12 21 14 19 16 9 24 17 26 15 28 13 31
REMARK Flexibility Score: inf
ROOT
ATOM      1  O   UNL     1     172.319 177.750 178.598  1.00  0.00    -0.313 OA
ENDROOT
BRANCH   1   2
ATOM      2  C   UNL     1     172.113 178.774 179.565  1.00  0.00     0.285 C 
ATOM      3  C   UNL     1     170.937 177.316 180.990  1.00  0.00     0.178 C 
ATOM      4  C   UNL     1     169.586 178.029 180.757  1.00  0.00     0.177 C 
ATOM      5  O   UNL     1     172.014 178.235 180.877  1.00  0.00    -0.341 OA
ATOM      6  C   UNL     1     169.596 178.712 179.375  1.00  0.00     0.179 C 
ATOM      7  C   UNL     1     170.851 179.586 179.215  1.00  0.00     0.202 C 
BRANCH   3   8
ATOM      8  C   UNL     1     170.983 176.689 182.391  1.00  0.00     0.191 C 
BRANCH   8   9
ATOM      9  O   UNL     1     172.204 176.029 182.596  1.00  0.00    -0.394 OA
ATOM     10  H   UNL     1     172.900 176.574 182.142  1.00  0.00     0.210 HD
ENDBRANCH   8   9
ENDBRANCH   3   8
BRANCH   4  11
ATOM     11  O   UNL     1     168.542 177.090 180.813  1.00  0.00    -0.387 OA
ATOM     12  H   UNL     1     168.811 176.325 180.238  1.00  0.00     0.211 HD
ENDBRANCH   4  11
BRANCH   6  13
ATOM     13  O   UNL     1     168.430 179.474 179.179  1.00  0.00    -0.387 OA
ATOM     14  H   UNL     1     168.114 179.309 178.252  1.00  0.00     0.211 HD
ENDBRANCH   6  13
BRANCH   7  15
ATOM     15  O   UNL     1     170.928 180.057 177.893  1.00  0.00    -0.385 OA
ATOM     16  H   UNL     1     170.486 179.377 177.321  1.00  0.00     0.211 HD
ENDBRANCH   7  15
ENDBRANCH   1   2
BRANCH   1  17
ATOM     17  C   UNL     1     173.585 177.824 177.946  1.00  0.00     0.224 C 
ATOM     18  C   UNL     1     174.229 179.209 178.183  1.00  0.00     0.208 C 
ATOM     19  O   UNL     1     174.480 176.821 178.413  1.00  0.00    -0.337 OA
ATOM     20  C   UNL     1     175.700 178.877 178.247  1.00  0.00     0.180 C 
ATOM     21  C   UNL     1     175.700 177.439 178.768  1.00  0.00     0.179 C 
BRANCH  17  22
ATOM     22  C   UNL     1     173.346 177.537 176.448  1.00  0.00     0.225 C 
BRANCH  22  23
ATOM     23  O   UNL     1     172.179 178.173 176.002  1.00  0.00    -0.391 OA
ATOM     24  H   UNL     1     172.320 178.364 175.039  1.00  0.00     0.210 HD
ENDBRANCH  22  23
ENDBRANCH  17  22
BRANCH  18  25
ATOM     25  O   UNL     1     173.956 180.125 177.154  1.00  0.00    -0.385 OA
ATOM     26  H   UNL     1     174.317 179.728 176.317  1.00  0.00     0.211 HD
ENDBRANCH  18  25
BRANCH  20  27
ATOM     27  O   UNL     1     176.419 179.754 179.081  1.00  0.00    -0.387 OA
ATOM     28  H   UNL     1     175.770 180.260 179.638  1.00  0.00     0.211 HD
ENDBRANCH  20  27
BRANCH  21  29
ATOM     29  C   UNL     1     176.878 176.619 178.228  1.00  0.00     0.191 C 
BRANCH  29  30
ATOM     30  O   UNL     1     177.633 177.382 177.328  1.00  0.00    -0.394 OA
ATOM     31  H   UNL     1     176.981 177.926 176.815  1.00  0.00     0.210 HD
ENDBRANCH  29  30
ENDBRANCH  21  29
ENDBRANCH   1  17
TORSDOF 13
ENDMDL
MODEL 7
REMARK VINA RESULT:    -4.508     16.927     19.052
REMARK INTER + INTRA:          -8.538
REMARK INTER:                  -7.207
REMARK INTRA:                  -1.331
REMARK UNBOUND:                -1.658
REMARK SMILES OC[C@@H]1O[C@@H](O[C@]2(CO)O[C@@H](CO)[C@H](O)[C@H]2O)[C@@H](O)[C@H](O)[C@H]1O
REMARK SMILES IDX 6 1 5 2 3 3 22 4 4 5 20 6 18 7 2 8 1 9 23 11 21 13 19 15
REMARK SMILES IDX 7 17 16 18 10 19 14 20 11 21 8 22 9 23 17 25 15 27 12 29
REMARK SMILES IDX 13 30
REMARK H PARENT 1 10 23 12 21 14 19 16 9 24 17 26 15 28 13 31
REMARK Flexibility Score: inf
ROOT
ATOM      1  O   UNL     1     178.189 168.095 178.615  1.00  0.00    -0.313 OA
ENDROOT
BRANCH   1   2
ATOM      2  C   UNL     1     179.592 168.327 178.552  1.00  0.00     0.285 C 
ATOM      3  C   UNL     1     179.428 170.244 179.907  1.00  0.00     0.178 C 
ATOM      4  C   UNL     1     179.775 171.206 178.749  1.00  0.00     0.177 C 
ATOM      5  O   UNL     1     180.061 168.987 179.720  1.00  0.00    -0.341 OA
ATOM      6  C   UNL     1     179.365 170.567 177.407  1.00  0.00     0.179 C 
ATOM      7  C   UNL     1     179.937 169.144 177.291  1.00  0.00     0.202 C 
BRANCH   3   8
ATOM      8  C   UNL     1     179.893 170.825 181.250  1.00  0.00     0.191 C 
BRANCH   8   9
ATOM      9  O   UNL     1     178.865 171.568 181.848  1.00  0.00    -0.394 OA
ATOM     10  H   UNL     1     178.968 172.503 181.529  1.00  0.00     0.210 HD
ENDBRANCH   8   9
ENDBRANCH   3   8
BRANCH   4  11
ATOM     11  O   UNL     1     179.088 172.420 178.922  1.00  0.00    -0.387 OA
ATOM     12  H   UNL     1     178.270 172.372 178.360  1.00  0.00     0.211 HD
ENDBRANCH   4  11
BRANCH   6  13
ATOM     13  O   UNL     1     179.778 171.360 176.322  1.00  0.00    -0.387 OA
ATOM     14  H   UNL     1     180.104 172.225 176.687  1.00  0.00     0.211 HD
ENDBRANCH   6  13
BRANCH   7  15
ATOM     15  O   UNL     1     179.411 168.519 176.148  1.00  0.00    -0.385 OA
ATOM     16  H   UNL     1     179.251 167.570 176.389  1.00  0.00     0.211 HD
ENDBRANCH   7  15
ENDBRANCH   1   2
BRANCH   1  17
ATOM     17  C   UNL     1     177.836 166.906 179.316  1.00  0.00     0.224 C 
ATOM     18  C   UNL     1     176.846 166.064 178.477  1.00  0.00     0.208 C 
ATOM     19  O   UNL     1     178.976 166.107 179.610  1.00  0.00    -0.337 OA
ATOM     20  C   UNL     1     177.237 164.651 178.836  1.00  0.00     0.180 C 
ATOM     21  C   UNL     1     178.721 164.786 179.178  1.00  0.00     0.179 C 
BRANCH  17  22
ATOM     22  C   UNL     1     177.238 167.334 180.673  1.00  0.00     0.225 C 
BRANCH  22  23
ATOM     23  O   UNL     1     178.234 167.385 181.659  1.00  0.00    -0.391 OA
ATOM     24  H   UNL     1     178.152 166.542 182.177  1.00  0.00     0.210 HD
ENDBRANCH  22  23
ENDBRANCH  17  22
BRANCH  18  25
ATOM     25  O   UNL     1     175.502 166.320 178.794  1.00  0.00    -0.385 OA
ATOM     26  H   UNL     1     175.384 166.074 179.750  1.00  0.00     0.211 HD
ENDBRANCH  18  25
BRANCH  20  27
ATOM     27  O   UNL     1     177.004 163.741 177.788  1.00  0.00    -0.387 OA
ATOM     28  H   UNL     1     177.856 163.604 177.296  1.00  0.00     0.211 HD
ENDBRANCH  20  27
BRANCH  21  29
ATOM     29  C   UNL     1     179.170 163.788 180.252  1.00  0.00     0.191 C 
BRANCH  29  30
ATOM     30  O   UNL     1     178.483 162.576 180.110  1.00  0.00    -0.394 OA
ATOM     31  H   UNL     1     177.826 162.543 180.853  1.00  0.00     0.210 HD
ENDBRANCH  29  30
ENDBRANCH  21  29
ENDBRANCH   1  17
TORSDOF 13
ENDMDL
MODEL 8
REMARK VINA RESULT:    -4.453     10.969     13.594
REMARK INTER + INTRA:          -8.454
REMARK INTER:                  -6.683
REMARK INTRA:                  -1.770
REMARK UNBOUND:                -1.658
REMARK SMILES OC[C@@H]1O[C@@H](O[C@]2(CO)O[C@@H](CO)[C@H](O)[C@H]2O)[C@@H](O)[C@H](O)[C@H]1O
REMARK SMILES IDX 6 1 5 2 3 3 22 4 4 5 20 6 18 7 2 8 1 9 23 11 21 13 19 15
REMARK SMILES IDX 7 17 16 18 10 19 14 20 11 21 8 22 9 23 17 25 15 27 12 29
REMARK SMILES IDX 13 30
REMARK H PARENT 1 10 23 12 21 14 19 16 9 24 17 26 15 28 13 31
REMARK Flexibility Score: inf
ROOT
ATOM      1  O   UNL     1     174.992 177.250 180.182  1.00  0.00    -0.313 OA
ENDROOT
BRANCH   1   2
ATOM      2  C   UNL     1     175.660 176.824 178.999  1.00  0.00     0.285 C 
ATOM      3  C   UNL     1     175.767 174.598 179.752  1.00  0.00     0.178 C 
ATOM      4  C   UNL     1     177.299 174.637 179.941  1.00  0.00     0.177 C 
ATOM      5  O   UNL     1     175.369 175.466 178.701  1.00  0.00    -0.341 OA
ATOM      6  C   UNL     1     177.748 176.087 180.213  1.00  0.00     0.179 C 
ATOM      7  C   UNL     1     177.179 177.036 179.145  1.00  0.00     0.202 C 
BRANCH   3   8
ATOM      8  C   UNL     1     175.301 173.176 179.407  1.00  0.00     0.191 C 
BRANCH   8   9
ATOM      9  O   UNL     1     176.349 172.439 178.835  1.00  0.00    -0.394 OA
ATOM     10  H   UNL     1     175.939 171.629 178.432  1.00  0.00     0.210 HD
ENDBRANCH   8   9
ENDBRANCH   3   8
BRANCH   4  11
ATOM     11  O   UNL     1     177.662 173.820 181.026  1.00  0.00    -0.387 OA
ATOM     12  H   UNL     1     177.344 172.902 180.815  1.00  0.00     0.211 HD
ENDBRANCH   4  11
BRANCH   6  13
ATOM     13  O   UNL     1     179.150 176.181 180.268  1.00  0.00    -0.387 OA
ATOM     14  H   UNL     1     179.436 175.901 181.178  1.00  0.00     0.211 HD
ENDBRANCH   6  13
BRANCH   7  15
ATOM     15  O   UNL     1     177.453 178.366 179.506  1.00  0.00    -0.385 OA
ATOM     16  H   UNL     1     177.589 178.372 180.490  1.00  0.00     0.211 HD
ENDBRANCH   7  15
ENDBRANCH   1   2
BRANCH   1  17
ATOM     17  C   UNL     1     174.038 178.286 179.961  1.00  0.00     0.224 C 
ATOM     18  C   UNL     1     174.193 178.861 178.534  1.00  0.00     0.208 C 
ATOM     19  O   UNL     1     172.704 177.819 180.119  1.00  0.00    -0.337 OA
ATOM     20  C   UNL     1     172.771 179.205 178.166  1.00  0.00     0.180 C 
ATOM     21  C   UNL     1     171.957 178.200 178.982  1.00  0.00     0.179 C 
BRANCH  17  22
ATOM     22  C   UNL     1     174.262 179.356 181.051  1.00  0.00     0.225 C 
BRANCH  22  23
ATOM     23  O   UNL     1     175.620 179.439 181.391  1.00  0.00    -0.391 OA
ATOM     24  H   UNL     1     175.785 180.387 181.633  1.00  0.00     0.210 HD
ENDBRANCH  22  23
ENDBRANCH  17  22
BRANCH  18  25
ATOM     25  O   UNL     1     175.023 179.994 178.485  1.00  0.00    -0.385 OA
ATOM     26  H   UNL     1     174.686 180.561 177.742  1.00  0.00     0.211 HD
ENDBRANCH  18  25
BRANCH  20  27
ATOM     27  O   UNL     1     172.528 179.102 176.783  1.00  0.00    -0.387 OA
ATOM     28  H   UNL     1     173.402 179.017 176.316  1.00  0.00     0.211 HD
ENDBRANCH  20  27
BRANCH  21  29
ATOM     29  C   UNL     1     170.596 178.759 179.413  1.00  0.00     0.191 C 
BRANCH  29  30
ATOM     30  O   UNL     1     170.214 179.815 178.576  1.00  0.00    -0.394 OA
ATOM     31  H   UNL     1     169.693 180.441 179.143  1.00  0.00     0.210 HD
ENDBRANCH  29  30
ENDBRANCH  21  29
ENDBRANCH   1  17
TORSDOF 13
ENDMDL
