MODEL 1
REMARK VINA RESULT:    -4.970      0.000      0.000
REMARK INTER + INTRA:          -5.619
REMARK INTER:                  -5.261
REMARK INTRA:                  -0.359
REMARK UNBOUND:                -0.359
REMARK SMILES CC1=CC[C@H]2[C@@H]3[C@@H](C(C)C)CC[C@@]2(C)[C@H]13
REMARK SMILES IDX 1 1 2 2 3 3 4 4 5 5 6 6 15 7 13 8 12 9 11 10 7 11 14 12 8 13
REMARK SMILES IDX 9 14 10 15
REMARK H PARENT
REMARK Flexibility Score: inf
ROOT
ATOM      1  C   UNL     1       1.991  17.199  12.680  1.00  0.00     0.039 C 
ATOM      2  C   UNL     1       1.106  17.207  13.891  1.00  0.00    -0.073 C 
ATOM      3  C   UNL     1      -0.044  17.931  13.943  1.00  0.00    -0.027 C 
ATOM      4  C   UNL     1      -0.894  17.875  15.217  1.00  0.00     0.031 C 
ATOM      5  C   UNL     1      -0.255  16.898  16.257  1.00  0.00     0.003 C 
ATOM      6  C   UNL     1       0.132  15.604  15.502  1.00  0.00     0.004 C 
ATOM      7  C   UNL     1       1.439  16.340  15.105  1.00  0.00     0.024 C 
ATOM      8  C   UNL     1       1.265  17.150  16.414  1.00  0.00    -0.022 C 
ATOM      9  C   UNL     1       1.792  16.336  17.636  1.00  0.00     0.008 C 
ATOM     10  C   UNL     1       1.591  14.806  17.464  1.00  0.00     0.005 C 
ATOM     11  C   UNL     1       0.389  14.461  16.529  1.00  0.00    -0.005 C 
ATOM     12  C   UNL     1       1.774  18.609  16.460  1.00  0.00     0.012 C 
ENDROOT
BRANCH  11  13
ATOM     13  C   UNL     1       0.490  13.064  15.844  1.00  0.00    -0.014 C 
ATOM     14  C   UNL     1      -0.540  12.834  14.725  1.00  0.00     0.007 C 
ATOM     15  C   UNL     1       1.909  12.788  15.328  1.00  0.00     0.007 C 
ENDBRANCH  11  13
TORSDOF 1
ENDMDL
MODEL 2
REMARK VINA RESULT:    -4.909      1.774      4.153
REMARK INTER + INTRA:          -5.555
REMARK INTER:                  -5.150
REMARK INTRA:                  -0.405
REMARK UNBOUND:                -0.359
REMARK SMILES CC1=CC[C@H]2[C@@H]3[C@@H](C(C)C)CC[C@@]2(C)[C@H]13
REMARK SMILES IDX 1 1 2 2 3 3 4 4 5 5 6 6 15 7 13 8 12 9 11 10 7 11 14 12 8 13
REMARK SMILES IDX 9 14 10 15
REMARK H PARENT
REMARK Flexibility Score: inf
ROOT
ATOM      1  C   UNL     1       0.754  16.238  12.175  1.00  0.00     0.039 C 
ATOM      2  C   UNL     1       1.697  15.319  12.893  1.00  0.00    -0.073 C 
ATOM      3  C   UNL     1       2.999  15.187  12.527  1.00  0.00    -0.027 C 
ATOM      4  C   UNL     1       3.896  14.232  13.322  1.00  0.00     0.031 C 
ATOM      5  C   UNL     1       3.098  13.589  14.503  1.00  0.00     0.003 C 
ATOM      6  C   UNL     1       2.321  14.725  15.211  1.00  0.00     0.004 C 
ATOM      7  C   UNL     1       1.235  14.532  14.120  1.00  0.00     0.024 C 
ATOM      8  C   UNL     1       1.718  13.063  14.035  1.00  0.00    -0.022 C 
ATOM      9  C   UNL     1       1.085  12.211  15.179  1.00  0.00     0.008 C 
ATOM     10  C   UNL     1       0.853  13.034  16.476  1.00  0.00     0.005 C 
ATOM     11  C   UNL     1       1.843  14.233  16.610  1.00  0.00    -0.005 C 
ATOM     12  C   UNL     1       1.626  12.325  12.680  1.00  0.00     0.012 C 
ENDROOT
BRANCH  11  13
ATOM     13  C   UNL     1       1.319  15.401  17.499  1.00  0.00    -0.014 C 
ATOM     14  C   UNL     1       1.576  16.802  16.917  1.00  0.00     0.007 C 
ATOM     15  C   UNL     1      -0.168  15.230  17.839  1.00  0.00     0.007 C 
ENDBRANCH  11  13
TORSDOF 1
ENDMDL
MODEL 3
REMARK VINA RESULT:    -4.877      1.602      3.101
REMARK INTER + INTRA:          -5.520
REMARK INTER:                  -5.249
REMARK INTRA:                  -0.271
REMARK UNBOUND:                -0.359
REMARK SMILES CC1=CC[C@H]2[C@@H]3[C@@H](C(C)C)CC[C@@]2(C)[C@H]13
REMARK SMILES IDX 1 1 2 2 3 3 4 4 5 5 6 6 15 7 13 8 12 9 11 10 7 11 14 12 8 13
REMARK SMILES IDX 9 14 10 15
REMARK H PARENT
REMARK Flexibility Score: inf
ROOT
ATOM      1  C   UNL     1       1.986  18.585  16.784  1.00  0.00     0.039 C 
ATOM      2  C   UNL     1       1.146  17.520  16.144  1.00  0.00    -0.073 C 
ATOM      3  C   UNL     1      -0.082  17.782  15.623  1.00  0.00    -0.027 C 
ATOM      4  C   UNL     1      -0.870  16.636  14.979  1.00  0.00     0.031 C 
ATOM      5  C   UNL     1      -0.035  15.315  15.010  1.00  0.00     0.003 C 
ATOM      6  C   UNL     1       1.397  15.659  14.536  1.00  0.00     0.004 C 
ATOM      7  C   UNL     1       1.674  16.093  16.000  1.00  0.00     0.024 C 
ATOM      8  C   UNL     1       0.586  15.068  16.407  1.00  0.00    -0.022 C 
ATOM      9  C   UNL     1       1.181  13.626  16.452  1.00  0.00     0.008 C 
ATOM     10  C   UNL     1       2.303  13.412  15.400  1.00  0.00     0.005 C 
ATOM     11  C   UNL     1       2.149  14.347  14.159  1.00  0.00    -0.005 C 
ATOM     12  C   UNL     1      -0.272  15.351  17.661  1.00  0.00     0.012 C 
ENDROOT
BRANCH  11  13
ATOM     13  C   UNL     1       3.479  14.627  13.397  1.00  0.00    -0.014 C 
ATOM     14  C   UNL     1       4.110  13.383  12.749  1.00  0.00     0.007 C 
ATOM     15  C   UNL     1       3.309  15.742  12.355  1.00  0.00     0.007 C 
ENDBRANCH  11  13
TORSDOF 1
ENDMDL
MODEL 4
REMARK VINA RESULT:    -4.871      1.206      4.304
REMARK INTER + INTRA:          -5.514
REMARK INTER:                  -5.290
REMARK INTRA:                  -0.224
REMARK UNBOUND:                -0.359
REMARK SMILES CC1=CC[C@H]2[C@@H]3[C@@H](C(C)C)CC[C@@]2(C)[C@H]13
REMARK SMILES IDX 1 1 2 2 3 3 4 4 5 5 6 6 15 7 13 8 12 9 11 10 7 11 14 12 8 13
REMARK SMILES IDX 9 14 10 15
REMARK H PARENT
REMARK Flexibility Score: inf
ROOT
ATOM      1  C   UNL     1      -1.121  12.751  16.763  1.00  0.00     0.039 C 
ATOM      2  C   UNL     1       0.148  13.406  16.304  1.00  0.00    -0.073 C 
ATOM      3  C   UNL     1       1.198  12.691  15.819  1.00  0.00    -0.027 C 
ATOM      4  C   UNL     1       2.454  13.441  15.364  1.00  0.00     0.031 C 
ATOM      5  C   UNL     1       2.253  14.984  15.514  1.00  0.00     0.003 C 
ATOM      6  C   UNL     1       0.864  15.331  14.926  1.00  0.00     0.004 C 
ATOM      7  C   UNL     1       0.285  14.929  16.309  1.00  0.00     0.024 C 
ATOM      8  C   UNL     1       1.656  15.348  16.896  1.00  0.00    -0.022 C 
ATOM      9  C   UNL     1       1.721  16.895  17.086  1.00  0.00     0.008 C 
ATOM     10  C   UNL     1       0.903  17.662  16.011  1.00  0.00     0.005 C 
ATOM     11  C   UNL     1       0.774  16.866  14.675  1.00  0.00    -0.005 C 
ATOM     12  C   UNL     1       2.186  14.614  18.149  1.00  0.00     0.012 C 
ENDROOT
BRANCH  11  13
ATOM     13  C   UNL     1      -0.467  17.252  13.815  1.00  0.00    -0.014 C 
ATOM     14  C   UNL     1      -0.757  18.762  13.766  1.00  0.00     0.007 C 
ATOM     15  C   UNL     1      -0.369  16.681  12.393  1.00  0.00     0.007 C 
ENDBRANCH  11  13
TORSDOF 1
ENDMDL
MODEL 5
REMARK VINA RESULT:    -4.818      2.240      4.475
REMARK INTER + INTRA:          -5.459
REMARK INTER:                  -5.190
REMARK INTRA:                  -0.269
REMARK UNBOUND:                -0.359
REMARK SMILES CC1=CC[C@H]2[C@@H]3[C@@H](C(C)C)CC[C@@]2(C)[C@H]13
REMARK SMILES IDX 1 1 2 2 3 3 4 4 5 5 6 6 15 7 13 8 12 9 11 10 7 11 14 12 8 13
REMARK SMILES IDX 9 14 10 15
REMARK H PARENT
REMARK Flexibility Score: inf
ROOT
ATOM      1  C   UNL     1      -0.933  12.076  18.603  1.00  0.00     0.039 C 
ATOM      2  C   UNL     1       0.044  12.914  17.833  1.00  0.00    -0.073 C 
ATOM      3  C   UNL     1       1.128  13.488  18.420  1.00  0.00    -0.027 C 
ATOM      4  C   UNL     1       2.080  14.322  17.557  1.00  0.00     0.031 C 
ATOM      5  C   UNL     1       1.615  14.311  16.065  1.00  0.00     0.003 C 
ATOM      6  C   UNL     1       1.281  12.847  15.692  1.00  0.00     0.004 C 
ATOM      7  C   UNL     1      -0.112  13.105  16.324  1.00  0.00     0.024 C 
ATOM      8  C   UNL     1       0.097  14.592  15.941  1.00  0.00    -0.022 C 
ATOM      9  C   UNL     1      -0.256  14.826  14.439  1.00  0.00     0.008 C 
ATOM     10  C   UNL     1       0.061  13.591  13.554  1.00  0.00     0.005 C 
ATOM     11  C   UNL     1       1.207  12.709  14.142  1.00  0.00    -0.005 C 
ATOM     12  C   UNL     1      -0.530  15.687  16.834  1.00  0.00     0.012 C 
ENDROOT
BRANCH  11  13
ATOM     13  C   UNL     1       1.172  11.220  13.683  1.00  0.00    -0.014 C 
ATOM     14  C   UNL     1      -0.240  10.679  13.400  1.00  0.00     0.007 C 
ATOM     15  C   UNL     1       2.087  10.980  12.473  1.00  0.00     0.007 C 
ENDBRANCH  11  13
TORSDOF 1
ENDMDL
MODEL 6
REMARK VINA RESULT:    -4.691      1.957      4.325
REMARK INTER + INTRA:          -5.324
REMARK INTER:                  -5.113
REMARK INTRA:                  -0.211
REMARK UNBOUND:                -0.359
REMARK SMILES CC1=CC[C@H]2[C@@H]3[C@@H](C(C)C)CC[C@@]2(C)[C@H]13
REMARK SMILES IDX 1 1 2 2 3 3 4 4 5 5 6 6 15 7 13 8 12 9 11 10 7 11 14 12 8 13
REMARK SMILES IDX 9 14 10 15
REMARK H PARENT
REMARK Flexibility Score: inf
ROOT
ATOM      1  C   UNL     1       2.847  14.631  18.653  1.00  0.00     0.039 C 
ATOM      2  C   UNL     1       1.841  14.730  17.544  1.00  0.00    -0.073 C 
ATOM      3  C   UNL     1       0.875  15.686  17.526  1.00  0.00    -0.027 C 
ATOM      4  C   UNL     1      -0.107  15.721  16.350  1.00  0.00     0.031 C 
ATOM      5  C   UNL     1       0.247  14.607  15.311  1.00  0.00     0.003 C 
ATOM      6  C   UNL     1       1.775  14.661  15.073  1.00  0.00     0.004 C 
ATOM      7  C   UNL     1       1.908  13.783  16.345  1.00  0.00     0.024 C 
ATOM      8  C   UNL     1       0.497  13.244  16.003  1.00  0.00    -0.022 C 
ATOM      9  C   UNL     1       0.586  12.130  14.913  1.00  0.00     0.008 C 
ATOM     10  C   UNL     1       1.752  12.365  13.915  1.00  0.00     0.005 C 
ATOM     11  C   UNL     1       2.127  13.874  13.776  1.00  0.00    -0.005 C 
ATOM     12  C   UNL     1      -0.438  12.815  17.157  1.00  0.00     0.012 C 
ENDROOT
BRANCH  11  13
ATOM     13  C   UNL     1       3.591  14.131  13.308  1.00  0.00    -0.014 C 
ATOM     14  C   UNL     1       4.185  13.006  12.443  1.00  0.00     0.007 C 
ATOM     15  C   UNL     1       3.727  15.482  12.591  1.00  0.00     0.007 C 
ENDBRANCH  11  13
TORSDOF 1
ENDMDL
MODEL 7
REMARK VINA RESULT:    -4.556      1.037      4.103
REMARK INTER + INTRA:          -5.181
REMARK INTER:                  -4.955
REMARK INTRA:                  -0.226
REMARK UNBOUND:                -0.359
REMARK SMILES CC1=CC[C@H]2[C@@H]3[C@@H](C(C)C)CC[C@@]2(C)[C@H]13
REMARK SMILES IDX 1 1 2 2 3 3 4 4 5 5 6 6 15 7 13 8 12 9 11 10 7 11 14 12 8 13
REMARK SMILES IDX 9 14 10 15
REMARK H PARENT
REMARK Flexibility Score: inf
ROOT
ATOM      1  C   UNL     1       1.170  12.611  16.361  1.00  0.00     0.039 C 
ATOM      2  C   UNL     1       1.215  14.096  16.564  1.00  0.00    -0.073 C 
ATOM      3  C   UNL     1       1.859  14.664  17.618  1.00  0.00    -0.027 C 
ATOM      4  C   UNL     1       1.863  16.191  17.745  1.00  0.00     0.031 C 
ATOM      5  C   UNL     1       1.116  16.841  16.534  1.00  0.00     0.003 C 
ATOM      6  C   UNL     1       1.626  16.148  15.248  1.00  0.00     0.004 C 
ATOM      7  C   UNL     1       0.580  15.042  15.544  1.00  0.00     0.024 C 
ATOM      8  C   UNL     1      -0.239  16.143  16.262  1.00  0.00    -0.022 C 
ATOM      9  C   UNL     1      -1.047  16.987  15.227  1.00  0.00     0.008 C 
ATOM     10  C   UNL     1      -0.312  17.122  13.866  1.00  0.00     0.005 C 
ATOM     11  C   UNL     1       1.238  17.007  14.007  1.00  0.00    -0.005 C 
ATOM     12  C   UNL     1      -1.125  15.748  17.465  1.00  0.00     0.012 C 
ENDROOT
BRANCH  11  13
ATOM     13  C   UNL     1       1.968  16.537  12.712  1.00  0.00    -0.014 C 
ATOM     14  C   UNL     1       2.857  17.611  12.063  1.00  0.00     0.007 C 
ATOM     15  C   UNL     1       2.774  15.252  12.953  1.00  0.00     0.007 C 
ENDBRANCH  11  13
TORSDOF 1
ENDMDL
MODEL 8
REMARK VINA RESULT:    -4.550      1.491      4.643
REMARK INTER + INTRA:          -5.175
REMARK INTER:                  -4.917
REMARK INTRA:                  -0.258
REMARK UNBOUND:                -0.359
REMARK SMILES CC1=CC[C@H]2[C@@H]3[C@@H](C(C)C)CC[C@@]2(C)[C@H]13
REMARK SMILES IDX 1 1 2 2 3 3 4 4 5 5 6 6 15 7 13 8 12 9 11 10 7 11 14 12 8 13
REMARK SMILES IDX 9 14 10 15
REMARK H PARENT
REMARK Flexibility Score: inf
ROOT
ATOM      1  C   UNL     1       2.018  14.612  17.725  1.00  0.00     0.039 C 
ATOM      2  C   UNL     1       1.665  14.196  16.328  1.00  0.00    -0.073 C 
ATOM      3  C   UNL     1       1.308  12.921  16.020  1.00  0.00    -0.027 C 
ATOM      4  C   UNL     1       0.953  12.584  14.568  1.00  0.00     0.031 C 
ATOM      5  C   UNL     1       1.033  13.865  13.675  1.00  0.00     0.003 C 
ATOM      6  C   UNL     1       0.302  15.003  14.429  1.00  0.00     0.004 C 
ATOM      7  C   UNL     1       1.634  15.221  15.194  1.00  0.00     0.024 C 
ATOM      8  C   UNL     1       2.338  14.658  13.934  1.00  0.00    -0.022 C 
ATOM      9  C   UNL     1       2.484  15.767  12.847  1.00  0.00     0.008 C 
ATOM     10  C   UNL     1       1.310  16.784  12.872  1.00  0.00     0.005 C 
ATOM     11  C   UNL     1      -0.006  16.166  13.440  1.00  0.00    -0.005 C 
ATOM     12  C   UNL     1       3.660  13.875  14.107  1.00  0.00     0.012 C 
ENDROOT
BRANCH  11  13
ATOM     13  C   UNL     1      -0.995  17.208  14.045  1.00  0.00    -0.014 C 
ATOM     14  C   UNL     1      -1.122  17.143  15.577  1.00  0.00     0.007 C 
ATOM     15  C   UNL     1      -0.653  18.637  13.599  1.00  0.00     0.007 C 
ENDBRANCH  11  13
TORSDOF 1
ENDMDL
MODEL 9
REMARK VINA RESULT:    -4.452      1.677      3.538
REMARK INTER + INTRA:          -5.071
REMARK INTER:                  -4.652
REMARK INTRA:                  -0.419
REMARK UNBOUND:                -0.359
REMARK SMILES CC1=CC[C@H]2[C@@H]3[C@@H](C(C)C)CC[C@@]2(C)[C@H]13
REMARK SMILES IDX 1 1 2 2 3 3 4 4 5 5 6 6 15 7 13 8 12 9 11 10 7 11 14 12 8 13
REMARK SMILES IDX 9 14 10 15
REMARK H PARENT
REMARK Flexibility Score: inf
ROOT
ATOM      1  C   UNL     1       3.817  13.883  13.606  1.00  0.00     0.039 C 
ATOM      2  C   UNL     1       2.417  14.407  13.477  1.00  0.00    -0.073 C 
ATOM      3  C   UNL     1       1.476  13.781  12.723  1.00  0.00    -0.027 C 
ATOM      4  C   UNL     1       0.067  14.380  12.654  1.00  0.00     0.031 C 
ATOM      5  C   UNL     1      -0.030  15.651  13.559  1.00  0.00     0.003 C 
ATOM      6  C   UNL     1       0.620  15.304  14.919  1.00  0.00     0.004 C 
ATOM      7  C   UNL     1       1.976  15.650  14.251  1.00  0.00     0.024 C 
ATOM      8  C   UNL     1       1.171  16.603  13.333  1.00  0.00    -0.022 C 
ATOM      9  C   UNL     1       0.891  17.956  14.058  1.00  0.00     0.008 C 
ATOM     10  C   UNL     1       0.716  17.784  15.592  1.00  0.00     0.005 C 
ATOM     11  C   UNL     1       0.200  16.364  15.981  1.00  0.00    -0.005 C 
ATOM     12  C   UNL     1       1.666  16.841  11.888  1.00  0.00     0.012 C 
ENDROOT
BRANCH  11  13
ATOM     13  C   UNL     1       0.565  15.923  17.431  1.00  0.00    -0.014 C 
ATOM     14  C   UNL     1       0.616  14.399  17.635  1.00  0.00     0.007 C 
ATOM     15  C   UNL     1       1.876  16.568  17.904  1.00  0.00     0.007 C 
ENDBRANCH  11  13
TORSDOF 1
ENDMDL
