MODEL 1
REMARK VINA RESULT:    -4.219      0.000      0.000
REMARK INTER + INTRA:          -6.136
REMARK INTER:                  -5.822
REMARK INTRA:                  -0.314
REMARK UNBOUND:                -0.314
REMARK SMILES CCCCCCCCO
REMARK SMILES IDX 5 1 4 2 3 3 2 4 1 5 6 6 7 7 8 8 9 9
REMARK H PARENT 9 10
REMARK Flexibility Score: inf
ROOT
ATOM      1  C   UNL     1     -19.862  -3.335 -13.241  1.00  0.00     0.000 C 
ENDROOT
BRANCH   1   2
ATOM      2  C   UNL     1     -20.357  -2.027 -12.600  1.00  0.00    -0.000 C 
BRANCH   2   3
ATOM      3  C   UNL     1     -21.666  -1.520 -13.229  1.00  0.00    -0.000 C 
BRANCH   3   4
ATOM      4  C   UNL     1     -22.669  -1.013 -12.182  1.00  0.00    -0.003 C 
ATOM      5  C   UNL     1     -22.505  -1.758 -10.860  1.00  0.00     0.004 C 
ENDBRANCH   3   4
ENDBRANCH   2   3
ENDBRANCH   1   2
BRANCH   1   6
ATOM      6  C   UNL     1     -18.507  -3.793 -12.674  1.00  0.00     0.002 C 
BRANCH   6   7
ATOM      7  C   UNL     1     -18.241  -3.251 -11.260  1.00  0.00     0.028 C 
BRANCH   7   8
ATOM      8  C   UNL     1     -16.900  -2.515 -11.180  1.00  0.00     0.156 C 
BRANCH   8   9
ATOM      9  O   UNL     1     -16.969  -1.273 -11.827  1.00  0.00    -0.396 OA
ATOM     10  H   UNL     1     -17.892  -0.934 -11.695  1.00  0.00     0.210 HD
ENDBRANCH   8   9
ENDBRANCH   7   8
ENDBRANCH   6   7
ENDBRANCH   1   6
TORSDOF 7
ENDMDL
MODEL 2
REMARK VINA RESULT:    -4.076      2.939      5.219
REMARK INTER + INTRA:          -5.939
REMARK INTER:                  -5.736
REMARK INTRA:                  -0.202
REMARK UNBOUND:                -0.314
REMARK SMILES CCCCCCCCO
REMARK SMILES IDX 5 1 4 2 3 3 2 4 1 5 6 6 7 7 8 8 9 9
REMARK H PARENT 9 10
REMARK Flexibility Score: inf
ROOT
ATOM      1  C   UNL     1     -21.213  -2.558 -12.888  1.00  0.00     0.000 C 
ENDROOT
BRANCH   1   2
ATOM      2  C   UNL     1     -19.699  -2.462 -12.629  1.00  0.00    -0.000 C 
BRANCH   2   3
ATOM      3  C   UNL     1     -19.146  -3.698 -11.899  1.00  0.00    -0.000 C 
BRANCH   3   4
ATOM      4  C   UNL     1     -18.012  -4.385 -12.673  1.00  0.00    -0.003 C 
ATOM      5  C   UNL     1     -18.467  -4.783 -14.074  1.00  0.00     0.004 C 
ENDBRANCH   3   4
ENDBRANCH   2   3
ENDBRANCH   1   2
BRANCH   1   6
ATOM      6  C   UNL     1     -21.800  -1.250 -13.444  1.00  0.00     0.002 C 
BRANCH   6   7
ATOM      7  C   UNL     1     -22.748  -0.556 -12.451  1.00  0.00     0.028 C 
BRANCH   7   8
ATOM      8  C   UNL     1     -23.827  -1.514 -11.936  1.00  0.00     0.156 C 
BRANCH   8   9
ATOM      9  O   UNL     1     -24.867  -1.647 -12.866  1.00  0.00    -0.396 OA
ATOM     10  H   UNL     1     -25.698  -1.360 -12.406  1.00  0.00     0.210 HD
ENDBRANCH   8   9
ENDBRANCH   7   8
ENDBRANCH   6   7
ENDBRANCH   1   6
TORSDOF 7
ENDMDL
MODEL 3
REMARK VINA RESULT:    -4.070      2.334      2.604
REMARK INTER + INTRA:          -5.930
REMARK INTER:                  -5.779
REMARK INTRA:                  -0.151
REMARK UNBOUND:                -0.314
REMARK SMILES CCCCCCCCO
REMARK SMILES IDX 5 1 4 2 3 3 2 4 1 5 6 6 7 7 8 8 9 9
REMARK H PARENT 9 10
REMARK Flexibility Score: inf
ROOT
ATOM      1  C   UNL     1     -19.679  -2.544 -12.724  1.00  0.00     0.000 C 
ENDROOT
BRANCH   1   2
ATOM      2  C   UNL     1     -21.211  -2.413 -12.680  1.00  0.00    -0.000 C 
BRANCH   2   3
ATOM      3  C   UNL     1     -21.706  -1.078 -13.263  1.00  0.00    -0.000 C 
BRANCH   3   4
ATOM      4  C   UNL     1     -22.964  -0.554 -12.555  1.00  0.00    -0.003 C 
ATOM      5  C   UNL     1     -23.884  -1.703 -12.149  1.00  0.00     0.004 C 
ENDBRANCH   3   4
ENDBRANCH   2   3
ENDBRANCH   1   2
BRANCH   1   6
ATOM      6  C   UNL     1     -19.181  -3.863 -12.110  1.00  0.00     0.002 C 
BRANCH   6   7
ATOM      7  C   UNL     1     -18.022  -4.487 -12.904  1.00  0.00     0.028 C 
BRANCH   7   8
ATOM      8  C   UNL     1     -18.411  -4.747 -14.363  1.00  0.00     0.156 C 
BRANCH   8   9
ATOM      9  O   UNL     1     -18.057  -6.047 -14.753  1.00  0.00    -0.396 OA
ATOM     10  H   UNL     1     -18.743  -6.345 -15.405  1.00  0.00     0.210 HD
ENDBRANCH   8   9
ENDBRANCH   7   8
ENDBRANCH   6   7
ENDBRANCH   1   6
TORSDOF 7
ENDMDL
MODEL 4
REMARK VINA RESULT:    -4.036      2.211      2.544
REMARK INTER + INTRA:          -5.884
REMARK INTER:                  -5.653
REMARK INTRA:                  -0.231
REMARK UNBOUND:                -0.314
REMARK SMILES CCCCCCCCO
REMARK SMILES IDX 5 1 4 2 3 3 2 4 1 5 6 6 7 7 8 8 9 9
REMARK H PARENT 9 10
REMARK Flexibility Score: inf
ROOT
ATOM      1  C   UNL     1     -20.184  -2.895 -13.249  1.00  0.00     0.000 C 
ENDROOT
BRANCH   1   2
ATOM      2  C   UNL     1     -21.023  -1.748 -12.660  1.00  0.00    -0.000 C 
BRANCH   2   3
ATOM      3  C   UNL     1     -22.529  -1.928 -12.913  1.00  0.00    -0.000 C 
BRANCH   3   4
ATOM      4  C   UNL     1     -23.341  -2.023 -11.613  1.00  0.00    -0.003 C 
ATOM      5  C   UNL     1     -22.447  -1.826 -10.392  1.00  0.00     0.004 C 
ENDBRANCH   3   4
ENDBRANCH   2   3
ENDBRANCH   1   2
BRANCH   1   6
ATOM      6  C   UNL     1     -18.945  -3.218 -12.396  1.00  0.00     0.002 C 
BRANCH   6   7
ATOM      7  C   UNL     1     -18.196  -4.468 -12.888  1.00  0.00     0.028 C 
BRANCH   7   8
ATOM      8  C   UNL     1     -18.426  -4.714 -14.382  1.00  0.00     0.156 C 
BRANCH   8   9
ATOM      9  O   UNL     1     -18.069  -6.023 -14.737  1.00  0.00    -0.396 OA
ATOM     10  H   UNL     1     -17.958  -6.031 -15.723  1.00  0.00     0.210 HD
ENDBRANCH   8   9
ENDBRANCH   7   8
ENDBRANCH   6   7
ENDBRANCH   1   6
TORSDOF 7
ENDMDL
MODEL 5
REMARK VINA RESULT:    -3.969      2.071      4.585
REMARK INTER + INTRA:          -5.791
REMARK INTER:                  -5.478
REMARK INTRA:                  -0.313
REMARK UNBOUND:                -0.314
REMARK SMILES CCCCCCCCO
REMARK SMILES IDX 5 1 4 2 3 3 2 4 1 5 6 6 7 7 8 8 9 9
REMARK H PARENT 9 10
REMARK Flexibility Score: inf
ROOT
ATOM      1  C   UNL     1     -19.892  -2.395 -13.111  1.00  0.00     0.000 C 
ENDROOT
BRANCH   1   2
ATOM      2  C   UNL     1     -19.213  -3.719 -13.501  1.00  0.00    -0.000 C 
BRANCH   2   3
ATOM      3  C   UNL     1     -18.349  -4.295 -12.366  1.00  0.00    -0.000 C 
BRANCH   3   4
ATOM      4  C   UNL     1     -18.192  -3.322 -11.189  1.00  0.00    -0.003 C 
ATOM      5  C   UNL     1     -16.744  -2.863 -11.045  1.00  0.00     0.004 C 
ENDBRANCH   3   4
ENDBRANCH   2   3
ENDBRANCH   1   2
BRANCH   1   6
ATOM      6  C   UNL     1     -21.415  -2.539 -12.946  1.00  0.00     0.002 C 
BRANCH   6   7
ATOM      7  C   UNL     1     -21.974  -1.662 -11.813  1.00  0.00     0.028 C 
BRANCH   7   8
ATOM      8  C   UNL     1     -23.006  -0.656 -12.334  1.00  0.00     0.156 C 
BRANCH   8   9
ATOM      9  O   UNL     1     -22.433   0.206 -13.280  1.00  0.00    -0.396 OA
ATOM     10  H   UNL     1     -23.024   0.187 -14.077  1.00  0.00     0.210 HD
ENDBRANCH   8   9
ENDBRANCH   7   8
ENDBRANCH   6   7
ENDBRANCH   1   6
TORSDOF 7
ENDMDL
MODEL 6
REMARK VINA RESULT:    -3.623      2.864      5.157
REMARK INTER + INTRA:          -5.314
REMARK INTER:                  -5.063
REMARK INTRA:                  -0.250
REMARK UNBOUND:                -0.314
REMARK SMILES CCCCCCCCO
REMARK SMILES IDX 5 1 4 2 3 3 2 4 1 5 6 6 7 7 8 8 9 9
REMARK H PARENT 9 10
REMARK Flexibility Score: inf
ROOT
ATOM      1  C   UNL     1     -21.236  -2.551 -11.689  1.00  0.00     0.000 C 
ENDROOT
BRANCH   1   2
ATOM      2  C   UNL     1     -20.580  -2.377 -13.070  1.00  0.00    -0.000 C 
BRANCH   2   3
ATOM      3  C   UNL     1     -19.392  -3.331 -13.283  1.00  0.00    -0.000 C 
BRANCH   3   4
ATOM      4  C   UNL     1     -18.825  -3.875 -11.963  1.00  0.00    -0.003 C 
ATOM      5  C   UNL     1     -17.579  -3.100 -11.541  1.00  0.00     0.004 C 
ENDBRANCH   3   4
ENDBRANCH   2   3
ENDBRANCH   1   2
BRANCH   1   6
ATOM      6  C   UNL     1     -22.051  -1.318 -11.263  1.00  0.00     0.002 C 
BRANCH   6   7
ATOM      7  C   UNL     1     -22.853  -0.708 -12.425  1.00  0.00     0.028 C 
BRANCH   7   8
ATOM      8  C   UNL     1     -24.351  -0.649 -12.108  1.00  0.00     0.156 C 
BRANCH   8   9
ATOM      9  O   UNL     1     -25.052  -1.639 -12.810  1.00  0.00    -0.396 OA
ATOM     10  H   UNL     1     -24.371  -2.227 -13.229  1.00  0.00     0.210 HD
ENDBRANCH   8   9
ENDBRANCH   7   8
ENDBRANCH   6   7
ENDBRANCH   1   6
TORSDOF 7
ENDMDL
MODEL 7
REMARK VINA RESULT:    -3.550      1.164      2.086
REMARK INTER + INTRA:          -5.213
REMARK INTER:                  -4.933
REMARK INTRA:                  -0.280
REMARK UNBOUND:                -0.314
REMARK SMILES CCCCCCCCO
REMARK SMILES IDX 5 1 4 2 3 3 2 4 1 5 6 6 7 7 8 8 9 9
REMARK H PARENT 9 10
REMARK Flexibility Score: inf
ROOT
ATOM      1  C   UNL     1     -20.974  -1.523 -12.594  1.00  0.00     0.000 C 
ENDROOT
BRANCH   1   2
ATOM      2  C   UNL     1     -21.870  -1.544 -11.343  1.00  0.00    -0.000 C 
BRANCH   2   3
ATOM      3  C   UNL     1     -23.135  -2.398 -11.539  1.00  0.00    -0.000 C 
BRANCH   3   4
ATOM      4  C   UNL     1     -24.167  -1.725 -12.455  1.00  0.00    -0.003 C 
ATOM      5  C   UNL     1     -24.576  -0.359 -11.911  1.00  0.00     0.004 C 
ENDBRANCH   3   4
ENDBRANCH   2   3
ENDBRANCH   1   2
BRANCH   1   6
ATOM      6  C   UNL     1     -20.689  -2.932 -13.140  1.00  0.00     0.002 C 
BRANCH   6   7
ATOM      7  C   UNL     1     -19.186  -3.259 -13.182  1.00  0.00     0.028 C 
BRANCH   7   8
ATOM      8  C   UNL     1     -18.484  -2.862 -11.879  1.00  0.00     0.156 C 
BRANCH   8   9
ATOM      9  O   UNL     1     -17.563  -1.829 -12.100  1.00  0.00    -0.396 OA
ATOM     10  H   UNL     1     -17.213  -1.565 -11.210  1.00  0.00     0.210 HD
ENDBRANCH   8   9
ENDBRANCH   7   8
ENDBRANCH   6   7
ENDBRANCH   1   6
TORSDOF 7
ENDMDL
MODEL 8
REMARK VINA RESULT:    -3.439      2.103      4.382
REMARK INTER + INTRA:          -5.059
REMARK INTER:                  -4.635
REMARK INTRA:                  -0.424
REMARK UNBOUND:                -0.314
REMARK SMILES CCCCCCCCO
REMARK SMILES IDX 5 1 4 2 3 3 2 4 1 5 6 6 7 7 8 8 9 9
REMARK H PARENT 9 10
REMARK Flexibility Score: inf
ROOT
ATOM      1  C   UNL     1     -19.894  -3.884 -13.399  1.00  0.00     0.000 C 
ENDROOT
BRANCH   1   2
ATOM      2  C   UNL     1     -18.381  -3.607 -13.425  1.00  0.00    -0.000 C 
BRANCH   2   3
ATOM      3  C   UNL     1     -17.642  -4.256 -12.242  1.00  0.00    -0.000 C 
BRANCH   3   4
ATOM      4  C   UNL     1     -16.982  -3.222 -11.318  1.00  0.00    -0.003 C 
ATOM      5  C   UNL     1     -17.276  -1.800 -11.787  1.00  0.00     0.004 C 
ENDBRANCH   3   4
ENDBRANCH   2   3
ENDBRANCH   1   2
BRANCH   1   6
ATOM      6  C   UNL     1     -20.718  -2.630 -13.062  1.00  0.00     0.002 C 
BRANCH   6   7
ATOM      7  C   UNL     1     -21.012  -2.500 -11.558  1.00  0.00     0.028 C 
BRANCH   7   8
ATOM      8  C   UNL     1     -22.060  -1.418 -11.278  1.00  0.00     0.156 C 
BRANCH   8   9
ATOM      9  O   UNL     1     -22.293  -1.289  -9.901  1.00  0.00    -0.396 OA
ATOM     10  H   UNL     1     -21.410  -1.134  -9.477  1.00  0.00     0.210 HD
ENDBRANCH   8   9
ENDBRANCH   7   8
ENDBRANCH   6   7
ENDBRANCH   1   6
TORSDOF 7
ENDMDL
MODEL 9
REMARK VINA RESULT:    -3.181      4.142      6.821
REMARK INTER + INTRA:          -4.704
REMARK INTER:                  -4.561
REMARK INTRA:                  -0.142
REMARK UNBOUND:                -0.314
REMARK SMILES CCCCCCCCO
REMARK SMILES IDX 5 1 4 2 3 3 2 4 1 5 6 6 7 7 8 8 9 9
REMARK H PARENT 9 10
REMARK Flexibility Score: inf
ROOT
ATOM      1  C   UNL     1     -24.673  -0.761 -11.243  1.00  0.00     0.000 C 
ENDROOT
BRANCH   1   2
ATOM      2  C   UNL     1     -23.667  -1.671 -11.969  1.00  0.00    -0.000 C 
BRANCH   2   3
ATOM      3  C   UNL     1     -22.228  -1.134 -11.899  1.00  0.00    -0.000 C 
BRANCH   3   4
ATOM      4  C   UNL     1     -21.418  -1.442 -13.167  1.00  0.00    -0.003 C 
ATOM      5  C   UNL     1     -20.547  -2.681 -12.974  1.00  0.00     0.004 C 
ENDBRANCH   3   4
ENDBRANCH   2   3
ENDBRANCH   1   2
BRANCH   1   6
ATOM      6  C   UNL     1     -25.134   0.421 -12.113  1.00  0.00     0.002 C 
BRANCH   6   7
ATOM      7  C   UNL     1     -26.246   1.250 -11.447  1.00  0.00     0.028 C 
BRANCH   7   8
ATOM      8  C   UNL     1     -26.602   2.488 -12.276  1.00  0.00     0.156 C 
BRANCH   8   9
ATOM      9  O   UNL     1     -25.451   3.213 -12.616  1.00  0.00    -0.396 OA
ATOM     10  H   UNL     1     -25.207   2.945 -13.539  1.00  0.00     0.210 HD
ENDBRANCH   8   9
ENDBRANCH   7   8
ENDBRANCH   6   7
ENDBRANCH   1   6
TORSDOF 7
ENDMDL
