MODEL 1
REMARK VINA RESULT:    -9.582      0.000      0.000
REMARK INTER + INTRA:         -14.464
REMARK INTER:                 -13.224
REMARK INTRA:                  -1.241
REMARK UNBOUND:                -1.241
REMARK SMILES CC[C@H](CC[C@@H](C)[C@@H]1CC[C@H]2[C@@H]3CC=C4C[C@@H](O)CC[C@@]4(C)[C@H]3CC[C@]21C)C(C)C
REMARK SMILES IDX 5 1 4 2 3 3 2 4 1 5 28 6 29 7 30 8 6 9 7 10 8 11 9 12 26 13
REMARK SMILES IDX 10 14 11 15 25 16 27 17 12 18 24 19 23 20 13 21 21 22 14 23
REMARK SMILES IDX 15 24 20 25 22 26 16 27 19 28 17 29 18 30
REMARK H PARENT 18 31
REMARK Flexibility Score: inf
ROOT
ATOM      1  C   UNL     1       4.242   0.323 -23.484  1.00  0.00     0.004 C 
ENDROOT
BRANCH   1   2
ATOM      2  C   UNL     1       4.951  -1.006 -23.866  1.00  0.00     0.004 C 
BRANCH   2   3
ATOM      3  C   UNL     1       4.298  -2.334 -23.373  1.00  0.00    -0.009 C 
BRANCH   3   4
ATOM      4  C   UNL     1       5.349  -3.239 -22.666  1.00  0.00     0.000 C 
ATOM      5  C   UNL     1       6.108  -4.151 -23.636  1.00  0.00     0.004 C 
ENDBRANCH   3   4
BRANCH   3   6
ATOM      6  C   UNL     1       2.992  -2.126 -22.526  1.00  0.00    -0.014 C 
ATOM      7  C   UNL     1       1.757  -2.750 -23.201  1.00  0.00     0.007 C 
ATOM      8  C   UNL     1       3.124  -2.707 -21.110  1.00  0.00     0.007 C 
ENDBRANCH   3   6
ENDBRANCH   2   3
ENDBRANCH   1   2
BRANCH   1   9
ATOM      9  C   UNL     1       4.745   1.074 -22.213  1.00  0.00    -0.011 C 
ATOM     10  C   UNL     1       5.882   0.273 -21.537  1.00  0.00     0.008 C 
BRANCH   9  11
ATOM     11  C   UNL     1       5.230   2.531 -22.583  1.00  0.00    -0.002 C 
ATOM     12  C   UNL     1       6.544   2.927 -21.907  1.00  0.00     0.005 C 
ATOM     13  C   UNL     1       4.255   3.740 -22.295  1.00  0.00    -0.026 C 
ATOM     14  C   UNL     1       6.634   4.422 -22.091  1.00  0.00     0.005 C 
ATOM     15  C   UNL     1       5.211   4.928 -21.869  1.00  0.00    -0.001 C 
ATOM     16  C   UNL     1       3.354   4.021 -23.552  1.00  0.00     0.007 C 
ATOM     17  C   UNL     1       3.323   3.457 -21.082  1.00  0.00     0.012 C 
ATOM     18  C   UNL     1       5.006   6.355 -22.493  1.00  0.00     0.000 C 
ATOM     19  C   UNL     1       3.681   5.299 -24.309  1.00  0.00     0.005 C 
ATOM     20  C   UNL     1       3.732   6.485 -23.337  1.00  0.00     0.003 C 
ATOM     21  C   UNL     1       4.964   7.430 -21.396  1.00  0.00     0.031 C 
ATOM     22  C   UNL     1       3.615   7.903 -24.036  1.00  0.00    -0.008 C 
ATOM     23  C   UNL     1       4.816   8.799 -21.986  1.00  0.00    -0.027 C 
ATOM     24  C   UNL     1       4.178   9.032 -23.153  1.00  0.00    -0.065 C 
ATOM     25  C   UNL     1       4.395   7.946 -25.389  1.00  0.00     0.014 C 
ATOM     26  C   UNL     1       2.109   8.174 -24.288  1.00  0.00     0.016 C 
ATOM     27  C   UNL     1       4.235  10.426 -23.743  1.00  0.00     0.063 C 
ATOM     28  C   UNL     1       4.477   9.352 -26.021  1.00  0.00     0.033 C 
ATOM     29  C   UNL     1       5.041  10.403 -25.047  1.00  0.00     0.118 C 
BRANCH  29  30
ATOM     30  O   UNL     1       6.390  10.131 -24.760  1.00  0.00    -0.393 OA
ATOM     31  H   UNL     1       6.625  10.666 -23.958  1.00  0.00     0.210 HD
ENDBRANCH  29  30
ENDBRANCH   9  11
ENDBRANCH   1   9
TORSDOF 7
ENDMDL
MODEL 2
REMARK VINA RESULT:    -9.497      2.833      9.427
REMARK INTER + INTRA:         -14.346
REMARK INTER:                 -13.064
REMARK INTRA:                  -1.282
REMARK UNBOUND:                -1.241
REMARK SMILES CC[C@H](CC[C@@H](C)[C@@H]1CC[C@H]2[C@@H]3CC=C4C[C@@H](O)CC[C@@]4(C)[C@H]3CC[C@]21C)C(C)C
REMARK SMILES IDX 5 1 4 2 3 3 2 4 1 5 28 6 29 7 30 8 6 9 7 10 8 11 9 12 26 13
REMARK SMILES IDX 10 14 11 15 25 16 27 17 12 18 24 19 23 20 13 21 21 22 14 23
REMARK SMILES IDX 15 24 20 25 22 26 16 27 19 28 17 29 18 30
REMARK H PARENT 18 31
REMARK Flexibility Score: inf
ROOT
ATOM      1  C   UNL     1       4.370   6.946 -23.798  1.00  0.00     0.004 C 
ENDROOT
BRANCH   1   2
ATOM      2  C   UNL     1       3.709   8.342 -23.633  1.00  0.00     0.004 C 
BRANCH   2   3
ATOM      3  C   UNL     1       4.576   9.591 -23.981  1.00  0.00    -0.009 C 
BRANCH   3   4
ATOM      4  C   UNL     1       4.361  10.724 -22.935  1.00  0.00     0.000 C 
ATOM      5  C   UNL     1       2.909  11.212 -22.866  1.00  0.00     0.004 C 
ENDBRANCH   3   4
BRANCH   3   6
ATOM      6  C   UNL     1       6.090   9.265 -24.237  1.00  0.00    -0.014 C 
ATOM      7  C   UNL     1       6.636   9.984 -25.484  1.00  0.00     0.007 C 
ATOM      8  C   UNL     1       6.971   9.634 -23.033  1.00  0.00     0.007 C 
ENDBRANCH   3   6
ENDBRANCH   2   3
ENDBRANCH   1   2
BRANCH   1   9
ATOM      9  C   UNL     1       4.944   6.260 -22.519  1.00  0.00    -0.011 C 
ATOM     10  C   UNL     1       4.663   7.134 -21.275  1.00  0.00     0.008 C 
BRANCH   9  11
ATOM     11  C   UNL     1       4.331   4.816 -22.341  1.00  0.00    -0.002 C 
ATOM     12  C   UNL     1       3.829   4.537 -20.922  1.00  0.00     0.005 C 
ATOM     13  C   UNL     1       5.235   3.569 -22.694  1.00  0.00    -0.026 C 
ATOM     14  C   UNL     1       3.631   3.042 -20.872  1.00  0.00     0.005 C 
ATOM     15  C   UNL     1       4.821   2.466 -21.637  1.00  0.00    -0.001 C 
ATOM     16  C   UNL     1       5.033   3.165 -24.200  1.00  0.00     0.007 C 
ATOM     17  C   UNL     1       6.745   3.864 -22.468  1.00  0.00     0.012 C 
ATOM     18  C   UNL     1       4.538   0.996 -22.114  1.00  0.00     0.000 C 
ATOM     19  C   UNL     1       4.272   1.867 -24.425  1.00  0.00     0.005 C 
ATOM     20  C   UNL     1       4.892   0.743 -23.585  1.00  0.00     0.003 C 
ATOM     21  C   UNL     1       5.312  -0.015 -21.255  1.00  0.00     0.031 C 
ATOM     22  C   UNL     1       4.494  -0.716 -24.058  1.00  0.00    -0.008 C 
ATOM     23  C   UNL     1       5.011  -1.422 -21.673  1.00  0.00    -0.027 C 
ATOM     24  C   UNL     1       4.679  -1.758 -22.939  1.00  0.00    -0.065 C 
ATOM     25  C   UNL     1       3.000  -0.790 -24.510  1.00  0.00     0.014 C 
ATOM     26  C   UNL     1       5.422  -1.091 -25.243  1.00  0.00     0.016 C 
ATOM     27  C   UNL     1       4.230  -3.178 -23.216  1.00  0.00     0.063 C 
ATOM     28  C   UNL     1       2.503  -2.222 -24.799  1.00  0.00     0.033 C 
ATOM     29  C   UNL     1       2.750  -3.181 -23.620  1.00  0.00     0.118 C 
BRANCH  29  30
ATOM     30  O   UNL     1       1.961  -2.814 -22.516  1.00  0.00    -0.393 OA
ATOM     31  H   UNL     1       1.531  -1.950 -22.747  1.00  0.00     0.210 HD
ENDBRANCH  29  30
ENDBRANCH   9  11
ENDBRANCH   1   9
TORSDOF 7
ENDMDL
MODEL 3
REMARK VINA RESULT:    -9.404      0.687      1.432
REMARK INTER + INTRA:         -14.218
REMARK INTER:                 -12.972
REMARK INTRA:                  -1.245
REMARK UNBOUND:                -1.241
REMARK SMILES CC[C@H](CC[C@@H](C)[C@@H]1CC[C@H]2[C@@H]3CC=C4C[C@@H](O)CC[C@@]4(C)[C@H]3CC[C@]21C)C(C)C
REMARK SMILES IDX 5 1 4 2 3 3 2 4 1 5 28 6 29 7 30 8 6 9 7 10 8 11 9 12 26 13
REMARK SMILES IDX 10 14 11 15 25 16 27 17 12 18 24 19 23 20 13 21 21 22 14 23
REMARK SMILES IDX 15 24 20 25 22 26 16 27 19 28 17 29 18 30
REMARK H PARENT 18 31
REMARK Flexibility Score: inf
ROOT
ATOM      1  C   UNL     1       4.341   0.769 -23.811  1.00  0.00     0.004 C 
ENDROOT
BRANCH   1   2
ATOM      2  C   UNL     1       4.633  -0.749 -23.970  1.00  0.00     0.004 C 
BRANCH   2   3
ATOM      3  C   UNL     1       3.520  -1.744 -23.516  1.00  0.00    -0.009 C 
BRANCH   3   4
ATOM      4  C   UNL     1       2.840  -2.414 -24.746  1.00  0.00     0.000 C 
ATOM      5  C   UNL     1       1.314  -2.272 -24.741  1.00  0.00     0.004 C 
ENDBRANCH   3   4
BRANCH   3   6
ATOM      6  C   UNL     1       3.993  -2.777 -22.432  1.00  0.00    -0.014 C 
ATOM      7  C   UNL     1       5.508  -3.039 -22.502  1.00  0.00     0.007 C 
ATOM      8  C   UNL     1       3.639  -2.321 -21.008  1.00  0.00     0.007 C 
ENDBRANCH   3   6
ENDBRANCH   2   3
ENDBRANCH   1   2
BRANCH   1   9
ATOM      9  C   UNL     1       4.772   1.453 -22.477  1.00  0.00    -0.011 C 
ATOM     10  C   UNL     1       5.885   0.628 -21.790  1.00  0.00     0.008 C 
BRANCH   9  11
ATOM     11  C   UNL     1       5.255   2.933 -22.743  1.00  0.00    -0.002 C 
ATOM     12  C   UNL     1       6.512   3.315 -21.958  1.00  0.00     0.005 C 
ATOM     13  C   UNL     1       4.241   4.113 -22.466  1.00  0.00    -0.026 C 
ATOM     14  C   UNL     1       6.588   4.818 -22.063  1.00  0.00     0.005 C 
ATOM     15  C   UNL     1       5.144   5.293 -21.918  1.00  0.00    -0.001 C 
ATOM     16  C   UNL     1       3.425   4.441 -23.770  1.00  0.00     0.007 C 
ATOM     17  C   UNL     1       3.232   3.758 -21.338  1.00  0.00     0.012 C 
ATOM     18  C   UNL     1       4.958   6.745 -22.487  1.00  0.00     0.000 C 
ATOM     19  C   UNL     1       3.781   5.760 -24.440  1.00  0.00     0.005 C 
ATOM     20  C   UNL     1       3.744   6.897 -23.412  1.00  0.00     0.003 C 
ATOM     21  C   UNL     1       4.820   7.765 -21.346  1.00  0.00     0.031 C 
ATOM     22  C   UNL     1       3.650   8.345 -24.049  1.00  0.00    -0.008 C 
ATOM     23  C   UNL     1       4.689   9.158 -21.879  1.00  0.00    -0.027 C 
ATOM     24  C   UNL     1       4.130   9.438 -23.076  1.00  0.00    -0.065 C 
ATOM     25  C   UNL     1       4.522   8.466 -25.340  1.00  0.00     0.014 C 
ATOM     26  C   UNL     1       2.161   8.608 -24.394  1.00  0.00     0.016 C 
ATOM     27  C   UNL     1       4.203  10.860 -23.593  1.00  0.00     0.063 C 
ATOM     28  C   UNL     1       4.623   9.902 -25.897  1.00  0.00     0.033 C 
ATOM     29  C   UNL     1       5.099  10.912 -24.837  1.00  0.00     0.118 C 
BRANCH  29  30
ATOM     30  O   UNL     1       6.429  10.647 -24.469  1.00  0.00    -0.393 OA
ATOM     31  H   UNL     1       6.406  10.320 -23.532  1.00  0.00     0.210 HD
ENDBRANCH  29  30
ENDBRANCH   9  11
ENDBRANCH   1   9
TORSDOF 7
ENDMDL
MODEL 4
REMARK VINA RESULT:    -8.717      1.576      2.687
REMARK INTER + INTRA:         -13.270
REMARK INTER:                 -11.371
REMARK INTRA:                  -1.899
REMARK UNBOUND:                -1.241
REMARK SMILES CC[C@H](CC[C@@H](C)[C@@H]1CC[C@H]2[C@@H]3CC=C4C[C@@H](O)CC[C@@]4(C)[C@H]3CC[C@]21C)C(C)C
REMARK SMILES IDX 5 1 4 2 3 3 2 4 1 5 28 6 29 7 30 8 6 9 7 10 8 11 9 12 26 13
REMARK SMILES IDX 10 14 11 15 25 16 27 17 12 18 24 19 23 20 13 21 21 22 14 23
REMARK SMILES IDX 15 24 20 25 22 26 16 27 19 28 17 29 18 30
REMARK H PARENT 18 31
REMARK Flexibility Score: inf
ROOT
ATOM      1  C   UNL     1       4.348  -0.101 -23.374  1.00  0.00     0.004 C 
ENDROOT
BRANCH   1   2
ATOM      2  C   UNL     1       3.991   0.652 -24.685  1.00  0.00     0.004 C 
BRANCH   2   3
ATOM      3  C   UNL     1       5.146   0.912 -25.700  1.00  0.00    -0.009 C 
BRANCH   3   4
ATOM      4  C   UNL     1       5.755  -0.430 -26.203  1.00  0.00     0.000 C 
ATOM      5  C   UNL     1       4.722  -1.349 -26.864  1.00  0.00     0.004 C 
ENDBRANCH   3   4
BRANCH   3   6
ATOM      6  C   UNL     1       4.762   1.891 -26.866  1.00  0.00    -0.014 C 
ATOM      7  C   UNL     1       3.251   2.185 -26.904  1.00  0.00     0.007 C 
ATOM      8  C   UNL     1       5.520   3.225 -26.773  1.00  0.00     0.007 C 
ENDBRANCH   3   6
ENDBRANCH   2   3
ENDBRANCH   1   2
BRANCH   1   9
ATOM      9  C   UNL     1       4.757   0.755 -22.135  1.00  0.00    -0.011 C 
ATOM     10  C   UNL     1       5.870   0.037 -21.337  1.00  0.00     0.008 C 
BRANCH   9  11
ATOM     11  C   UNL     1       5.228   2.194 -22.584  1.00  0.00    -0.002 C 
ATOM     12  C   UNL     1       6.595   2.591 -22.023  1.00  0.00     0.005 C 
ATOM     13  C   UNL     1       4.292   3.424 -22.257  1.00  0.00    -0.026 C 
ATOM     14  C   UNL     1       6.688   4.079 -22.258  1.00  0.00     0.005 C 
ATOM     15  C   UNL     1       5.292   4.611 -21.941  1.00  0.00    -0.001 C 
ATOM     16  C   UNL     1       3.300   3.681 -23.449  1.00  0.00     0.007 C 
ATOM     17  C   UNL     1       3.453   3.188 -20.969  1.00  0.00     0.012 C 
ATOM     18  C   UNL     1       5.056   6.022 -22.590  1.00  0.00     0.000 C 
ATOM     19  C   UNL     1       3.582   4.933 -24.266  1.00  0.00     0.005 C 
ATOM     20  C   UNL     1       3.722   6.145 -23.336  1.00  0.00     0.003 C 
ATOM     21  C   UNL     1       5.111   7.128 -21.525  1.00  0.00     0.031 C 
ATOM     22  C   UNL     1       3.567   7.543 -24.065  1.00  0.00    -0.008 C 
ATOM     23  C   UNL     1       4.934   8.481 -22.141  1.00  0.00    -0.027 C 
ATOM     24  C   UNL     1       4.210   8.689 -23.262  1.00  0.00    -0.065 C 
ATOM     25  C   UNL     1       4.241   7.538 -25.476  1.00  0.00     0.014 C 
ATOM     26  C   UNL     1       2.049   7.829 -24.209  1.00  0.00     0.016 C 
ATOM     27  C   UNL     1       4.237  10.066 -23.895  1.00  0.00     0.063 C 
ATOM     28  C   UNL     1       4.290   8.924 -26.152  1.00  0.00     0.033 C 
ATOM     29  C   UNL     1       4.940   9.994 -25.256  1.00  0.00     0.118 C 
BRANCH  29  30
ATOM     30  O   UNL     1       6.303   9.713 -25.066  1.00  0.00    -0.393 OA
ATOM     31  H   UNL     1       6.808  10.484 -25.432  1.00  0.00     0.210 HD
ENDBRANCH  29  30
ENDBRANCH   9  11
ENDBRANCH   1   9
TORSDOF 7
ENDMDL
MODEL 5
REMARK VINA RESULT:    -8.418      2.121      4.641
REMARK INTER + INTRA:         -12.858
REMARK INTER:                 -11.014
REMARK INTRA:                  -1.844
REMARK UNBOUND:                -1.241
REMARK SMILES CC[C@H](CC[C@@H](C)[C@@H]1CC[C@H]2[C@@H]3CC=C4C[C@@H](O)CC[C@@]4(C)[C@H]3CC[C@]21C)C(C)C
REMARK SMILES IDX 5 1 4 2 3 3 2 4 1 5 28 6 29 7 30 8 6 9 7 10 8 11 9 12 26 13
REMARK SMILES IDX 10 14 11 15 25 16 27 17 12 18 24 19 23 20 13 21 21 22 14 23
REMARK SMILES IDX 15 24 20 25 22 26 16 27 19 28 17 29 18 30
REMARK H PARENT 18 31
REMARK Flexibility Score: inf
ROOT
ATOM      1  C   UNL     1       2.766  -3.401 -24.360  1.00  0.00     0.004 C 
ENDROOT
BRANCH   1   2
ATOM      2  C   UNL     1       3.667  -4.310 -23.479  1.00  0.00     0.004 C 
BRANCH   2   3
ATOM      3  C   UNL     1       4.372  -3.649 -22.254  1.00  0.00    -0.009 C 
BRANCH   3   4
ATOM      4  C   UNL     1       5.795  -3.147 -22.636  1.00  0.00     0.000 C 
ATOM      5  C   UNL     1       6.569  -4.142 -23.509  1.00  0.00     0.004 C 
ENDBRANCH   3   4
BRANCH   3   6
ATOM      6  C   UNL     1       3.504  -2.558 -21.532  1.00  0.00    -0.014 C 
ATOM      7  C   UNL     1       2.507  -3.174 -20.534  1.00  0.00     0.007 C 
ATOM      8  C   UNL     1       4.372  -1.530 -20.788  1.00  0.00     0.007 C 
ENDBRANCH   3   6
ENDBRANCH   2   3
ENDBRANCH   1   2
BRANCH   1   9
ATOM      9  C   UNL     1       3.470  -2.449 -25.376  1.00  0.00    -0.011 C 
ATOM     10  C   UNL     1       3.085  -2.836 -26.823  1.00  0.00     0.008 C 
BRANCH   9  11
ATOM     11  C   UNL     1       3.094  -0.944 -25.080  1.00  0.00    -0.002 C 
ATOM     12  C   UNL     1       2.032  -0.383 -26.027  1.00  0.00     0.005 C 
ATOM     13  C   UNL     1       4.249   0.134 -25.095  1.00  0.00    -0.026 C 
ATOM     14  C   UNL     1       2.084   1.111 -25.820  1.00  0.00     0.005 C 
ATOM     15  C   UNL     1       3.570   1.435 -25.691  1.00  0.00    -0.001 C 
ATOM     16  C   UNL     1       4.859   0.294 -23.655  1.00  0.00     0.007 C 
ATOM     17  C   UNL     1       5.396  -0.260 -26.068  1.00  0.00     0.012 C 
ATOM     18  C   UNL     1       3.796   2.822 -24.989  1.00  0.00     0.000 C 
ATOM     19  C   UNL     1       4.522   1.601 -22.952  1.00  0.00     0.005 C 
ATOM     20  C   UNL     1       4.844   2.787 -23.870  1.00  0.00     0.003 C 
ATOM     21  C   UNL     1       4.223   3.887 -26.011  1.00  0.00     0.031 C 
ATOM     22  C   UNL     1       4.966   4.176 -23.117  1.00  0.00    -0.008 C 
ATOM     23  C   UNL     1       4.395   5.224 -25.359  1.00  0.00    -0.027 C 
ATOM     24  C   UNL     1       4.766   5.370 -24.068  1.00  0.00    -0.065 C 
ATOM     25  C   UNL     1       3.903   4.313 -21.980  1.00  0.00     0.014 C 
ATOM     26  C   UNL     1       6.394   4.255 -22.515  1.00  0.00     0.016 C 
ATOM     27  C   UNL     1       4.744   6.758 -23.462  1.00  0.00     0.063 C 
ATOM     28  C   UNL     1       3.848   5.716 -21.338  1.00  0.00     0.033 C 
ATOM     29  C   UNL     1       3.659   6.832 -22.381  1.00  0.00     0.118 C 
BRANCH  29  30
ATOM     30  O   UNL     1       2.391   6.734 -22.981  1.00  0.00    -0.393 OA
ATOM     31  H   UNL     1       1.725   6.949 -22.277  1.00  0.00     0.210 HD
ENDBRANCH  29  30
ENDBRANCH   9  11
ENDBRANCH   1   9
TORSDOF 7
ENDMDL
MODEL 6
REMARK VINA RESULT:    -8.384      2.143      4.332
REMARK INTER + INTRA:         -12.810
REMARK INTER:                 -11.251
REMARK INTRA:                  -1.559
REMARK UNBOUND:                -1.241
REMARK SMILES CC[C@H](CC[C@@H](C)[C@@H]1CC[C@H]2[C@@H]3CC=C4C[C@@H](O)CC[C@@]4(C)[C@H]3CC[C@]21C)C(C)C
REMARK SMILES IDX 5 1 4 2 3 3 2 4 1 5 28 6 29 7 30 8 6 9 7 10 8 11 9 12 26 13
REMARK SMILES IDX 10 14 11 15 25 16 27 17 12 18 24 19 23 20 13 21 21 22 14 23
REMARK SMILES IDX 15 24 20 25 22 26 16 27 19 28 17 29 18 30
REMARK H PARENT 18 31
REMARK Flexibility Score: inf
ROOT
ATOM      1  C   UNL     1       3.460   0.894 -24.456  1.00  0.00     0.004 C 
ENDROOT
BRANCH   1   2
ATOM      2  C   UNL     1       4.554   1.579 -23.591  1.00  0.00     0.004 C 
BRANCH   2   3
ATOM      3  C   UNL     1       4.482   1.370 -22.047  1.00  0.00    -0.009 C 
BRANCH   3   4
ATOM      4  C   UNL     1       5.299   0.116 -21.618  1.00  0.00     0.000 C 
ATOM      5  C   UNL     1       4.501  -0.849 -20.735  1.00  0.00     0.004 C 
ENDBRANCH   3   4
BRANCH   3   6
ATOM      6  C   UNL     1       4.834   2.653 -21.213  1.00  0.00    -0.014 C 
ATOM      7  C   UNL     1       5.912   3.512 -21.898  1.00  0.00     0.007 C 
ATOM      8  C   UNL     1       3.599   3.530 -20.953  1.00  0.00     0.007 C 
ENDBRANCH   3   6
ENDBRANCH   2   3
ENDBRANCH   1   2
BRANCH   1   9
ATOM      9  C   UNL     1       2.784   1.743 -25.576  1.00  0.00    -0.011 C 
ATOM     10  C   UNL     1       1.514   1.028 -26.093  1.00  0.00     0.008 C 
BRANCH   9  11
ATOM     11  C   UNL     1       2.435   3.188 -25.043  1.00  0.00    -0.002 C 
ATOM     12  C   UNL     1       0.957   3.554 -25.193  1.00  0.00     0.005 C 
ATOM     13  C   UNL     1       3.213   4.420 -25.655  1.00  0.00    -0.026 C 
ATOM     14  C   UNL     1       0.907   5.046 -24.977  1.00  0.00     0.005 C 
ATOM     15  C   UNL     1       2.142   5.586 -25.695  1.00  0.00    -0.001 C 
ATOM     16  C   UNL     1       4.502   4.721 -24.806  1.00  0.00     0.007 C 
ATOM     17  C   UNL     1       3.648   4.159 -27.125  1.00  0.00     0.012 C 
ATOM     18  C   UNL     1       2.528   7.017 -25.175  1.00  0.00     0.000 C 
ATOM     19  C   UNL     1       4.443   5.992 -23.972  1.00  0.00     0.005 C 
ATOM     20  C   UNL     1       4.018   7.176 -24.848  1.00  0.00     0.003 C 
ATOM     21  C   UNL     1       2.146   8.092 -26.203  1.00  0.00     0.031 C 
ATOM     22  C   UNL     1       4.349   8.596 -24.227  1.00  0.00    -0.008 C 
ATOM     23  C   UNL     1       2.468   9.464 -25.696  1.00  0.00    -0.027 C 
ATOM     24  C   UNL     1       3.480   9.712 -24.836  1.00  0.00    -0.065 C 
ATOM     25  C   UNL     1       4.111   8.622 -22.683  1.00  0.00     0.014 C 
ATOM     26  C   UNL     1       5.838   8.903 -24.535  1.00  0.00     0.016 C 
ATOM     27  C   UNL     1       3.611  11.104 -24.255  1.00  0.00     0.063 C 
ATOM     28  C   UNL     1       4.233  10.025 -22.053  1.00  0.00     0.033 C 
ATOM     29  C   UNL     1       3.332  11.062 -22.747  1.00  0.00     0.118 C 
BRANCH  29  30
ATOM     30  O   UNL     1       1.977  10.759 -22.529  1.00  0.00    -0.393 OA
ATOM     31  H   UNL     1       1.491  11.015 -23.354  1.00  0.00     0.210 HD
ENDBRANCH  29  30
ENDBRANCH   9  11
ENDBRANCH   1   9
TORSDOF 7
ENDMDL
MODEL 7
REMARK VINA RESULT:    -8.367      2.914      8.872
REMARK INTER + INTRA:         -12.787
REMARK INTER:                 -11.427
REMARK INTRA:                  -1.359
REMARK UNBOUND:                -1.241
REMARK SMILES CC[C@H](CC[C@@H](C)[C@@H]1CC[C@H]2[C@@H]3CC=C4C[C@@H](O)CC[C@@]4(C)[C@H]3CC[C@]21C)C(C)C
REMARK SMILES IDX 5 1 4 2 3 3 2 4 1 5 28 6 29 7 30 8 6 9 7 10 8 11 9 12 26 13
REMARK SMILES IDX 10 14 11 15 25 16 27 17 12 18 24 19 23 20 13 21 21 22 14 23
REMARK SMILES IDX 15 24 20 25 22 26 16 27 19 28 17 29 18 30
REMARK H PARENT 18 31
REMARK Flexibility Score: inf
ROOT
ATOM      1  C   UNL     1       3.771   6.888 -23.552  1.00  0.00     0.004 C 
ENDROOT
BRANCH   1   2
ATOM      2  C   UNL     1       3.740   6.362 -25.014  1.00  0.00     0.004 C 
BRANCH   2   3
ATOM      3  C   UNL     1       2.760   7.062 -26.006  1.00  0.00    -0.009 C 
BRANCH   3   4
ATOM      4  C   UNL     1       1.410   6.291 -26.089  1.00  0.00     0.000 C 
ATOM      5  C   UNL     1       1.492   4.872 -25.515  1.00  0.00     0.004 C 
ENDBRANCH   3   4
BRANCH   3   6
ATOM      6  C   UNL     1       2.578   8.599 -25.745  1.00  0.00    -0.014 C 
ATOM      7  C   UNL     1       3.755   9.425 -26.297  1.00  0.00     0.007 C 
ATOM      8  C   UNL     1       1.273   9.138 -26.353  1.00  0.00     0.007 C 
ENDBRANCH   3   6
ENDBRANCH   2   3
ENDBRANCH   1   2
BRANCH   1   9
ATOM      9  C   UNL     1       4.690   6.145 -22.534  1.00  0.00    -0.011 C 
ATOM     10  C   UNL     1       4.733   6.916 -21.195  1.00  0.00     0.008 C 
BRANCH   9  11
ATOM     11  C   UNL     1       4.191   4.664 -22.313  1.00  0.00    -0.002 C 
ATOM     12  C   UNL     1       3.788   4.365 -20.868  1.00  0.00     0.005 C 
ATOM     13  C   UNL     1       5.160   3.480 -22.708  1.00  0.00    -0.026 C 
ATOM     14  C   UNL     1       3.699   2.860 -20.798  1.00  0.00     0.005 C 
ATOM     15  C   UNL     1       4.883   2.361 -21.622  1.00  0.00    -0.001 C 
ATOM     16  C   UNL     1       4.906   3.047 -24.198  1.00  0.00     0.007 C 
ATOM     17  C   UNL     1       6.655   3.882 -22.566  1.00  0.00     0.012 C 
ATOM     18  C   UNL     1       4.678   0.870 -22.074  1.00  0.00     0.000 C 
ATOM     19  C   UNL     1       4.227   1.697 -24.372  1.00  0.00     0.005 C 
ATOM     20  C   UNL     1       4.969   0.628 -23.560  1.00  0.00     0.003 C 
ATOM     21  C   UNL     1       5.567  -0.076 -21.253  1.00  0.00     0.031 C 
ATOM     22  C   UNL     1       4.650  -0.860 -24.002  1.00  0.00    -0.008 C 
ATOM     23  C   UNL     1       5.345  -1.504 -21.645  1.00  0.00    -0.027 C 
ATOM     24  C   UNL     1       4.969  -1.875 -22.888  1.00  0.00    -0.065 C 
ATOM     25  C   UNL     1       3.143  -1.043 -24.370  1.00  0.00     0.014 C 
ATOM     26  C   UNL     1       5.536  -1.181 -25.234  1.00  0.00     0.016 C 
ATOM     27  C   UNL     1       4.606  -3.326 -23.131  1.00  0.00     0.063 C 
ATOM     28  C   UNL     1       2.732  -2.510 -24.623  1.00  0.00     0.033 C 
ATOM     29  C   UNL     1       3.111  -3.436 -23.453  1.00  0.00     0.118 C 
BRANCH  29  30
ATOM     30  O   UNL     1       2.359  -3.114 -22.310  1.00  0.00    -0.393 OA
ATOM     31  H   UNL     1       2.943  -2.558 -21.732  1.00  0.00     0.210 HD
ENDBRANCH  29  30
ENDBRANCH   9  11
ENDBRANCH   1   9
TORSDOF 7
ENDMDL
MODEL 8
REMARK VINA RESULT:    -8.238      3.218      9.064
REMARK INTER + INTRA:         -12.609
REMARK INTER:                 -10.795
REMARK INTRA:                  -1.814
REMARK UNBOUND:                -1.241
REMARK SMILES CC[C@H](CC[C@@H](C)[C@@H]1CC[C@H]2[C@@H]3CC=C4C[C@@H](O)CC[C@@]4(C)[C@H]3CC[C@]21C)C(C)C
REMARK SMILES IDX 5 1 4 2 3 3 2 4 1 5 28 6 29 7 30 8 6 9 7 10 8 11 9 12 26 13
REMARK SMILES IDX 10 14 11 15 25 16 27 17 12 18 24 19 23 20 13 21 21 22 14 23
REMARK SMILES IDX 15 24 20 25 22 26 16 27 19 28 17 29 18 30
REMARK H PARENT 18 31
REMARK Flexibility Score: inf
ROOT
ATOM      1  C   UNL     1       3.092   5.733 -24.922  1.00  0.00     0.004 C 
ENDROOT
BRANCH   1   2
ATOM      2  C   UNL     1       4.117   6.723 -24.302  1.00  0.00     0.004 C 
BRANCH   2   3
ATOM      3  C   UNL     1       4.830   6.285 -22.985  1.00  0.00    -0.009 C 
BRANCH   3   4
ATOM      4  C   UNL     1       4.403   7.193 -21.795  1.00  0.00     0.000 C 
ATOM      5  C   UNL     1       4.972   8.613 -21.888  1.00  0.00     0.004 C 
ENDBRANCH   3   4
BRANCH   3   6
ATOM      6  C   UNL     1       4.701   4.752 -22.670  1.00  0.00    -0.014 C 
ATOM      7  C   UNL     1       6.070   4.094 -22.416  1.00  0.00     0.007 C 
ATOM      8  C   UNL     1       3.797   4.486 -21.456  1.00  0.00     0.007 C 
ENDBRANCH   3   6
ENDBRANCH   2   3
ENDBRANCH   1   2
BRANCH   1   9
ATOM      9  C   UNL     1       3.464   5.059 -26.278  1.00  0.00    -0.011 C 
ATOM     10  C   UNL     1       4.338   6.013 -27.125  1.00  0.00     0.008 C 
BRANCH   9  11
ATOM     11  C   UNL     1       4.208   3.688 -26.031  1.00  0.00    -0.002 C 
ATOM     12  C   UNL     1       5.239   3.350 -27.111  1.00  0.00     0.005 C 
ATOM     13  C   UNL     1       3.337   2.377 -25.890  1.00  0.00    -0.026 C 
ATOM     14  C   UNL     1       5.555   1.891 -26.895  1.00  0.00     0.005 C 
ATOM     15  C   UNL     1       4.211   1.244 -26.568  1.00  0.00    -0.001 C 
ATOM     16  C   UNL     1       2.971   2.131 -24.381  1.00  0.00     0.007 C 
ATOM     17  C   UNL     1       2.014   2.470 -26.702  1.00  0.00     0.012 C 
ATOM     18  C   UNL     1       4.400  -0.134 -25.839  1.00  0.00     0.000 C 
ATOM     19  C   UNL     1       3.684   0.957 -23.727  1.00  0.00     0.005 C 
ATOM     20  C   UNL     1       3.526  -0.300 -24.591  1.00  0.00     0.003 C 
ATOM     21  C   UNL     1       4.098  -1.301 -26.793  1.00  0.00     0.031 C 
ATOM     22  C   UNL     1       3.821  -1.656 -23.824  1.00  0.00    -0.008 C 
ATOM     23  C   UNL     1       4.321  -2.620 -26.120  1.00  0.00    -0.027 C 
ATOM     24  C   UNL     1       4.163  -2.804 -24.791  1.00  0.00    -0.065 C 
ATOM     25  C   UNL     1       5.026  -1.512 -22.839  1.00  0.00     0.014 C 
ATOM     26  C   UNL     1       2.540  -2.035 -23.037  1.00  0.00     0.016 C 
ATOM     27  C   UNL     1       4.579  -4.131 -24.191  1.00  0.00     0.063 C 
ATOM     28  C   UNL     1       5.481  -2.845 -22.208  1.00  0.00     0.033 C 
ATOM     29  C   UNL     1       5.783  -3.924 -23.264  1.00  0.00     0.118 C 
BRANCH  29  30
ATOM     30  O   UNL     1       6.906  -3.562 -24.027  1.00  0.00    -0.393 OA
ATOM     31  H   UNL     1       6.992  -2.576 -23.958  1.00  0.00     0.210 HD
ENDBRANCH  29  30
ENDBRANCH   9  11
ENDBRANCH   1   9
TORSDOF 7
ENDMDL
MODEL 9
REMARK VINA RESULT:    -8.116      3.163      9.140
REMARK INTER + INTRA:         -12.440
REMARK INTER:                 -10.986
REMARK INTRA:                  -1.454
REMARK UNBOUND:                -1.241
REMARK SMILES CC[C@H](CC[C@@H](C)[C@@H]1CC[C@H]2[C@@H]3CC=C4C[C@@H](O)CC[C@@]4(C)[C@H]3CC[C@]21C)C(C)C
REMARK SMILES IDX 5 1 4 2 3 3 2 4 1 5 28 6 29 7 30 8 6 9 7 10 8 11 9 12 26 13
REMARK SMILES IDX 10 14 11 15 25 16 27 17 12 18 24 19 23 20 13 21 21 22 14 23
REMARK SMILES IDX 15 24 20 25 22 26 16 27 19 28 17 29 18 30
REMARK H PARENT 18 31
REMARK Flexibility Score: inf
ROOT
ATOM      1  C   UNL     1       3.269   5.898 -24.647  1.00  0.00     0.004 C 
ENDROOT
BRANCH   1   2
ATOM      2  C   UNL     1       4.468   6.637 -23.992  1.00  0.00     0.004 C 
BRANCH   2   3
ATOM      3  C   UNL     1       4.701   6.412 -22.465  1.00  0.00    -0.009 C 
BRANCH   3   4
ATOM      4  C   UNL     1       5.592   5.159 -22.219  1.00  0.00     0.000 C 
ATOM      5  C   UNL     1       4.860   4.039 -21.472  1.00  0.00     0.004 C 
ENDBRANCH   3   4
BRANCH   3   6
ATOM      6  C   UNL     1       5.205   7.689 -21.703  1.00  0.00    -0.014 C 
ATOM      7  C   UNL     1       6.691   7.981 -21.979  1.00  0.00     0.007 C 
ATOM      8  C   UNL     1       4.384   8.937 -22.062  1.00  0.00     0.007 C 
ENDBRANCH   3   6
ENDBRANCH   2   3
ENDBRANCH   1   2
BRANCH   1   9
ATOM      9  C   UNL     1       3.505   5.216 -26.030  1.00  0.00    -0.011 C 
ATOM     10  C   UNL     1       4.337   6.143 -26.946  1.00  0.00     0.008 C 
BRANCH   9  11
ATOM     11  C   UNL     1       4.222   3.821 -25.845  1.00  0.00    -0.002 C 
ATOM     12  C   UNL     1       5.183   3.473 -26.984  1.00  0.00     0.005 C 
ATOM     13  C   UNL     1       3.323   2.533 -25.678  1.00  0.00    -0.026 C 
ATOM     14  C   UNL     1       5.469   2.002 -26.809  1.00  0.00     0.005 C 
ATOM     15  C   UNL     1       4.126   1.388 -26.420  1.00  0.00    -0.001 C 
ATOM     16  C   UNL     1       3.031   2.270 -24.155  1.00  0.00     0.007 C 
ATOM     17  C   UNL     1       1.961   2.676 -26.416  1.00  0.00     0.012 C 
ATOM     18  C   UNL     1       4.315  -0.008 -25.724  1.00  0.00     0.000 C 
ATOM     19  C   UNL     1       3.744   1.066 -23.559  1.00  0.00     0.005 C 
ATOM     20  C   UNL     1       3.504  -0.171 -24.433  1.00  0.00     0.003 C 
ATOM     21  C   UNL     1       3.929  -1.149 -26.678  1.00  0.00     0.031 C 
ATOM     22  C   UNL     1       3.801  -1.548 -23.705  1.00  0.00    -0.008 C 
ATOM     23  C   UNL     1       4.150  -2.486 -26.040  1.00  0.00    -0.027 C 
ATOM     24  C   UNL     1       4.058  -2.688 -24.707  1.00  0.00    -0.065 C 
ATOM     25  C   UNL     1       5.060  -1.455 -22.784  1.00  0.00     0.014 C 
ATOM     26  C   UNL     1       2.553  -1.905 -22.856  1.00  0.00     0.016 C 
ATOM     27  C   UNL     1       4.468  -4.037 -24.151  1.00  0.00     0.063 C 
ATOM     28  C   UNL     1       5.511  -2.810 -22.199  1.00  0.00     0.033 C 
ATOM     29  C   UNL     1       5.725  -3.878 -23.287  1.00  0.00     0.118 C 
BRANCH  29  30
ATOM     30  O   UNL     1       6.815  -3.534 -24.104  1.00  0.00    -0.393 OA
ATOM     31  H   UNL     1       7.508  -4.231 -23.964  1.00  0.00     0.210 HD
ENDBRANCH  29  30
ENDBRANCH   9  11
ENDBRANCH   1   9
TORSDOF 7
ENDMDL
