MODEL 1
REMARK VINA RESULT:    -3.662      0.000      0.000
REMARK INTER + INTRA:          -6.226
REMARK INTER:                  -5.588
REMARK INTRA:                  -0.637
REMARK UNBOUND:                -0.637
REMARK SMILES CCCCCCCCCCC(=O)[O-]
REMARK SMILES IDX 7 1 8 2 9 3 10 4 11 5 12 6 13 7 6 8 5 9 4 10 3 11 2 12 1 13
REMARK H PARENT
REMARK Flexibility Score: inf
ROOT
ATOM      1  C   UNL     1       4.089 -34.367  20.576  1.00  0.00     0.000 C 
ENDROOT
BRANCH   1   2
ATOM      2  C   UNL     1       5.326 -35.146  20.093  1.00  0.00     0.000 C 
BRANCH   2   3
ATOM      3  C   UNL     1       5.030 -36.636  19.860  1.00  0.00     0.006 C 
BRANCH   3   4
ATOM      4  C   UNL     1       4.904 -37.424  21.170  1.00  0.00     0.053 C 
BRANCH   4   5
ATOM      5  C   UNL     1       5.299 -38.852  20.961  1.00  0.00     0.041 C 
ATOM      6  O   UNL     1       5.804 -39.216  19.866  1.00  0.00    -0.550 OA
ATOM      7  O   UNL     1       5.154 -39.771  21.991  1.00  0.00    -0.550 OA
ENDBRANCH   4   5
ENDBRANCH   3   4
ENDBRANCH   2   3
ENDBRANCH   1   2
BRANCH   1   8
ATOM      8  C   UNL     1       4.162 -34.004  22.068  1.00  0.00     0.000 C 
BRANCH   8   9
ATOM      9  C   UNL     1       5.595 -33.693  22.530  1.00  0.00    -0.000 C 
BRANCH   9  10
ATOM     10  C   UNL     1       5.925 -34.301  23.905  1.00  0.00    -0.000 C 
BRANCH  10  11
ATOM     11  C   UNL     1       5.530 -35.782  24.081  1.00  0.00    -0.000 C 
BRANCH  11  12
ATOM     12  C   UNL     1       5.876 -36.389  25.452  1.00  0.00    -0.003 C 
ATOM     13  C   UNL     1       4.825 -37.384  25.945  1.00  0.00     0.004 C 
ENDBRANCH  11  12
ENDBRANCH  10  11
ENDBRANCH   9  10
ENDBRANCH   8   9
ENDBRANCH   1   8
TORSDOF 9
ENDMDL
MODEL 2
REMARK VINA RESULT:    -3.565      2.301      4.203
REMARK INTER + INTRA:          -6.078
REMARK INTER:                  -5.276
REMARK INTRA:                  -0.802
REMARK UNBOUND:                -0.637
REMARK SMILES CCCCCCCCCCC(=O)[O-]
REMARK SMILES IDX 7 1 8 2 9 3 10 4 11 5 12 6 13 7 6 8 5 9 4 10 3 11 2 12 1 13
REMARK H PARENT
REMARK Flexibility Score: inf
ROOT
ATOM      1  C   UNL     1       3.975 -34.137  21.546  1.00  0.00     0.000 C 
ENDROOT
BRANCH   1   2
ATOM      2  C   UNL     1       4.989 -33.924  22.685  1.00  0.00     0.000 C 
BRANCH   2   3
ATOM      3  C   UNL     1       5.854 -35.168  22.944  1.00  0.00     0.006 C 
BRANCH   3   4
ATOM      4  C   UNL     1       5.074 -36.294  23.635  1.00  0.00     0.053 C 
BRANCH   4   5
ATOM      5  C   UNL     1       5.437 -36.367  25.085  1.00  0.00     0.041 C 
ATOM      6  O   UNL     1       6.125 -35.453  25.612  1.00  0.00    -0.550 OA
ATOM      7  O   UNL     1       4.974 -37.418  25.866  1.00  0.00    -0.550 OA
ENDBRANCH   4   5
ENDBRANCH   3   4
ENDBRANCH   2   3
ENDBRANCH   1   2
BRANCH   1   8
ATOM      8  C   UNL     1       4.641 -34.197  20.163  1.00  0.00     0.000 C 
BRANCH   8   9
ATOM      9  C   UNL     1       4.344 -35.511  19.421  1.00  0.00    -0.000 C 
BRANCH   9  10
ATOM     10  C   UNL     1       5.317 -36.643  19.797  1.00  0.00    -0.000 C 
BRANCH  10  11
ATOM     11  C   UNL     1       4.683 -37.832  20.548  1.00  0.00    -0.000 C 
BRANCH  11  12
ATOM     12  C   UNL     1       5.608 -39.046  20.742  1.00  0.00    -0.003 C 
ATOM     13  C   UNL     1       5.297 -39.834  22.014  1.00  0.00     0.004 C 
ENDBRANCH  11  12
ENDBRANCH  10  11
ENDBRANCH   9  10
ENDBRANCH   8   9
ENDBRANCH   1   8
TORSDOF 9
ENDMDL
MODEL 3
REMARK VINA RESULT:    -3.213      2.415      2.786
REMARK INTER + INTRA:          -5.541
REMARK INTER:                  -4.852
REMARK INTRA:                  -0.689
REMARK UNBOUND:                -0.637
REMARK SMILES CCCCCCCCCCC(=O)[O-]
REMARK SMILES IDX 7 1 8 2 9 3 10 4 11 5 12 6 13 7 6 8 5 9 4 10 3 11 2 12 1 13
REMARK H PARENT
REMARK Flexibility Score: inf
ROOT
ATOM      1  C   UNL     1       4.350 -34.133  22.067  1.00  0.00     0.000 C 
ENDROOT
BRANCH   1   2
ATOM      2  C   UNL     1       3.793 -35.428  21.450  1.00  0.00     0.000 C 
BRANCH   2   3
ATOM      3  C   UNL     1       4.899 -36.332  20.881  1.00  0.00     0.006 C 
BRANCH   3   4
ATOM      4  C   UNL     1       4.751 -36.567  19.373  1.00  0.00     0.053 C 
BRANCH   4   5
ATOM      5  C   UNL     1       5.012 -35.302  18.618  1.00  0.00     0.041 C 
ATOM      6  O   UNL     1       4.237 -34.945  17.692  1.00  0.00    -0.550 OA
ATOM      7  O   UNL     1       6.083 -34.490  18.971  1.00  0.00    -0.550 OA
ENDBRANCH   4   5
ENDBRANCH   3   4
ENDBRANCH   2   3
ENDBRANCH   1   2
BRANCH   1   8
ATOM      8  C   UNL     1       5.822 -34.262  22.490  1.00  0.00     0.000 C 
BRANCH   8   9
ATOM      9  C   UNL     1       6.122 -33.537  23.812  1.00  0.00    -0.000 C 
BRANCH   9  10
ATOM     10  C   UNL     1       6.125 -34.484  25.026  1.00  0.00    -0.000 C 
BRANCH  10  11
ATOM     11  C   UNL     1       5.716 -35.941  24.725  1.00  0.00    -0.000 C 
BRANCH  11  12
ATOM     12  C   UNL     1       5.581 -36.848  25.960  1.00  0.00    -0.003 C 
ATOM     13  C   UNL     1       4.414 -37.829  25.855  1.00  0.00     0.004 C 
ENDBRANCH  11  12
ENDBRANCH  10  11
ENDBRANCH   9  10
ENDBRANCH   8   9
ENDBRANCH   1   8
TORSDOF 9
ENDMDL
MODEL 4
REMARK VINA RESULT:    -3.108      1.166      3.898
REMARK INTER + INTRA:          -5.380
REMARK INTER:                  -4.845
REMARK INTRA:                  -0.535
REMARK UNBOUND:                -0.637
REMARK SMILES CCCCCCCCCCC(=O)[O-]
REMARK SMILES IDX 7 1 8 2 9 3 10 4 11 5 12 6 13 7 6 8 5 9 4 10 3 11 2 12 1 13
REMARK H PARENT
REMARK Flexibility Score: inf
ROOT
ATOM      1  C   UNL     1       6.098 -34.639  24.007  1.00  0.00     0.000 C 
ENDROOT
BRANCH   1   2
ATOM      2  C   UNL     1       5.319 -35.962  23.908  1.00  0.00     0.000 C 
BRANCH   2   3
ATOM      3  C   UNL     1       5.794 -36.840  22.738  1.00  0.00     0.006 C 
BRANCH   3   4
ATOM      4  C   UNL     1       4.637 -37.313  21.850  1.00  0.00     0.053 C 
BRANCH   4   5
ATOM      5  C   UNL     1       5.096 -38.400  20.929  1.00  0.00     0.041 C 
ATOM      6  O   UNL     1       5.091 -38.218  19.683  1.00  0.00    -0.550 OA
ATOM      7  O   UNL     1       5.575 -39.595  21.449  1.00  0.00    -0.550 OA
ENDBRANCH   4   5
ENDBRANCH   3   4
ENDBRANCH   2   3
ENDBRANCH   1   2
BRANCH   1   8
ATOM      8  C   UNL     1       5.699 -33.632  22.916  1.00  0.00     0.000 C 
BRANCH   8   9
ATOM      9  C   UNL     1       4.272 -33.866  22.392  1.00  0.00    -0.000 C 
BRANCH   9  10
ATOM     10  C   UNL     1       4.193 -33.866  20.854  1.00  0.00    -0.000 C 
BRANCH  10  11
ATOM     11  C   UNL     1       5.395 -34.510  20.133  1.00  0.00    -0.000 C 
BRANCH  11  12
ATOM     12  C   UNL     1       5.367 -34.403  18.598  1.00  0.00    -0.003 C 
ATOM     13  C   UNL     1       4.222 -35.196  17.967  1.00  0.00     0.004 C 
ENDBRANCH  11  12
ENDBRANCH  10  11
ENDBRANCH   9  10
ENDBRANCH   8   9
ENDBRANCH   1   8
TORSDOF 9
ENDMDL
MODEL 5
REMARK VINA RESULT:    -2.005      2.691      5.386
REMARK INTER + INTRA:          -3.697
REMARK INTER:                  -3.006
REMARK INTRA:                  -0.690
REMARK UNBOUND:                -0.637
REMARK SMILES CCCCCCCCCCC(=O)[O-]
REMARK SMILES IDX 7 1 8 2 9 3 10 4 11 5 12 6 13 7 6 8 5 9 4 10 3 11 2 12 1 13
REMARK H PARENT
REMARK Flexibility Score: inf
ROOT
ATOM      1  C   UNL     1       5.312 -36.492  23.697  1.00  0.00     0.000 C 
ENDROOT
BRANCH   1   2
ATOM      2  C   UNL     1       6.113 -35.224  24.044  1.00  0.00     0.000 C 
BRANCH   2   3
ATOM      3  C   UNL     1       5.409 -33.938  23.582  1.00  0.00     0.006 C 
BRANCH   3   4
ATOM      4  C   UNL     1       5.232 -33.877  22.060  1.00  0.00     0.053 C 
BRANCH   4   5
ATOM      5  C   UNL     1       3.781 -33.777  21.706  1.00  0.00     0.041 C 
ATOM      6  O   UNL     1       2.992 -34.714  22.000  1.00  0.00    -0.550 OA
ATOM      7  O   UNL     1       3.292 -32.631  21.095  1.00  0.00    -0.550 OA
ENDBRANCH   4   5
ENDBRANCH   3   4
ENDBRANCH   2   3
ENDBRANCH   1   2
BRANCH   1   8
ATOM      8  C   UNL     1       5.766 -37.138  22.378  1.00  0.00     0.000 C 
BRANCH   8   9
ATOM      9  C   UNL     1       4.612 -37.823  21.628  1.00  0.00    -0.000 C 
BRANCH   9  10
ATOM     10  C   UNL     1       4.880 -37.964  20.119  1.00  0.00    -0.000 C 
BRANCH  10  11
ATOM     11  C   UNL     1       5.447 -36.705  19.430  1.00  0.00    -0.000 C 
BRANCH  11  12
ATOM     12  C   UNL     1       4.391 -35.711  18.920  1.00  0.00    -0.003 C 
ATOM     13  C   UNL     1       5.000 -34.408  18.402  1.00  0.00     0.004 C 
ENDBRANCH  11  12
ENDBRANCH  10  11
ENDBRANCH   9  10
ENDBRANCH   8   9
ENDBRANCH   1   8
TORSDOF 9
ENDMDL
MODEL 6
REMARK VINA RESULT:    -1.957      2.392      4.302
REMARK INTER + INTRA:          -3.624
REMARK INTER:                  -3.382
REMARK INTRA:                  -0.242
REMARK UNBOUND:                -0.637
REMARK SMILES CCCCCCCCCCC(=O)[O-]
REMARK SMILES IDX 7 1 8 2 9 3 10 4 11 5 12 6 13 7 6 8 5 9 4 10 3 11 2 12 1 13
REMARK H PARENT
REMARK Flexibility Score: inf
ROOT
ATOM      1  C   UNL     1       5.297 -35.059  23.480  1.00  0.00     0.000 C 
ENDROOT
BRANCH   1   2
ATOM      2  C   UNL     1       4.684 -33.887  22.693  1.00  0.00     0.000 C 
BRANCH   2   3
ATOM      3  C   UNL     1       3.728 -34.358  21.586  1.00  0.00     0.006 C 
BRANCH   3   4
ATOM      4  C   UNL     1       4.044 -33.724  20.225  1.00  0.00     0.053 C 
BRANCH   4   5
ATOM      5  C   UNL     1       4.868 -34.656  19.394  1.00  0.00     0.041 C 
ATOM      6  O   UNL     1       6.125 -34.633  19.474  1.00  0.00    -0.550 OA
ATOM      7  O   UNL     1       4.248 -35.583  18.566  1.00  0.00    -0.550 OA
ENDBRANCH   4   5
ENDBRANCH   3   4
ENDBRANCH   2   3
ENDBRANCH   1   2
BRANCH   1   8
ATOM      8  C   UNL     1       6.040 -36.057  22.577  1.00  0.00     0.000 C 
BRANCH   8   9
ATOM      9  C   UNL     1       5.391 -37.451  22.579  1.00  0.00    -0.000 C 
BRANCH   9  10
ATOM     10  C   UNL     1       4.603 -37.746  21.291  1.00  0.00    -0.000 C 
BRANCH  10  11
ATOM     11  C   UNL     1       5.374 -38.536  20.213  1.00  0.00    -0.000 C 
BRANCH  11  12
ATOM     12  C   UNL     1       6.038 -39.833  20.708  1.00  0.00    -0.003 C 
ATOM     13  C   UNL     1       5.390 -40.388  21.975  1.00  0.00     0.004 C 
ENDBRANCH  11  12
ENDBRANCH  10  11
ENDBRANCH   9  10
ENDBRANCH   8   9
ENDBRANCH   1   8
TORSDOF 9
ENDMDL
MODEL 7
REMARK VINA RESULT:    -1.895      1.989      4.696
REMARK INTER + INTRA:          -3.529
REMARK INTER:                  -2.757
REMARK INTRA:                  -0.772
REMARK UNBOUND:                -0.637
REMARK SMILES CCCCCCCCCCC(=O)[O-]
REMARK SMILES IDX 7 1 8 2 9 3 10 4 11 5 12 6 13 7 6 8 5 9 4 10 3 11 2 12 1 13
REMARK H PARENT
REMARK Flexibility Score: inf
ROOT
ATOM      1  C   UNL     1       4.709 -37.112  22.006  1.00  0.00     0.000 C 
ENDROOT
BRANCH   1   2
ATOM      2  C   UNL     1       5.872 -36.439  22.755  1.00  0.00     0.000 C 
BRANCH   2   3
ATOM      3  C   UNL     1       5.398 -35.626  23.970  1.00  0.00     0.006 C 
BRANCH   3   4
ATOM      4  C   UNL     1       5.816 -36.260  25.303  1.00  0.00     0.053 C 
BRANCH   4   5
ATOM      5  C   UNL     1       4.857 -37.341  25.690  1.00  0.00     0.041 C 
ATOM      6  O   UNL     1       3.869 -37.078  26.425  1.00  0.00    -0.550 OA
ATOM      7  O   UNL     1       5.028 -38.630  25.201  1.00  0.00    -0.550 OA
ENDBRANCH   4   5
ENDBRANCH   3   4
ENDBRANCH   2   3
ENDBRANCH   1   2
BRANCH   1   8
ATOM      8  C   UNL     1       5.130 -37.678  20.640  1.00  0.00     0.000 C 
BRANCH   8   9
ATOM      9  C   UNL     1       4.721 -36.767  19.472  1.00  0.00    -0.000 C 
BRANCH   9  10
ATOM     10  C   UNL     1       5.487 -35.431  19.459  1.00  0.00    -0.000 C 
BRANCH  10  11
ATOM     11  C   UNL     1       4.614 -34.170  19.622  1.00  0.00    -0.000 C 
BRANCH  11  12
ATOM     12  C   UNL     1       4.466 -33.662  21.066  1.00  0.00    -0.003 C 
ATOM     13  C   UNL     1       3.084 -33.940  21.657  1.00  0.00     0.004 C 
ENDBRANCH  11  12
ENDBRANCH  10  11
ENDBRANCH   9  10
ENDBRANCH   8   9
ENDBRANCH   1   8
TORSDOF 9
ENDMDL
MODEL 8
REMARK VINA RESULT:    -1.288      2.499      5.330
REMARK INTER + INTRA:          -2.602
REMARK INTER:                  -2.342
REMARK INTRA:                  -0.261
REMARK UNBOUND:                -0.637
REMARK SMILES CCCCCCCCCCC(=O)[O-]
REMARK SMILES IDX 7 1 8 2 9 3 10 4 11 5 12 6 13 7 6 8 5 9 4 10 3 11 2 12 1 13
REMARK H PARENT
REMARK Flexibility Score: inf
ROOT
ATOM      1  C   UNL     1       4.142 -34.124  22.279  1.00  0.00     0.000 C 
ENDROOT
BRANCH   1   2
ATOM      2  C   UNL     1       5.481 -33.728  22.928  1.00  0.00     0.000 C 
BRANCH   2   3
ATOM      3  C   UNL     1       6.047 -34.835  23.832  1.00  0.00     0.006 C 
BRANCH   3   4
ATOM      4  C   UNL     1       5.019 -35.932  24.136  1.00  0.00     0.053 C 
BRANCH   4   5
ATOM      5  C   UNL     1       5.420 -36.701  25.355  1.00  0.00     0.041 C 
ATOM      6  O   UNL     1       6.125 -36.155  26.244  1.00  0.00    -0.550 OA
ATOM      7  O   UNL     1       4.974 -38.004  25.533  1.00  0.00    -0.550 OA
ENDBRANCH   4   5
ENDBRANCH   3   4
ENDBRANCH   2   3
ENDBRANCH   1   2
BRANCH   1   8
ATOM      8  C   UNL     1       4.326 -34.854  20.939  1.00  0.00     0.000 C 
BRANCH   8   9
ATOM      9  C   UNL     1       5.803 -34.968  20.527  1.00  0.00    -0.000 C 
BRANCH   9  10
ATOM     10  C   UNL     1       6.015 -34.801  19.012  1.00  0.00    -0.000 C 
BRANCH  10  11
ATOM     11  C   UNL     1       4.739 -34.510  18.196  1.00  0.00    -0.000 C 
BRANCH  11  12
ATOM     12  C   UNL     1       4.237 -35.679  17.331  1.00  0.00    -0.003 C 
ATOM     13  C   UNL     1       3.035 -35.305  16.464  1.00  0.00     0.004 C 
ENDBRANCH  11  12
ENDBRANCH  10  11
ENDBRANCH   9  10
ENDBRANCH   8   9
ENDBRANCH   1   8
TORSDOF 9
ENDMDL
