MODEL 1
REMARK VINA RESULT:    -3.966      0.000      0.000
REMARK INTER + INTRA:          -3.966
REMARK INTER:                  -3.966
REMARK INTRA:                   0.000
REMARK UNBOUND:                 0.000
REMARK SMILES O=C1CCCCC1
REMARK SMILES IDX 5 1 4 2 3 3 2 4 1 5 7 6 6 7
REMARK H PARENT
REMARK Flexibility Score: inf
ROOT
ATOM      1  C   UNL     1      16.018  41.960 -13.614  1.00  0.00     0.001 C 
ATOM      2  C   UNL     1      15.383  42.600 -12.371  1.00  0.00     0.008 C 
ATOM      3  C   UNL     1      14.158  43.446 -12.738  1.00  0.00     0.075 C 
ATOM      4  C   UNL     1      14.496  44.402 -13.849  1.00  0.00     0.132 C 
ATOM      5  O   UNL     1      14.111  45.560 -13.805  1.00  0.00    -0.300 OA
ATOM      6  C   UNL     1      15.230  43.892 -15.059  1.00  0.00     0.075 C 
ATOM      7  C   UNL     1      16.429  43.034 -14.634  1.00  0.00     0.008 C 
ENDROOT
TORSDOF 0
ENDMDL
MODEL 2
REMARK VINA RESULT:    -3.937      1.939      2.735
REMARK INTER + INTRA:          -3.937
REMARK INTER:                  -3.937
REMARK INTRA:                   0.000
REMARK UNBOUND:                 0.000
REMARK SMILES O=C1CCCCC1
REMARK SMILES IDX 5 1 4 2 3 3 2 4 1 5 7 6 6 7
REMARK H PARENT
REMARK Flexibility Score: inf
ROOT
ATOM      1  C   UNL     1      14.401  44.534 -13.863  1.00  0.00     0.001 C 
ATOM      2  C   UNL     1      14.003  43.483 -12.817  1.00  0.00     0.008 C 
ATOM      3  C   UNL     1      15.218  42.678 -12.339  1.00  0.00     0.075 C 
ATOM      4  C   UNL     1      15.991  42.150 -13.517  1.00  0.00     0.132 C 
ATOM      5  O   UNL     1      16.412  41.003 -13.514  1.00  0.00    -0.300 OA
ATOM      6  C   UNL     1      16.322  43.077 -14.654  1.00  0.00     0.075 C 
ATOM      7  C   UNL     1      15.080  43.873 -15.073  1.00  0.00     0.008 C 
ENDROOT
TORSDOF 0
ENDMDL
MODEL 3
REMARK VINA RESULT:    -3.783      1.567      2.804
REMARK INTER + INTRA:          -3.783
REMARK INTER:                  -3.783
REMARK INTRA:                   0.000
REMARK UNBOUND:                 0.000
REMARK SMILES O=C1CCCCC1
REMARK SMILES IDX 5 1 4 2 3 3 2 4 1 5 7 6 6 7
REMARK H PARENT
REMARK Flexibility Score: inf
ROOT
ATOM      1  C   UNL     1      13.875  43.445 -12.728  1.00  0.00     0.001 C 
ATOM      2  C   UNL     1      14.253  44.579 -13.690  1.00  0.00     0.008 C 
ATOM      3  C   UNL     1      14.961  44.043 -14.940  1.00  0.00     0.075 C 
ATOM      4  C   UNL     1      16.092  43.131 -14.549  1.00  0.00     0.132 C 
ATOM      5  O   UNL     1      17.170  43.205 -15.118  1.00  0.00    -0.300 OA
ATOM      6  C   UNL     1      15.850  42.063 -13.517  1.00  0.00     0.075 C 
ATOM      7  C   UNL     1      15.119  42.649 -12.303  1.00  0.00     0.008 C 
ENDROOT
TORSDOF 0
ENDMDL
MODEL 4
REMARK VINA RESULT:    -3.660     14.471     15.646
REMARK INTER + INTRA:          -3.660
REMARK INTER:                  -3.660
REMARK INTRA:                   0.000
REMARK UNBOUND:                 0.000
REMARK SMILES O=C1CCCCC1
REMARK SMILES IDX 5 1 4 2 3 3 2 4 1 5 7 6 6 7
REMARK H PARENT
REMARK Flexibility Score: inf
ROOT
ATOM      1  C   UNL     1      17.711  43.639   1.854  1.00  0.00     0.001 C 
ATOM      2  C   UNL     1      19.032  43.782   2.623  1.00  0.00     0.008 C 
ATOM      3  C   UNL     1      20.219  43.970   1.669  1.00  0.00     0.075 C 
ATOM      4  C   UNL     1      20.208  42.906   0.605  1.00  0.00     0.132 C 
ATOM      5  O   UNL     1      21.244  42.348   0.280  1.00  0.00    -0.300 OA
ATOM      6  C   UNL     1      18.925  42.608  -0.121  1.00  0.00     0.075 C 
ATOM      7  C   UNL     1      17.770  42.454   0.877  1.00  0.00     0.008 C 
ENDROOT
TORSDOF 0
ENDMDL
MODEL 5
REMARK VINA RESULT:    -3.581      1.595      2.849
REMARK INTER + INTRA:          -3.581
REMARK INTER:                  -3.581
REMARK INTRA:                   0.000
REMARK UNBOUND:                 0.000
REMARK SMILES O=C1CCCCC1
REMARK SMILES IDX 5 1 4 2 3 3 2 4 1 5 7 6 6 7
REMARK H PARENT
REMARK Flexibility Score: inf
ROOT
ATOM      1  C   UNL     1      15.164  43.984 -15.330  1.00  0.00     0.001 C 
ATOM      2  C   UNL     1      16.465  43.260 -14.956  1.00  0.00     0.008 C 
ATOM      3  C   UNL     1      16.224  42.193 -13.880  1.00  0.00     0.075 C 
ATOM      4  C   UNL     1      15.462  42.781 -12.724  1.00  0.00     0.132 C 
ATOM      5  O   UNL     1      15.786  42.521 -11.575  1.00  0.00    -0.300 OA
ATOM      6  C   UNL     1      14.239  43.613 -12.997  1.00  0.00     0.075 C 
ATOM      7  C   UNL     1      14.529  44.643 -14.096  1.00  0.00     0.008 C 
ENDROOT
TORSDOF 0
ENDMDL
MODEL 6
REMARK VINA RESULT:    -3.558     14.140     15.061
REMARK INTER + INTRA:          -3.558
REMARK INTER:                  -3.558
REMARK INTRA:                   0.000
REMARK UNBOUND:                 0.000
REMARK SMILES O=C1CCCCC1
REMARK SMILES IDX 5 1 4 2 3 3 2 4 1 5 7 6 6 7
REMARK H PARENT
REMARK Flexibility Score: inf
ROOT
ATOM      1  C   UNL     1      17.985  42.648   1.829  1.00  0.00     0.001 C 
ATOM      2  C   UNL     1      17.144  43.860   1.404  1.00  0.00     0.008 C 
ATOM      3  C   UNL     1      17.607  44.418   0.052  1.00  0.00     0.075 C 
ATOM      4  C   UNL     1      19.095  44.640   0.061  1.00  0.00     0.132 C 
ATOM      5  O   UNL     1      19.570  45.658  -0.419  1.00  0.00    -0.300 OA
ATOM      6  C   UNL     1      19.997  43.553   0.577  1.00  0.00     0.075 C 
ATOM      7  C   UNL     1      19.474  43.016   1.915  1.00  0.00     0.008 C 
ENDROOT
TORSDOF 0
ENDMDL
MODEL 7
REMARK VINA RESULT:    -3.519     14.205     15.334
REMARK INTER + INTRA:          -3.519
REMARK INTER:                  -3.519
REMARK INTRA:                   0.000
REMARK UNBOUND:                 0.000
REMARK SMILES O=C1CCCCC1
REMARK SMILES IDX 5 1 4 2 3 3 2 4 1 5 7 6 6 7
REMARK H PARENT
REMARK Flexibility Score: inf
ROOT
ATOM      1  C   UNL     1      19.899  44.125   2.156  1.00  0.00     0.001 C 
ATOM      2  C   UNL     1      20.791  43.055   1.510  1.00  0.00     0.008 C 
ATOM      3  C   UNL     1      20.412  42.820   0.042  1.00  0.00     0.075 C 
ATOM      4  C   UNL     1      18.932  42.583  -0.084  1.00  0.00     0.132 C 
ATOM      5  O   UNL     1      18.509  41.698  -0.812  1.00  0.00    -0.300 OA
ATOM      6  C   UNL     1      17.977  43.509   0.619  1.00  0.00     0.075 C 
ATOM      7  C   UNL     1      18.417  43.727   2.072  1.00  0.00     0.008 C 
ENDROOT
TORSDOF 0
ENDMDL
MODEL 8
REMARK VINA RESULT:    -3.481     14.477     15.438
REMARK INTER + INTRA:          -3.481
REMARK INTER:                  -3.481
REMARK INTRA:                   0.000
REMARK UNBOUND:                 0.000
REMARK SMILES O=C1CCCCC1
REMARK SMILES IDX 5 1 4 2 3 3 2 4 1 5 7 6 6 7
REMARK H PARENT
REMARK Flexibility Score: inf
ROOT
ATOM      1  C   UNL     1      16.941  44.310   0.054  1.00  0.00     0.001 C 
ATOM      2  C   UNL     1      18.048  45.334  -0.236  1.00  0.00     0.008 C 
ATOM      3  C   UNL     1      19.435  44.773   0.106  1.00  0.00     0.075 C 
ATOM      4  C   UNL     1      19.439  44.201   1.497  1.00  0.00     0.132 C 
ATOM      5  O   UNL     1      20.376  44.416   2.250  1.00  0.00    -0.300 OA
ATOM      6  C   UNL     1      18.324  43.282   1.916  1.00  0.00     0.075 C 
ATOM      7  C   UNL     1      16.966  43.880   1.529  1.00  0.00     0.008 C 
ENDROOT
TORSDOF 0
ENDMDL
MODEL 9
REMARK VINA RESULT:    -3.394     14.307     15.168
REMARK INTER + INTRA:          -3.394
REMARK INTER:                  -3.394
REMARK INTRA:                   0.000
REMARK UNBOUND:                 0.000
REMARK SMILES O=C1CCCCC1
REMARK SMILES IDX 5 1 4 2 3 3 2 4 1 5 7 6 6 7
REMARK H PARENT
REMARK Flexibility Score: inf
ROOT
ATOM      1  C   UNL     1      19.932  43.812   0.425  1.00  0.00     0.001 C 
ATOM      2  C   UNL     1      19.550  43.328   1.831  1.00  0.00     0.008 C 
ATOM      3  C   UNL     1      18.084  42.881   1.891  1.00  0.00     0.075 C 
ATOM      4  C   UNL     1      17.189  43.943   1.312  1.00  0.00     0.132 C 
ATOM      5  O   UNL     1      16.142  44.238   1.868  1.00  0.00    -0.300 OA
ATOM      6  C   UNL     1      17.550  44.568  -0.008  1.00  0.00     0.075 C 
ATOM      7  C   UNL     1      19.029  44.973  -0.020  1.00  0.00     0.008 C 
ENDROOT
TORSDOF 0
ENDMDL
