MODEL 1
REMARK VINA RESULT:    -4.056      0.000      0.000
REMARK INTER + INTRA:          -7.382
REMARK INTER:                  -6.428
REMARK INTRA:                  -0.954
REMARK UNBOUND:                -0.954
REMARK SMILES CCCCCCCCCCCC(=O)[O-]
REMARK SMILES IDX 7 1 8 2 9 3 10 4 11 5 12 6 13 7 14 8 6 9 5 10 4 11 3 12 2 13
REMARK SMILES IDX 1 14
REMARK H PARENT
REMARK Flexibility Score: inf
ROOT
ATOM      1  C   UNL     1      27.063  -4.286  19.085  1.00  0.00     0.000 C 
ENDROOT
BRANCH   1   2
ATOM      2  C   UNL     1      26.991  -5.808  19.286  1.00  0.00     0.000 C 
BRANCH   2   3
ATOM      3  C   UNL     1      27.182  -6.593  17.976  1.00  0.00     0.000 C 
BRANCH   3   4
ATOM      4  C   UNL     1      25.901  -7.302  17.486  1.00  0.00     0.006 C 
BRANCH   4   5
ATOM      5  C   UNL     1      25.029  -7.792  18.649  1.00  0.00     0.053 C 
BRANCH   5   6
ATOM      6  C   UNL     1      24.056  -8.824  18.177  1.00  0.00     0.041 C 
ATOM      7  O   UNL     1      23.020  -9.074  18.849  1.00  0.00    -0.550 OA
ATOM      8  O   UNL     1      24.314  -9.546  17.019  1.00  0.00    -0.550 OA
ENDBRANCH   5   6
ENDBRANCH   4   5
ENDBRANCH   3   4
ENDBRANCH   2   3
ENDBRANCH   1   2
BRANCH   1   9
ATOM      9  C   UNL     1      25.746  -3.581  19.449  1.00  0.00     0.000 C 
BRANCH   9  10
ATOM     10  C   UNL     1      24.649  -3.801  18.393  1.00  0.00    -0.000 C 
BRANCH  10  11
ATOM     11  C   UNL     1      23.424  -4.539  18.956  1.00  0.00    -0.000 C 
BRANCH  11  12
ATOM     12  C   UNL     1      22.109  -3.785  18.709  1.00  0.00    -0.000 C 
BRANCH  12  13
ATOM     13  C   UNL     1      21.194  -3.862  19.936  1.00  0.00    -0.003 C 
ATOM     14  C   UNL     1      22.005  -3.978  21.223  1.00  0.00     0.004 C 
ENDBRANCH  12  13
ENDBRANCH  11  12
ENDBRANCH  10  11
ENDBRANCH   9  10
ENDBRANCH   1   9
TORSDOF 10
ENDMDL
MODEL 2
REMARK VINA RESULT:    -3.988      2.490      4.599
REMARK INTER + INTRA:          -7.273
REMARK INTER:                  -6.130
REMARK INTRA:                  -1.142
REMARK UNBOUND:                -0.954
REMARK SMILES CCCCCCCCCCCC(=O)[O-]
REMARK SMILES IDX 7 1 8 2 9 3 10 4 11 5 12 6 13 7 14 8 6 9 5 10 4 11 3 12 2 13
REMARK SMILES IDX 1 14
REMARK H PARENT
REMARK Flexibility Score: inf
ROOT
ATOM      1  C   UNL     1      27.483  -4.555  19.086  1.00  0.00     0.000 C 
ENDROOT
BRANCH   1   2
ATOM      2  C   UNL     1      26.406  -3.539  19.503  1.00  0.00     0.000 C 
BRANCH   2   3
ATOM      3  C   UNL     1      25.053  -3.786  18.813  1.00  0.00     0.000 C 
BRANCH   3   4
ATOM      4  C   UNL     1      23.922  -4.172  19.789  1.00  0.00     0.006 C 
BRANCH   4   5
ATOM      5  C   UNL     1      22.549  -4.196  19.105  1.00  0.00     0.053 C 
BRANCH   5   6
ATOM      6  C   UNL     1      21.464  -3.922  20.097  1.00  0.00     0.041 C 
ATOM      7  O   UNL     1      20.573  -3.069  19.843  1.00  0.00    -0.550 OA
ATOM      8  O   UNL     1      21.463  -4.572  21.325  1.00  0.00    -0.550 OA
ENDBRANCH   5   6
ENDBRANCH   4   5
ENDBRANCH   3   4
ENDBRANCH   2   3
ENDBRANCH   1   2
BRANCH   1   9
ATOM      9  C   UNL     1      27.032  -6.010  19.296  1.00  0.00     0.000 C 
BRANCH   9  10
ATOM     10  C   UNL     1      27.259  -6.882  18.049  1.00  0.00    -0.000 C 
BRANCH  10  11
ATOM     11  C   UNL     1      25.972  -7.102  17.238  1.00  0.00    -0.000 C 
BRANCH  11  12
ATOM     12  C   UNL     1      25.032  -8.133  17.883  1.00  0.00    -0.000 C 
BRANCH  12  13
ATOM     13  C   UNL     1      23.613  -7.570  18.019  1.00  0.00    -0.003 C 
ATOM     14  C   UNL     1      23.078  -7.760  19.436  1.00  0.00     0.004 C 
ENDBRANCH  12  13
ENDBRANCH  11  12
ENDBRANCH  10  11
ENDBRANCH   9  10
ENDBRANCH   1   9
TORSDOF 10
ENDMDL
MODEL 3
REMARK VINA RESULT:    -3.951      3.877      4.978
REMARK INTER + INTRA:          -7.215
REMARK INTER:                  -6.347
REMARK INTRA:                  -0.868
REMARK UNBOUND:                -0.954
REMARK SMILES CCCCCCCCCCCC(=O)[O-]
REMARK SMILES IDX 7 1 8 2 9 3 10 4 11 5 12 6 13 7 14 8 6 9 5 10 4 11 3 12 2 13
REMARK SMILES IDX 1 14
REMARK H PARENT
REMARK Flexibility Score: inf
ROOT
ATOM      1  C   UNL     1      22.768  -4.231  17.000  1.00  0.00     0.000 C 
ENDROOT
BRANCH   1   2
ATOM      2  C   UNL     1      22.783  -4.842  15.588  1.00  0.00     0.000 C 
BRANCH   2   3
ATOM      3  C   UNL     1      22.266  -3.871  14.512  1.00  0.00     0.000 C 
BRANCH   3   4
ATOM      4  C   UNL     1      21.446  -4.560  13.400  1.00  0.00     0.006 C 
BRANCH   4   5
ATOM      5  C   UNL     1      21.127  -6.022  13.736  1.00  0.00     0.053 C 
BRANCH   5   6
ATOM      6  C   UNL     1      21.813  -6.942  12.777  1.00  0.00     0.041 C 
ATOM      7  O   UNL     1      21.556  -8.176  12.788  1.00  0.00    -0.550 OA
ATOM      8  O   UNL     1      22.772  -6.448  11.903  1.00  0.00    -0.550 OA
ENDBRANCH   5   6
ENDBRANCH   4   5
ENDBRANCH   3   4
ENDBRANCH   2   3
ENDBRANCH   1   2
BRANCH   1   9
ATOM      9  C   UNL     1      22.462  -2.725  16.986  1.00  0.00     0.000 C 
BRANCH   9  10
ATOM     10  C   UNL     1      21.376  -2.334  18.003  1.00  0.00    -0.000 C 
BRANCH  10  11
ATOM     11  C   UNL     1      20.876  -3.533  18.824  1.00  0.00    -0.000 C 
BRANCH  11  12
ATOM     12  C   UNL     1      20.971  -3.298  20.339  1.00  0.00    -0.000 C 
BRANCH  12  13
ATOM     13  C   UNL     1      21.767  -4.418  21.019  1.00  0.00    -0.003 C 
ATOM     14  C   UNL     1      23.251  -4.328  20.674  1.00  0.00     0.004 C 
ENDBRANCH  12  13
ENDBRANCH  11  12
ENDBRANCH  10  11
ENDBRANCH   9  10
ENDBRANCH   1   9
TORSDOF 10
ENDMDL
MODEL 4
REMARK VINA RESULT:    -3.942      2.921      5.061
REMARK INTER + INTRA:          -7.201
REMARK INTER:                  -5.777
REMARK INTRA:                  -1.424
REMARK UNBOUND:                -0.954
REMARK SMILES CCCCCCCCCCCC(=O)[O-]
REMARK SMILES IDX 7 1 8 2 9 3 10 4 11 5 12 6 13 7 14 8 6 9 5 10 4 11 3 12 2 13
REMARK SMILES IDX 1 14
REMARK H PARENT
REMARK Flexibility Score: inf
ROOT
ATOM      1  C   UNL     1      24.270  -7.320  18.032  1.00  0.00     0.000 C 
ENDROOT
BRANCH   1   2
ATOM      2  C   UNL     1      23.192  -6.793  18.993  1.00  0.00     0.000 C 
BRANCH   2   3
ATOM      3  C   UNL     1      23.782  -6.028  20.192  1.00  0.00     0.000 C 
BRANCH   3   4
ATOM      4  C   UNL     1      23.109  -4.663  20.447  1.00  0.00     0.006 C 
BRANCH   4   5
ATOM      5  C   UNL     1      22.201  -4.238  19.286  1.00  0.00     0.053 C 
BRANCH   5   6
ATOM      6  C   UNL     1      21.053  -3.423  19.789  1.00  0.00     0.041 C 
ATOM      7  O   UNL     1      20.612  -3.600  20.955  1.00  0.00    -0.550 OA
ATOM      8  O   UNL     1      20.436  -2.500  18.954  1.00  0.00    -0.550 OA
ENDBRANCH   5   6
ENDBRANCH   4   5
ENDBRANCH   3   4
ENDBRANCH   2   3
ENDBRANCH   1   2
BRANCH   1   9
ATOM      9  C   UNL     1      25.681  -7.255  18.637  1.00  0.00     0.000 C 
BRANCH   9  10
ATOM     10  C   UNL     1      26.747  -6.845  17.606  1.00  0.00    -0.000 C 
BRANCH  10  11
ATOM     11  C   UNL     1      27.269  -5.417  17.831  1.00  0.00    -0.000 C 
BRANCH  11  12
ATOM     12  C   UNL     1      26.445  -4.357  17.084  1.00  0.00    -0.000 C 
BRANCH  12  13
ATOM     13  C   UNL     1      25.709  -3.441  18.069  1.00  0.00    -0.003 C 
ATOM     14  C   UNL     1      26.425  -3.389  19.415  1.00  0.00     0.004 C 
ENDBRANCH  12  13
ENDBRANCH  11  12
ENDBRANCH  10  11
ENDBRANCH   9  10
ENDBRANCH   1   9
TORSDOF 10
ENDMDL
MODEL 5
REMARK VINA RESULT:    -3.941      1.588      3.832
REMARK INTER + INTRA:          -7.198
REMARK INTER:                  -5.975
REMARK INTRA:                  -1.224
REMARK UNBOUND:                -0.954
REMARK SMILES CCCCCCCCCCCC(=O)[O-]
REMARK SMILES IDX 7 1 8 2 9 3 10 4 11 5 12 6 13 7 14 8 6 9 5 10 4 11 3 12 2 13
REMARK SMILES IDX 1 14
REMARK H PARENT
REMARK Flexibility Score: inf
ROOT
ATOM      1  C   UNL     1      21.577  -3.552  20.474  1.00  0.00     0.000 C 
ENDROOT
BRANCH   1   2
ATOM      2  C   UNL     1      21.959  -4.908  21.089  1.00  0.00     0.000 C 
BRANCH   2   3
ATOM      3  C   UNL     1      23.077  -5.623  20.310  1.00  0.00     0.000 C 
BRANCH   3   4
ATOM      4  C   UNL     1      22.695  -7.045  19.844  1.00  0.00     0.006 C 
BRANCH   4   5
ATOM      5  C   UNL     1      23.532  -7.505  18.644  1.00  0.00     0.053 C 
BRANCH   5   6
ATOM      6  C   UNL     1      23.526  -8.997  18.542  1.00  0.00     0.041 C 
ATOM      7  O   UNL     1      24.193  -9.574  17.643  1.00  0.00    -0.550 OA
ATOM      8  O   UNL     1      22.744  -9.750  19.407  1.00  0.00    -0.550 OA
ENDBRANCH   5   6
ENDBRANCH   4   5
ENDBRANCH   3   4
ENDBRANCH   2   3
ENDBRANCH   1   2
BRANCH   1   9
ATOM      9  C   UNL     1      20.898  -3.697  19.102  1.00  0.00     0.000 C 
BRANCH   9  10
ATOM     10  C   UNL     1      21.640  -2.931  17.993  1.00  0.00    -0.000 C 
BRANCH  10  11
ATOM     11  C   UNL     1      22.531  -3.844  17.137  1.00  0.00    -0.000 C 
BRANCH  11  12
ATOM     12  C   UNL     1      23.891  -3.210  16.808  1.00  0.00    -0.000 C 
BRANCH  12  13
ATOM     13  C   UNL     1      24.906  -3.481  17.924  1.00  0.00    -0.003 C 
ATOM     14  C   UNL     1      25.708  -4.749  17.645  1.00  0.00     0.004 C 
ENDBRANCH  12  13
ENDBRANCH  11  12
ENDBRANCH  10  11
ENDBRANCH   9  10
ENDBRANCH   1   9
TORSDOF 10
ENDMDL
MODEL 6
REMARK VINA RESULT:    -3.914      3.607      5.056
REMARK INTER + INTRA:          -7.156
REMARK INTER:                  -6.372
REMARK INTRA:                  -0.784
REMARK UNBOUND:                -0.954
REMARK SMILES CCCCCCCCCCCC(=O)[O-]
REMARK SMILES IDX 7 1 8 2 9 3 10 4 11 5 12 6 13 7 14 8 6 9 5 10 4 11 3 12 2 13
REMARK SMILES IDX 1 14
REMARK H PARENT
REMARK Flexibility Score: inf
ROOT
ATOM      1  C   UNL     1      22.369  -2.450  16.587  1.00  0.00     0.000 C 
ENDROOT
BRANCH   1   2
ATOM      2  C   UNL     1      23.167  -3.521  17.348  1.00  0.00     0.000 C 
BRANCH   2   3
ATOM      3  C   UNL     1      22.477  -3.970  18.648  1.00  0.00     0.000 C 
BRANCH   3   4
ATOM      4  C   UNL     1      23.461  -4.265  19.801  1.00  0.00     0.006 C 
BRANCH   4   5
ATOM      5  C   UNL     1      22.995  -5.437  20.675  1.00  0.00     0.053 C 
BRANCH   5   6
ATOM      6  C   UNL     1      23.238  -6.738  19.980  1.00  0.00     0.041 C 
ATOM      7  O   UNL     1      24.336  -6.954  19.404  1.00  0.00    -0.550 OA
ATOM      8  O   UNL     1      22.233  -7.696  19.926  1.00  0.00    -0.550 OA
ENDBRANCH   5   6
ENDBRANCH   4   5
ENDBRANCH   3   4
ENDBRANCH   2   3
ENDBRANCH   1   2
BRANCH   1   9
ATOM      9  C   UNL     1      23.270  -1.531  15.747  1.00  0.00     0.000 C 
BRANCH   9  10
ATOM     10  C   UNL     1      22.946  -1.602  14.244  1.00  0.00    -0.000 C 
BRANCH  10  11
ATOM     11  C   UNL     1      22.903  -3.045  13.716  1.00  0.00    -0.000 C 
BRANCH  11  12
ATOM     12  C   UNL     1      21.648  -3.334  12.878  1.00  0.00    -0.000 C 
BRANCH  12  13
ATOM     13  C   UNL     1      21.114  -4.743  13.161  1.00  0.00    -0.003 C 
ATOM     14  C   UNL     1      21.714  -5.314  14.442  1.00  0.00     0.004 C 
ENDBRANCH  12  13
ENDBRANCH  11  12
ENDBRANCH  10  11
ENDBRANCH   9  10
ENDBRANCH   1   9
TORSDOF 10
ENDMDL
MODEL 7
REMARK VINA RESULT:    -3.881      1.396      2.850
REMARK INTER + INTRA:          -7.103
REMARK INTER:                  -5.934
REMARK INTRA:                  -1.169
REMARK UNBOUND:                -0.954
REMARK SMILES CCCCCCCCCCCC(=O)[O-]
REMARK SMILES IDX 7 1 8 2 9 3 10 4 11 5 12 6 13 7 14 8 6 9 5 10 4 11 3 12 2 13
REMARK SMILES IDX 1 14
REMARK H PARENT
REMARK Flexibility Score: inf
ROOT
ATOM      1  C   UNL     1      23.523  -4.819  19.919  1.00  0.00     0.000 C 
ENDROOT
BRANCH   1   2
ATOM      2  C   UNL     1      24.762  -3.993  19.538  1.00  0.00     0.000 C 
BRANCH   2   3
ATOM      3  C   UNL     1      25.607  -4.656  18.435  1.00  0.00     0.000 C 
BRANCH   3   4
ATOM      4  C   UNL     1      26.205  -6.017  18.849  1.00  0.00     0.006 C 
BRANCH   4   5
ATOM      5  C   UNL     1      26.115  -7.056  17.723  1.00  0.00     0.053 C 
BRANCH   5   6
ATOM      6  C   UNL     1      24.771  -7.710  17.720  1.00  0.00     0.041 C 
ATOM      7  O   UNL     1      24.531  -8.670  18.499  1.00  0.00    -0.550 OA
ATOM      8  O   UNL     1      23.796  -7.294  16.822  1.00  0.00    -0.550 OA
ENDBRANCH   5   6
ENDBRANCH   4   5
ENDBRANCH   3   4
ENDBRANCH   2   3
ENDBRANCH   1   2
BRANCH   1   9
ATOM      9  C   UNL     1      22.656  -4.124  20.981  1.00  0.00     0.000 C 
BRANCH   9  10
ATOM     10  C   UNL     1      21.298  -3.662  20.423  1.00  0.00    -0.000 C 
BRANCH  10  11
ATOM     11  C   UNL     1      21.193  -3.840  18.900  1.00  0.00    -0.000 C 
BRANCH  11  12
ATOM     12  C   UNL     1      21.307  -2.511  18.137  1.00  0.00    -0.000 C 
BRANCH  12  13
ATOM     13  C   UNL     1      22.325  -2.620  16.997  1.00  0.00    -0.003 C 
ATOM     14  C   UNL     1      22.476  -4.063  16.527  1.00  0.00     0.004 C 
ENDBRANCH  12  13
ENDBRANCH  11  12
ENDBRANCH  10  11
ENDBRANCH   9  10
ENDBRANCH   1   9
TORSDOF 10
ENDMDL
MODEL 8
REMARK VINA RESULT:    -3.829      1.463      2.479
REMARK INTER + INTRA:          -7.022
REMARK INTER:                  -5.816
REMARK INTRA:                  -1.206
REMARK UNBOUND:                -0.954
REMARK SMILES CCCCCCCCCCCC(=O)[O-]
REMARK SMILES IDX 7 1 8 2 9 3 10 4 11 5 12 6 13 7 14 8 6 9 5 10 4 11 3 12 2 13
REMARK SMILES IDX 1 14
REMARK H PARENT
REMARK Flexibility Score: inf
ROOT
ATOM      1  C   UNL     1      25.012  -2.877  16.836  1.00  0.00     0.000 C 
ENDROOT
BRANCH   1   2
ATOM      2  C   UNL     1      26.124  -3.411  17.753  1.00  0.00     0.000 C 
BRANCH   2   3
ATOM      3  C   UNL     1      25.587  -3.958  19.087  1.00  0.00     0.000 C 
BRANCH   3   4
ATOM      4  C   UNL     1      26.028  -5.407  19.385  1.00  0.00     0.006 C 
BRANCH   4   5
ATOM      5  C   UNL     1      24.837  -6.370  19.466  1.00  0.00     0.053 C 
BRANCH   5   6
ATOM      6  C   UNL     1      25.020  -7.511  18.517  1.00  0.00     0.041 C 
ATOM      7  O   UNL     1      25.960  -7.494  17.679  1.00  0.00    -0.550 OA
ATOM      8  O   UNL     1      24.124  -8.573  18.524  1.00  0.00    -0.550 OA
ENDBRANCH   5   6
ENDBRANCH   4   5
ENDBRANCH   3   4
ENDBRANCH   2   3
ENDBRANCH   1   2
BRANCH   1   9
ATOM      9  C   UNL     1      23.826  -3.849  16.720  1.00  0.00     0.000 C 
BRANCH   9  10
ATOM     10  C   UNL     1      22.481  -3.120  16.555  1.00  0.00    -0.000 C 
BRANCH  10  11
ATOM     11  C   UNL     1      21.743  -2.930  17.890  1.00  0.00    -0.000 C 
BRANCH  11  12
ATOM     12  C   UNL     1      21.969  -4.095  18.866  1.00  0.00    -0.000 C 
BRANCH  12  13
ATOM     13  C   UNL     1      21.372  -3.780  20.242  1.00  0.00    -0.003 C 
ATOM     14  C   UNL     1      22.343  -4.145  21.361  1.00  0.00     0.004 C 
ENDBRANCH  12  13
ENDBRANCH  11  12
ENDBRANCH  10  11
ENDBRANCH   9  10
ENDBRANCH   1   9
TORSDOF 10
ENDMDL
MODEL 9
REMARK VINA RESULT:    -3.818      4.742      6.108
REMARK INTER + INTRA:          -7.003
REMARK INTER:                  -6.131
REMARK INTRA:                  -0.872
REMARK UNBOUND:                -0.954
REMARK SMILES CCCCCCCCCCCC(=O)[O-]
REMARK SMILES IDX 7 1 8 2 9 3 10 4 11 5 12 6 13 7 14 8 6 9 5 10 4 11 3 12 2 13
REMARK SMILES IDX 1 14
REMARK H PARENT
REMARK Flexibility Score: inf
ROOT
ATOM      1  C   UNL     1      24.650  -3.514  17.737  1.00  0.00     0.000 C 
ENDROOT
BRANCH   1   2
ATOM      2  C   UNL     1      23.293  -3.702  17.039  1.00  0.00     0.000 C 
BRANCH   2   3
ATOM      3  C   UNL     1      22.680  -2.376  16.556  1.00  0.00     0.000 C 
BRANCH   3   4
ATOM      4  C   UNL     1      22.828  -2.143  15.037  1.00  0.00     0.006 C 
BRANCH   4   5
ATOM      5  C   UNL     1      22.336  -0.753  14.614  1.00  0.00     0.053 C 
BRANCH   5   6
ATOM      6  C   UNL     1      22.361  -0.619  13.125  1.00  0.00     0.041 C 
ATOM      7  O   UNL     1      21.440  -1.122  12.428  1.00  0.00    -0.550 OA
ATOM      8  O   UNL     1      23.425   0.018  12.501  1.00  0.00    -0.550 OA
ENDBRANCH   5   6
ENDBRANCH   4   5
ENDBRANCH   3   4
ENDBRANCH   2   3
ENDBRANCH   1   2
BRANCH   1   9
ATOM      9  C   UNL     1      24.713  -4.219  19.102  1.00  0.00     0.000 C 
BRANCH   9  10
ATOM     10  C   UNL     1      23.885  -5.515  19.135  1.00  0.00    -0.000 C 
BRANCH  10  11
ATOM     11  C   UNL     1      22.897  -5.557  20.311  1.00  0.00    -0.000 C 
BRANCH  11  12
ATOM     12  C   UNL     1      22.795  -4.214  21.050  1.00  0.00    -0.000 C 
BRANCH  12  13
ATOM     13  C   UNL     1      21.344  -3.720  21.091  1.00  0.00    -0.003 C 
ATOM     14  C   UNL     1      20.862  -3.308  19.704  1.00  0.00     0.004 C 
ENDBRANCH  12  13
ENDBRANCH  11  12
ENDBRANCH  10  11
ENDBRANCH   9  10
ENDBRANCH   1   9
TORSDOF 10
ENDMDL
