MODEL 1
REMARK VINA RESULT:    -3.315      0.000      0.000
REMARK INTER + INTRA:          -4.948
REMARK INTER:                  -4.671
REMARK INTRA:                  -0.277
REMARK UNBOUND:                -0.277
REMARK SMILES CCCCCCCCC(=O)[O-]
REMARK SMILES IDX 6 1 7 2 8 3 9 4 10 5 11 6 5 7 4 8 3 9 2 10 1 11
REMARK H PARENT
REMARK Flexibility Score: inf
ROOT
ATOM      1  C   UNL     1      36.599  21.223  15.063  1.00  0.00     0.000 C 
ENDROOT
BRANCH   1   2
ATOM      2  C   UNL     1      35.841  20.131  15.834  1.00  0.00     0.006 C 
BRANCH   2   3
ATOM      3  C   UNL     1      34.320  20.233  15.663  1.00  0.00     0.053 C 
BRANCH   3   4
ATOM      4  C   UNL     1      33.762  18.931  15.181  1.00  0.00     0.041 C 
ATOM      5  O   UNL     1      33.553  17.991  15.993  1.00  0.00    -0.550 OA
ATOM      6  O   UNL     1      33.516  18.738  13.828  1.00  0.00    -0.550 OA
ENDBRANCH   3   4
ENDBRANCH   2   3
ENDBRANCH   1   2
BRANCH   1   7
ATOM      7  C   UNL     1      35.705  21.964  14.054  1.00  0.00     0.000 C 
BRANCH   7   8
ATOM      8  C   UNL     1      36.492  22.488  12.842  1.00  0.00    -0.000 C 
BRANCH   8   9
ATOM      9  C   UNL     1      35.826  22.131  11.501  1.00  0.00    -0.000 C 
BRANCH   9  10
ATOM     10  C   UNL     1      36.791  22.260  10.312  1.00  0.00    -0.003 C 
ATOM     11  C   UNL     1      36.667  21.101   9.324  1.00  0.00     0.004 C 
ENDBRANCH   9  10
ENDBRANCH   8   9
ENDBRANCH   7   8
ENDBRANCH   1   7
TORSDOF 7
ENDMDL
MODEL 2
REMARK VINA RESULT:    -3.311     13.769     14.692
REMARK INTER + INTRA:          -4.943
REMARK INTER:                  -4.496
REMARK INTRA:                  -0.447
REMARK UNBOUND:                -0.277
REMARK SMILES CCCCCCCCC(=O)[O-]
REMARK SMILES IDX 6 1 7 2 8 3 9 4 10 5 11 6 5 7 4 8 3 9 2 10 1 11
REMARK H PARENT
REMARK Flexibility Score: inf
ROOT
ATOM      1  C   UNL     1      49.531  22.654  18.623  1.00  0.00     0.000 C 
ENDROOT
BRANCH   1   2
ATOM      2  C   UNL     1      48.751  22.871  17.317  1.00  0.00     0.006 C 
BRANCH   2   3
ATOM      3  C   UNL     1      47.261  22.531  17.454  1.00  0.00     0.053 C 
BRANCH   3   4
ATOM      4  C   UNL     1      46.863  21.512  16.434  1.00  0.00     0.041 C 
ATOM      5  O   UNL     1      47.742  20.845  15.827  1.00  0.00    -0.550 OA
ATOM      6  O   UNL     1      45.523  21.330  16.117  1.00  0.00    -0.550 OA
ENDBRANCH   3   4
ENDBRANCH   2   3
ENDBRANCH   1   2
BRANCH   1   7
ATOM      7  C   UNL     1      51.055  22.716  18.419  1.00  0.00     0.000 C 
BRANCH   7   8
ATOM      8  C   UNL     1      51.451  22.719  16.934  1.00  0.00    -0.000 C 
BRANCH   8   9
ATOM      9  C   UNL     1      52.414  21.574  16.575  1.00  0.00    -0.000 C 
BRANCH   9  10
ATOM     10  C   UNL     1      52.364  21.209  15.083  1.00  0.00    -0.003 C 
ATOM     11  C   UNL     1      50.939  20.987  14.577  1.00  0.00     0.004 C 
ENDBRANCH   9  10
ENDBRANCH   8   9
ENDBRANCH   7   8
ENDBRANCH   1   7
TORSDOF 7
ENDMDL
MODEL 3
REMARK VINA RESULT:    -3.200     13.703     14.753
REMARK INTER + INTRA:          -4.786
REMARK INTER:                  -4.433
REMARK INTRA:                  -0.353
REMARK UNBOUND:                -0.277
REMARK SMILES CCCCCCCCC(=O)[O-]
REMARK SMILES IDX 6 1 7 2 8 3 9 4 10 5 11 6 5 7 4 8 3 9 2 10 1 11
REMARK H PARENT
REMARK Flexibility Score: inf
ROOT
ATOM      1  C   UNL     1      49.743  21.712  15.608  1.00  0.00     0.000 C 
ENDROOT
BRANCH   1   2
ATOM      2  C   UNL     1      48.298  21.203  15.738  1.00  0.00     0.006 C 
BRANCH   2   3
ATOM      3  C   UNL     1      47.527  21.895  16.870  1.00  0.00     0.053 C 
BRANCH   3   4
ATOM      4  C   UNL     1      46.068  21.955  16.544  1.00  0.00     0.041 C 
ATOM      5  O   UNL     1      45.348  22.868  17.028  1.00  0.00    -0.550 OA
ATOM      6  O   UNL     1      45.493  20.977  15.744  1.00  0.00    -0.550 OA
ENDBRANCH   3   4
ENDBRANCH   2   3
ENDBRANCH   1   2
BRANCH   1   7
ATOM      7  C   UNL     1      50.548  20.939  14.549  1.00  0.00     0.000 C 
BRANCH   7   8
ATOM      8  C   UNL     1      52.058  20.941  14.839  1.00  0.00    -0.000 C 
BRANCH   8   9
ATOM      9  C   UNL     1      52.478  22.073  15.792  1.00  0.00    -0.000 C 
BRANCH   9  10
ATOM     10  C   UNL     1      53.071  21.545  17.108  1.00  0.00    -0.003 C 
ATOM     11  C   UNL     1      52.390  22.137  18.341  1.00  0.00     0.004 C 
ENDBRANCH   9  10
ENDBRANCH   8   9
ENDBRANCH   7   8
ENDBRANCH   1   7
TORSDOF 7
ENDMDL
MODEL 4
REMARK VINA RESULT:    -3.198      3.272      5.722
REMARK INTER + INTRA:          -4.784
REMARK INTER:                  -4.426
REMARK INTRA:                  -0.358
REMARK UNBOUND:                -0.277
REMARK SMILES CCCCCCCCC(=O)[O-]
REMARK SMILES IDX 6 1 7 2 8 3 9 4 10 5 11 6 5 7 4 8 3 9 2 10 1 11
REMARK H PARENT
REMARK Flexibility Score: inf
ROOT
ATOM      1  C   UNL     1      34.357  20.152  12.780  1.00  0.00     0.000 C 
ENDROOT
BRANCH   1   2
ATOM      2  C   UNL     1      34.314  20.855  11.413  1.00  0.00     0.006 C 
BRANCH   2   3
ATOM      3  C   UNL     1      35.637  21.549  11.063  1.00  0.00     0.053 C 
BRANCH   3   4
ATOM      4  C   UNL     1      35.924  21.415   9.601  1.00  0.00     0.041 C 
ATOM      5  O   UNL     1      36.972  20.837   9.211  1.00  0.00    -0.550 OA
ATOM      6  O   UNL     1      35.058  21.971   8.668  1.00  0.00    -0.550 OA
ENDBRANCH   3   4
ENDBRANCH   2   3
ENDBRANCH   1   2
BRANCH   1   7
ATOM      7  C   UNL     1      35.056  20.998  13.857  1.00  0.00     0.000 C 
BRANCH   7   8
ATOM      8  C   UNL     1      35.696  20.138  14.960  1.00  0.00    -0.000 C 
BRANCH   8   9
ATOM      9  C   UNL     1      35.046  20.358  16.337  1.00  0.00    -0.000 C 
BRANCH   9  10
ATOM     10  C   UNL     1      33.592  19.864  16.386  1.00  0.00    -0.003 C 
ATOM     11  C   UNL     1      33.458  18.386  16.018  1.00  0.00     0.004 C 
ENDBRANCH   9  10
ENDBRANCH   8   9
ENDBRANCH   7   8
ENDBRANCH   1   7
TORSDOF 7
ENDMDL
MODEL 5
REMARK VINA RESULT:    -3.154     14.291     15.438
REMARK INTER + INTRA:          -4.721
REMARK INTER:                  -4.253
REMARK INTRA:                  -0.468
REMARK UNBOUND:                -0.277
REMARK SMILES CCCCCCCCC(=O)[O-]
REMARK SMILES IDX 6 1 7 2 8 3 9 4 10 5 11 6 5 7 4 8 3 9 2 10 1 11
REMARK H PARENT
REMARK Flexibility Score: inf
ROOT
ATOM      1  C   UNL     1      50.495  21.073  14.492  1.00  0.00     0.000 C 
ENDROOT
BRANCH   1   2
ATOM      2  C   UNL     1      49.536  21.535  15.601  1.00  0.00     0.006 C 
BRANCH   2   3
ATOM      3  C   UNL     1      48.177  20.825  15.543  1.00  0.00     0.053 C 
BRANCH   3   4
ATOM      4  C   UNL     1      47.224  21.443  16.516  1.00  0.00     0.041 C 
ATOM      5  O   UNL     1      45.989  21.461  16.270  1.00  0.00    -0.550 OA
ATOM      6  O   UNL     1      47.703  22.044  17.673  1.00  0.00    -0.550 OA
ENDBRANCH   3   4
ENDBRANCH   2   3
ENDBRANCH   1   2
BRANCH   1   7
ATOM      7  C   UNL     1      51.903  20.755  15.023  1.00  0.00     0.000 C 
BRANCH   7   8
ATOM      8  C   UNL     1      52.546  21.951  15.744  1.00  0.00    -0.000 C 
BRANCH   8   9
ATOM      9  C   UNL     1      52.863  21.655  17.220  1.00  0.00    -0.000 C 
BRANCH   9  10
ATOM     10  C   UNL     1      52.468  22.812  18.151  1.00  0.00    -0.003 C 
ATOM     11  C   UNL     1      51.115  22.589  18.827  1.00  0.00     0.004 C 
ENDBRANCH   9  10
ENDBRANCH   8   9
ENDBRANCH   7   8
ENDBRANCH   1   7
TORSDOF 7
ENDMDL
MODEL 6
REMARK VINA RESULT:    -3.126      2.805      5.033
REMARK INTER + INTRA:          -4.683
REMARK INTER:                  -4.003
REMARK INTRA:                  -0.679
REMARK UNBOUND:                -0.277
REMARK SMILES CCCCCCCCC(=O)[O-]
REMARK SMILES IDX 6 1 7 2 8 3 9 4 10 5 11 6 5 7 4 8 3 9 2 10 1 11
REMARK H PARENT
REMARK Flexibility Score: inf
ROOT
ATOM      1  C   UNL     1      32.972  18.877  13.782  1.00  0.00     0.000 C 
ENDROOT
BRANCH   1   2
ATOM      2  C   UNL     1      33.364  20.227  13.159  1.00  0.00     0.006 C 
BRANCH   2   3
ATOM      3  C   UNL     1      34.677  20.154  12.367  1.00  0.00     0.053 C 
BRANCH   3   4
ATOM      4  C   UNL     1      34.549  20.902  11.078  1.00  0.00     0.041 C 
ATOM      5  O   UNL     1      35.579  21.257  10.446  1.00  0.00    -0.550 OA
ATOM      6  O   UNL     1      33.294  21.251  10.597  1.00  0.00    -0.550 OA
ENDBRANCH   3   4
ENDBRANCH   2   3
ENDBRANCH   1   2
BRANCH   1   7
ATOM      7  C   UNL     1      33.666  18.625  15.131  1.00  0.00     0.000 C 
BRANCH   7   8
ATOM      8  C   UNL     1      33.320  19.693  16.181  1.00  0.00    -0.000 C 
BRANCH   8   9
ATOM      9  C   UNL     1      34.563  20.425  16.716  1.00  0.00    -0.000 C 
BRANCH   9  10
ATOM     10  C   UNL     1      35.840  20.057  15.944  1.00  0.00    -0.003 C 
ATOM     11  C   UNL     1      36.508  21.269  15.295  1.00  0.00     0.004 C 
ENDBRANCH   9  10
ENDBRANCH   8   9
ENDBRANCH   7   8
ENDBRANCH   1   7
TORSDOF 7
ENDMDL
MODEL 7
REMARK VINA RESULT:    -3.126      3.328      5.867
REMARK INTER + INTRA:          -4.682
REMARK INTER:                  -4.347
REMARK INTRA:                  -0.336
REMARK UNBOUND:                -0.277
REMARK SMILES CCCCCCCCC(=O)[O-]
REMARK SMILES IDX 6 1 7 2 8 3 9 4 10 5 11 6 5 7 4 8 3 9 2 10 1 11
REMARK H PARENT
REMARK Flexibility Score: inf
ROOT
ATOM      1  C   UNL     1      34.625  20.108  12.476  1.00  0.00     0.000 C 
ENDROOT
BRANCH   1   2
ATOM      2  C   UNL     1      34.264  20.961  11.250  1.00  0.00     0.006 C 
BRANCH   2   3
ATOM      3  C   UNL     1      35.391  21.921  10.845  1.00  0.00     0.053 C 
BRANCH   3   4
ATOM      4  C   UNL     1      35.852  21.624   9.453  1.00  0.00     0.041 C 
ATOM      5  O   UNL     1      35.209  22.064   8.464  1.00  0.00    -0.550 OA
ATOM      6  O   UNL     1      36.966  20.820   9.246  1.00  0.00    -0.550 OA
ENDBRANCH   3   4
ENDBRANCH   2   3
ENDBRANCH   1   2
BRANCH   1   7
ATOM      7  C   UNL     1      33.416  19.341  13.039  1.00  0.00     0.000 C 
BRANCH   7   8
ATOM      8  C   UNL     1      33.636  18.874  14.487  1.00  0.00    -0.000 C 
BRANCH   8   9
ATOM      9  C   UNL     1      33.338  19.976  15.519  1.00  0.00    -0.000 C 
BRANCH   9  10
ATOM     10  C   UNL     1      34.465  20.135  16.551  1.00  0.00    -0.003 C 
ATOM     11  C   UNL     1      35.851  20.187  15.910  1.00  0.00     0.004 C 
ENDBRANCH   9  10
ENDBRANCH   8   9
ENDBRANCH   7   8
ENDBRANCH   1   7
TORSDOF 7
ENDMDL
MODEL 8
REMARK VINA RESULT:    -3.077      3.094      3.557
REMARK INTER + INTRA:          -4.614
REMARK INTER:                  -4.048
REMARK INTRA:                  -0.566
REMARK UNBOUND:                -0.277
REMARK SMILES CCCCCCCCC(=O)[O-]
REMARK SMILES IDX 6 1 7 2 8 3 9 4 10 5 11 6 5 7 4 8 3 9 2 10 1 11
REMARK H PARENT
REMARK Flexibility Score: inf
ROOT
ATOM      1  C   UNL     1      35.468  20.431  14.062  1.00  0.00     0.000 C 
ENDROOT
BRANCH   1   2
ATOM      2  C   UNL     1      36.185  20.910  15.335  1.00  0.00     0.006 C 
BRANCH   2   3
ATOM      3  C   UNL     1      36.644  22.371  15.241  1.00  0.00     0.053 C 
BRANCH   3   4
ATOM      4  C   UNL     1      37.853  22.482  14.368  1.00  0.00     0.041 C 
ATOM      5  O   UNL     1      38.971  22.072  14.777  1.00  0.00    -0.550 OA
ATOM      6  O   UNL     1      37.756  23.082  13.118  1.00  0.00    -0.550 OA
ENDBRANCH   3   4
ENDBRANCH   2   3
ENDBRANCH   1   2
BRANCH   1   7
ATOM      7  C   UNL     1      34.239  21.290  13.717  1.00  0.00     0.000 C 
BRANCH   7   8
ATOM      8  C   UNL     1      34.360  21.966  12.341  1.00  0.00    -0.000 C 
BRANCH   8   9
ATOM      9  C   UNL     1      35.089  21.088  11.310  1.00  0.00    -0.000 C 
BRANCH   9  10
ATOM     10  C   UNL     1      35.961  21.910  10.348  1.00  0.00    -0.003 C 
ATOM     11  C   UNL     1      36.730  21.037   9.357  1.00  0.00     0.004 C 
ENDBRANCH   9  10
ENDBRANCH   8   9
ENDBRANCH   7   8
ENDBRANCH   1   7
TORSDOF 7
ENDMDL
MODEL 9
REMARK VINA RESULT:    -3.034     15.808     16.752
REMARK INTER + INTRA:          -4.553
REMARK INTER:                  -4.173
REMARK INTRA:                  -0.380
REMARK UNBOUND:                -0.277
REMARK SMILES CCCCCCCCC(=O)[O-]
REMARK SMILES IDX 6 1 7 2 8 3 9 4 10 5 11 6 5 7 4 8 3 9 2 10 1 11
REMARK H PARENT
REMARK Flexibility Score: inf
ROOT
ATOM      1  C   UNL     1      51.335  22.982  18.163  1.00  0.00     0.000 C 
ENDROOT
BRANCH   1   2
ATOM      2  C   UNL     1      51.277  22.933  19.698  1.00  0.00     0.006 C 
BRANCH   2   3
ATOM      3  C   UNL     1      50.135  22.050  20.219  1.00  0.00     0.053 C 
BRANCH   3   4
ATOM      4  C   UNL     1      50.640  21.113  21.270  1.00  0.00     0.041 C 
ATOM      5  O   UNL     1      51.813  20.660  21.205  1.00  0.00    -0.550 OA
ATOM      6  O   UNL     1      49.800  20.701  22.297  1.00  0.00    -0.550 OA
ENDBRANCH   3   4
ENDBRANCH   2   3
ENDBRANCH   1   2
BRANCH   1   7
ATOM      7  C   UNL     1      52.522  22.189  17.590  1.00  0.00     0.000 C 
BRANCH   7   8
ATOM      8  C   UNL     1      52.602  22.272  16.057  1.00  0.00    -0.000 C 
BRANCH   8   9
ATOM      9  C   UNL     1      52.347  20.916  15.375  1.00  0.00    -0.000 C 
BRANCH   9  10
ATOM     10  C   UNL     1      51.132  20.950  14.435  1.00  0.00    -0.003 C 
ATOM     11  C   UNL     1      49.833  21.297  15.162  1.00  0.00     0.004 C 
ENDBRANCH   9  10
ENDBRANCH   8   9
ENDBRANCH   7   8
ENDBRANCH   1   7
TORSDOF 7
ENDMDL
