MODEL 1
REMARK VINA RESULT:    -4.298      0.000      0.000
REMARK INTER + INTRA:          -8.318
REMARK INTER:                  -6.560
REMARK INTRA:                  -1.758
REMARK UNBOUND:                -1.758
REMARK SMILES OC[C@@H]1O[C@@H](O[C@]2(CO)O[C@H](CO)[C@H](O)[C@H]2O)[C@@H](O)[C@H](O)[C@@H]1O
REMARK SMILES IDX 6 1 5 2 3 3 22 4 4 5 20 6 18 7 2 8 1 9 23 11 21 13 19 15
REMARK SMILES IDX 7 17 16 18 10 19 14 20 11 21 8 22 9 23 17 25 15 27 12 29
REMARK SMILES IDX 13 30
REMARK H PARENT 1 10 23 12 21 14 19 16 9 24 17 26 15 28 13 31
REMARK Flexibility Score: inf
ROOT
ATOM      1  O   UNL     1     199.201 202.538 206.896  1.00  0.00    -0.313 OA
ENDROOT
BRANCH   1   2
ATOM      2  C   UNL     1     199.266 203.925 206.565  1.00  0.00     0.285 C 
ATOM      3  C   UNL     1     201.567 204.090 207.056  1.00  0.00     0.178 C 
ATOM      4  C   UNL     1     201.349 205.040 208.256  1.00  0.00     0.177 C 
ATOM      5  O   UNL     1     200.554 204.274 206.077  1.00  0.00    -0.341 OA
ATOM      6  C   UNL     1     199.981 204.730 208.881  1.00  0.00     0.179 C 
ATOM      7  C   UNL     1     198.882 204.787 207.797  1.00  0.00     0.202 C 
BRANCH   3   8
ATOM      8  C   UNL     1     202.948 204.292 206.406  1.00  0.00     0.191 C 
BRANCH   8   9
ATOM      9  O   UNL     1     203.274 203.240 205.534  1.00  0.00    -0.394 OA
ATOM     10  H   UNL     1     203.816 202.592 206.053  1.00  0.00     0.210 HD
ENDBRANCH   8   9
ENDBRANCH   3   8
BRANCH   4  11
ATOM     11  O   UNL     1     201.375 206.383 207.835  1.00  0.00    -0.387 OA
ATOM     12  H   UNL     1     201.232 206.389 206.851  1.00  0.00     0.211 HD
ENDBRANCH   4  11
BRANCH   6  13
ATOM     13  O   UNL     1     199.711 205.658 209.902  1.00  0.00    -0.387 OA
ATOM     14  H   UNL     1     199.708 205.153 210.759  1.00  0.00     0.211 HD
ENDBRANCH   6  13
BRANCH   7  15
ATOM     15  O   UNL     1     197.635 204.393 208.320  1.00  0.00    -0.385 OA
ATOM     16  H   UNL     1     196.961 204.475 207.594  1.00  0.00     0.211 HD
ENDBRANCH   7  15
ENDBRANCH   1   2
BRANCH   1  17
ATOM     17  C   UNL     1     198.828 201.652 205.835  1.00  0.00     0.224 C 
ATOM     18  C   UNL     1     198.064 200.415 206.378  1.00  0.00     0.208 C 
ATOM     19  O   UNL     1     197.923 202.380 205.022  1.00  0.00    -0.337 OA
ATOM     20  C   UNL     1     196.627 200.885 206.360  1.00  0.00     0.180 C 
ATOM     21  C   UNL     1     196.633 201.824 205.158  1.00  0.00     0.179 C 
BRANCH  17  22
ATOM     22  C   UNL     1     200.018 201.272 204.907  1.00  0.00     0.225 C 
BRANCH  22  23
ATOM     23  O   UNL     1     201.189 201.123 205.667  1.00  0.00    -0.391 OA
ATOM     24  H   UNL     1     201.870 201.728 205.274  1.00  0.00     0.210 HD
ENDBRANCH  22  23
ENDBRANCH  17  22
BRANCH  18  25
ATOM     25  O   UNL     1     198.209 199.311 205.517  1.00  0.00    -0.385 OA
ATOM     26  H   UNL     1     198.297 198.506 206.096  1.00  0.00     0.211 HD
ENDBRANCH  18  25
BRANCH  20  27
ATOM     27  O   UNL     1     196.326 201.579 207.544  1.00  0.00    -0.387 OA
ATOM     28  H   UNL     1     197.167 202.023 207.837  1.00  0.00     0.211 HD
ENDBRANCH  20  27
BRANCH  21  29
ATOM     29  C   UNL     1     195.589 202.950 205.218  1.00  0.00     0.191 C 
BRANCH  29  30
ATOM     30  O   UNL     1     195.939 203.893 206.200  1.00  0.00    -0.394 OA
ATOM     31  H   UNL     1     195.280 204.634 206.140  1.00  0.00     0.210 HD
ENDBRANCH  29  30
ENDBRANCH  21  29
ENDBRANCH   1  17
TORSDOF 13
ENDMDL
MODEL 2
REMARK VINA RESULT:    -4.199      7.618     11.618
REMARK INTER + INTRA:          -8.165
REMARK INTER:                  -6.551
REMARK INTRA:                  -1.615
REMARK UNBOUND:                -1.758
REMARK SMILES OC[C@@H]1O[C@@H](O[C@]2(CO)O[C@H](CO)[C@H](O)[C@H]2O)[C@@H](O)[C@H](O)[C@@H]1O
REMARK SMILES IDX 6 1 5 2 3 3 22 4 4 5 20 6 18 7 2 8 1 9 23 11 21 13 19 15
REMARK SMILES IDX 7 17 16 18 10 19 14 20 11 21 8 22 9 23 17 25 15 27 12 29
REMARK SMILES IDX 13 30
REMARK H PARENT 1 10 23 12 21 14 19 16 9 24 17 26 15 28 13 31
REMARK Flexibility Score: inf
ROOT
ATOM      1  O   UNL     1     209.112 205.422 205.478  1.00  0.00    -0.313 OA
ENDROOT
BRANCH   1   2
ATOM      2  C   UNL     1     208.343 205.510 206.678  1.00  0.00     0.285 C 
ATOM      3  C   UNL     1     208.873 203.316 207.360  1.00  0.00     0.178 C 
ATOM      4  C   UNL     1     207.418 202.811 207.221  1.00  0.00     0.177 C 
ATOM      5  O   UNL     1     208.896 204.694 207.701  1.00  0.00    -0.341 OA
ATOM      6  C   UNL     1     206.726 203.616 206.112  1.00  0.00     0.179 C 
ATOM      7  C   UNL     1     206.866 205.128 206.396  1.00  0.00     0.202 C 
BRANCH   3   8
ATOM      8  C   UNL     1     209.662 202.516 208.413  1.00  0.00     0.191 C 
BRANCH   8   9
ATOM      9  O   UNL     1     211.012 202.900 208.457  1.00  0.00    -0.394 OA
ATOM     10  H   UNL     1     211.455 202.491 207.671  1.00  0.00     0.210 HD
ENDBRANCH   8   9
ENDBRANCH   3   8
BRANCH   4  11
ATOM     11  O   UNL     1     206.717 202.983 208.429  1.00  0.00    -0.387 OA
ATOM     12  H   UNL     1     205.762 202.770 208.252  1.00  0.00     0.211 HD
ENDBRANCH   4  11
BRANCH   6  13
ATOM     13  O   UNL     1     205.369 203.253 206.047  1.00  0.00    -0.387 OA
ATOM     14  H   UNL     1     204.931 203.884 205.414  1.00  0.00     0.211 HD
ENDBRANCH   6  13
BRANCH   7  15
ATOM     15  O   UNL     1     206.340 205.891 205.335  1.00  0.00    -0.385 OA
ATOM     16  H   UNL     1     205.739 206.581 205.725  1.00  0.00     0.211 HD
ENDBRANCH   7  15
ENDBRANCH   1   2
BRANCH   1  17
ATOM     17  C   UNL     1     209.787 206.617 205.071  1.00  0.00     0.224 C 
ATOM     18  C   UNL     1     210.037 207.560 206.279  1.00  0.00     0.208 C 
ATOM     19  O   UNL     1     211.055 206.202 204.594  1.00  0.00    -0.337 OA
ATOM     20  C   UNL     1     211.380 207.090 206.787  1.00  0.00     0.180 C 
ATOM     21  C   UNL     1     212.051 206.639 205.494  1.00  0.00     0.179 C 
BRANCH  17  22
ATOM     22  C   UNL     1     209.098 207.333 203.873  1.00  0.00     0.225 C 
BRANCH  22  23
ATOM     23  O   UNL     1     207.865 207.867 204.279  1.00  0.00    -0.391 OA
ATOM     24  H   UNL     1     207.576 207.356 205.079  1.00  0.00     0.210 HD
ENDBRANCH  22  23
ENDBRANCH  17  22
BRANCH  18  25
ATOM     25  O   UNL     1     210.134 208.902 205.862  1.00  0.00    -0.385 OA
ATOM     26  H   UNL     1     210.152 209.457 206.688  1.00  0.00     0.211 HD
ENDBRANCH  18  25
BRANCH  20  27
ATOM     27  O   UNL     1     211.215 206.014 207.675  1.00  0.00    -0.387 OA
ATOM     28  H   UNL     1     210.309 206.108 208.075  1.00  0.00     0.211 HD
ENDBRANCH  20  27
BRANCH  21  29
ATOM     29  C   UNL     1     213.109 205.539 205.669  1.00  0.00     0.191 C 
BRANCH  29  30
ATOM     30  O   UNL     1     212.498 204.319 206.009  1.00  0.00    -0.394 OA
ATOM     31  H   UNL     1     213.172 203.604 205.861  1.00  0.00     0.210 HD
ENDBRANCH  29  30
ENDBRANCH  21  29
ENDBRANCH   1  17
TORSDOF 13
ENDMDL
MODEL 3
REMARK VINA RESULT:    -4.188      2.373      6.390
REMARK INTER + INTRA:          -8.150
REMARK INTER:                  -6.379
REMARK INTRA:                  -1.771
REMARK UNBOUND:                -1.758
REMARK SMILES OC[C@@H]1O[C@@H](O[C@]2(CO)O[C@H](CO)[C@H](O)[C@H]2O)[C@@H](O)[C@H](O)[C@@H]1O
REMARK SMILES IDX 6 1 5 2 3 3 22 4 4 5 20 6 18 7 2 8 1 9 23 11 21 13 19 15
REMARK SMILES IDX 7 17 16 18 10 19 14 20 11 21 8 22 9 23 17 25 15 27 12 29
REMARK SMILES IDX 13 30
REMARK H PARENT 1 10 23 12 21 14 19 16 9 24 17 26 15 28 13 31
REMARK Flexibility Score: inf
ROOT
ATOM      1  O   UNL     1     196.858 202.006 205.049  1.00  0.00    -0.313 OA
ENDROOT
BRANCH   1   2
ATOM      2  C   UNL     1     195.693 201.340 205.538  1.00  0.00     0.285 C 
ATOM      3  C   UNL     1     196.466 199.202 204.910  1.00  0.00     0.178 C 
ATOM      4  C   UNL     1     195.359 199.000 203.851  1.00  0.00     0.177 C 
ATOM      5  O   UNL     1     196.003 200.023 205.972  1.00  0.00    -0.341 OA
ATOM      6  C   UNL     1     194.961 200.373 203.291  1.00  0.00     0.179 C 
ATOM      7  C   UNL     1     194.589 201.325 204.449  1.00  0.00     0.202 C 
BRANCH   3   8
ATOM      8  C   UNL     1     196.969 197.863 205.480  1.00  0.00     0.191 C 
BRANCH   8   9
ATOM      9  O   UNL     1     197.549 198.021 206.750  1.00  0.00    -0.394 OA
ATOM     10  H   UNL     1     198.220 198.746 206.673  1.00  0.00     0.210 HD
ENDBRANCH   8   9
ENDBRANCH   3   8
BRANCH   4  11
ATOM     11  O   UNL     1     194.229 198.387 204.427  1.00  0.00    -0.387 OA
ATOM     12  H   UNL     1     194.532 197.537 204.842  1.00  0.00     0.211 HD
ENDBRANCH   4  11
BRANCH   6  13
ATOM     13  O   UNL     1     193.875 200.224 202.410  1.00  0.00    -0.387 OA
ATOM     14  H   UNL     1     193.355 201.071 202.447  1.00  0.00     0.211 HD
ENDBRANCH   6  13
BRANCH   7  15
ATOM     15  O   UNL     1     194.333 202.625 203.971  1.00  0.00    -0.385 OA
ATOM     16  H   UNL     1     194.850 203.263 204.532  1.00  0.00     0.211 HD
ENDBRANCH   7  15
ENDBRANCH   1   2
BRANCH   1  17
ATOM     17  C   UNL     1     197.355 203.082 205.852  1.00  0.00     0.224 C 
ATOM     18  C   UNL     1     197.273 202.739 207.364  1.00  0.00     0.208 C 
ATOM     19  O   UNL     1     198.728 203.207 205.524  1.00  0.00    -0.337 OA
ATOM     20  C   UNL     1     198.602 202.064 207.618  1.00  0.00     0.180 C 
ATOM     21  C   UNL     1     199.504 202.795 206.629  1.00  0.00     0.179 C 
BRANCH  17  22
ATOM     22  C   UNL     1     196.710 204.455 205.505  1.00  0.00     0.225 C 
BRANCH  22  23
ATOM     23  O   UNL     1     195.402 204.511 206.009  1.00  0.00    -0.391 OA
ATOM     24  H   UNL     1     195.030 205.395 205.757  1.00  0.00     0.210 HD
ENDBRANCH  22  23
ENDBRANCH  17  22
BRANCH  18  25
ATOM     25  O   UNL     1     197.181 203.907 208.145  1.00  0.00    -0.385 OA
ATOM     26  H   UNL     1     197.299 203.627 209.092  1.00  0.00     0.211 HD
ENDBRANCH  18  25
BRANCH  20  27
ATOM     27  O   UNL     1     198.519 200.695 207.312  1.00  0.00    -0.387 OA
ATOM     28  H   UNL     1     197.572 200.513 207.068  1.00  0.00     0.211 HD
ENDBRANCH  20  27
BRANCH  21  29
ATOM     29  C   UNL     1     200.710 201.980 206.137  1.00  0.00     0.191 C 
BRANCH  29  30
ATOM     30  O   UNL     1     200.300 201.000 205.216  1.00  0.00    -0.394 OA
ATOM     31  H   UNL     1     199.372 201.226 204.944  1.00  0.00     0.210 HD
ENDBRANCH  29  30
ENDBRANCH  21  29
ENDBRANCH   1  17
TORSDOF 13
ENDMDL
MODEL 4
REMARK VINA RESULT:    -4.148      8.707     12.394
REMARK INTER + INTRA:          -8.088
REMARK INTER:                  -6.318
REMARK INTRA:                  -1.770
REMARK UNBOUND:                -1.758
REMARK SMILES OC[C@@H]1O[C@@H](O[C@]2(CO)O[C@H](CO)[C@H](O)[C@H]2O)[C@@H](O)[C@H](O)[C@@H]1O
REMARK SMILES IDX 6 1 5 2 3 3 22 4 4 5 20 6 18 7 2 8 1 9 23 11 21 13 19 15
REMARK SMILES IDX 7 17 16 18 10 19 14 20 11 21 8 22 9 23 17 25 15 27 12 29
REMARK SMILES IDX 13 30
REMARK H PARENT 1 10 23 12 21 14 19 16 9 24 17 26 15 28 13 31
REMARK Flexibility Score: inf
ROOT
ATOM      1  O   UNL     1     210.645 205.278 205.574  1.00  0.00    -0.313 OA
ENDROOT
BRANCH   1   2
ATOM      2  C   UNL     1     210.097 205.537 206.867  1.00  0.00     0.285 C 
ATOM      3  C   UNL     1     209.742 203.255 207.343  1.00  0.00     0.178 C 
ATOM      4  C   UNL     1     208.203 203.393 207.365  1.00  0.00     0.177 C 
ATOM      5  O   UNL     1     210.361 204.463 207.759  1.00  0.00    -0.341 OA
ATOM      6  C   UNL     1     207.800 204.522 206.406  1.00  0.00     0.179 C 
ATOM      7  C   UNL     1     208.574 205.811 206.757  1.00  0.00     0.202 C 
BRANCH   3   8
ATOM      8  C   UNL     1     210.229 202.098 208.235  1.00  0.00     0.191 C 
BRANCH   8   9
ATOM      9  O   UNL     1     211.629 201.977 208.216  1.00  0.00    -0.394 OA
ATOM     10  H   UNL     1     211.928 201.942 209.160  1.00  0.00     0.210 HD
ENDBRANCH   8   9
ENDBRANCH   3   8
BRANCH   4  11
ATOM     11  O   UNL     1     207.751 203.701 208.662  1.00  0.00    -0.387 OA
ATOM     12  H   UNL     1     207.875 204.678 208.796  1.00  0.00     0.211 HD
ENDBRANCH   4  11
BRANCH   6  13
ATOM     13  O   UNL     1     206.414 204.742 206.496  1.00  0.00    -0.387 OA
ATOM     14  H   UNL     1     206.001 204.316 205.697  1.00  0.00     0.211 HD
ENDBRANCH   6  13
BRANCH   7  15
ATOM     15  O   UNL     1     208.310 206.830 205.821  1.00  0.00    -0.385 OA
ATOM     16  H   UNL     1     208.543 207.700 206.244  1.00  0.00     0.211 HD
ENDBRANCH   7  15
ENDBRANCH   1   2
BRANCH   1  17
ATOM     17  C   UNL     1     211.857 205.966 205.252  1.00  0.00     0.224 C 
ATOM     18  C   UNL     1     211.907 206.341 203.746  1.00  0.00     0.208 C 
ATOM     19  O   UNL     1     211.821 207.179 205.985  1.00  0.00    -0.337 OA
ATOM     20  C   UNL     1     211.245 207.700 203.726  1.00  0.00     0.180 C 
ATOM     21  C   UNL     1     211.655 208.255 205.086  1.00  0.00     0.179 C 
BRANCH  17  22
ATOM     22  C   UNL     1     213.134 205.219 205.735  1.00  0.00     0.225 C 
BRANCH  22  23
ATOM     23  O   UNL     1     212.815 203.893 206.068  1.00  0.00    -0.391 OA
ATOM     24  H   UNL     1     212.124 203.929 206.778  1.00  0.00     0.210 HD
ENDBRANCH  22  23
ENDBRANCH  17  22
BRANCH  18  25
ATOM     25  O   UNL     1     213.236 206.459 203.296  1.00  0.00    -0.385 OA
ATOM     26  H   UNL     1     213.771 205.795 203.810  1.00  0.00     0.211 HD
ENDBRANCH  18  25
BRANCH  20  27
ATOM     27  O   UNL     1     209.849 207.560 203.635  1.00  0.00    -0.387 OA
ATOM     28  H   UNL     1     209.635 206.632 203.923  1.00  0.00     0.211 HD
ENDBRANCH  20  27
BRANCH  21  29
ATOM     29  C   UNL     1     210.678 209.279 205.682  1.00  0.00     0.191 C 
BRANCH  29  30
ATOM     30  O   UNL     1     210.305 208.904 206.985  1.00  0.00    -0.394 OA
ATOM     31  H   UNL     1     210.578 209.643 207.590  1.00  0.00     0.210 HD
ENDBRANCH  29  30
ENDBRANCH  21  29
ENDBRANCH   1  17
TORSDOF 13
ENDMDL
MODEL 5
REMARK VINA RESULT:    -4.146      9.391     12.878
REMARK INTER + INTRA:          -8.085
REMARK INTER:                  -6.308
REMARK INTRA:                  -1.777
REMARK UNBOUND:                -1.758
REMARK SMILES OC[C@@H]1O[C@@H](O[C@]2(CO)O[C@H](CO)[C@H](O)[C@H]2O)[C@@H](O)[C@H](O)[C@@H]1O
REMARK SMILES IDX 6 1 5 2 3 3 22 4 4 5 20 6 18 7 2 8 1 9 23 11 21 13 19 15
REMARK SMILES IDX 7 17 16 18 10 19 14 20 11 21 8 22 9 23 17 25 15 27 12 29
REMARK SMILES IDX 13 30
REMARK H PARENT 1 10 23 12 21 14 19 16 9 24 17 26 15 28 13 31
REMARK Flexibility Score: inf
ROOT
ATOM      1  O   UNL     1     211.118 205.692 205.339  1.00  0.00    -0.313 OA
ENDROOT
BRANCH   1   2
ATOM      2  C   UNL     1     212.303 206.305 205.847  1.00  0.00     0.285 C 
ATOM      3  C   UNL     1     211.582 208.488 205.325  1.00  0.00     0.178 C 
ATOM      4  C   UNL     1     212.686 208.710 204.266  1.00  0.00     0.177 C 
ATOM      5  O   UNL     1     212.032 207.608 206.344  1.00  0.00    -0.341 OA
ATOM      6  C   UNL     1     213.043 207.354 203.640  1.00  0.00     0.179 C 
ATOM      7  C   UNL     1     213.399 206.340 204.750  1.00  0.00     0.202 C 
BRANCH   3   8
ATOM      8  C   UNL     1     211.120 209.812 205.961  1.00  0.00     0.191 C 
BRANCH   8   9
ATOM      9  O   UNL     1     210.366 209.597 207.126  1.00  0.00    -0.394 OA
ATOM     10  H   UNL     1     209.487 210.032 206.987  1.00  0.00     0.210 HD
ENDBRANCH   8   9
ENDBRANCH   3   8
BRANCH   4  11
ATOM     11  O   UNL     1     213.836 209.266 204.859  1.00  0.00    -0.387 OA
ATOM     12  H   UNL     1     213.706 210.251 204.894  1.00  0.00     0.211 HD
ENDBRANCH   4  11
BRANCH   6  13
ATOM     13  O   UNL     1     214.125 207.515 202.757  1.00  0.00    -0.387 OA
ATOM     14  H   UNL     1     214.901 207.816 203.302  1.00  0.00     0.211 HD
ENDBRANCH   6  13
BRANCH   7  15
ATOM     15  O   UNL     1     213.617 205.058 204.210  1.00  0.00    -0.385 OA
ATOM     16  H   UNL     1     214.523 204.759 204.493  1.00  0.00     0.211 HD
ENDBRANCH   7  15
ENDBRANCH   1   2
BRANCH   1  17
ATOM     17  C   UNL     1     210.610 204.582 206.086  1.00  0.00     0.224 C 
ATOM     18  C   UNL     1     210.668 204.858 207.613  1.00  0.00     0.208 C 
ATOM     19  O   UNL     1     209.242 204.470 205.732  1.00  0.00    -0.337 OA
ATOM     20  C   UNL     1     209.334 205.519 207.875  1.00  0.00     0.180 C 
ATOM     21  C   UNL     1     208.448 204.833 206.841  1.00  0.00     0.179 C 
BRANCH  17  22
ATOM     22  C   UNL     1     211.262 203.225 205.688  1.00  0.00     0.225 C 
BRANCH  22  23
ATOM     23  O   UNL     1     212.525 203.108 206.288  1.00  0.00    -0.391 OA
ATOM     24  H   UNL     1     212.764 202.145 206.279  1.00  0.00     0.210 HD
ENDBRANCH  22  23
ENDBRANCH  17  22
BRANCH  18  25
ATOM     25  O   UNL     1     210.749 203.657 208.342  1.00  0.00    -0.385 OA
ATOM     26  H   UNL     1     211.352 203.831 209.114  1.00  0.00     0.211 HD
ENDBRANCH  18  25
BRANCH  20  27
ATOM     27  O   UNL     1     209.420 206.901 207.632  1.00  0.00    -0.387 OA
ATOM     28  H   UNL     1     210.388 207.119 207.558  1.00  0.00     0.211 HD
ENDBRANCH  20  27
BRANCH  21  29
ATOM     29  C   UNL     1     207.249 205.667 206.367  1.00  0.00     0.191 C 
BRANCH  29  30
ATOM     30  O   UNL     1     207.657 206.620 205.417  1.00  0.00    -0.394 OA
ATOM     31  H   UNL     1     206.839 206.929 204.945  1.00  0.00     0.210 HD
ENDBRANCH  29  30
ENDBRANCH  21  29
ENDBRANCH   1  17
TORSDOF 13
ENDMDL
MODEL 6
REMARK VINA RESULT:    -4.140      9.022     12.852
REMARK INTER + INTRA:          -8.076
REMARK INTER:                  -6.393
REMARK INTRA:                  -1.683
REMARK UNBOUND:                -1.758
REMARK SMILES OC[C@@H]1O[C@@H](O[C@]2(CO)O[C@H](CO)[C@H](O)[C@H]2O)[C@@H](O)[C@H](O)[C@@H]1O
REMARK SMILES IDX 6 1 5 2 3 3 22 4 4 5 20 6 18 7 2 8 1 9 23 11 21 13 19 15
REMARK SMILES IDX 7 17 16 18 10 19 14 20 11 21 8 22 9 23 17 25 15 27 12 29
REMARK SMILES IDX 13 30
REMARK H PARENT 1 10 23 12 21 14 19 16 9 24 17 26 15 28 13 31
REMARK Flexibility Score: inf
ROOT
ATOM      1  O   UNL     1     211.350 205.714 206.270  1.00  0.00    -0.313 OA
ENDROOT
BRANCH   1   2
ATOM      2  C   UNL     1     210.646 204.607 205.705  1.00  0.00     0.285 C 
ATOM      3  C   UNL     1     208.602 205.190 206.725  1.00  0.00     0.178 C 
ATOM      4  C   UNL     1     208.572 203.932 207.623  1.00  0.00     0.177 C 
ATOM      5  O   UNL     1     209.275 204.921 205.504  1.00  0.00    -0.341 OA
ATOM      6  C   UNL     1     210.018 203.514 207.926  1.00  0.00     0.179 C 
ATOM      7  C   UNL     1     210.806 203.355 206.607  1.00  0.00     0.202 C 
BRANCH   3   8
ATOM      8  C   UNL     1     207.186 205.715 206.423  1.00  0.00     0.191 C 
BRANCH   8   9
ATOM      9  O   UNL     1     207.181 206.610 205.340  1.00  0.00    -0.394 OA
ATOM     10  H   UNL     1     206.798 207.462 205.672  1.00  0.00     0.210 HD
ENDBRANCH   8   9
ENDBRANCH   3   8
BRANCH   4  11
ATOM     11  O   UNL     1     207.908 202.875 206.971  1.00  0.00    -0.387 OA
ATOM     12  H   UNL     1     208.189 202.030 207.413  1.00  0.00     0.211 HD
ENDBRANCH   4  11
BRANCH   6  13
ATOM     13  O   UNL     1     210.016 202.306 208.646  1.00  0.00    -0.387 OA
ATOM     14  H   UNL     1     210.861 201.833 208.419  1.00  0.00     0.211 HD
ENDBRANCH   6  13
BRANCH   7  15
ATOM     15  O   UNL     1     212.165 203.085 206.862  1.00  0.00    -0.385 OA
ATOM     16  H   UNL     1     212.613 202.932 205.987  1.00  0.00     0.211 HD
ENDBRANCH   7  15
ENDBRANCH   1   2
BRANCH   1  17
ATOM     17  C   UNL     1     212.223 206.425 205.386  1.00  0.00     0.224 C 
ATOM     18  C   UNL     1     211.484 206.849 204.088  1.00  0.00     0.208 C 
ATOM     19  O   UNL     1     212.584 207.612 206.071  1.00  0.00    -0.337 OA
ATOM     20  C   UNL     1     210.921 208.201 204.461  1.00  0.00     0.180 C 
ATOM     21  C   UNL     1     211.983 208.715 205.427  1.00  0.00     0.179 C 
BRANCH  17  22
ATOM     22  C   UNL     1     213.558 205.674 205.108  1.00  0.00     0.225 C 
BRANCH  22  23
ATOM     23  O   UNL     1     214.125 205.242 206.317  1.00  0.00    -0.391 OA
ATOM     24  H   UNL     1     214.427 206.053 206.803  1.00  0.00     0.210 HD
ENDBRANCH  22  23
ENDBRANCH  17  22
BRANCH  18  25
ATOM     25  O   UNL     1     212.386 206.995 203.016  1.00  0.00    -0.385 OA
ATOM     26  H   UNL     1     211.891 206.745 202.190  1.00  0.00     0.211 HD
ENDBRANCH  18  25
BRANCH  20  27
ATOM     27  O   UNL     1     209.681 208.050 205.106  1.00  0.00    -0.387 OA
ATOM     28  H   UNL     1     209.854 207.547 205.946  1.00  0.00     0.211 HD
ENDBRANCH  20  27
BRANCH  21  29
ATOM     29  C   UNL     1     211.469 209.710 206.478  1.00  0.00     0.191 C 
BRANCH  29  30
ATOM     30  O   UNL     1     210.745 209.038 207.479  1.00  0.00    -0.394 OA
ATOM     31  H   UNL     1     210.632 209.673 208.234  1.00  0.00     0.210 HD
ENDBRANCH  29  30
ENDBRANCH  21  29
ENDBRANCH   1  17
TORSDOF 13
ENDMDL
MODEL 7
REMARK VINA RESULT:    -4.125      6.685     11.157
REMARK INTER + INTRA:          -8.053
REMARK INTER:                  -6.231
REMARK INTRA:                  -1.823
REMARK UNBOUND:                -1.758
REMARK SMILES OC[C@@H]1O[C@@H](O[C@]2(CO)O[C@H](CO)[C@H](O)[C@H]2O)[C@@H](O)[C@H](O)[C@@H]1O
REMARK SMILES IDX 6 1 5 2 3 3 22 4 4 5 20 6 18 7 2 8 1 9 23 11 21 13 19 15
REMARK SMILES IDX 7 17 16 18 10 19 14 20 11 21 8 22 9 23 17 25 15 27 12 29
REMARK SMILES IDX 13 30
REMARK H PARENT 1 10 23 12 21 14 19 16 9 24 17 26 15 28 13 31
REMARK Flexibility Score: inf
ROOT
ATOM      1  O   UNL     1     208.685 204.841 206.988  1.00  0.00    -0.313 OA
ENDROOT
BRANCH   1   2
ATOM      2  C   UNL     1     208.670 203.454 206.649  1.00  0.00     0.285 C 
ATOM      3  C   UNL     1     206.360 203.221 207.062  1.00  0.00     0.178 C 
ATOM      4  C   UNL     1     206.566 202.271 208.265  1.00  0.00     0.177 C 
ATOM      5  O   UNL     1     207.409 203.071 206.117  1.00  0.00    -0.341 OA
ATOM      6  C   UNL     1     207.903 202.616 208.936  1.00  0.00     0.179 C 
ATOM      7  C   UNL     1     209.038 202.597 207.888  1.00  0.00     0.202 C 
BRANCH   3   8
ATOM      8  C   UNL     1     205.008 202.982 206.366  1.00  0.00     0.191 C 
BRANCH   8   9
ATOM      9  O   UNL     1     204.987 201.763 205.668  1.00  0.00    -0.394 OA
ATOM     10  H   UNL     1     204.624 201.082 206.288  1.00  0.00     0.210 HD
ENDBRANCH   8   9
ENDBRANCH   3   8
BRANCH   4  11
ATOM     11  O   UNL     1     206.593 200.930 207.837  1.00  0.00    -0.387 OA
ATOM     12  H   UNL     1     205.717 200.737 207.409  1.00  0.00     0.211 HD
ENDBRANCH   4  11
BRANCH   6  13
ATOM     13  O   UNL     1     208.166 201.691 209.962  1.00  0.00    -0.387 OA
ATOM     14  H   UNL     1     207.794 202.075 210.800  1.00  0.00     0.211 HD
ENDBRANCH   6  13
BRANCH   7  15
ATOM     15  O   UNL     1     210.255 203.023 208.455  1.00  0.00    -0.385 OA
ATOM     16  H   UNL     1     210.981 202.459 208.076  1.00  0.00     0.211 HD
ENDBRANCH   7  15
ENDBRANCH   1   2
BRANCH   1  17
ATOM     17  C   UNL     1     209.084 205.741 205.949  1.00  0.00     0.224 C 
ATOM     18  C   UNL     1     209.786 206.997 206.533  1.00  0.00     0.208 C 
ATOM     19  O   UNL     1     210.047 205.042 205.179  1.00  0.00    -0.337 OA
ATOM     20  C   UNL     1     211.234 206.567 206.583  1.00  0.00     0.180 C 
ATOM     21  C   UNL     1     211.313 205.633 205.380  1.00  0.00     0.179 C 
BRANCH  17  22
ATOM     22  C   UNL     1     207.930 206.092 204.965  1.00  0.00     0.225 C 
BRANCH  22  23
ATOM     23  O   UNL     1     206.842 206.624 205.674  1.00  0.00    -0.391 OA
ATOM     24  H   UNL     1     206.707 207.551 205.349  1.00  0.00     0.210 HD
ENDBRANCH  22  23
ENDBRANCH  17  22
BRANCH  18  25
ATOM     25  O   UNL     1     209.652 208.100 205.669  1.00  0.00    -0.385 OA
ATOM     26  H   UNL     1     209.881 207.778 204.756  1.00  0.00     0.211 HD
ENDBRANCH  18  25
BRANCH  20  27
ATOM     27  O   UNL     1     211.496 205.877 207.779  1.00  0.00    -0.387 OA
ATOM     28  H   UNL     1     211.035 206.377 208.505  1.00  0.00     0.211 HD
ENDBRANCH  20  27
BRANCH  21  29
ATOM     29  C   UNL     1     212.383 204.537 205.487  1.00  0.00     0.191 C 
BRANCH  29  30
ATOM     30  O   UNL     1     212.012 203.578 206.445  1.00  0.00    -0.394 OA
ATOM     31  H   UNL     1     212.053 204.021 207.333  1.00  0.00     0.210 HD
ENDBRANCH  29  30
ENDBRANCH  21  29
ENDBRANCH   1  17
TORSDOF 13
ENDMDL
MODEL 8
REMARK VINA RESULT:    -4.099      1.337      3.011
REMARK INTER + INTRA:          -8.014
REMARK INTER:                  -6.360
REMARK INTRA:                  -1.653
REMARK UNBOUND:                -1.758
REMARK SMILES OC[C@@H]1O[C@@H](O[C@]2(CO)O[C@H](CO)[C@H](O)[C@H]2O)[C@@H](O)[C@H](O)[C@@H]1O
REMARK SMILES IDX 6 1 5 2 3 3 22 4 4 5 20 6 18 7 2 8 1 9 23 11 21 13 19 15
REMARK SMILES IDX 7 17 16 18 10 19 14 20 11 21 8 22 9 23 17 25 15 27 12 29
REMARK SMILES IDX 13 30
REMARK H PARENT 1 10 23 12 21 14 19 16 9 24 17 26 15 28 13 31
REMARK Flexibility Score: inf
ROOT
ATOM      1  O   UNL     1     198.932 202.063 205.177  1.00  0.00    -0.313 OA
ENDROOT
BRANCH   1   2
ATOM      2  C   UNL     1     199.689 201.919 206.379  1.00  0.00     0.285 C 
ATOM      3  C   UNL     1     199.075 204.042 207.201  1.00  0.00     0.178 C 
ATOM      4  C   UNL     1     200.512 204.604 207.118  1.00  0.00     0.177 C 
ATOM      5  O   UNL     1     199.095 202.643 207.447  1.00  0.00    -0.341 OA
ATOM      6  C   UNL     1     201.246 203.901 205.967  1.00  0.00     0.179 C 
ATOM      7  C   UNL     1     201.155 202.369 206.144  1.00  0.00     0.202 C 
BRANCH   3   8
ATOM      8  C   UNL     1     198.246 204.740 208.295  1.00  0.00     0.191 C 
BRANCH   8   9
ATOM      9  O   UNL     1     196.909 204.310 208.292  1.00  0.00    -0.394 OA
ATOM     10  H   UNL     1     196.741 203.882 209.170  1.00  0.00     0.210 HD
ENDBRANCH   8   9
ENDBRANCH   3   8
BRANCH   4  11
ATOM     11  O   UNL     1     201.205 204.373 208.322  1.00  0.00    -0.387 OA
ATOM     12  H   UNL     1     200.648 204.737 209.060  1.00  0.00     0.211 HD
ENDBRANCH   4  11
BRANCH   6  13
ATOM     13  O   UNL     1     202.590 204.313 205.946  1.00  0.00    -0.387 OA
ATOM     14  H   UNL     1     202.677 205.050 206.608  1.00  0.00     0.211 HD
ENDBRANCH   6  13
BRANCH   7  15
ATOM     15  O   UNL     1     201.720 201.699 205.042  1.00  0.00    -0.385 OA
ATOM     16  H   UNL     1     201.656 200.721 205.214  1.00  0.00     0.211 HD
ENDBRANCH   7  15
ENDBRANCH   1   2
BRANCH   1  17
ATOM     17  C   UNL     1     198.302 200.878 204.680  1.00  0.00     0.224 C 
ATOM     18  C   UNL     1     198.049 199.856 205.821  1.00  0.00     0.208 C 
ATOM     19  O   UNL     1     197.034 201.287 204.195  1.00  0.00    -0.337 OA
ATOM     20  C   UNL     1     196.680 200.257 206.321  1.00  0.00     0.180 C 
ATOM     21  C   UNL     1     196.029 200.768 205.039  1.00  0.00     0.179 C 
BRANCH  17  22
ATOM     22  C   UNL     1     199.041 200.255 203.460  1.00  0.00     0.225 C 
BRANCH  22  23
ATOM     23  O   UNL     1     200.266 199.707 203.871  1.00  0.00    -0.391 OA
ATOM     24  H   UNL     1     200.107 198.746 204.059  1.00  0.00     0.210 HD
ENDBRANCH  22  23
ENDBRANCH  17  22
BRANCH  18  25
ATOM     25  O   UNL     1     198.001 198.540 205.322  1.00  0.00    -0.385 OA
ATOM     26  H   UNL     1     198.202 198.596 204.349  1.00  0.00     0.211 HD
ENDBRANCH  18  25
BRANCH  20  27
ATOM     27  O   UNL     1     196.791 201.281 207.276  1.00  0.00    -0.387 OA
ATOM     28  H   UNL     1     196.576 200.875 208.158  1.00  0.00     0.211 HD
ENDBRANCH  20  27
BRANCH  21  29
ATOM     29  C   UNL     1     194.936 201.826 205.252  1.00  0.00     0.191 C 
BRANCH  29  30
ATOM     30  O   UNL     1     195.502 203.039 205.682  1.00  0.00    -0.394 OA
ATOM     31  H   UNL     1     196.411 203.095 205.284  1.00  0.00     0.210 HD
ENDBRANCH  29  30
ENDBRANCH  21  29
ENDBRANCH   1  17
TORSDOF 13
ENDMDL
MODEL 9
REMARK VINA RESULT:    -4.096      1.891      4.389
REMARK INTER + INTRA:          -8.009
REMARK INTER:                  -6.221
REMARK INTRA:                  -1.788
REMARK UNBOUND:                -1.758
REMARK SMILES OC[C@@H]1O[C@@H](O[C@]2(CO)O[C@H](CO)[C@H](O)[C@H]2O)[C@@H](O)[C@H](O)[C@@H]1O
REMARK SMILES IDX 6 1 5 2 3 3 22 4 4 5 20 6 18 7 2 8 1 9 23 11 21 13 19 15
REMARK SMILES IDX 7 17 16 18 10 19 14 20 11 21 8 22 9 23 17 25 15 27 12 29
REMARK SMILES IDX 13 30
REMARK H PARENT 1 10 23 12 21 14 19 16 9 24 17 26 15 28 13 31
REMARK Flexibility Score: inf
ROOT
ATOM      1  O   UNL     1     197.251 202.152 205.323  1.00  0.00    -0.313 OA
ENDROOT
BRANCH   1   2
ATOM      2  C   UNL     1     197.751 201.857 206.628  1.00  0.00     0.285 C 
ATOM      3  C   UNL     1     198.065 204.127 207.186  1.00  0.00     0.178 C 
ATOM      4  C   UNL     1     199.604 204.003 207.263  1.00  0.00     0.177 C 
ATOM      5  O   UNL     1     197.442 202.901 207.541  1.00  0.00    -0.341 OA
ATOM      6  C   UNL     1     200.054 202.907 206.286  1.00  0.00     0.179 C 
ATOM      7  C   UNL     1     199.280 201.600 206.568  1.00  0.00     0.202 C 
BRANCH   3   8
ATOM      8  C   UNL     1     197.532 205.251 208.093  1.00  0.00     0.191 C 
BRANCH   8   9
ATOM      9  O   UNL     1     196.149 205.439 207.936  1.00  0.00    -0.394 OA
ATOM     10  H   UNL     1     195.948 205.311 206.974  1.00  0.00     0.210 HD
ENDBRANCH   8   9
ENDBRANCH   3   8
BRANCH   4  11
ATOM     11  O   UNL     1     200.008 203.659 208.567  1.00  0.00    -0.387 OA
ATOM     12  H   UNL     1     199.265 203.899 209.181  1.00  0.00     0.211 HD
ENDBRANCH   4  11
BRANCH   6  13
ATOM     13  O   UNL     1     201.438 202.697 206.423  1.00  0.00    -0.387 OA
ATOM     14  H   UNL     1     201.868 203.062 205.604  1.00  0.00     0.211 HD
ENDBRANCH   6  13
BRANCH   7  15
ATOM     15  O   UNL     1     199.590 200.613 205.613  1.00  0.00    -0.385 OA
ATOM     16  H   UNL     1     199.347 200.970 204.717  1.00  0.00     0.211 HD
ENDBRANCH   7  15
ENDBRANCH   1   2
BRANCH   1  17
ATOM     17  C   UNL     1     196.054 201.469 204.936  1.00  0.00     0.224 C 
ATOM     18  C   UNL     1     196.058 201.144 203.418  1.00  0.00     0.208 C 
ATOM     19  O   UNL     1     196.072 200.233 205.629  1.00  0.00    -0.337 OA
ATOM     20  C   UNL     1     196.728 199.790 203.376  1.00  0.00     0.180 C 
ATOM     21  C   UNL     1     196.275 199.188 204.702  1.00  0.00     0.179 C 
BRANCH  17  22
ATOM     22  C   UNL     1     194.757 202.195 205.399  1.00  0.00     0.225 C 
BRANCH  22  23
ATOM     23  O   UNL     1     195.039 203.538 205.693  1.00  0.00    -0.391 OA
ATOM     24  H   UNL     1     194.619 203.739 206.568  1.00  0.00     0.210 HD
ENDBRANCH  22  23
ENDBRANCH  17  22
BRANCH  18  25
ATOM     25  O   UNL     1     194.746 201.036 202.919  1.00  0.00    -0.385 OA
ATOM     26  H   UNL     1     194.135 201.256 203.673  1.00  0.00     0.211 HD
ENDBRANCH  18  25
BRANCH  20  27
ATOM     27  O   UNL     1     198.125 199.939 203.338  1.00  0.00    -0.387 OA
ATOM     28  H   UNL     1     198.498 199.068 203.034  1.00  0.00     0.211 HD
ENDBRANCH  20  27
BRANCH  21  29
ATOM     29  C   UNL     1     197.237 198.149 205.297  1.00  0.00     0.191 C 
BRANCH  29  30
ATOM     30  O   UNL     1     197.542 198.468 206.632  1.00  0.00    -0.394 OA
ATOM     31  H   UNL     1     198.406 198.960 206.624  1.00  0.00     0.210 HD
ENDBRANCH  29  30
ENDBRANCH  21  29
ENDBRANCH   1  17
TORSDOF 13
ENDMDL
