MODEL 1
REMARK VINA RESULT:    -1.031      0.000      0.000
REMARK INTER + INTRA:          -1.114
REMARK INTER:                  -1.091
REMARK INTRA:                  -0.023
REMARK UNBOUND:                -0.023
REMARK SMILES O=C([O-])c1cccnc1
REMARK SMILES IDX 4 1 5 2 9 3 6 4 8 5 7 6 2 7 1 8 3 9
REMARK H PARENT
REMARK Flexibility Score: inf
ROOT
ATOM      1  C   UNL     1      78.863  37.303  58.529  1.00  0.00     0.016 A 
ATOM      2  C   UNL     1      79.239  36.222  57.715  1.00  0.00     0.013 A 
ATOM      3  C   UNL     1      78.114  38.345  57.952  1.00  0.00     0.120 A 
ATOM      4  C   UNL     1      78.871  36.197  56.368  1.00  0.00     0.021 A 
ATOM      5  N   UNL     1      77.770  38.296  56.637  1.00  0.00    -0.264 NA
ATOM      6  C   UNL     1      78.128  37.254  55.842  1.00  0.00     0.111 A 
ENDROOT
BRANCH   1   7
ATOM      7  C   UNL     1      79.247  37.342  59.956  1.00  0.00     0.073 C 
ATOM      8  O   UNL     1      79.164  38.413  60.613  1.00  0.00    -0.545 OA
ATOM      9  O   UNL     1      79.704  36.193  60.593  1.00  0.00    -0.545 OA
ENDBRANCH   1   7
TORSDOF 1
ENDMDL
MODEL 2
REMARK VINA RESULT:    -1.010      1.589      2.716
REMARK INTER + INTRA:          -1.092
REMARK INTER:                  -1.069
REMARK INTRA:                  -0.023
REMARK UNBOUND:                -0.023
REMARK SMILES O=C([O-])c1cccnc1
REMARK SMILES IDX 4 1 5 2 9 3 6 4 8 5 7 6 2 7 1 8 3 9
REMARK H PARENT
REMARK Flexibility Score: inf
ROOT
ATOM      1  C   UNL     1      78.388  37.950  59.030  1.00  0.00     0.016 A 
ATOM      2  C   UNL     1      77.497  38.516  59.956  1.00  0.00     0.013 A 
ATOM      3  C   UNL     1      78.265  38.311  57.676  1.00  0.00     0.120 A 
ATOM      4  C   UNL     1      76.518  39.415  59.528  1.00  0.00     0.021 A 
ATOM      5  N   UNL     1      77.303  39.189  57.286  1.00  0.00    -0.264 NA
ATOM      6  C   UNL     1      76.436  39.743  58.174  1.00  0.00     0.111 A 
ENDROOT
BRANCH   1   7
ATOM      7  C   UNL     1      79.428  36.996  59.471  1.00  0.00     0.073 C 
ATOM      8  O   UNL     1      80.006  36.248  58.639  1.00  0.00    -0.545 OA
ATOM      9  O   UNL     1      79.784  36.914  60.813  1.00  0.00    -0.545 OA
ENDBRANCH   1   7
TORSDOF 1
ENDMDL
MODEL 3
REMARK VINA RESULT:    -0.959      1.861      2.591
REMARK INTER + INTRA:          -1.038
REMARK INTER:                  -1.015
REMARK INTRA:                  -0.023
REMARK UNBOUND:                -0.023
REMARK SMILES O=C([O-])c1cccnc1
REMARK SMILES IDX 4 1 5 2 9 3 6 4 8 5 7 6 2 7 1 8 3 9
REMARK H PARENT
REMARK Flexibility Score: inf
ROOT
ATOM      1  C   UNL     1      78.372  37.954  59.053  1.00  0.00     0.016 A 
ATOM      2  C   UNL     1      78.255  38.333  57.707  1.00  0.00     0.013 A 
ATOM      3  C   UNL     1      77.473  38.505  59.984  1.00  0.00     0.120 A 
ATOM      4  C   UNL     1      77.265  39.237  57.316  1.00  0.00     0.021 A 
ATOM      5  N   UNL     1      76.517  39.383  59.577  1.00  0.00    -0.264 NA
ATOM      6  C   UNL     1      76.396  39.756  58.276  1.00  0.00     0.111 A 
ENDROOT
BRANCH   1   7
ATOM      7  C   UNL     1      79.417  36.998  59.479  1.00  0.00     0.073 C 
ATOM      8  O   UNL     1      79.989  36.257  58.637  1.00  0.00    -0.545 OA
ATOM      9  O   UNL     1      79.783  36.906  60.818  1.00  0.00    -0.545 OA
ENDBRANCH   1   7
TORSDOF 1
ENDMDL
MODEL 4
REMARK VINA RESULT:    -0.957      2.628      3.678
REMARK INTER + INTRA:          -1.036
REMARK INTER:                  -1.014
REMARK INTRA:                  -0.022
REMARK UNBOUND:                -0.023
REMARK SMILES O=C([O-])c1cccnc1
REMARK SMILES IDX 4 1 5 2 9 3 6 4 8 5 7 6 2 7 1 8 3 9
REMARK H PARENT
REMARK Flexibility Score: inf
ROOT
ATOM      1  C   UNL     1      78.530  37.291  57.863  1.00  0.00     0.016 A 
ATOM      2  C   UNL     1      79.496  36.781  58.744  1.00  0.00     0.013 A 
ATOM      3  C   UNL     1      77.609  38.234  58.353  1.00  0.00     0.120 A 
ATOM      4  C   UNL     1      79.529  37.209  60.073  1.00  0.00     0.021 A 
ATOM      5  N   UNL     1      77.663  38.634  59.652  1.00  0.00    -0.264 NA
ATOM      6  C   UNL     1      78.594  38.146  60.512  1.00  0.00     0.111 A 
ENDROOT
BRANCH   1   7
ATOM      7  C   UNL     1      78.485  36.845  56.454  1.00  0.00     0.073 C 
ATOM      8  O   UNL     1      78.803  35.666  56.144  1.00  0.00    -0.545 OA
ATOM      9  O   UNL     1      78.089  37.722  55.450  1.00  0.00    -0.545 OA
ENDBRANCH   1   7
TORSDOF 1
ENDMDL
MODEL 5
REMARK VINA RESULT:    -0.914      0.949      1.606
REMARK INTER + INTRA:          -0.991
REMARK INTER:                  -0.967
REMARK INTRA:                  -0.024
REMARK UNBOUND:                -0.023
REMARK SMILES O=C([O-])c1cccnc1
REMARK SMILES IDX 4 1 5 2 9 3 6 4 8 5 7 6 2 7 1 8 3 9
REMARK H PARENT
REMARK Flexibility Score: inf
ROOT
ATOM      1  C   UNL     1      78.912  37.213  58.605  1.00  0.00     0.016 A 
ATOM      2  C   UNL     1      78.114  38.211  58.025  1.00  0.00     0.013 A 
ATOM      3  C   UNL     1      79.345  36.148  57.795  1.00  0.00     0.120 A 
ATOM      4  C   UNL     1      77.765  38.134  56.675  1.00  0.00     0.021 A 
ATOM      5  N   UNL     1      78.991  36.097  56.483  1.00  0.00    -0.264 NA
ATOM      6  C   UNL     1      78.219  37.058  55.912  1.00  0.00     0.111 A 
ENDROOT
BRANCH   1   7
ATOM      7  C   UNL     1      79.287  37.284  60.034  1.00  0.00     0.073 C 
ATOM      8  O   UNL     1      79.158  38.358  60.678  1.00  0.00    -0.545 OA
ATOM      9  O   UNL     1      79.787  36.162  60.686  1.00  0.00    -0.545 OA
ENDBRANCH   1   7
TORSDOF 1
ENDMDL
MODEL 6
REMARK VINA RESULT:    -0.678      3.388      4.355
REMARK INTER + INTRA:          -0.741
REMARK INTER:                  -0.724
REMARK INTRA:                  -0.017
REMARK UNBOUND:                -0.023
REMARK SMILES O=C([O-])c1cccnc1
REMARK SMILES IDX 4 1 5 2 9 3 6 4 8 5 7 6 2 7 1 8 3 9
REMARK H PARENT
REMARK Flexibility Score: inf
ROOT
ATOM      1  C   UNL     1      78.274  37.488  56.230  1.00  0.00     0.016 A 
ATOM      2  C   UNL     1      77.740  38.532  57.002  1.00  0.00     0.013 A 
ATOM      3  C   UNL     1      78.985  36.467  56.886  1.00  0.00     0.120 A 
ATOM      4  C   UNL     1      77.919  38.542  58.387  1.00  0.00     0.021 A 
ATOM      5  N   UNL     1      79.145  36.501  58.236  1.00  0.00    -0.264 NA
ATOM      6  C   UNL     1      78.632  37.507  58.992  1.00  0.00     0.111 A 
ENDROOT
BRANCH   1   7
ATOM      7  C   UNL     1      78.092  37.466  54.762  1.00  0.00     0.073 C 
ATOM      8  O   UNL     1      79.083  37.573  53.992  1.00  0.00    -0.545 OA
ATOM      9  O   UNL     1      76.822  37.325  54.213  1.00  0.00    -0.545 OA
ENDBRANCH   1   7
TORSDOF 1
ENDMDL
MODEL 7
REMARK VINA RESULT:    -0.615      0.855      1.188
REMARK INTER + INTRA:          -0.674
REMARK INTER:                  -0.655
REMARK INTRA:                  -0.019
REMARK UNBOUND:                -0.023
REMARK SMILES O=C([O-])c1cccnc1
REMARK SMILES IDX 4 1 5 2 9 3 6 4 8 5 7 6 2 7 1 8 3 9
REMARK H PARENT
REMARK Flexibility Score: inf
ROOT
ATOM      1  C   UNL     1      78.649  37.297  58.003  1.00  0.00     0.016 A 
ATOM      2  C   UNL     1      78.869  36.022  57.459  1.00  0.00     0.013 A 
ATOM      3  C   UNL     1      78.182  38.316  57.152  1.00  0.00     0.120 A 
ATOM      4  C   UNL     1      78.626  35.786  56.105  1.00  0.00     0.021 A 
ATOM      5  N   UNL     1      77.953  38.059  55.837  1.00  0.00    -0.264 NA
ATOM      6  C   UNL     1      78.162  36.827  55.302  1.00  0.00     0.111 A 
ENDROOT
BRANCH   1   7
ATOM      7  C   UNL     1      78.904  37.561  59.436  1.00  0.00     0.073 C 
ATOM      8  O   UNL     1      80.015  37.268  59.953  1.00  0.00    -0.545 OA
ATOM      9  O   UNL     1      77.920  38.137  60.231  1.00  0.00    -0.545 OA
ENDBRANCH   1   7
TORSDOF 1
ENDMDL
MODEL 8
REMARK VINA RESULT:    -0.390      2.354      3.077
REMARK INTER + INTRA:          -0.436
REMARK INTER:                  -0.414
REMARK INTRA:                  -0.022
REMARK UNBOUND:                -0.023
REMARK SMILES O=C([O-])c1cccnc1
REMARK SMILES IDX 4 1 5 2 9 3 6 4 8 5 7 6 2 7 1 8 3 9
REMARK H PARENT
REMARK Flexibility Score: inf
ROOT
ATOM      1  C   UNL     1      77.842  38.227  58.564  1.00  0.00     0.016 A 
ATOM      2  C   UNL     1      77.936  37.641  57.291  1.00  0.00     0.013 A 
ATOM      3  C   UNL     1      78.713  37.779  59.573  1.00  0.00     0.120 A 
ATOM      4  C   UNL     1      78.877  36.639  57.049  1.00  0.00     0.021 A 
ATOM      5  N   UNL     1      79.621  36.800  59.310  1.00  0.00    -0.264 NA
ATOM      6  C   UNL     1      79.720  36.228  58.081  1.00  0.00     0.111 A 
ENDROOT
BRANCH   1   7
ATOM      7  C   UNL     1      76.848  39.289  58.833  1.00  0.00     0.073 C 
ATOM      8  O   UNL     1      76.358  39.430  59.985  1.00  0.00    -0.545 OA
ATOM      9  O   UNL     1      76.444  40.148  57.817  1.00  0.00    -0.545 OA
ENDBRANCH   1   7
TORSDOF 1
ENDMDL
