MODEL 1
REMARK VINA RESULT:    -3.489      0.000      0.000
REMARK INTER + INTRA:          -4.812
REMARK INTER:                  -4.917
REMARK INTRA:                   0.105
REMARK UNBOUND:                 0.105
REMARK SMILES CC1=CCC(=C(C)C)C(=O)CC(C)=CCC1
REMARK SMILES IDX 12 1 14 2 13 3 15 4 16 5 2 6 1 7 3 8 11 10 9 11 10 12 5 13
REMARK SMILES IDX 6 14 7 15 8 16 4 17
REMARK H PARENT
REMARK Flexibility Score: 60.00
ROOT
ATOM      1  C   UNL     1      16.387  11.688  25.203  1.00  0.00    -0.070 C 
ATOM      2  C   UNL     1      16.735  10.678  24.375  1.00  0.00    -0.027 C 
ATOM      3  C   UNL     1      16.254  13.069  24.612  1.00  0.00     0.039 C 
ENDROOT
BRANCH   2   4
ATOM      4  C   UNL     1      16.825   9.216  24.754  1.00  0.00     0.032 C 
BRANCH   4   5
ATOM      5  C   UNL     1      15.476   8.467  24.770  1.00  0.00     0.034 C 
BRANCH   5   6
ATOM      6  C   UNL     1      15.262   7.649  26.032  1.00  0.00    -0.077 C 
ATOM      7  C   UNL     1      16.145   6.446  26.245  1.00  0.00     0.039 C 
ATOM      8  C   UNL     1      14.378   7.969  27.007  1.00  0.00    -0.023 CG0
ATOM      9  G   UNL     1      13.381   9.112  27.002  1.00  0.00     0.000 G0
ENDBRANCH   5   6
ENDBRANCH   4   5
ENDBRANCH   2   4
BRANCH   1  10
ATOM     10  C   UNL     1      16.038  11.484  26.663  1.00  0.00     0.111 C 
BRANCH  10  11
ATOM     11  C   UNL     1      14.548  11.410  26.873  1.00  0.00     0.163 C 
ATOM     12  O   UNL     1      13.821  12.237  26.260  1.00  0.00    -0.294 OA
BRANCH  11  13
ATOM     13  C   UNL     1      13.910  10.363  27.726  1.00  0.00    -0.002 C 
ATOM     14  C   UNL     1      13.742  10.562  29.068  1.00  0.00    -0.069 C 
ATOM     15  C   UNL     1      12.960   9.593  29.928  1.00  0.00     0.039 C 
ATOM     16  C   UNL     1      14.333  11.769  29.762  1.00  0.00     0.039 C 
BRANCH  13  17
ATOM     17  C   UNL     1      13.375   9.125  27.023  1.00  0.00     0.066 CG0
ATOM     18  G   UNL     1      14.382   7.991  27.010  1.00  0.00     0.000 G0
ENDBRANCH  13  17
ENDBRANCH  11  13
ENDBRANCH  10  11
ENDBRANCH   1  10
TORSDOF 0
ENDMDL
MODEL 2
REMARK VINA RESULT:    -3.458      2.405      4.485
REMARK INTER + INTRA:          -4.768
REMARK INTER:                  -5.153
REMARK INTRA:                   0.384
REMARK UNBOUND:                 0.105
REMARK SMILES CC1=CCC(=C(C)C)C(=O)CC(C)=CCC1
REMARK SMILES IDX 12 1 14 2 13 3 15 4 16 5 2 6 1 7 3 8 11 10 9 11 10 12 5 13
REMARK SMILES IDX 6 14 7 15 8 16 4 17
REMARK H PARENT
REMARK Flexibility Score: 60.00
ROOT
ATOM      1  C   UNL     1      15.938   9.468  25.715  1.00  0.00    -0.070 C 
ATOM      2  C   UNL     1      14.856   8.662  25.789  1.00  0.00    -0.027 C 
ATOM      3  C   UNL     1      17.136   8.971  24.946  1.00  0.00     0.039 C 
ENDROOT
BRANCH   2   4
ATOM      4  C   UNL     1      13.531   9.018  26.428  1.00  0.00     0.032 C 
BRANCH   4   5
ATOM      5  C   UNL     1      12.665  10.004  25.616  1.00  0.00     0.034 C 
BRANCH   5   6
ATOM      6  C   UNL     1      12.294  11.254  26.396  1.00  0.00    -0.077 C 
ATOM      7  C   UNL     1      11.434  11.085  27.623  1.00  0.00     0.039 C 
ATOM      8  C   UNL     1      12.742  12.498  26.101  1.00  0.00    -0.023 CG0
ATOM      9  G   UNL     1      13.594  12.907  24.916  1.00  0.00     0.000 G0
ENDBRANCH   5   6
ENDBRANCH   4   5
ENDBRANCH   2   4
BRANCH   1  10
ATOM     10  C   UNL     1      15.970  10.872  26.285  1.00  0.00     0.111 C 
BRANCH  10  11
ATOM     11  C   UNL     1      15.940  11.914  25.197  1.00  0.00     0.163 C 
ATOM     12  O   UNL     1      16.659  11.729  24.178  1.00  0.00    -0.294 OA
BRANCH  11  13
ATOM     13  C   UNL     1      15.050  13.112  25.259  1.00  0.00    -0.002 C 
ATOM     14  C   UNL     1      15.562  14.349  25.537  1.00  0.00    -0.069 C 
ATOM     15  C   UNL     1      14.718  15.601  25.452  1.00  0.00     0.039 C 
ATOM     16  C   UNL     1      17.008  14.525  25.946  1.00  0.00     0.039 C 
BRANCH  13  17
ATOM     17  C   UNL     1      13.584  12.909  24.907  1.00  0.00     0.066 CG0
ATOM     18  G   UNL     1      12.754  12.504  26.109  1.00  0.00     0.000 G0
ENDBRANCH  13  17
ENDBRANCH  11  13
ENDBRANCH  10  11
ENDBRANCH   1  10
TORSDOF 0
ENDMDL
MODEL 3
REMARK VINA RESULT:    -3.378      2.245      4.105
REMARK INTER + INTRA:          -4.655
REMARK INTER:                  -4.821
REMARK INTRA:                   0.166
REMARK UNBOUND:                 0.105
REMARK SMILES CC1=CCC(=C(C)C)C(=O)CC(C)=CCC1
REMARK SMILES IDX 12 1 14 2 13 3 15 4 16 5 2 6 1 7 3 8 11 10 9 11 10 12 5 13
REMARK SMILES IDX 6 14 7 15 8 16 4 17
REMARK H PARENT
REMARK Flexibility Score: 60.00
ROOT
ATOM      1  C   UNL     1      15.889  13.668  24.984  1.00  0.00    -0.070 C 
ATOM      2  C   UNL     1      14.742  14.292  24.635  1.00  0.00    -0.027 C 
ATOM      3  C   UNL     1      16.953  14.482  25.677  1.00  0.00     0.039 C 
ENDROOT
BRANCH   2   4
ATOM      4  C   UNL     1      13.527  13.630  24.024  1.00  0.00     0.032 C 
BRANCH   4   5
ATOM      5  C   UNL     1      12.483  13.125  25.042  1.00  0.00     0.034 C 
BRANCH   5   6
ATOM      6  C   UNL     1      11.938  11.748  24.706  1.00  0.00    -0.077 C 
ATOM      7  C   UNL     1      10.918  11.649  23.600  1.00  0.00     0.039 C 
ATOM      8  C   UNL     1      12.359  10.598  25.287  1.00  0.00    -0.023 CG0
ATOM      9  G   UNL     1      13.352  10.457  26.423  1.00  0.00     0.000 G0
ENDBRANCH   5   6
ENDBRANCH   4   5
ENDBRANCH   2   4
BRANCH   1  10
ATOM     10  C   UNL     1      16.117  12.182  24.798  1.00  0.00     0.111 C 
BRANCH  10  11
ATOM     11  C   UNL     1      15.708  11.399  26.018  1.00  0.00     0.163 C 
ATOM     12  O   UNL     1      16.132  11.785  27.140  1.00  0.00    -0.294 OA
BRANCH  11  13
ATOM     13  C   UNL     1      14.779  10.232  25.947  1.00  0.00    -0.002 C 
ATOM     14  C   UNL     1      15.228   9.004  25.549  1.00  0.00    -0.069 C 
ATOM     15  C   UNL     1      14.353   7.771  25.618  1.00  0.00     0.039 C 
ATOM     16  C   UNL     1      16.632   8.817  25.017  1.00  0.00     0.039 C 
BRANCH  13  17
ATOM     17  C   UNL     1      13.352  10.449  26.426  1.00  0.00     0.066 CG0
ATOM     18  G   UNL     1      12.376  10.602  25.277  1.00  0.00     0.000 G0
ENDBRANCH  13  17
ENDBRANCH  11  13
ENDBRANCH  10  11
ENDBRANCH   1  10
TORSDOF 0
ENDMDL
MODEL 4
REMARK VINA RESULT:    -3.373     10.965     12.227
REMARK INTER + INTRA:          -4.649
REMARK INTER:                  -4.865
REMARK INTRA:                   0.216
REMARK UNBOUND:                 0.105
REMARK SMILES CC1=CCC(=C(C)C)C(=O)CC(C)=CCC1
REMARK SMILES IDX 12 1 14 2 13 3 15 4 16 5 2 6 1 7 3 8 11 10 9 11 10 12 5 13
REMARK SMILES IDX 6 14 7 15 8 16 4 17
REMARK H PARENT
REMARK Flexibility Score: 60.00
ROOT
ATOM      1  C   UNL     1      17.722   0.836  20.834  1.00  0.00    -0.070 C 
ATOM      2  C   UNL     1      17.138   0.090  21.797  1.00  0.00    -0.027 C 
ATOM      3  C   UNL     1      18.911   1.680  21.219  1.00  0.00     0.039 C 
ENDROOT
BRANCH   2   4
ATOM      4  C   UNL     1      16.002  -0.889  21.591  1.00  0.00     0.032 C 
BRANCH   4   5
ATOM      5  C   UNL     1      14.600  -0.249  21.525  1.00  0.00     0.034 C 
BRANCH   5   6
ATOM      6  C   UNL     1      13.828  -0.629  20.273  1.00  0.00    -0.077 C 
ATOM      7  C   UNL     1      13.328  -2.047  20.160  1.00  0.00     0.039 C 
ATOM      8  C   UNL     1      13.503   0.240  19.285  1.00  0.00    -0.023 CG0
ATOM      9  G   UNL     1      13.909   1.696  19.176  1.00  0.00     0.000 G0
ENDBRANCH   5   6
ENDBRANCH   4   5
ENDBRANCH   2   4
BRANCH   1  10
ATOM     10  C   UNL     1      17.299   0.795  19.380  1.00  0.00     0.111 C 
BRANCH  10  11
ATOM     11  C   UNL     1      16.476   2.000  19.005  1.00  0.00     0.163 C 
ATOM     12  O   UNL     1      16.945   3.141  19.261  1.00  0.00    -0.294 OA
BRANCH  11  13
ATOM     13  C   UNL     1      15.167   1.887  18.295  1.00  0.00    -0.002 C 
ATOM     14  C   UNL     1      15.113   1.865  16.929  1.00  0.00    -0.069 C 
ATOM     15  C   UNL     1      13.824   1.594  16.184  1.00  0.00     0.039 C 
ATOM     16  C   UNL     1      16.348   2.112  16.091  1.00  0.00     0.039 C 
BRANCH  13  17
ATOM     17  C   UNL     1      13.924   1.703  19.152  1.00  0.00     0.066 CG0
ATOM     18  G   UNL     1      13.519   0.247  19.272  1.00  0.00     0.000 G0
ENDBRANCH  13  17
ENDBRANCH  11  13
ENDBRANCH  10  11
ENDBRANCH   1  10
TORSDOF 0
ENDMDL
MODEL 5
REMARK VINA RESULT:    -3.355      2.236      4.503
REMARK INTER + INTRA:          -4.622
REMARK INTER:                  -5.219
REMARK INTRA:                   0.597
REMARK UNBOUND:                 0.105
REMARK SMILES CC1=CCC(=C(C)C)C(=O)CC(C)=CCC1
REMARK SMILES IDX 12 1 14 2 13 3 15 4 16 5 2 6 1 7 3 8 11 10 9 11 10 12 5 13
REMARK SMILES IDX 6 14 7 15 8 16 4 17
REMARK H PARENT
REMARK Flexibility Score: 60.00
ROOT
ATOM      1  C   UNL     1      16.355   7.590  25.595  1.00  0.00    -0.070 C 
ATOM      2  C   UNL     1      17.231   8.617  25.656  1.00  0.00    -0.027 C 
ATOM      3  C   UNL     1      16.742   6.293  26.259  1.00  0.00     0.039 C 
ENDROOT
BRANCH   2   4
ATOM      4  C   UNL     1      16.988  10.018  25.139  1.00  0.00     0.032 C 
BRANCH   4   5
ATOM      5  C   UNL     1      16.235  10.946  26.114  1.00  0.00     0.034 C 
BRANCH   5   6
ATOM      6  C   UNL     1      15.330  11.943  25.411  1.00  0.00    -0.077 C 
ATOM      7  C   UNL     1      15.984  13.066  24.647  1.00  0.00     0.039 C 
ATOM      8  C   UNL     1      13.978  11.849  25.369  1.00  0.00    -0.023 CG0
ATOM      9  G   UNL     1      13.110  10.825  26.073  1.00  0.00     0.000 G0
ENDBRANCH   5   6
ENDBRANCH   4   5
ENDBRANCH   2   4
BRANCH   1  10
ATOM     10  C   UNL     1      14.976   7.709  24.978  1.00  0.00     0.111 C 
BRANCH  10  11
ATOM     11  C   UNL     1      14.024   8.447  25.883  1.00  0.00     0.163 C 
ATOM     12  O   UNL     1      14.079   8.212  27.120  1.00  0.00    -0.294 OA
BRANCH  11  13
ATOM     13  C   UNL     1      13.071   9.478  25.374  1.00  0.00    -0.002 C 
ATOM     14  C   UNL     1      12.179   9.177  24.383  1.00  0.00    -0.069 C 
ATOM     15  C   UNL     1      11.099  10.147  23.957  1.00  0.00     0.039 C 
ATOM     16  C   UNL     1      12.228   7.848  23.661  1.00  0.00     0.039 C 
BRANCH  13  17
ATOM     17  C   UNL     1      13.075  10.832  26.068  1.00  0.00     0.066 CG0
ATOM     18  G   UNL     1      13.960  11.839  25.360  1.00  0.00     0.000 G0
ENDBRANCH  13  17
ENDBRANCH  11  13
ENDBRANCH  10  11
ENDBRANCH   1  10
TORSDOF 0
ENDMDL
MODEL 6
REMARK VINA RESULT:    -3.276      1.831      2.503
REMARK INTER + INTRA:          -4.511
REMARK INTER:                  -5.057
REMARK INTRA:                   0.545
REMARK UNBOUND:                 0.105
REMARK SMILES CC1=CCC(=C(C)C)C(=O)CC(C)=CCC1
REMARK SMILES IDX 12 1 14 2 13 3 15 4 16 5 2 6 1 7 3 8 11 10 9 11 10 12 5 13
REMARK SMILES IDX 6 14 7 15 8 16 4 17
REMARK H PARENT
REMARK Flexibility Score: 60.00
ROOT
ATOM      1  C   UNL     1      15.129  11.459  26.101  1.00  0.00    -0.070 C 
ATOM      2  C   UNL     1      16.124  10.866  25.405  1.00  0.00    -0.027 C 
ATOM      3  C   UNL     1      14.368  12.575  25.433  1.00  0.00     0.039 C 
ENDROOT
BRANCH   2   4
ATOM      4  C   UNL     1      16.934   9.673  25.862  1.00  0.00     0.032 C 
BRANCH   4   5
ATOM      5  C   UNL     1      16.705   8.384  25.046  1.00  0.00     0.034 C 
BRANCH   5   6
ATOM      6  C   UNL     1      15.795   7.388  25.746  1.00  0.00    -0.077 C 
ATOM      7  C   UNL     1      16.444   6.241  26.478  1.00  0.00     0.039 C 
ATOM      8  C   UNL     1      14.447   7.502  25.812  1.00  0.00    -0.023 CG0
ATOM      9  G   UNL     1      13.583   8.553  25.142  1.00  0.00     0.000 G0
ENDBRANCH   5   6
ENDBRANCH   4   5
ENDBRANCH   2   4
BRANCH   1  10
ATOM     10  C   UNL     1      14.685  10.995  27.474  1.00  0.00     0.111 C 
BRANCH  10  11
ATOM     11  C   UNL     1      13.739   9.825  27.387  1.00  0.00     0.163 C 
ATOM     12  O   UNL     1      13.578   9.116  28.416  1.00  0.00    -0.294 OA
BRANCH  11  13
ATOM     13  C   UNL     1      12.953   9.520  26.154  1.00  0.00    -0.002 C 
ATOM     14  C   UNL     1      11.767  10.154  25.907  1.00  0.00    -0.069 C 
ATOM     15  C   UNL     1      11.027   9.986  24.599  1.00  0.00     0.039 C 
ATOM     16  C   UNL     1      11.133  11.061  26.939  1.00  0.00     0.039 C 
BRANCH  13  17
ATOM     17  C   UNL     1      13.573   8.557  25.154  1.00  0.00     0.066 CG0
ATOM     18  G   UNL     1      14.448   7.516  25.823  1.00  0.00     0.000 G0
ENDBRANCH  13  17
ENDBRANCH  11  13
ENDBRANCH  10  11
ENDBRANCH   1  10
TORSDOF 0
ENDMDL
MODEL 7
REMARK VINA RESULT:    -3.220      1.802      4.122
REMARK INTER + INTRA:          -4.433
REMARK INTER:                  -4.783
REMARK INTRA:                   0.350
REMARK UNBOUND:                 0.105
REMARK SMILES CC1=CCC(=C(C)C)C(=O)CC(C)=CCC1
REMARK SMILES IDX 12 1 14 2 13 3 15 4 16 5 2 6 1 7 3 8 11 10 9 11 10 12 5 13
REMARK SMILES IDX 6 14 7 15 8 16 4 17
REMARK H PARENT
REMARK Flexibility Score: 60.00
ROOT
ATOM      1  C   UNL     1      16.537  14.026  26.539  1.00  0.00    -0.070 C 
ATOM      2  C   UNL     1      15.767  14.478  27.553  1.00  0.00    -0.027 C 
ATOM      3  C   UNL     1      17.079  15.036  25.560  1.00  0.00     0.039 C 
ENDROOT
BRANCH   2   4
ATOM      4  C   UNL     1      15.213  13.639  28.684  1.00  0.00     0.032 C 
BRANCH   4   5
ATOM      5  C   UNL     1      13.764  13.151  28.479  1.00  0.00     0.034 C 
BRANCH   5   6
ATOM      6  C   UNL     1      13.608  11.651  28.657  1.00  0.00    -0.077 C 
ATOM      7  C   UNL     1      13.377  11.131  30.054  1.00  0.00     0.039 C 
ATOM      8  C   UNL     1      13.595  10.758  27.637  1.00  0.00    -0.023 CG0
ATOM      9  G   UNL     1      13.824  11.046  26.167  1.00  0.00     0.000 G0
ENDBRANCH   5   6
ENDBRANCH   4   5
ENDBRANCH   2   4
BRANCH   1  10
ATOM     10  C   UNL     1      16.952  12.576  26.393  1.00  0.00     0.111 C 
BRANCH  10  11
ATOM     11  C   UNL     1      16.119  11.860  25.362  1.00  0.00     0.163 C 
ATOM     12  O   UNL     1      16.222  12.224  24.160  1.00  0.00    -0.294 OA
BRANCH  11  13
ATOM     13  C   UNL     1      15.234  10.707  25.706  1.00  0.00    -0.002 C 
ATOM     14  C   UNL     1      15.714   9.427  25.687  1.00  0.00    -0.069 C 
ATOM     15  C   UNL     1      14.892   8.257  26.181  1.00  0.00     0.039 C 
ATOM     16  C   UNL     1      17.101   9.117  25.166  1.00  0.00     0.039 C 
BRANCH  13  17
ATOM     17  C   UNL     1      13.821  11.029  26.168  1.00  0.00     0.066 CG0
ATOM     18  G   UNL     1      13.620  10.746  27.644  1.00  0.00     0.000 G0
ENDBRANCH  13  17
ENDBRANCH  11  13
ENDBRANCH  10  11
ENDBRANCH   1  10
TORSDOF 0
ENDMDL
MODEL 8
REMARK VINA RESULT:    -3.096      2.172      4.146
REMARK INTER + INTRA:          -4.257
REMARK INTER:                  -4.491
REMARK INTRA:                   0.234
REMARK UNBOUND:                 0.105
REMARK SMILES CC1=CCC(=C(C)C)C(=O)CC(C)=CCC1
REMARK SMILES IDX 12 1 14 2 13 3 15 4 16 5 2 6 1 7 3 8 11 10 9 11 10 12 5 13
REMARK SMILES IDX 6 14 7 15 8 16 4 17
REMARK H PARENT
REMARK Flexibility Score: 60.00
ROOT
ATOM      1  C   UNL     1      16.185  10.124  25.288  1.00  0.00    -0.070 C 
ATOM      2  C   UNL     1      16.678  10.981  24.367  1.00  0.00    -0.027 C 
ATOM      3  C   UNL     1      16.359   8.646  25.041  1.00  0.00     0.039 C 
ENDROOT
BRANCH   2   4
ATOM      4  C   UNL     1      16.689  12.490  24.479  1.00  0.00     0.032 C 
BRANCH   4   5
ATOM      5  C   UNL     1      15.308  13.160  24.328  1.00  0.00     0.034 C 
BRANCH   5   6
ATOM      6  C   UNL     1      14.985  14.123  25.458  1.00  0.00    -0.077 C 
ATOM      7  C   UNL     1      15.892  15.312  25.647  1.00  0.00     0.039 C 
ATOM      8  C   UNL     1      13.897  14.020  26.260  1.00  0.00    -0.023 CG0
ATOM      9  G   UNL     1      12.866  12.909  26.267  1.00  0.00     0.000 G0
ENDBRANCH   5   6
ENDBRANCH   4   5
ENDBRANCH   2   4
BRANCH   1  10
ATOM     10  C   UNL     1      15.555  10.575  26.590  1.00  0.00     0.111 C 
BRANCH  10  11
ATOM     11  C   UNL     1      14.053  10.648  26.484  1.00  0.00     0.163 C 
ATOM     12  O   UNL     1      13.457   9.728  25.861  1.00  0.00    -0.294 OA
BRANCH  11  13
ATOM     13  C   UNL     1      13.255  11.728  27.138  1.00  0.00    -0.002 C 
ATOM     14  C   UNL     1      12.975  11.678  28.475  1.00  0.00    -0.069 C 
ATOM     15  C   UNL     1      12.308  12.829  29.196  1.00  0.00     0.039 C 
ATOM     16  C   UNL     1      13.321  10.460  29.303  1.00  0.00     0.039 C 
BRANCH  13  17
ATOM     17  C   UNL     1      12.860  12.918  26.277  1.00  0.00     0.066 CG0
ATOM     18  G   UNL     1      13.912  14.009  26.285  1.00  0.00     0.000 G0
ENDBRANCH  13  17
ENDBRANCH  11  13
ENDBRANCH  10  11
ENDBRANCH   1  10
TORSDOF 0
ENDMDL
MODEL 9
REMARK VINA RESULT:    -2.944      8.630     10.203
REMARK INTER + INTRA:          -4.044
REMARK INTER:                  -4.185
REMARK INTRA:                   0.141
REMARK UNBOUND:                 0.105
REMARK SMILES CC1=CCC(=C(C)C)C(=O)CC(C)=CCC1
REMARK SMILES IDX 12 1 14 2 13 3 15 4 16 5 2 6 1 7 3 8 11 10 9 11 10 12 5 13
REMARK SMILES IDX 6 14 7 15 8 16 4 17
REMARK H PARENT
REMARK Flexibility Score: 60.00
ROOT
ATOM      1  C   UNL     1      15.648   4.404  17.805  1.00  0.00    -0.070 C 
ATOM      2  C   UNL     1      15.551   5.752  17.800  1.00  0.00    -0.027 C 
ATOM      3  C   UNL     1      17.025   3.796  17.888  1.00  0.00     0.039 C 
ENDROOT
BRANCH   2   4
ATOM      4  C   UNL     1      14.263   6.545  17.819  1.00  0.00     0.032 C 
BRANCH   4   5
ATOM      5  C   UNL     1      13.739   6.895  19.227  1.00  0.00     0.034 C 
BRANCH   5   6
ATOM      6  C   UNL     1      12.248   6.651  19.387  1.00  0.00    -0.077 C 
ATOM      7  C   UNL     1      11.304   7.654  18.773  1.00  0.00     0.039 C 
ATOM      8  C   UNL     1      11.713   5.558  19.984  1.00  0.00    -0.023 CG0
ATOM      9  G   UNL     1      12.460   4.439  20.682  1.00  0.00     0.000 G0
ENDBRANCH   5   6
ENDBRANCH   4   5
ENDBRANCH   2   4
BRANCH   1  10
ATOM     10  C   UNL     1      14.444   3.484  17.823  1.00  0.00     0.111 C 
BRANCH  10  11
ATOM     11  C   UNL     1      14.084   3.068  19.226  1.00  0.00     0.163 C 
ATOM     12  O   UNL     1      15.000   2.613  19.963  1.00  0.00    -0.294 OA
BRANCH  11  13
ATOM     13  C   UNL     1      12.708   3.232  19.782  1.00  0.00    -0.002 C 
ATOM     14  C   UNL     1      11.746   2.286  19.557  1.00  0.00    -0.069 C 
ATOM     15  C   UNL     1      10.394   2.343  20.235  1.00  0.00     0.039 C 
ATOM     16  C   UNL     1      11.989   1.129  18.614  1.00  0.00     0.039 C 
BRANCH  13  17
ATOM     17  C   UNL     1      12.459   4.434  20.679  1.00  0.00     0.066 CG0
ATOM     18  G   UNL     1      11.708   5.540  19.963  1.00  0.00     0.000 G0
ENDBRANCH  13  17
ENDBRANCH  11  13
ENDBRANCH  10  11
ENDBRANCH   1  10
TORSDOF 0
ENDMDL
