MODEL 1
REMARK VINA RESULT:     2.350      0.000      0.000
REMARK INTER + INTRA:           3.349
REMARK INTER:                   4.274
REMARK INTRA:                  -0.925
REMARK UNBOUND:                -0.925
REMARK SMILES CCCCCCCCCCCCCC[C@H](C)C(=O)[O-]
REMARK SMILES IDX 9 1 10 2 11 3 12 4 13 5 14 6 15 7 16 8 17 9 18 10 19 11 8 12
REMARK SMILES IDX 7 13 6 14 5 15 4 16 3 17 2 18 1 19
REMARK H PARENT
REMARK Flexibility Score: inf
ROOT
ATOM      1  C   UNL     1     104.340 105.628 102.646  1.00  0.00     0.000 C 
ENDROOT
BRANCH   1   2
ATOM      2  C   UNL     1     104.477 104.182 102.145  1.00  0.00     0.000 C 
BRANCH   2   3
ATOM      3  C   UNL     1     103.224 103.338 102.427  1.00  0.00     0.000 C 
BRANCH   3   4
ATOM      4  C   UNL     1     103.563 101.952 103.006  1.00  0.00     0.000 C 
BRANCH   4   5
ATOM      5  C   UNL     1     103.338 101.873 104.525  1.00  0.00     0.001 C 
BRANCH   5   6
ATOM      6  C   UNL     1     103.404 103.256 105.203  1.00  0.00     0.009 C 
BRANCH   6   7
ATOM      7  C   UNL     1     104.060 103.248 106.602  1.00  0.00     0.032 C 
ATOM      8  C   UNL     1     103.148 102.649 107.683  1.00  0.00     0.014 C 
BRANCH   7   9
ATOM      9  C   UNL     1     104.557 104.615 106.991  1.00  0.00     0.044 C 
ATOM     10  O   UNL     1     103.741 105.565 107.121  1.00  0.00    -0.550 OA
ATOM     11  O   UNL     1     105.904 104.832 107.260  1.00  0.00    -0.550 OA
ENDBRANCH   7   9
ENDBRANCH   6   7
ENDBRANCH   5   6
ENDBRANCH   4   5
ENDBRANCH   3   4
ENDBRANCH   2   3
ENDBRANCH   1   2
BRANCH   1  12
ATOM     12  C   UNL     1     104.467 106.625 101.485  1.00  0.00     0.000 C 
BRANCH  12  13
ATOM     13  C   UNL     1     104.713 105.938 100.130  1.00  0.00    -0.000 C 
BRANCH  13  14
ATOM     14  C   UNL     1     104.682 106.876  98.905  1.00  0.00    -0.000 C 
BRANCH  14  15
ATOM     15  C   UNL     1     104.200 106.226  97.596  1.00  0.00    -0.000 C 
BRANCH  15  16
ATOM     16  C   UNL     1     104.727 104.795  97.410  1.00  0.00    -0.000 C 
BRANCH  16  17
ATOM     17  C   UNL     1     103.583 103.832  97.060  1.00  0.00    -0.000 C 
BRANCH  17  18
ATOM     18  C   UNL     1     103.291 102.830  98.187  1.00  0.00    -0.003 C 
ATOM     19  C   UNL     1     103.689 101.398  97.824  1.00  0.00     0.004 C 
ENDBRANCH  17  18
ENDBRANCH  16  17
ENDBRANCH  15  16
ENDBRANCH  14  15
ENDBRANCH  13  14
ENDBRANCH  12  13
ENDBRANCH   1  12
TORSDOF 14
ENDMDL
MODEL 2
REMARK VINA RESULT:     2.378      3.116      4.847
REMARK INTER + INTRA:           3.399
REMARK INTER:                   4.171
REMARK INTRA:                  -0.772
REMARK UNBOUND:                -0.925
REMARK SMILES CCCCCCCCCCCCCC[C@H](C)C(=O)[O-]
REMARK SMILES IDX 9 1 10 2 11 3 12 4 13 5 14 6 15 7 16 8 17 9 18 10 19 11 8 12
REMARK SMILES IDX 7 13 6 14 5 15 4 16 3 17 2 18 1 19
REMARK H PARENT
REMARK Flexibility Score: inf
ROOT
ATOM      1  C   UNL     1     104.470 105.806 107.468  1.00  0.00     0.000 C 
ENDROOT
BRANCH   1   2
ATOM      2  C   UNL     1     104.647 104.333 107.068  1.00  0.00     0.000 C 
BRANCH   2   3
ATOM      3  C   UNL     1     103.340 103.532 107.171  1.00  0.00     0.000 C 
BRANCH   3   4
ATOM      4  C   UNL     1     103.559 102.113 107.725  1.00  0.00     0.000 C 
BRANCH   4   5
ATOM      5  C   UNL     1     103.305 102.022 109.239  1.00  0.00     0.001 C 
BRANCH   5   6
ATOM      6  C   UNL     1     103.446 103.387 109.943  1.00  0.00     0.009 C 
BRANCH   6   7
ATOM      7  C   UNL     1     104.111 103.318 111.336  1.00  0.00     0.032 C 
ATOM      8  C   UNL     1     103.188 102.716 112.406  1.00  0.00     0.014 C 
BRANCH   7   9
ATOM      9  C   UNL     1     104.652 104.657 111.761  1.00  0.00     0.044 C 
ATOM     10  O   UNL     1     105.886 104.796 111.972  1.00  0.00    -0.550 OA
ATOM     11  O   UNL     1     103.814 105.760 111.873  1.00  0.00    -0.550 OA
ENDBRANCH   7   9
ENDBRANCH   6   7
ENDBRANCH   5   6
ENDBRANCH   4   5
ENDBRANCH   3   4
ENDBRANCH   2   3
ENDBRANCH   1   2
BRANCH   1  12
ATOM     12  C   UNL     1     104.580 106.725 106.243  1.00  0.00     0.000 C 
BRANCH  12  13
ATOM     13  C   UNL     1     104.655 105.948 104.917  1.00  0.00    -0.000 C 
BRANCH  13  14
ATOM     14  C   UNL     1     104.681 106.823 103.646  1.00  0.00    -0.000 C 
BRANCH  14  15
ATOM     15  C   UNL     1     104.306 106.095 102.343  1.00  0.00    -0.000 C 
BRANCH  15  16
ATOM     16  C   UNL     1     104.562 104.582 102.409  1.00  0.00    -0.000 C 
BRANCH  16  17
ATOM     17  C   UNL     1     103.267 103.795 102.161  1.00  0.00    -0.000 C 
BRANCH  17  18
ATOM     18  C   UNL     1     103.160 102.541 103.041  1.00  0.00    -0.003 C 
ATOM     19  C   UNL     1     103.808 101.312 102.402  1.00  0.00     0.004 C 
ENDBRANCH  17  18
ENDBRANCH  16  17
ENDBRANCH  15  16
ENDBRANCH  14  15
ENDBRANCH  13  14
ENDBRANCH  12  13
ENDBRANCH   1  12
TORSDOF 14
ENDMDL
MODEL 3
REMARK VINA RESULT:     2.443      1.383      3.578
REMARK INTER + INTRA:           3.518
REMARK INTER:                   4.339
REMARK INTRA:                  -0.821
REMARK UNBOUND:                -0.925
REMARK SMILES CCCCCCCCCCCCCC[C@H](C)C(=O)[O-]
REMARK SMILES IDX 9 1 10 2 11 3 12 4 13 5 14 6 15 7 16 8 17 9 18 10 19 11 8 12
REMARK SMILES IDX 7 13 6 14 5 15 4 16 3 17 2 18 1 19
REMARK H PARENT
REMARK Flexibility Score: inf
ROOT
ATOM      1  C   UNL     1     103.553 102.158 102.689  1.00  0.00     0.000 C 
ENDROOT
BRANCH   1   2
ATOM      2  C   UNL     1     103.356 103.644 102.351  1.00  0.00     0.000 C 
BRANCH   2   3
ATOM      3  C   UNL     1     104.670 104.439 102.398  1.00  0.00     0.000 C 
BRANCH   3   4
ATOM      4  C   UNL     1     104.450 105.924 102.737  1.00  0.00     0.000 C 
BRANCH   4   5
ATOM      5  C   UNL     1     104.558 106.209 104.245  1.00  0.00     0.001 C 
BRANCH   5   6
ATOM      6  C   UNL     1     104.653 104.919 105.083  1.00  0.00     0.009 C 
BRANCH   6   7
ATOM      7  C   UNL     1     103.907 104.983 106.435  1.00  0.00     0.032 C 
ATOM      8  C   UNL     1     104.720 105.689 107.530  1.00  0.00     0.014 C 
BRANCH   7   9
ATOM      9  C   UNL     1     103.444 103.620 106.879  1.00  0.00     0.044 C 
ATOM     10  O   UNL     1     104.221 102.634 106.790  1.00  0.00    -0.550 OA
ATOM     11  O   UNL     1     102.183 103.445 107.438  1.00  0.00    -0.550 OA
ENDBRANCH   7   9
ENDBRANCH   6   7
ENDBRANCH   5   6
ENDBRANCH   4   5
ENDBRANCH   3   4
ENDBRANCH   2   3
ENDBRANCH   1   2
BRANCH   1  12
ATOM     12  C   UNL     1     103.623 101.309 101.411  1.00  0.00     0.000 C 
BRANCH  12  13
ATOM     13  C   UNL     1     103.306 102.116 100.138  1.00  0.00    -0.000 C 
BRANCH  13  14
ATOM     14  C   UNL     1     103.363 101.312  98.823  1.00  0.00    -0.000 C 
BRANCH  14  15
ATOM     15  C   UNL     1     103.672 102.141  97.563  1.00  0.00    -0.000 C 
BRANCH  15  16
ATOM     16  C   UNL     1     103.312 103.626  97.722  1.00  0.00    -0.000 C 
BRANCH  16  17
ATOM     17  C   UNL     1     104.494 104.522  97.324  1.00  0.00    -0.000 C 
BRANCH  17  18
ATOM     18  C   UNL     1     104.664 105.725  98.263  1.00  0.00    -0.003 C 
ATOM     19  C   UNL     1     104.228 107.043  97.621  1.00  0.00     0.004 C 
ENDBRANCH  17  18
ENDBRANCH  16  17
ENDBRANCH  15  16
ENDBRANCH  14  15
ENDBRANCH  13  14
ENDBRANCH  12  13
ENDBRANCH   1  12
TORSDOF 14
ENDMDL
MODEL 4
REMARK VINA RESULT:     2.519      2.943      8.601
REMARK INTER + INTRA:           3.656
REMARK INTER:                   4.730
REMARK INTRA:                  -1.074
REMARK UNBOUND:                -0.925
REMARK SMILES CCCCCCCCCCCCCC[C@H](C)C(=O)[O-]
REMARK SMILES IDX 9 1 10 2 11 3 12 4 13 5 14 6 15 7 16 8 17 9 18 10 19 11 8 12
REMARK SMILES IDX 7 13 6 14 5 15 4 16 3 17 2 18 1 19
REMARK H PARENT
REMARK Flexibility Score: inf
ROOT
ATOM      1  C   UNL     1     103.621 103.566 107.482  1.00  0.00     0.000 C 
ENDROOT
BRANCH   1   2
ATOM      2  C   UNL     1     103.552 102.462 106.415  1.00  0.00     0.000 C 
BRANCH   2   3
ATOM      3  C   UNL     1     103.216 103.011 105.020  1.00  0.00     0.000 C 
BRANCH   3   4
ATOM      4  C   UNL     1     103.455 101.977 103.905  1.00  0.00     0.000 C 
BRANCH   4   5
ATOM      5  C   UNL     1     103.601 102.624 102.518  1.00  0.00     0.001 C 
BRANCH   5   6
ATOM      6  C   UNL     1     103.316 104.139 102.542  1.00  0.00     0.009 C 
BRANCH   6   7
ATOM      7  C   UNL     1     104.491 105.016 102.053  1.00  0.00     0.032 C 
ATOM      8  C   UNL     1     105.860 104.366 102.300  1.00  0.00     0.014 C 
BRANCH   7   9
ATOM      9  C   UNL     1     104.425 106.406 102.629  1.00  0.00     0.044 C 
ATOM     10  O   UNL     1     104.276 107.395 101.864  1.00  0.00    -0.550 OA
ATOM     11  O   UNL     1     104.475 106.610 104.003  1.00  0.00    -0.550 OA
ENDBRANCH   7   9
ENDBRANCH   6   7
ENDBRANCH   5   6
ENDBRANCH   4   5
ENDBRANCH   3   4
ENDBRANCH   2   3
ENDBRANCH   1   2
BRANCH   1  12
ATOM     12  C   UNL     1     104.263 104.840 106.915  1.00  0.00     0.000 C 
BRANCH  12  13
ATOM     13  C   UNL     1     104.623 105.865 108.005  1.00  0.00    -0.000 C 
BRANCH  13  14
ATOM     14  C   UNL     1     104.719 105.294 109.435  1.00  0.00    -0.000 C 
BRANCH  14  15
ATOM     15  C   UNL     1     104.607 106.334 110.564  1.00  0.00    -0.000 C 
BRANCH  15  16
ATOM     16  C   UNL     1     104.236 105.709 111.917  1.00  0.00    -0.000 C 
BRANCH  16  17
ATOM     17  C   UNL     1     104.558 104.208 111.934  1.00  0.00    -0.000 C 
BRANCH  17  18
ATOM     18  C   UNL     1     103.297 103.334 112.003  1.00  0.00    -0.003 C 
ATOM     19  C   UNL     1     103.613 101.838 112.002  1.00  0.00     0.004 C 
ENDBRANCH  17  18
ENDBRANCH  16  17
ENDBRANCH  15  16
ENDBRANCH  14  15
ENDBRANCH  13  14
ENDBRANCH  12  13
ENDBRANCH   1  12
TORSDOF 14
ENDMDL
MODEL 5
REMARK VINA RESULT:     2.532      3.148      7.537
REMARK INTER + INTRA:           3.680
REMARK INTER:                   4.675
REMARK INTRA:                  -0.994
REMARK UNBOUND:                -0.925
REMARK SMILES CCCCCCCCCCCCCC[C@H](C)C(=O)[O-]
REMARK SMILES IDX 9 1 10 2 11 3 12 4 13 5 14 6 15 7 16 8 17 9 18 10 19 11 8 12
REMARK SMILES IDX 7 13 6 14 5 15 4 16 3 17 2 18 1 19
REMARK H PARENT
REMARK Flexibility Score: inf
ROOT
ATOM      1  C   UNL     1     103.685 103.633 102.704  1.00  0.00     0.000 C 
ENDROOT
BRANCH   1   2
ATOM      2  C   UNL     1     103.693 102.528 101.636  1.00  0.00     0.000 C 
BRANCH   2   3
ATOM      3  C   UNL     1     103.367 103.061 100.232  1.00  0.00     0.000 C 
BRANCH   3   4
ATOM      4  C   UNL     1     103.374 101.954  99.163  1.00  0.00     0.000 C 
BRANCH   4   5
ATOM      5  C   UNL     1     103.889 102.448  97.801  1.00  0.00     0.001 C 
BRANCH   5   6
ATOM      6  C   UNL     1     103.415 103.879  97.477  1.00  0.00     0.009 C 
BRANCH   6   7
ATOM      7  C   UNL     1     104.560 104.893  97.255  1.00  0.00     0.032 C 
ATOM      8  C   UNL     1     105.939 104.322  97.616  1.00  0.00     0.014 C 
BRANCH   7   9
ATOM      9  C   UNL     1     104.295 106.194  97.966  1.00  0.00     0.044 C 
ATOM     10  O   UNL     1     104.583 106.312  99.186  1.00  0.00    -0.550 OA
ATOM     11  O   UNL     1     103.784 107.289  97.278  1.00  0.00    -0.550 OA
ENDBRANCH   7   9
ENDBRANCH   6   7
ENDBRANCH   5   6
ENDBRANCH   4   5
ENDBRANCH   3   4
ENDBRANCH   2   3
ENDBRANCH   1   2
BRANCH   1  12
ATOM     12  C   UNL     1     104.240 104.948 102.136  1.00  0.00     0.000 C 
BRANCH  12  13
ATOM     13  C   UNL     1     104.515 106.001 103.225  1.00  0.00    -0.000 C 
BRANCH  13  14
ATOM     14  C   UNL     1     104.693 105.437 104.651  1.00  0.00    -0.000 C 
BRANCH  14  15
ATOM     15  C   UNL     1     104.501 106.457 105.787  1.00  0.00    -0.000 C 
BRANCH  15  16
ATOM     16  C   UNL     1     104.293 105.794 107.156  1.00  0.00    -0.000 C 
BRANCH  16  17
ATOM     17  C   UNL     1     104.627 104.296 107.096  1.00  0.00    -0.000 C 
BRANCH  17  18
ATOM     18  C   UNL     1     103.374 103.409 107.158  1.00  0.00    -0.003 C 
ATOM     19  C   UNL     1     103.707 101.927 107.335  1.00  0.00     0.004 C 
ENDBRANCH  17  18
ENDBRANCH  16  17
ENDBRANCH  15  16
ENDBRANCH  14  15
ENDBRANCH  13  14
ENDBRANCH  12  13
ENDBRANCH   1  12
TORSDOF 14
ENDMDL
MODEL 6
REMARK VINA RESULT:     2.543      3.307      8.037
REMARK INTER + INTRA:           3.699
REMARK INTER:                   4.799
REMARK INTRA:                  -1.100
REMARK UNBOUND:                -0.925
REMARK SMILES CCCCCCCCCCCCCC[C@H](C)C(=O)[O-]
REMARK SMILES IDX 9 1 10 2 11 3 12 4 13 5 14 6 15 7 16 8 17 9 18 10 19 11 8 12
REMARK SMILES IDX 7 13 6 14 5 15 4 16 3 17 2 18 1 19
REMARK H PARENT
REMARK Flexibility Score: inf
ROOT
ATOM      1  C   UNL     1     104.350 104.815 102.735  1.00  0.00     0.000 C 
ENDROOT
BRANCH   1   2
ATOM      2  C   UNL     1     104.526 105.871 101.633  1.00  0.00     0.000 C 
BRANCH   2   3
ATOM      3  C   UNL     1     104.654 105.249 100.234  1.00  0.00     0.000 C 
BRANCH   3   4
ATOM      4  C   UNL     1     104.619 106.303  99.113  1.00  0.00     0.000 C 
BRANCH   4   5
ATOM      5  C   UNL     1     104.148 105.723  97.769  1.00  0.00     0.001 C 
BRANCH   5   6
ATOM      6  C   UNL     1     104.589 104.259  97.573  1.00  0.00     0.009 C 
BRANCH   6   7
ATOM      7  C   UNL     1     103.427 103.276  97.303  1.00  0.00     0.032 C 
ATOM      8  C   UNL     1     102.059 103.849  97.699  1.00  0.00     0.014 C 
BRANCH   7   9
ATOM      9  C   UNL     1     103.674 101.935  97.942  1.00  0.00     0.044 C 
ATOM     10  O   UNL     1     104.222 101.016  97.279  1.00  0.00    -0.550 OA
ATOM     11  O   UNL     1     103.350 101.713  99.276  1.00  0.00    -0.550 OA
ENDBRANCH   7   9
ENDBRANCH   6   7
ENDBRANCH   5   6
ENDBRANCH   4   5
ENDBRANCH   3   4
ENDBRANCH   2   3
ENDBRANCH   1   2
BRANCH   1  12
ATOM     12  C   UNL     1     103.739 103.526 102.168  1.00  0.00     0.000 C 
BRANCH  12  13
ATOM     13  C   UNL     1     103.455 102.470 103.252  1.00  0.00    -0.000 C 
BRANCH  13  14
ATOM     14  C   UNL     1     103.317 103.025 104.685  1.00  0.00    -0.000 C 
BRANCH  14  15
ATOM     15  C   UNL     1     103.262 101.961 105.796  1.00  0.00    -0.000 C 
BRANCH  15  16
ATOM     16  C   UNL     1     103.810 102.469 107.137  1.00  0.00    -0.000 C 
BRANCH  16  17
ATOM     17  C   UNL     1     103.442 103.943 107.357  1.00  0.00    -0.000 C 
BRANCH  17  18
ATOM     18  C   UNL     1     104.675 104.857 107.423  1.00  0.00    -0.003 C 
ATOM     19  C   UNL     1     104.348 106.316 107.103  1.00  0.00     0.004 C 
ENDBRANCH  17  18
ENDBRANCH  16  17
ENDBRANCH  15  16
ENDBRANCH  14  15
ENDBRANCH  13  14
ENDBRANCH  12  13
ENDBRANCH   1  12
TORSDOF 14
ENDMDL
MODEL 7
REMARK VINA RESULT:     2.553      3.177      9.014
REMARK INTER + INTRA:           3.717
REMARK INTER:                   4.747
REMARK INTRA:                  -1.029
REMARK UNBOUND:                -0.925
REMARK SMILES CCCCCCCCCCCCCC[C@H](C)C(=O)[O-]
REMARK SMILES IDX 9 1 10 2 11 3 12 4 13 5 14 6 15 7 16 8 17 9 18 10 19 11 8 12
REMARK SMILES IDX 7 13 6 14 5 15 4 16 3 17 2 18 1 19
REMARK H PARENT
REMARK Flexibility Score: inf
ROOT
ATOM      1  C   UNL     1     104.191 105.019 107.488  1.00  0.00     0.000 C 
ENDROOT
BRANCH   1   2
ATOM      2  C   UNL     1     104.628 105.974 106.367  1.00  0.00     0.000 C 
BRANCH   2   3
ATOM      3  C   UNL     1     104.595 105.311 104.981  1.00  0.00     0.000 C 
BRANCH   3   4
ATOM      4  C   UNL     1     104.637 106.336 103.834  1.00  0.00     0.000 C 
BRANCH   4   5
ATOM      5  C   UNL     1     104.211 105.734 102.484  1.00  0.00     0.001 C 
BRANCH   5   6
ATOM      6  C   UNL     1     104.602 104.249 102.352  1.00  0.00     0.009 C 
BRANCH   6   7
ATOM      7  C   UNL     1     103.419 103.306 102.035  1.00  0.00     0.032 C 
ATOM      8  C   UNL     1     102.060 103.905 102.424  1.00  0.00     0.014 C 
BRANCH   7   9
ATOM      9  C   UNL     1     103.618 101.941 102.641  1.00  0.00     0.044 C 
ATOM     10  O   UNL     1     104.001 100.984 101.918  1.00  0.00    -0.550 OA
ATOM     11  O   UNL     1     103.433 101.734 104.003  1.00  0.00    -0.550 OA
ENDBRANCH   7   9
ENDBRANCH   6   7
ENDBRANCH   5   6
ENDBRANCH   4   5
ENDBRANCH   3   4
ENDBRANCH   2   3
ENDBRANCH   1   2
BRANCH   1  12
ATOM     12  C   UNL     1     103.642 103.707 106.910  1.00  0.00     0.000 C 
BRANCH  12  13
ATOM     13  C   UNL     1     103.563 102.579 107.954  1.00  0.00    -0.000 C 
BRANCH  13  14
ATOM     14  C   UNL     1     103.269 103.042 109.397  1.00  0.00    -0.000 C 
BRANCH  14  15
ATOM     15  C   UNL     1     103.293 101.928 110.459  1.00  0.00    -0.000 C 
BRANCH  15  16
ATOM     16  C   UNL     1     103.670 102.444 111.856  1.00  0.00    -0.000 C 
BRANCH  16  17
ATOM     17  C   UNL     1     103.375 103.946 111.984  1.00  0.00    -0.000 C 
BRANCH  17  18
ATOM     18  C   UNL     1     104.649 104.802 111.944  1.00  0.00    -0.003 C 
ATOM     19  C   UNL     1     104.355 106.303 111.986  1.00  0.00     0.004 C 
ENDBRANCH  17  18
ENDBRANCH  16  17
ENDBRANCH  15  16
ENDBRANCH  14  15
ENDBRANCH  13  14
ENDBRANCH  12  13
ENDBRANCH   1  12
TORSDOF 14
ENDMDL
MODEL 8
REMARK VINA RESULT:     2.681      0.985      2.103
REMARK INTER + INTRA:           3.951
REMARK INTER:                   4.819
REMARK INTRA:                  -0.869
REMARK UNBOUND:                -0.925
REMARK SMILES CCCCCCCCCCCCCC[C@H](C)C(=O)[O-]
REMARK SMILES IDX 9 1 10 2 11 3 12 4 13 5 14 6 15 7 16 8 17 9 18 10 19 11 8 12
REMARK SMILES IDX 7 13 6 14 5 15 4 16 3 17 2 18 1 19
REMARK H PARENT
REMARK Flexibility Score: inf
ROOT
ATOM      1  C   UNL     1     103.377 103.815 102.475  1.00  0.00     0.000 C 
ENDROOT
BRANCH   1   2
ATOM      2  C   UNL     1     103.705 102.325 102.655  1.00  0.00     0.000 C 
BRANCH   2   3
ATOM      3  C   UNL     1     103.370 101.813 104.065  1.00  0.00     0.000 C 
BRANCH   3   4
ATOM      4  C   UNL     1     103.263 102.950 105.097  1.00  0.00     0.000 C 
BRANCH   4   5
ATOM      5  C   UNL     1     103.431 102.455 106.543  1.00  0.00     0.001 C 
BRANCH   5   6
ATOM      6  C   UNL     1     103.841 103.585 107.508  1.00  0.00     0.009 C 
BRANCH   6   7
ATOM      7  C   UNL     1     104.658 104.719 106.849  1.00  0.00     0.032 C 
ATOM      8  C   UNL     1     106.163 104.417 106.800  1.00  0.00     0.014 C 
BRANCH   7   9
ATOM      9  C   UNL     1     104.381 106.051 107.494  1.00  0.00     0.044 C 
ATOM     10  O   UNL     1     104.502 106.182 108.741  1.00  0.00    -0.550 OA
ATOM     11  O   UNL     1     104.043 107.158 106.724  1.00  0.00    -0.550 OA
ENDBRANCH   7   9
ENDBRANCH   6   7
ENDBRANCH   5   6
ENDBRANCH   4   5
ENDBRANCH   3   4
ENDBRANCH   2   3
ENDBRANCH   1   2
BRANCH   1  12
ATOM     12  C   UNL     1     104.651 104.670 102.545  1.00  0.00     0.000 C 
BRANCH  12  13
ATOM     13  C   UNL     1     104.388 106.160 102.260  1.00  0.00    -0.000 C 
BRANCH  13  14
ATOM     14  C   UNL     1     104.511 106.574 100.778  1.00  0.00    -0.000 C 
BRANCH  14  15
ATOM     15  C   UNL     1     104.659 105.408  99.784  1.00  0.00    -0.000 C 
BRANCH  15  16
ATOM     16  C   UNL     1     104.705 105.874  98.321  1.00  0.00    -0.000 C 
BRANCH  16  17
ATOM     17  C   UNL     1     104.459 104.700  97.363  1.00  0.00    -0.000 C 
BRANCH  17  18
ATOM     18  C   UNL     1     103.353 103.756  97.858  1.00  0.00    -0.003 C 
ATOM     19  C   UNL     1     103.753 102.282  97.779  1.00  0.00     0.004 C 
ENDBRANCH  17  18
ENDBRANCH  16  17
ENDBRANCH  15  16
ENDBRANCH  14  15
ENDBRANCH  13  14
ENDBRANCH  12  13
ENDBRANCH   1  12
TORSDOF 14
ENDMDL
MODEL 9
REMARK VINA RESULT:     2.704      1.786      3.466
REMARK INTER + INTRA:           3.993
REMARK INTER:                   4.949
REMARK INTRA:                  -0.956
REMARK UNBOUND:                -0.925
REMARK SMILES CCCCCCCCCCCCCC[C@H](C)C(=O)[O-]
REMARK SMILES IDX 9 1 10 2 11 3 12 4 13 5 14 6 15 7 16 8 17 9 18 10 19 11 8 12
REMARK SMILES IDX 7 13 6 14 5 15 4 16 3 17 2 18 1 19
REMARK H PARENT
REMARK Flexibility Score: inf
ROOT
ATOM      1  C   UNL     1     104.281 104.850 102.034  1.00  0.00     0.000 C 
ENDROOT
BRANCH   1   2
ATOM      2  C   UNL     1     104.688 105.872 103.107  1.00  0.00     0.000 C 
BRANCH   2   3
ATOM      3  C   UNL     1     104.653 105.283 104.526  1.00  0.00     0.000 C 
BRANCH   3   4
ATOM      4  C   UNL     1     104.535 106.368 105.612  1.00  0.00     0.000 C 
BRANCH   4   5
ATOM      5  C   UNL     1     104.183 105.788 106.992  1.00  0.00     0.001 C 
BRANCH   5   6
ATOM      6  C   UNL     1     104.564 104.300 107.121  1.00  0.00     0.009 C 
BRANCH   6   7
ATOM      7  C   UNL     1     103.414 103.319 106.803  1.00  0.00     0.032 C 
ATOM      8  C   UNL     1     102.029 103.907 107.109  1.00  0.00     0.014 C 
BRANCH   7   9
ATOM      9  C   UNL     1     103.614 101.989 107.481  1.00  0.00     0.044 C 
ATOM     10  O   UNL     1     104.106 101.025 106.837  1.00  0.00    -0.550 OA
ATOM     11  O   UNL     1     103.309 101.823 108.827  1.00  0.00    -0.550 OA
ENDBRANCH   7   9
ENDBRANCH   6   7
ENDBRANCH   5   6
ENDBRANCH   4   5
ENDBRANCH   3   4
ENDBRANCH   2   3
ENDBRANCH   1   2
BRANCH   1  12
ATOM     12  C   UNL     1     103.621 103.619 102.671  1.00  0.00     0.000 C 
BRANCH  12  13
ATOM     13  C   UNL     1     103.482 102.440 101.691  1.00  0.00    -0.000 C 
BRANCH  13  14
ATOM     14  C   UNL     1     103.153 102.834 100.236  1.00  0.00    -0.000 C 
BRANCH  14  15
ATOM     15  C   UNL     1     103.642 101.844  99.164  1.00  0.00    -0.000 C 
BRANCH  15  16
ATOM     16  C   UNL     1     103.556 102.414  97.740  1.00  0.00    -0.000 C 
BRANCH  16  17
ATOM     17  C   UNL     1     103.276 103.924  97.771  1.00  0.00    -0.000 C 
BRANCH  17  18
ATOM     18  C   UNL     1     104.511 104.761  97.409  1.00  0.00    -0.003 C 
ATOM     19  C   UNL     1     104.427 106.197  97.930  1.00  0.00     0.004 C 
ENDBRANCH  17  18
ENDBRANCH  16  17
ENDBRANCH  15  16
ENDBRANCH  14  15
ENDBRANCH  13  14
ENDBRANCH  12  13
ENDBRANCH   1  12
TORSDOF 14
ENDMDL
