MODEL 1
REMARK VINA RESULT:    -6.667      0.000      0.000
REMARK INTER + INTRA:          -7.252
REMARK INTER:                  -7.252
REMARK INTRA:                   0.000
REMARK UNBOUND:                 0.000
REMARK SMILES Cc1cc(O)c2c(c1)C(=O)c1cc(O)cc(O)c1C2=O
REMARK SMILES IDX 1 1 2 2 8 3 7 4 6 5 4 6 3 7 19 8 20 9 18 10 11 11 9 12 10 13
REMARK SMILES IDX 12 14 13 15 15 16 16 17 5 18 17 20 14 22
REMARK H PARENT 5 19 17 21 14 23
REMARK Flexibility Score: inf
ROOT
ATOM      1  C   UNL     1     -33.753   4.874  79.504  1.00  0.00     0.044 C 
ATOM      2  C   UNL     1     -34.817   4.614  80.529  1.00  0.00    -0.047 A 
ATOM      3  C   UNL     1     -36.169   4.740  80.188  1.00  0.00     0.016 A 
ATOM      4  C   UNL     1     -37.174   4.472  81.131  1.00  0.00     0.038 A 
ATOM      5  C   UNL     1     -36.821   4.069  82.439  1.00  0.00     0.076 A 
ATOM      6  C   UNL     1     -35.453   3.863  82.753  1.00  0.00     0.127 A 
ATOM      7  C   UNL     1     -34.470   4.156  81.804  1.00  0.00     0.050 A 
ATOM      8  C   UNL     1     -37.902   3.939  83.450  1.00  0.00     0.201 C 
ATOM      9  O   UNL     1     -37.652   4.154  84.666  1.00  0.00    -0.288 OA
ATOM     10  C   UNL     1     -39.307   3.742  83.007  1.00  0.00     0.076 A 
ATOM     11  C   UNL     1     -39.656   4.142  81.696  1.00  0.00     0.041 A 
ATOM     12  C   UNL     1     -38.603   4.600  80.759  1.00  0.00     0.194 C 
ATOM     13  O   UNL     1     -38.923   5.076  79.635  1.00  0.00    -0.289 OA
ATOM     14  C   UNL     1     -40.999   4.100  81.287  1.00  0.00     0.059 A 
ATOM     15  C   UNL     1     -41.993   3.649  82.161  1.00  0.00     0.120 A 
ATOM     16  C   UNL     1     -41.647   3.216  83.440  1.00  0.00     0.093 A 
ATOM     17  C   UNL     1     -40.315   3.229  83.865  1.00  0.00     0.131 A 
ENDROOT
BRANCH   6  18
ATOM     18  O   UNL     1     -35.031   3.336  83.977  1.00  0.00    -0.507 OA
ATOM     19  H   UNL     1     -35.567   2.667  84.511  1.00  0.00     0.293 HD
ENDBRANCH   6  18
BRANCH  17  20
ATOM     20  O   UNL     1     -40.035   2.694  85.125  1.00  0.00    -0.507 OA
ATOM     21  H   UNL     1     -39.890   1.708  85.293  1.00  0.00     0.293 HD
ENDBRANCH  17  20
BRANCH  15  22
ATOM     22  O   UNL     1     -43.328   3.617  81.763  1.00  0.00    -0.508 OA
ATOM     23  H   UNL     1     -44.041   4.141  82.257  1.00  0.00     0.293 HD
ENDBRANCH  15  22
TORSDOF 3
ENDMDL
MODEL 2
REMARK VINA RESULT:    -6.597      2.343      5.200
REMARK INTER + INTRA:          -7.175
REMARK INTER:                  -7.175
REMARK INTRA:                   0.000
REMARK UNBOUND:                 0.000
REMARK SMILES Cc1cc(O)c2c(c1)C(=O)c1cc(O)cc(O)c1C2=O
REMARK SMILES IDX 1 1 2 2 8 3 7 4 6 5 4 6 3 7 19 8 20 9 18 10 11 11 9 12 10 13
REMARK SMILES IDX 12 14 13 15 15 16 16 17 5 18 17 20 14 22
REMARK H PARENT 5 19 17 21 14 23
REMARK Flexibility Score: inf
ROOT
ATOM      1  C   UNL     1     -38.996   7.436  76.203  1.00  0.00     0.044 C 
ATOM      2  C   UNL     1     -38.914   6.596  77.443  1.00  0.00    -0.047 A 
ATOM      3  C   UNL     1     -37.669   6.223  77.960  1.00  0.00     0.016 A 
ATOM      4  C   UNL     1     -37.580   5.461  79.137  1.00  0.00     0.038 A 
ATOM      5  C   UNL     1     -38.759   5.067  79.809  1.00  0.00     0.076 A 
ATOM      6  C   UNL     1     -40.014   5.520  79.327  1.00  0.00     0.127 A 
ATOM      7  C   UNL     1     -40.078   6.259  78.142  1.00  0.00     0.050 A 
ATOM      8  C   UNL     1     -38.633   4.140  80.963  1.00  0.00     0.201 C 
ATOM      9  O   UNL     1     -39.565   3.334  81.224  1.00  0.00    -0.288 OA
ATOM     10  C   UNL     1     -37.339   4.035  81.688  1.00  0.00     0.076 A 
ATOM     11  C   UNL     1     -36.162   4.434  81.013  1.00  0.00     0.041 A 
ATOM     12  C   UNL     1     -36.256   5.077  79.681  1.00  0.00     0.194 C 
ATOM     13  O   UNL     1     -35.208   5.318  79.023  1.00  0.00    -0.289 OA
ATOM     14  C   UNL     1     -34.909   4.222  81.612  1.00  0.00     0.059 A 
ATOM     15  C   UNL     1     -34.817   3.635  82.877  1.00  0.00     0.120 A 
ATOM     16  C   UNL     1     -35.977   3.278  83.561  1.00  0.00     0.093 A 
ATOM     17  C   UNL     1     -37.238   3.496  82.997  1.00  0.00     0.131 A 
ENDROOT
BRANCH   6  18
ATOM     18  O   UNL     1     -41.212   5.289  80.008  1.00  0.00    -0.507 OA
ATOM     19  H   UNL     1     -42.124   5.407  79.590  1.00  0.00     0.293 HD
ENDBRANCH   6  18
BRANCH  17  20
ATOM     20  O   UNL     1     -38.355   3.197  83.780  1.00  0.00    -0.507 OA
ATOM     21  H   UNL     1     -39.297   3.471  83.536  1.00  0.00     0.293 HD
ENDBRANCH  17  20
BRANCH  15  22
ATOM     22  O   UNL     1     -33.575   3.413  83.468  1.00  0.00    -0.508 OA
ATOM     23  H   UNL     1     -33.410   3.617  84.447  1.00  0.00     0.293 HD
ENDBRANCH  15  22
TORSDOF 3
ENDMDL
MODEL 3
REMARK VINA RESULT:    -6.438      2.097      3.281
REMARK INTER + INTRA:          -7.002
REMARK INTER:                  -7.002
REMARK INTRA:                   0.000
REMARK UNBOUND:                 0.000
REMARK SMILES Cc1cc(O)c2c(c1)C(=O)c1cc(O)cc(O)c1C2=O
REMARK SMILES IDX 1 1 2 2 8 3 7 4 6 5 4 6 3 7 19 8 20 9 18 10 11 11 9 12 10 13
REMARK SMILES IDX 12 14 13 15 15 16 16 17 5 18 17 20 14 22
REMARK H PARENT 5 19 17 21 14 23
REMARK Flexibility Score: inf
ROOT
ATOM      1  C   UNL     1     -34.520   3.863  82.844  1.00  0.00     0.044 C 
ATOM      2  C   UNL     1     -36.002   3.913  82.621  1.00  0.00    -0.047 A 
ATOM      3  C   UNL     1     -36.528   3.723  81.338  1.00  0.00     0.016 A 
ATOM      4  C   UNL     1     -37.916   3.740  81.122  1.00  0.00     0.038 A 
ATOM      5  C   UNL     1     -38.793   3.947  82.210  1.00  0.00     0.076 A 
ATOM      6  C   UNL     1     -38.258   4.054  83.520  1.00  0.00     0.127 A 
ATOM      7  C   UNL     1     -36.873   4.056  83.706  1.00  0.00     0.050 A 
ATOM      8  C   UNL     1     -40.243   4.106  81.923  1.00  0.00     0.201 C 
ATOM      9  O   UNL     1     -40.955   4.824  82.675  1.00  0.00    -0.288 OA
ATOM     10  C   UNL     1     -40.806   3.577  80.654  1.00  0.00     0.076 A 
ATOM     11  C   UNL     1     -39.925   3.367  79.569  1.00  0.00     0.041 A 
ATOM     12  C   UNL     1     -38.464   3.531  79.761  1.00  0.00     0.194 C 
ATOM     13  O   UNL     1     -37.687   3.468  78.770  1.00  0.00    -0.289 OA
ATOM     14  C   UNL     1     -40.437   2.999  78.313  1.00  0.00     0.059 A 
ATOM     15  C   UNL     1     -41.812   2.822  78.133  1.00  0.00     0.120 A 
ATOM     16  C   UNL     1     -42.680   2.990  79.211  1.00  0.00     0.093 A 
ATOM     17  C   UNL     1     -42.194   3.336  80.475  1.00  0.00     0.131 A 
ENDROOT
BRANCH   6  18
ATOM     18  O   UNL     1     -39.062   4.124  84.660  1.00  0.00    -0.507 OA
ATOM     19  H   UNL     1     -39.301   3.320  85.225  1.00  0.00     0.293 HD
ENDBRANCH   6  18
BRANCH  17  20
ATOM     20  O   UNL     1     -43.113   3.396  81.526  1.00  0.00    -0.507 OA
ATOM     21  H   UNL     1     -42.858   3.621  82.478  1.00  0.00     0.293 HD
ENDBRANCH  17  20
BRANCH  15  22
ATOM     22  O   UNL     1     -42.326   2.470  76.887  1.00  0.00    -0.508 OA
ATOM     23  H   UNL     1     -41.810   2.646  76.032  1.00  0.00     0.293 HD
ENDBRANCH  15  22
TORSDOF 3
ENDMDL
MODEL 4
REMARK VINA RESULT:    -6.425      2.117      5.576
REMARK INTER + INTRA:          -6.989
REMARK INTER:                  -6.989
REMARK INTRA:                   0.000
REMARK UNBOUND:                 0.000
REMARK SMILES Cc1cc(O)c2c(c1)C(=O)c1cc(O)cc(O)c1C2=O
REMARK SMILES IDX 1 1 2 2 8 3 7 4 6 5 4 6 3 7 19 8 20 9 18 10 11 11 9 12 10 13
REMARK SMILES IDX 12 14 13 15 15 16 16 17 5 18 17 20 14 22
REMARK H PARENT 5 19 17 21 14 23
REMARK Flexibility Score: inf
ROOT
ATOM      1  C   UNL     1     -42.741   2.211  77.241  1.00  0.00     0.044 C 
ATOM      2  C   UNL     1     -42.022   2.595  78.500  1.00  0.00    -0.047 A 
ATOM      3  C   UNL     1     -40.629   2.728  78.502  1.00  0.00     0.016 A 
ATOM      4  C   UNL     1     -39.948   3.116  79.669  1.00  0.00     0.038 A 
ATOM      5  C   UNL     1     -40.674   3.375  80.852  1.00  0.00     0.076 A 
ATOM      6  C   UNL     1     -42.091   3.321  80.821  1.00  0.00     0.127 A 
ATOM      7  C   UNL     1     -42.745   2.913  79.654  1.00  0.00     0.050 A 
ATOM      8  C   UNL     1     -39.912   3.637  82.101  1.00  0.00     0.201 C 
ATOM      9  O   UNL     1     -40.404   3.314  83.215  1.00  0.00    -0.288 OA
ATOM     10  C   UNL     1     -38.502   4.102  82.021  1.00  0.00     0.076 A 
ATOM     11  C   UNL     1     -37.780   3.843  80.834  1.00  0.00     0.041 A 
ATOM     12  C   UNL     1     -38.473   3.261  79.660  1.00  0.00     0.194 C 
ATOM     13  O   UNL     1     -37.810   2.913  78.645  1.00  0.00    -0.289 OA
ATOM     14  C   UNL     1     -36.409   4.144  80.770  1.00  0.00     0.059 A 
ATOM     15  C   UNL     1     -35.756   4.712  81.868  1.00  0.00     0.120 A 
ATOM     16  C   UNL     1     -36.474   5.005  83.026  1.00  0.00     0.093 A 
ATOM     17  C   UNL     1     -37.843   4.735  83.108  1.00  0.00     0.131 A 
ENDROOT
BRANCH   6  18
ATOM     18  O   UNL     1     -42.885   3.696  81.908  1.00  0.00    -0.507 OA
ATOM     19  H   UNL     1     -43.896   3.709  81.883  1.00  0.00     0.293 HD
ENDBRANCH   6  18
BRANCH  17  20
ATOM     20  O   UNL     1     -38.513   5.141  84.265  1.00  0.00    -0.507 OA
ATOM     21  H   UNL     1     -38.670   6.109  84.509  1.00  0.00     0.293 HD
ENDBRANCH  17  20
BRANCH  15  22
ATOM     22  O   UNL     1     -34.394   5.000  81.813  1.00  0.00    -0.508 OA
ATOM     23  H   UNL     1     -33.717   4.461  82.340  1.00  0.00     0.293 HD
ENDBRANCH  15  22
TORSDOF 3
ENDMDL
MODEL 5
REMARK VINA RESULT:    -6.416      3.356      4.180
REMARK INTER + INTRA:          -6.978
REMARK INTER:                  -6.978
REMARK INTRA:                   0.000
REMARK UNBOUND:                 0.000
REMARK SMILES Cc1cc(O)c2c(c1)C(=O)c1cc(O)cc(O)c1C2=O
REMARK SMILES IDX 1 1 2 2 8 3 7 4 6 5 4 6 3 7 19 8 20 9 18 10 11 11 9 12 10 13
REMARK SMILES IDX 12 14 13 15 15 16 16 17 5 18 17 20 14 22
REMARK H PARENT 5 19 17 21 14 23
REMARK Flexibility Score: inf
ROOT
ATOM      1  C   UNL     1     -34.423   9.310  77.174  1.00  0.00     0.044 C 
ATOM      2  C   UNL     1     -35.115   8.113  77.757  1.00  0.00    -0.047 A 
ATOM      3  C   UNL     1     -36.512   8.033  77.747  1.00  0.00     0.016 A 
ATOM      4  C   UNL     1     -37.169   6.904  78.264  1.00  0.00     0.038 A 
ATOM      5  C   UNL     1     -36.414   5.836  78.799  1.00  0.00     0.076 A 
ATOM      6  C   UNL     1     -34.998   5.886  78.729  1.00  0.00     0.127 A 
ATOM      7  C   UNL     1     -34.368   7.029  78.229  1.00  0.00     0.050 A 
ATOM      8  C   UNL     1     -37.142   4.728  79.470  1.00  0.00     0.201 C 
ATOM      9  O   UNL     1     -36.594   4.098  80.413  1.00  0.00    -0.288 OA
ATOM     10  C   UNL     1     -38.576   4.492  79.158  1.00  0.00     0.076 A 
ATOM     11  C   UNL     1     -39.327   5.562  78.620  1.00  0.00     0.041 A 
ATOM     12  C   UNL     1     -38.649   6.825  78.243  1.00  0.00     0.194 C 
ATOM     13  O   UNL     1     -39.330   7.823  77.882  1.00  0.00    -0.289 OA
ATOM     14  C   UNL     1     -40.714   5.422  78.439  1.00  0.00     0.059 A 
ATOM     15  C   UNL     1     -41.354   4.225  78.773  1.00  0.00     0.120 A 
ATOM     16  C   UNL     1     -40.611   3.155  79.267  1.00  0.00     0.093 A 
ATOM     17  C   UNL     1     -39.227   3.262  79.437  1.00  0.00     0.131 A 
ENDROOT
BRANCH   6  18
ATOM     18  O   UNL     1     -34.185   4.816  79.109  1.00  0.00    -0.507 OA
ATOM     19  H   UNL     1     -33.556   4.845  79.900  1.00  0.00     0.293 HD
ENDBRANCH   6  18
BRANCH  17  20
ATOM     20  O   UNL     1     -38.538   2.118  79.848  1.00  0.00    -0.507 OA
ATOM     21  H   UNL     1     -38.596   1.738  80.783  1.00  0.00     0.293 HD
ENDBRANCH  17  20
BRANCH  15  22
ATOM     22  O   UNL     1     -42.731   4.087  78.608  1.00  0.00    -0.508 OA
ATOM     23  H   UNL     1     -43.276   3.469  79.198  1.00  0.00     0.293 HD
ENDBRANCH  15  22
TORSDOF 3
ENDMDL
MODEL 6
REMARK VINA RESULT:    -6.373      1.619      3.469
REMARK INTER + INTRA:          -6.932
REMARK INTER:                  -6.932
REMARK INTRA:                   0.000
REMARK UNBOUND:                 0.000
REMARK SMILES Cc1cc(O)c2c(c1)C(=O)c1cc(O)cc(O)c1C2=O
REMARK SMILES IDX 1 1 2 2 8 3 7 4 6 5 4 6 3 7 19 8 20 9 18 10 11 11 9 12 10 13
REMARK SMILES IDX 12 14 13 15 15 16 16 17 5 18 17 20 14 22
REMARK H PARENT 5 19 17 21 14 23
REMARK Flexibility Score: inf
ROOT
ATOM      1  C   UNL     1     -33.740   4.612  83.834  1.00  0.00     0.044 C 
ATOM      2  C   UNL     1     -34.794   4.368  82.795  1.00  0.00    -0.047 A 
ATOM      3  C   UNL     1     -36.117   4.122  83.179  1.00  0.00     0.016 A 
ATOM      4  C   UNL     1     -37.118   3.920  82.214  1.00  0.00     0.038 A 
ATOM      5  C   UNL     1     -36.789   3.967  80.841  1.00  0.00     0.076 A 
ATOM      6  C   UNL     1     -35.464   4.301  80.458  1.00  0.00     0.127 A 
ATOM      7  C   UNL     1     -34.482   4.476  81.437  1.00  0.00     0.050 A 
ATOM      8  C   UNL     1     -37.839   3.603  79.854  1.00  0.00     0.201 C 
ATOM      9  O   UNL     1     -37.512   3.081  78.755  1.00  0.00    -0.288 OA
ATOM     10  C   UNL     1     -39.272   3.681  80.239  1.00  0.00     0.076 A 
ATOM     11  C   UNL     1     -39.597   3.638  81.615  1.00  0.00     0.041 A 
ATOM     12  C   UNL     1     -38.518   3.667  82.630  1.00  0.00     0.194 C 
ATOM     13  O   UNL     1     -38.795   3.502  83.849  1.00  0.00    -0.289 OA
ATOM     14  C   UNL     1     -40.943   3.571  82.013  1.00  0.00     0.059 A 
ATOM     15  C   UNL     1     -41.965   3.564  81.059  1.00  0.00     0.120 A 
ATOM     16  C   UNL     1     -41.649   3.647  79.704  1.00  0.00     0.093 A 
ATOM     17  C   UNL     1     -40.319   3.735  79.282  1.00  0.00     0.131 A 
ENDROOT
BRANCH   6  18
ATOM     18  O   UNL     1     -35.092   4.501  79.127  1.00  0.00    -0.507 OA
ATOM     19  H   UNL     1     -35.205   3.804  78.404  1.00  0.00     0.293 HD
ENDBRANCH   6  18
BRANCH  17  20
ATOM     20  O   UNL     1     -40.086   3.908  77.915  1.00  0.00    -0.507 OA
ATOM     21  H   UNL     1     -39.174   3.816  77.489  1.00  0.00     0.293 HD
ENDBRANCH  17  20
BRANCH  15  22
ATOM     22  O   UNL     1     -43.300   3.485  81.449  1.00  0.00    -0.508 OA
ATOM     23  H   UNL     1     -43.960   4.223  81.233  1.00  0.00     0.293 HD
ENDBRANCH  15  22
TORSDOF 3
ENDMDL
MODEL 7
REMARK VINA RESULT:    -6.269     11.107     12.877
REMARK INTER + INTRA:          -6.819
REMARK INTER:                  -6.819
REMARK INTRA:                   0.000
REMARK UNBOUND:                 0.000
REMARK SMILES Cc1cc(O)c2c(c1)C(=O)c1cc(O)cc(O)c1C2=O
REMARK SMILES IDX 1 1 2 2 8 3 7 4 6 5 4 6 3 7 19 8 20 9 18 10 11 11 9 12 10 13
REMARK SMILES IDX 12 14 13 15 15 16 16 17 5 18 17 20 14 22
REMARK H PARENT 5 19 17 21 14 23
REMARK Flexibility Score: inf
ROOT
ATOM      1  C   UNL     1     -48.127   4.067  72.256  1.00  0.00     0.044 C 
ATOM      2  C   UNL     1     -47.338   2.960  72.890  1.00  0.00    -0.047 A 
ATOM      3  C   UNL     1     -47.928   1.710  73.108  1.00  0.00     0.016 A 
ATOM      4  C   UNL     1     -47.190   0.658  73.675  1.00  0.00     0.038 A 
ATOM      5  C   UNL     1     -45.837   0.860  74.029  1.00  0.00     0.076 A 
ATOM      6  C   UNL     1     -45.222   2.103  73.729  1.00  0.00     0.127 A 
ATOM      7  C   UNL     1     -45.982   3.141  73.183  1.00  0.00     0.050 A 
ATOM      8  C   UNL     1     -45.133  -0.224  74.761  1.00  0.00     0.201 C 
ATOM      9  O   UNL     1     -44.211   0.061  75.570  1.00  0.00    -0.288 OA
ATOM     10  C   UNL     1     -45.640  -1.619  74.679  1.00  0.00     0.076 A 
ATOM     11  C   UNL     1     -46.993  -1.818  74.321  1.00  0.00     0.041 A 
ATOM     12  C   UNL     1     -47.821  -0.665  73.895  1.00  0.00     0.194 C 
ATOM     13  O   UNL     1     -49.057  -0.816  73.696  1.00  0.00    -0.289 OA
ATOM     14  C   UNL     1     -47.545  -3.109  74.365  1.00  0.00     0.059 A 
ATOM     15  C   UNL     1     -46.762  -4.202  74.746  1.00  0.00     0.120 A 
ATOM     16  C   UNL     1     -45.417  -4.016  75.062  1.00  0.00     0.093 A 
ATOM     17  C   UNL     1     -44.838  -2.745  75.005  1.00  0.00     0.131 A 
ENDROOT
BRANCH   6  18
ATOM     18  O   UNL     1     -43.858   2.335  73.921  1.00  0.00    -0.507 OA
ATOM     19  H   UNL     1     -43.401   2.268  74.821  1.00  0.00     0.293 HD
ENDBRANCH   6  18
BRANCH  17  20
ATOM     20  O   UNL     1     -43.465  -2.650  75.246  1.00  0.00    -0.507 OA
ATOM     21  H   UNL     1     -43.012  -3.051  76.056  1.00  0.00     0.293 HD
ENDBRANCH  17  20
BRANCH  15  22
ATOM     22  O   UNL     1     -47.310  -5.483  74.804  1.00  0.00    -0.508 OA
ATOM     23  H   UNL     1     -46.762  -6.304  74.576  1.00  0.00     0.293 HD
ENDBRANCH  15  22
TORSDOF 3
ENDMDL
MODEL 8
REMARK VINA RESULT:    -6.081      2.564      5.207
REMARK INTER + INTRA:          -6.615
REMARK INTER:                  -6.615
REMARK INTRA:                   0.000
REMARK UNBOUND:                 0.000
REMARK SMILES Cc1cc(O)c2c(c1)C(=O)c1cc(O)cc(O)c1C2=O
REMARK SMILES IDX 1 1 2 2 8 3 7 4 6 5 4 6 3 7 19 8 20 9 18 10 11 11 9 12 10 13
REMARK SMILES IDX 12 14 13 15 15 16 16 17 5 18 17 20 14 22
REMARK H PARENT 5 19 17 21 14 23
REMARK Flexibility Score: inf
ROOT
ATOM      1  C   UNL     1     -39.125   1.871  84.230  1.00  0.00     0.044 C 
ATOM      2  C   UNL     1     -38.451   2.627  83.124  1.00  0.00    -0.047 A 
ATOM      3  C   UNL     1     -39.184   3.045  82.007  1.00  0.00     0.016 A 
ATOM      4  C   UNL     1     -38.569   3.779  80.979  1.00  0.00     0.038 A 
ATOM      5  C   UNL     1     -37.197   4.102  81.071  1.00  0.00     0.076 A 
ATOM      6  C   UNL     1     -36.480   3.749  82.244  1.00  0.00     0.127 A 
ATOM      7  C   UNL     1     -37.109   3.001  83.243  1.00  0.00     0.050 A 
ATOM      8  C   UNL     1     -36.547   4.747  79.901  1.00  0.00     0.201 C 
ATOM      9  O   UNL     1     -35.324   4.546  79.673  1.00  0.00    -0.288 OA
ATOM     10  C   UNL     1     -37.377   5.471  78.903  1.00  0.00     0.076 A 
ATOM     11  C   UNL     1     -38.750   5.148  78.816  1.00  0.00     0.041 A 
ATOM     12  C   UNL     1     -39.355   4.223  79.804  1.00  0.00     0.194 C 
ATOM     13  O   UNL     1     -40.546   3.834  79.657  1.00  0.00    -0.289 OA
ATOM     14  C   UNL     1     -39.537   5.709  77.796  1.00  0.00     0.059 A 
ATOM     15  C   UNL     1     -38.975   6.598  76.875  1.00  0.00     0.120 A 
ATOM     16  C   UNL     1     -37.631   6.950  76.982  1.00  0.00     0.093 A 
ATOM     17  C   UNL     1     -36.831   6.422  78.000  1.00  0.00     0.131 A 
ENDROOT
BRANCH   6  18
ATOM     18  O   UNL     1     -35.161   4.150  82.471  1.00  0.00    -0.507 OA
ATOM     19  H   UNL     1     -34.471   3.569  82.928  1.00  0.00     0.293 HD
ENDBRANCH   6  18
BRANCH  17  20
ATOM     20  O   UNL     1     -35.519   6.891  78.098  1.00  0.00    -0.507 OA
ATOM     21  H   UNL     1     -34.919   7.041  77.299  1.00  0.00     0.293 HD
ENDBRANCH  17  20
BRANCH  15  22
ATOM     22  O   UNL     1     -39.750   7.147  75.855  1.00  0.00    -0.508 OA
ATOM     23  H   UNL     1     -39.926   8.143  75.801  1.00  0.00     0.293 HD
ENDBRANCH  15  22
TORSDOF 3
ENDMDL
MODEL 9
REMARK VINA RESULT:    -6.032      3.843      5.958
REMARK INTER + INTRA:          -6.561
REMARK INTER:                  -6.561
REMARK INTRA:                   0.000
REMARK UNBOUND:                 0.000
REMARK SMILES Cc1cc(O)c2c(c1)C(=O)c1cc(O)cc(O)c1C2=O
REMARK SMILES IDX 1 1 2 2 8 3 7 4 6 5 4 6 3 7 19 8 20 9 18 10 11 11 9 12 10 13
REMARK SMILES IDX 12 14 13 15 15 16 16 17 5 18 17 20 14 22
REMARK H PARENT 5 19 17 21 14 23
REMARK Flexibility Score: inf
ROOT
ATOM      1  C   UNL     1     -33.948  10.106  77.034  1.00  0.00     0.044 C 
ATOM      2  C   UNL     1     -35.225   9.339  77.215  1.00  0.00    -0.047 A 
ATOM      3  C   UNL     1     -35.199   8.046  77.751  1.00  0.00     0.016 A 
ATOM      4  C   UNL     1     -36.391   7.329  77.951  1.00  0.00     0.038 A 
ATOM      5  C   UNL     1     -37.630   7.918  77.611  1.00  0.00     0.076 A 
ATOM      6  C   UNL     1     -37.655   9.259  77.148  1.00  0.00     0.127 A 
ATOM      7  C   UNL     1     -36.455   9.943  76.937  1.00  0.00     0.050 A 
ATOM      8  C   UNL     1     -38.853   7.079  77.696  1.00  0.00     0.201 C 
ATOM      9  O   UNL     1     -39.820   7.299  76.920  1.00  0.00    -0.288 OA
ATOM     10  C   UNL     1     -38.860   5.871  78.563  1.00  0.00     0.076 A 
ATOM     11  C   UNL     1     -37.618   5.287  78.904  1.00  0.00     0.041 A 
ATOM     12  C   UNL     1     -36.355   5.964  78.526  1.00  0.00     0.194 C 
ATOM     13  O   UNL     1     -35.250   5.388  78.716  1.00  0.00    -0.289 OA
ATOM     14  C   UNL     1     -37.588   4.069  79.605  1.00  0.00     0.059 A 
ATOM     15  C   UNL     1     -38.777   3.438  79.981  1.00  0.00     0.120 A 
ATOM     16  C   UNL     1     -40.002   4.031  79.681  1.00  0.00     0.093 A 
ATOM     17  C   UNL     1     -40.060   5.253  79.003  1.00  0.00     0.131 A 
ENDROOT
BRANCH   6  18
ATOM     18  O   UNL     1     -38.844   9.956  76.921  1.00  0.00    -0.507 OA
ATOM     19  H   UNL     1     -39.282  10.033  76.013  1.00  0.00     0.293 HD
ENDBRANCH   6  18
BRANCH  17  20
ATOM     20  O   UNL     1     -41.319   5.829  78.819  1.00  0.00    -0.507 OA
ATOM     21  H   UNL     1     -41.732   5.990  77.911  1.00  0.00     0.293 HD
ENDBRANCH  17  20
BRANCH  15  22
ATOM     22  O   UNL     1     -38.750   2.224  80.665  1.00  0.00    -0.508 OA
ATOM     23  H   UNL     1     -38.741   1.339  80.173  1.00  0.00     0.293 HD
ENDBRANCH  15  22
TORSDOF 3
ENDMDL
