MODEL 1
REMARK VINA RESULT:    -4.458      0.000      0.000
REMARK INTER + INTRA:          -6.314
REMARK INTER:                  -6.022
REMARK INTRA:                  -0.292
REMARK UNBOUND:                -0.292
REMARK SMILES CCCCCCC=CC(=O)[O-]
REMARK SMILES IDX 5 1 6 2 7 3 8 4 9 5 10 6 11 7 4 8 3 9 2 10 1 11
REMARK H PARENT
REMARK Flexibility Score: inf
ROOT
ATOM      1  C   UNL     1     148.772 144.361 157.210  1.00  0.00     0.004 C 
ENDROOT
BRANCH   1   2
ATOM      2  C   UNL     1     147.743 143.685 158.125  1.00  0.00     0.027 C 
BRANCH   2   3
ATOM      3  C   UNL     1     147.886 142.191 158.096  1.00  0.00    -0.025 C 
ATOM      4  C   UNL     1     146.828 141.390 157.938  1.00  0.00     0.020 C 
BRANCH   4   5
ATOM      5  C   UNL     1     146.946 139.924 157.893  1.00  0.00     0.064 C 
ATOM      6  O   UNL     1     145.942 139.196 157.663  1.00  0.00    -0.545 OA
ATOM      7  O   UNL     1     148.183 139.331 158.106  1.00  0.00    -0.545 OA
ENDBRANCH   4   5
ENDBRANCH   2   3
ENDBRANCH   1   2
BRANCH   1   8
ATOM      8  C   UNL     1     148.461 145.856 157.044  1.00  0.00     0.000 C 
BRANCH   8   9
ATOM      9  C   UNL     1     146.992 146.192 157.346  1.00  0.00    -0.000 C 
BRANCH   9  10
ATOM     10  C   UNL     1     146.520 147.473 156.641  1.00  0.00    -0.003 C 
ATOM     11  C   UNL     1     147.325 147.727 155.371  1.00  0.00     0.004 C 
ENDBRANCH   9  10
ENDBRANCH   8   9
ENDBRANCH   1   8
TORSDOF 6
ENDMDL
MODEL 2
REMARK VINA RESULT:    -4.458      5.898      7.678
REMARK INTER + INTRA:          -6.313
REMARK INTER:                  -5.764
REMARK INTRA:                  -0.549
REMARK UNBOUND:                -0.292
REMARK SMILES CCCCCCC=CC(=O)[O-]
REMARK SMILES IDX 5 1 6 2 7 3 8 4 9 5 10 6 11 7 4 8 3 9 2 10 1 11
REMARK H PARENT
REMARK Flexibility Score: inf
ROOT
ATOM      1  C   UNL     1     148.755 147.691 156.243  1.00  0.00     0.004 C 
ENDROOT
BRANCH   1   2
ATOM      2  C   UNL     1     148.982 148.147 157.690  1.00  0.00     0.027 C 
BRANCH   2   3
ATOM      3  C   UNL     1     148.570 149.578 157.880  1.00  0.00    -0.025 C 
ATOM      4  C   UNL     1     147.410 150.041 157.403  1.00  0.00     0.020 C 
BRANCH   4   5
ATOM      5  C   UNL     1     146.979 151.435 157.589  1.00  0.00     0.064 C 
ATOM      6  O   UNL     1     145.817 151.806 157.270  1.00  0.00    -0.545 OA
ATOM      7  O   UNL     1     147.866 152.359 158.125  1.00  0.00    -0.545 OA
ENDBRANCH   4   5
ENDBRANCH   2   3
ENDBRANCH   1   2
BRANCH   1   8
ATOM      8  C   UNL     1     147.859 146.444 156.195  1.00  0.00     0.000 C 
BRANCH   8   9
ATOM      9  C   UNL     1     148.138 145.470 157.350  1.00  0.00    -0.000 C 
BRANCH   9  10
ATOM     10  C   UNL     1     146.863 145.066 158.106  1.00  0.00    -0.003 C 
ATOM     11  C   UNL     1     145.717 146.023 157.797  1.00  0.00     0.004 C 
ENDBRANCH   9  10
ENDBRANCH   8   9
ENDBRANCH   1   8
TORSDOF 6
ENDMDL
MODEL 3
REMARK VINA RESULT:    -4.431      8.459     10.916
REMARK INTER + INTRA:          -6.277
REMARK INTER:                  -6.133
REMARK INTRA:                  -0.144
REMARK UNBOUND:                -0.292
REMARK SMILES CCCCCCC=CC(=O)[O-]
REMARK SMILES IDX 5 1 6 2 7 3 8 4 9 5 10 6 11 7 4 8 3 9 2 10 1 11
REMARK H PARENT
REMARK Flexibility Score: inf
ROOT
ATOM      1  C   UNL     1     147.547 151.268 158.125  1.00  0.00     0.004 C 
ENDROOT
BRANCH   1   2
ATOM      2  C   UNL     1     147.191 152.760 158.117  1.00  0.00     0.027 C 
BRANCH   2   3
ATOM      3  C   UNL     1     148.423 153.614 158.042  1.00  0.00    -0.025 C 
ATOM      4  C   UNL     1     148.539 154.599 157.146  1.00  0.00     0.020 C 
BRANCH   4   5
ATOM      5  C   UNL     1     149.730 155.457 157.063  1.00  0.00     0.064 C 
ATOM      6  O   UNL     1     150.755 155.090 156.427  1.00  0.00    -0.545 OA
ATOM      7  O   UNL     1     149.729 156.693 157.697  1.00  0.00    -0.545 OA
ENDBRANCH   4   5
ENDBRANCH   2   3
ENDBRANCH   1   2
BRANCH   1   8
ATOM      8  C   UNL     1     146.708 150.498 157.094  1.00  0.00     0.000 C 
BRANCH   8   9
ATOM      9  C   UNL     1     147.235 149.075 156.847  1.00  0.00    -0.000 C 
BRANCH   9  10
ATOM     10  C   UNL     1     146.147 148.123 156.329  1.00  0.00    -0.003 C 
ATOM     11  C   UNL     1     146.309 146.729 156.925  1.00  0.00     0.004 C 
ENDBRANCH   9  10
ENDBRANCH   8   9
ENDBRANCH   1   8
TORSDOF 6
ENDMDL
MODEL 4
REMARK VINA RESULT:    -4.409      1.888      2.970
REMARK INTER + INTRA:          -6.248
REMARK INTER:                  -6.027
REMARK INTRA:                  -0.221
REMARK UNBOUND:                -0.292
REMARK SMILES CCCCCCC=CC(=O)[O-]
REMARK SMILES IDX 5 1 6 2 7 3 8 4 9 5 10 6 11 7 4 8 3 9 2 10 1 11
REMARK H PARENT
REMARK Flexibility Score: inf
ROOT
ATOM      1  C   UNL     1     148.103 146.528 155.894  1.00  0.00     0.004 C 
ENDROOT
BRANCH   1   2
ATOM      2  C   UNL     1     148.004 146.333 157.412  1.00  0.00     0.027 C 
BRANCH   2   3
ATOM      3  C   UNL     1     147.561 144.941 157.755  1.00  0.00    -0.025 C 
ATOM      4  C   UNL     1     148.382 143.894 157.625  1.00  0.00     0.020 C 
BRANCH   4   5
ATOM      5  C   UNL     1     147.975 142.523 157.968  1.00  0.00     0.064 C 
ATOM      6  O   UNL     1     148.829 141.608 158.121  1.00  0.00    -0.545 OA
ATOM      7  O   UNL     1     146.627 142.229 158.125  1.00  0.00    -0.545 OA
ENDBRANCH   4   5
ENDBRANCH   2   3
ENDBRANCH   1   2
BRANCH   1   8
ATOM      8  C   UNL     1     147.265 147.731 155.438  1.00  0.00     0.000 C 
BRANCH   8   9
ATOM      9  C   UNL     1     146.562 148.439 156.608  1.00  0.00    -0.000 C 
BRANCH   9  10
ATOM     10  C   UNL     1     147.273 149.733 157.031  1.00  0.00    -0.003 C 
ATOM     11  C   UNL     1     146.314 150.918 157.009  1.00  0.00     0.004 C 
ENDBRANCH   9  10
ENDBRANCH   8   9
ENDBRANCH   1   8
TORSDOF 6
ENDMDL
MODEL 5
REMARK VINA RESULT:    -4.259      4.282      6.507
REMARK INTER + INTRA:          -6.045
REMARK INTER:                  -5.855
REMARK INTRA:                  -0.191
REMARK UNBOUND:                -0.292
REMARK SMILES CCCCCCC=CC(=O)[O-]
REMARK SMILES IDX 5 1 6 2 7 3 8 4 9 5 10 6 11 7 4 8 3 9 2 10 1 11
REMARK H PARENT
REMARK Flexibility Score: inf
ROOT
ATOM      1  C   UNL     1     148.551 143.698 157.363  1.00  0.00     0.004 C 
ENDROOT
BRANCH   1   2
ATOM      2  C   UNL     1     147.602 144.783 157.888  1.00  0.00     0.027 C 
BRANCH   2   3
ATOM      3  C   UNL     1     147.831 146.091 157.189  1.00  0.00    -0.025 C 
ATOM      4  C   UNL     1     146.822 146.929 156.925  1.00  0.00     0.020 C 
BRANCH   4   5
ATOM      5  C   UNL     1     147.024 148.222 156.254  1.00  0.00     0.064 C 
ATOM      6  O   UNL     1     147.191 148.290 155.006  1.00  0.00    -0.545 OA
ATOM      7  O   UNL     1     147.032 149.389 157.007  1.00  0.00    -0.545 OA
ENDBRANCH   4   5
ENDBRANCH   2   3
ENDBRANCH   1   2
BRANCH   1   8
ATOM      8  C   UNL     1     148.353 142.379 158.125  1.00  0.00     0.000 C 
BRANCH   8   9
ATOM      9  C   UNL     1     146.888 141.911 158.125  1.00  0.00    -0.000 C 
BRANCH   9  10
ATOM     10  C   UNL     1     146.752 140.390 157.959  1.00  0.00    -0.003 C 
ATOM     11  C   UNL     1     145.514 140.037 157.141  1.00  0.00     0.004 C 
ENDBRANCH   9  10
ENDBRANCH   8   9
ENDBRANCH   1   8
TORSDOF 6
ENDMDL
MODEL 6
REMARK VINA RESULT:    -4.031      5.740      7.707
REMARK INTER + INTRA:          -5.737
REMARK INTER:                  -5.553
REMARK INTRA:                  -0.184
REMARK UNBOUND:                -0.292
REMARK SMILES CCCCCCC=CC(=O)[O-]
REMARK SMILES IDX 5 1 6 2 7 3 8 4 9 5 10 6 11 7 4 8 3 9 2 10 1 11
REMARK H PARENT
REMARK Flexibility Score: inf
ROOT
ATOM      1  C   UNL     1     147.460 151.567 158.125  1.00  0.00     0.004 C 
ENDROOT
BRANCH   1   2
ATOM      2  C   UNL     1     146.565 150.988 157.021  1.00  0.00     0.027 C 
BRANCH   2   3
ATOM      3  C   UNL     1     146.611 149.487 157.014  1.00  0.00    -0.025 C 
ATOM      4  C   UNL     1     147.185 148.809 156.015  1.00  0.00     0.020 C 
BRANCH   4   5
ATOM      5  C   UNL     1     147.254 147.340 155.994  1.00  0.00     0.064 C 
ATOM      6  O   UNL     1     148.103 146.738 155.282  1.00  0.00    -0.545 OA
ATOM      7  O   UNL     1     146.371 146.603 156.771  1.00  0.00    -0.545 OA
ENDBRANCH   4   5
ENDBRANCH   2   3
ENDBRANCH   1   2
BRANCH   1   8
ATOM      8  C   UNL     1     147.545 153.096 158.016  1.00  0.00     0.000 C 
BRANCH   8   9
ATOM      9  C   UNL     1     148.988 153.617 158.125  1.00  0.00    -0.000 C 
BRANCH   9  10
ATOM     10  C   UNL     1     149.302 154.711 157.093  1.00  0.00    -0.003 C 
ATOM     11  C   UNL     1     148.274 155.836 157.157  1.00  0.00     0.004 C 
ENDBRANCH   9  10
ENDBRANCH   8   9
ENDBRANCH   1   8
TORSDOF 6
ENDMDL
MODEL 7
REMARK VINA RESULT:    -3.970      5.710      7.611
REMARK INTER + INTRA:          -5.654
REMARK INTER:                  -5.410
REMARK INTRA:                  -0.244
REMARK UNBOUND:                -0.292
REMARK SMILES CCCCCCC=CC(=O)[O-]
REMARK SMILES IDX 5 1 6 2 7 3 8 4 9 5 10 6 11 7 4 8 3 9 2 10 1 11
REMARK H PARENT
REMARK Flexibility Score: inf
ROOT
ATOM      1  C   UNL     1     146.808 151.868 157.543  1.00  0.00     0.004 C 
ENDROOT
BRANCH   1   2
ATOM      2  C   UNL     1     147.799 150.818 158.060  1.00  0.00     0.027 C 
BRANCH   2   3
ATOM      3  C   UNL     1     147.607 149.500 157.368  1.00  0.00    -0.025 C 
ATOM      4  C   UNL     1     148.535 148.539 157.423  1.00  0.00     0.020 C 
BRANCH   4   5
ATOM      5  C   UNL     1     148.362 147.235 156.765  1.00  0.00     0.064 C 
ATOM      6  O   UNL     1     149.133 146.270 157.019  1.00  0.00    -0.545 OA
ATOM      7  O   UNL     1     147.334 147.063 155.848  1.00  0.00    -0.545 OA
ENDBRANCH   4   5
ENDBRANCH   2   3
ENDBRANCH   1   2
BRANCH   1   8
ATOM      8  C   UNL     1     147.123 153.254 158.125  1.00  0.00     0.000 C 
BRANCH   8   9
ATOM      9  C   UNL     1     148.617 153.607 158.037  1.00  0.00    -0.000 C 
BRANCH   9  10
ATOM     10  C   UNL     1     148.897 154.760 157.062  1.00  0.00    -0.003 C 
ATOM     11  C   UNL     1     150.353 154.753 156.609  1.00  0.00     0.004 C 
ENDBRANCH   9  10
ENDBRANCH   8   9
ENDBRANCH   1   8
TORSDOF 6
ENDMDL
