MODEL 1
REMARK VINA RESULT:    -3.499      0.000      0.000
REMARK INTER + INTRA:          -5.934
REMARK INTER:                  -5.136
REMARK INTRA:                  -0.798
REMARK UNBOUND:                -0.798
REMARK SMILES O=C([O-])CCCCCCCC(=O)[O-]
REMARK SMILES IDX 7 1 6 2 5 3 4 4 2 5 1 6 3 7 8 8 9 9 10 10 11 11 12 12 13 13
REMARK H PARENT
REMARK Flexibility Score: inf
ROOT
ATOM      1  C   UNL     1      -0.270   9.789  39.718  1.00  0.00     0.000 C 
ENDROOT
BRANCH   1   2
ATOM      2  C   UNL     1      -1.186  10.120  38.526  1.00  0.00     0.000 C 
BRANCH   2   3
ATOM      3  C   UNL     1      -2.254   9.045  38.276  1.00  0.00     0.006 C 
BRANCH   3   4
ATOM      4  C   UNL     1      -1.840   7.706  38.895  1.00  0.00     0.053 C 
BRANCH   4   5
ATOM      5  C   UNL     1      -2.940   7.162  39.751  1.00  0.00     0.041 C 
ATOM      6  O   UNL     1      -3.504   6.079  39.443  1.00  0.00    -0.550 OA
ATOM      7  O   UNL     1      -3.375   7.874  40.861  1.00  0.00    -0.550 OA
ENDBRANCH   4   5
ENDBRANCH   3   4
ENDBRANCH   2   3
ENDBRANCH   1   2
BRANCH   1   8
ATOM      8  C   UNL     1       1.220  10.125  39.511  1.00  0.00     0.000 C 
BRANCH   8   9
ATOM      9  C   UNL     1       1.865   9.521  38.249  1.00  0.00     0.006 C 
BRANCH   9  10
ATOM     10  C   UNL     1       1.874   7.981  38.226  1.00  0.00     0.053 C 
BRANCH  10  11
ATOM     11  C   UNL     1       1.506   7.422  36.886  1.00  0.00     0.041 C 
ATOM     12  O   UNL     1       0.566   7.933  36.221  1.00  0.00    -0.550 OA
ATOM     13  O   UNL     1       2.225   6.359  36.353  1.00  0.00    -0.550 OA
ENDBRANCH  10  11
ENDBRANCH   9  10
ENDBRANCH   8   9
ENDBRANCH   1   8
TORSDOF 8
ENDMDL
MODEL 2
REMARK VINA RESULT:    -3.397      2.150      3.029
REMARK INTER + INTRA:          -5.784
REMARK INTER:                  -4.828
REMARK INTRA:                  -0.956
REMARK UNBOUND:                -0.798
REMARK SMILES O=C([O-])CCCCCCCC(=O)[O-]
REMARK SMILES IDX 7 1 6 2 5 3 4 4 2 5 1 6 3 7 8 8 9 9 10 10 11 11 12 12 13 13
REMARK H PARENT
REMARK Flexibility Score: inf
ROOT
ATOM      1  C   UNL     1      -0.325  10.086  39.138  1.00  0.00     0.000 C 
ENDROOT
BRANCH   1   2
ATOM      2  C   UNL     1      -0.266   8.950  38.100  1.00  0.00     0.000 C 
BRANCH   2   3
ATOM      3  C   UNL     1      -1.578   8.158  38.006  1.00  0.00     0.006 C 
BRANCH   3   4
ATOM      4  C   UNL     1      -2.603   8.671  39.024  1.00  0.00     0.053 C 
BRANCH   4   5
ATOM      5  C   UNL     1      -2.999   7.578  39.965  1.00  0.00     0.041 C 
ATOM      6  O   UNL     1      -3.111   6.394  39.550  1.00  0.00    -0.550 OA
ATOM      7  O   UNL     1      -3.293   7.874  41.290  1.00  0.00    -0.550 OA
ENDBRANCH   4   5
ENDBRANCH   3   4
ENDBRANCH   2   3
ENDBRANCH   1   2
BRANCH   1   8
ATOM      8  C   UNL     1       0.717   9.993  40.270  1.00  0.00     0.000 C 
BRANCH   8   9
ATOM      9  C   UNL     1       0.245   9.266  41.545  1.00  0.00     0.006 C 
BRANCH   9  10
ATOM     10  C   UNL     1       1.008   7.961  41.839  1.00  0.00     0.053 C 
BRANCH  10  11
ATOM     11  C   UNL     1       0.257   6.741  41.399  1.00  0.00     0.041 C 
ATOM     12  O   UNL     1       0.471   6.241  40.262  1.00  0.00    -0.550 OA
ATOM     13  O   UNL     1      -0.651   6.133  42.256  1.00  0.00    -0.550 OA
ENDBRANCH  10  11
ENDBRANCH   9  10
ENDBRANCH   8   9
ENDBRANCH   1   8
TORSDOF 8
ENDMDL
MODEL 3
REMARK VINA RESULT:    -3.382      2.594      3.798
REMARK INTER + INTRA:          -5.762
REMARK INTER:                  -4.823
REMARK INTRA:                  -0.939
REMARK UNBOUND:                -0.798
REMARK SMILES O=C([O-])CCCCCCCC(=O)[O-]
REMARK SMILES IDX 7 1 6 2 5 3 4 4 2 5 1 6 3 7 8 8 9 9 10 10 11 11 12 12 13 13
REMARK H PARENT
REMARK Flexibility Score: inf
ROOT
ATOM      1  C   UNL     1      -2.247   8.504  38.638  1.00  0.00     0.000 C 
ENDROOT
BRANCH   1   2
ATOM      2  C   UNL     1      -2.046   9.835  37.893  1.00  0.00     0.000 C 
BRANCH   2   3
ATOM      3  C   UNL     1      -1.503   9.647  36.468  1.00  0.00     0.006 C 
BRANCH   3   4
ATOM      4  C   UNL     1      -1.387   8.160  36.118  1.00  0.00     0.053 C 
BRANCH   4   5
ATOM      5  C   UNL     1      -0.314   7.945  35.098  1.00  0.00     0.041 C 
ATOM      6  O   UNL     1       0.608   8.792  34.960  1.00  0.00    -0.550 OA
ATOM      7  O   UNL     1      -0.358   6.833  34.267  1.00  0.00    -0.550 OA
ENDBRANCH   4   5
ENDBRANCH   3   4
ENDBRANCH   2   3
ENDBRANCH   1   2
BRANCH   1   8
ATOM      8  C   UNL     1      -1.489   8.379  39.974  1.00  0.00     0.000 C 
BRANCH   8   9
ATOM      9  C   UNL     1      -0.330   9.376  40.172  1.00  0.00     0.006 C 
BRANCH   9  10
ATOM     10  C   UNL     1       1.068   8.753  40.002  1.00  0.00     0.053 C 
BRANCH  10  11
ATOM     11  C   UNL     1       1.519   8.728  38.573  1.00  0.00     0.041 C 
ATOM     12  O   UNL     1       1.752   9.805  37.962  1.00  0.00    -0.550 OA
ATOM     13  O   UNL     1       1.718   7.515  37.926  1.00  0.00    -0.550 OA
ENDBRANCH  10  11
ENDBRANCH   9  10
ENDBRANCH   8   9
ENDBRANCH   1   8
TORSDOF 8
ENDMDL
MODEL 4
REMARK VINA RESULT:    -3.346      2.778      4.464
REMARK INTER + INTRA:          -5.709
REMARK INTER:                  -4.873
REMARK INTRA:                  -0.835
REMARK UNBOUND:                -0.798
REMARK SMILES O=C([O-])CCCCCCCC(=O)[O-]
REMARK SMILES IDX 7 1 6 2 5 3 4 4 2 5 1 6 3 7 8 8 9 9 10 10 11 11 12 12 13 13
REMARK H PARENT
REMARK Flexibility Score: inf
ROOT
ATOM      1  C   UNL     1      -3.134   5.963  39.531  1.00  0.00     0.000 C 
ENDROOT
BRANCH   1   2
ATOM      2  C   UNL     1      -1.763   5.262  39.537  1.00  0.00     0.000 C 
BRANCH   2   3
ATOM      3  C   UNL     1      -1.447   4.554  38.212  1.00  0.00     0.006 C 
BRANCH   3   4
ATOM      4  C   UNL     1      -2.100   5.282  37.032  1.00  0.00     0.053 C 
BRANCH   4   5
ATOM      5  C   UNL     1      -1.093   6.123  36.313  1.00  0.00     0.041 C 
ATOM      6  O   UNL     1       0.039   6.331  36.824  1.00  0.00    -0.550 OA
ATOM      7  O   UNL     1      -1.422   6.717  35.101  1.00  0.00    -0.550 OA
ENDBRANCH   4   5
ENDBRANCH   3   4
ENDBRANCH   2   3
ENDBRANCH   1   2
BRANCH   1   8
ATOM      8  C   UNL     1      -3.113   7.447  39.943  1.00  0.00     0.000 C 
BRANCH   8   9
ATOM      9  C   UNL     1      -1.943   8.274  39.375  1.00  0.00     0.006 C 
BRANCH   9  10
ATOM     10  C   UNL     1      -2.340   9.205  38.214  1.00  0.00     0.053 C 
BRANCH  10  11
ATOM     11  C   UNL     1      -1.166   9.622  37.381  1.00  0.00     0.041 C 
ATOM     12  O   UNL     1      -0.003   9.599  37.866  1.00  0.00    -0.550 OA
ATOM     13  O   UNL     1      -1.350  10.001  36.057  1.00  0.00    -0.550 OA
ENDBRANCH  10  11
ENDBRANCH   9  10
ENDBRANCH   8   9
ENDBRANCH   1   8
TORSDOF 8
ENDMDL
MODEL 5
REMARK VINA RESULT:    -3.331      1.882      2.522
REMARK INTER + INTRA:          -5.686
REMARK INTER:                  -4.946
REMARK INTRA:                  -0.741
REMARK UNBOUND:                -0.798
REMARK SMILES O=C([O-])CCCCCCCC(=O)[O-]
REMARK SMILES IDX 7 1 6 2 5 3 4 4 2 5 1 6 3 7 8 8 9 9 10 10 11 11 12 12 13 13
REMARK H PARENT
REMARK Flexibility Score: inf
ROOT
ATOM      1  C   UNL     1      -1.507   9.044  36.613  1.00  0.00     0.000 C 
ENDROOT
BRANCH   1   2
ATOM      2  C   UNL     1      -2.117   9.835  37.785  1.00  0.00     0.000 C 
BRANCH   2   3
ATOM      3  C   UNL     1      -2.238   9.002  39.070  1.00  0.00     0.006 C 
BRANCH   3   4
ATOM      4  C   UNL     1      -2.060   7.509  38.774  1.00  0.00     0.053 C 
BRANCH   4   5
ATOM      5  C   UNL     1      -2.828   6.684  39.758  1.00  0.00     0.041 C 
ATOM      6  O   UNL     1      -3.730   5.901  39.360  1.00  0.00    -0.550 OA
ATOM      7  O   UNL     1      -2.581   6.816  41.118  1.00  0.00    -0.550 OA
ENDBRANCH   4   5
ENDBRANCH   3   4
ENDBRANCH   2   3
ENDBRANCH   1   2
BRANCH   1   8
ATOM      8  C   UNL     1      -0.255   9.677  35.977  1.00  0.00     0.000 C 
BRANCH   8   9
ATOM      9  C   UNL     1       1.084   9.007  36.343  1.00  0.00     0.006 C 
BRANCH   9  10
ATOM     10  C   UNL     1       1.846   9.713  37.479  1.00  0.00     0.053 C 
BRANCH  10  11
ATOM     11  C   UNL     1       1.445   9.221  38.837  1.00  0.00     0.041 C 
ATOM     12  O   UNL     1       1.455   7.987  39.093  1.00  0.00    -0.550 OA
ATOM     13  O   UNL     1       1.096  10.125  39.832  1.00  0.00    -0.550 OA
ENDBRANCH  10  11
ENDBRANCH   9  10
ENDBRANCH   8   9
ENDBRANCH   1   8
TORSDOF 8
ENDMDL
MODEL 6
REMARK VINA RESULT:    -3.327      2.456      4.992
REMARK INTER + INTRA:          -5.681
REMARK INTER:                  -5.048
REMARK INTRA:                  -0.634
REMARK UNBOUND:                -0.798
REMARK SMILES O=C([O-])CCCCCCCC(=O)[O-]
REMARK SMILES IDX 7 1 6 2 5 3 4 4 2 5 1 6 3 7 8 8 9 9 10 10 11 11 12 12 13 13
REMARK H PARENT
REMARK Flexibility Score: inf
ROOT
ATOM      1  C   UNL     1      -2.275   9.489  38.274  1.00  0.00     0.000 C 
ENDROOT
BRANCH   1   2
ATOM      2  C   UNL     1      -1.678   9.186  36.887  1.00  0.00     0.000 C 
BRANCH   2   3
ATOM      3  C   UNL     1      -1.049   7.788  36.800  1.00  0.00     0.006 C 
BRANCH   3   4
ATOM      4  C   UNL     1      -1.573   7.026  35.579  1.00  0.00     0.053 C 
BRANCH   4   5
ATOM      5  C   UNL     1      -0.461   6.745  34.618  1.00  0.00     0.041 C 
ATOM      6  O   UNL     1       0.336   7.662  34.287  1.00  0.00    -0.550 OA
ATOM      7  O   UNL     1      -0.333   5.483  34.052  1.00  0.00    -0.550 OA
ENDBRANCH   4   5
ENDBRANCH   3   4
ENDBRANCH   2   3
ENDBRANCH   1   2
BRANCH   1   8
ATOM      8  C   UNL     1      -1.855   8.518  39.394  1.00  0.00     0.000 C 
BRANCH   8   9
ATOM      9  C   UNL     1      -3.013   7.889  40.192  1.00  0.00     0.006 C 
BRANCH   9  10
ATOM     10  C   UNL     1      -3.394   6.471  39.728  1.00  0.00     0.053 C 
BRANCH  10  11
ATOM     11  C   UNL     1      -2.246   5.512  39.799  1.00  0.00     0.041 C 
ATOM     12  O   UNL     1      -1.838   4.932  38.757  1.00  0.00    -0.550 OA
ATOM     13  O   UNL     1      -1.600   5.285  41.008  1.00  0.00    -0.550 OA
ENDBRANCH  10  11
ENDBRANCH   9  10
ENDBRANCH   8   9
ENDBRANCH   1   8
TORSDOF 8
ENDMDL
MODEL 7
REMARK VINA RESULT:    -3.316      2.304      4.646
REMARK INTER + INTRA:          -5.665
REMARK INTER:                  -4.994
REMARK INTRA:                  -0.671
REMARK UNBOUND:                -0.798
REMARK SMILES O=C([O-])CCCCCCCC(=O)[O-]
REMARK SMILES IDX 7 1 6 2 5 3 4 4 2 5 1 6 3 7 8 8 9 9 10 10 11 11 12 12 13 13
REMARK H PARENT
REMARK Flexibility Score: inf
ROOT
ATOM      1  C   UNL     1      -1.864   8.597  39.362  1.00  0.00     0.000 C 
ENDROOT
BRANCH   1   2
ATOM      2  C   UNL     1      -2.240   9.442  38.131  1.00  0.00     0.000 C 
BRANCH   2   3
ATOM      3  C   UNL     1      -1.523   8.987  36.852  1.00  0.00     0.006 C 
BRANCH   3   4
ATOM      4  C   UNL     1      -0.187   8.312  37.182  1.00  0.00     0.053 C 
BRANCH   4   5
ATOM      5  C   UNL     1       0.945   9.049  36.541  1.00  0.00     0.041 C 
ATOM      6  O   UNL     1       1.088   9.027  35.290  1.00  0.00    -0.550 OA
ATOM      7  O   UNL     1       1.872   9.721  37.328  1.00  0.00    -0.550 OA
ENDBRANCH   4   5
ENDBRANCH   3   4
ENDBRANCH   2   3
ENDBRANCH   1   2
BRANCH   1   8
ATOM      8  C   UNL     1      -3.044   7.889  40.056  1.00  0.00     0.000 C 
BRANCH   8   9
ATOM      9  C   UNL     1      -3.274   6.424  39.638  1.00  0.00     0.006 C 
BRANCH   9  10
ATOM     10  C   UNL     1      -2.021   5.536  39.756  1.00  0.00     0.053 C 
BRANCH  10  11
ATOM     11  C   UNL     1      -1.619   4.929  38.446  1.00  0.00     0.041 C 
ATOM     12  O   UNL     1      -0.774   3.995  38.412  1.00  0.00    -0.550 OA
ATOM     13  O   UNL     1      -2.204   5.368  37.265  1.00  0.00    -0.550 OA
ENDBRANCH  10  11
ENDBRANCH   9  10
ENDBRANCH   8   9
ENDBRANCH   1   8
TORSDOF 8
ENDMDL
MODEL 8
REMARK VINA RESULT:    -3.269      2.448      3.457
REMARK INTER + INTRA:          -5.595
REMARK INTER:                  -4.790
REMARK INTRA:                  -0.805
REMARK UNBOUND:                -0.798
REMARK SMILES O=C([O-])CCCCCCCC(=O)[O-]
REMARK SMILES IDX 7 1 6 2 5 3 4 4 2 5 1 6 3 7 8 8 9 9 10 10 11 11 12 12 13 13
REMARK H PARENT
REMARK Flexibility Score: inf
ROOT
ATOM      1  C   UNL     1      -2.184   8.000  38.893  1.00  0.00     0.000 C 
ENDROOT
BRANCH   1   2
ATOM      2  C   UNL     1      -2.942   7.786  40.216  1.00  0.00     0.000 C 
BRANCH   2   3
ATOM      3  C   UNL     1      -2.032   7.885  41.449  1.00  0.00     0.006 C 
BRANCH   3   4
ATOM      4  C   UNL     1      -0.598   7.467  41.107  1.00  0.00     0.053 C 
BRANCH   4   5
ATOM      5  C   UNL     1       0.374   8.510  41.560  1.00  0.00     0.041 C 
ATOM      6  O   UNL     1       1.167   8.268  42.507  1.00  0.00    -0.550 OA
ATOM      7  O   UNL     1       0.372   9.767  40.967  1.00  0.00    -0.550 OA
ENDBRANCH   4   5
ENDBRANCH   3   4
ENDBRANCH   2   3
ENDBRANCH   1   2
BRANCH   1   8
ATOM      8  C   UNL     1      -2.249   9.431  38.324  1.00  0.00     0.000 C 
BRANCH   8   9
ATOM      9  C   UNL     1      -0.942   9.954  37.700  1.00  0.00     0.006 C 
BRANCH   9  10
ATOM     10  C   UNL     1      -0.085   8.862  37.034  1.00  0.00     0.053 C 
BRANCH  10  11
ATOM     11  C   UNL     1       1.248   8.689  37.696  1.00  0.00     0.041 C 
ATOM     12  O   UNL     1       1.531   7.610  38.281  1.00  0.00    -0.550 OA
ATOM     13  O   UNL     1       2.193   9.706  37.635  1.00  0.00    -0.550 OA
ENDBRANCH  10  11
ENDBRANCH   9  10
ENDBRANCH   8   9
ENDBRANCH   1   8
TORSDOF 8
ENDMDL
MODEL 9
REMARK VINA RESULT:    -3.250      2.362      3.121
REMARK INTER + INTRA:          -5.568
REMARK INTER:                  -4.782
REMARK INTRA:                  -0.787
REMARK UNBOUND:                -0.798
REMARK SMILES O=C([O-])CCCCCCCC(=O)[O-]
REMARK SMILES IDX 7 1 6 2 5 3 4 4 2 5 1 6 3 7 8 8 9 9 10 10 11 11 12 12 13 13
REMARK H PARENT
REMARK Flexibility Score: inf
ROOT
ATOM      1  C   UNL     1      -2.635   8.615  38.988  1.00  0.00     0.000 C 
ENDROOT
BRANCH   1   2
ATOM      2  C   UNL     1      -2.876   7.721  40.218  1.00  0.00     0.000 C 
BRANCH   2   3
ATOM      3  C   UNL     1      -3.254   6.280  39.845  1.00  0.00     0.006 C 
BRANCH   3   4
ATOM      4  C   UNL     1      -2.461   5.804  38.623  1.00  0.00     0.053 C 
BRANCH   4   5
ATOM      5  C   UNL     1      -1.138   5.246  39.042  1.00  0.00     0.041 C 
ATOM      6  O   UNL     1      -1.085   4.238  39.795  1.00  0.00    -0.550 OA
ATOM      7  O   UNL     1       0.037   5.869  38.641  1.00  0.00    -0.550 OA
ENDBRANCH   4   5
ENDBRANCH   3   4
ENDBRANCH   2   3
ENDBRANCH   1   2
BRANCH   1   8
ATOM      8  C   UNL     1      -1.222   9.223  38.887  1.00  0.00     0.000 C 
BRANCH   8   9
ATOM      9  C   UNL     1      -0.772   9.617  37.466  1.00  0.00     0.006 C 
BRANCH   9  10
ATOM     10  C   UNL     1      -1.585   8.945  36.344  1.00  0.00     0.053 C 
BRANCH  10  11
ATOM     11  C   UNL     1      -0.918   7.717  35.804  1.00  0.00     0.041 C 
ATOM     12  O   UNL     1       0.338   7.617  35.822  1.00  0.00    -0.550 OA
ATOM     13  O   UNL     1      -1.683   6.665  35.315  1.00  0.00    -0.550 OA
ENDBRANCH  10  11
ENDBRANCH   9  10
ENDBRANCH   8   9
ENDBRANCH   1   8
TORSDOF 8
ENDMDL
