MODEL 1
REMARK VINA RESULT:    -4.380      0.000      0.000
REMARK INTER + INTRA:          -4.508
REMARK INTER:                  -4.508
REMARK INTRA:                   0.000
REMARK UNBOUND:                 0.000
REMARK SMILES Cc1cccc(O)c1C
REMARK SMILES IDX 1 1 2 2 8 3 6 4 5 5 4 6 3 7 9 8 7 9
REMARK H PARENT 7 10
REMARK Flexibility Score: inf
ROOT
ATOM      1  C   UNL     1      29.753  22.533  13.375  1.00  0.00     0.045 C 
ATOM      2  C   UNL     1      29.782  23.924  12.799  1.00  0.00    -0.045 A 
ATOM      3  C   UNL     1      28.586  24.624  12.491  1.00  0.00    -0.006 A 
ATOM      4  C   UNL     1      28.668  25.919  11.933  1.00  0.00     0.118 A 
ATOM      5  C   UNL     1      29.918  26.516  11.727  1.00  0.00     0.046 A 
ATOM      6  C   UNL     1      31.088  25.837  12.061  1.00  0.00     0.004 A 
ATOM      7  C   UNL     1      31.022  24.550  12.593  1.00  0.00     0.004 A 
ATOM      8  C   UNL     1      27.238  23.977  12.702  1.00  0.00     0.048 C 
ENDROOT
BRANCH   4   9
ATOM      9  O   UNL     1      27.509  26.612  11.581  1.00  0.00    -0.508 OA
ATOM     10  H   UNL     1      26.634  26.470  12.071  1.00  0.00     0.293 HD
ENDBRANCH   4   9
TORSDOF 1
ENDMDL
MODEL 2
REMARK VINA RESULT:    -4.256      1.254      2.640
REMARK INTER + INTRA:          -4.381
REMARK INTER:                  -4.381
REMARK INTRA:                   0.000
REMARK UNBOUND:                 0.000
REMARK SMILES Cc1cccc(O)c1C
REMARK SMILES IDX 1 1 2 2 8 3 6 4 5 5 4 6 3 7 9 8 7 9
REMARK H PARENT 7 10
REMARK Flexibility Score: inf
ROOT
ATOM      1  C   UNL     1      31.037  22.654  13.725  1.00  0.00     0.045 C 
ATOM      2  C   UNL     1      29.945  23.491  13.112  1.00  0.00    -0.045 A 
ATOM      3  C   UNL     1      30.210  24.387  12.044  1.00  0.00    -0.006 A 
ATOM      4  C   UNL     1      29.155  25.165  11.517  1.00  0.00     0.118 A 
ATOM      5  C   UNL     1      27.856  25.016  12.019  1.00  0.00     0.046 A 
ATOM      6  C   UNL     1      27.596  24.111  13.046  1.00  0.00     0.004 A 
ATOM      7  C   UNL     1      28.632  23.353  13.590  1.00  0.00     0.004 A 
ATOM      8  C   UNL     1      31.612  24.556  11.509  1.00  0.00     0.048 C 
ENDROOT
BRANCH   4   9
ATOM      9  O   UNL     1      29.396  26.085  10.496  1.00  0.00    -0.508 OA
ATOM     10  H   UNL     1      28.719  26.255   9.762  1.00  0.00     0.293 HD
ENDBRANCH   4   9
TORSDOF 1
ENDMDL
MODEL 3
REMARK VINA RESULT:    -4.217      0.917      2.604
REMARK INTER + INTRA:          -4.340
REMARK INTER:                  -4.340
REMARK INTRA:                   0.000
REMARK UNBOUND:                 0.000
REMARK SMILES Cc1cccc(O)c1C
REMARK SMILES IDX 1 1 2 2 8 3 6 4 5 5 4 6 3 7 9 8 7 9
REMARK H PARENT 7 10
REMARK Flexibility Score: inf
ROOT
ATOM      1  C   UNL     1      31.985  24.456  11.904  1.00  0.00     0.045 C 
ATOM      2  C   UNL     1      30.515  24.362  12.219  1.00  0.00    -0.045 A 
ATOM      3  C   UNL     1      29.578  25.269  11.660  1.00  0.00    -0.006 A 
ATOM      4  C   UNL     1      28.212  25.151  12.005  1.00  0.00     0.118 A 
ATOM      5  C   UNL     1      27.790  24.122  12.856  1.00  0.00     0.046 A 
ATOM      6  C   UNL     1      28.711  23.215  13.377  1.00  0.00     0.004 A 
ATOM      7  C   UNL     1      30.064  23.333  13.062  1.00  0.00     0.004 A 
ATOM      8  C   UNL     1      30.033  26.386  10.751  1.00  0.00     0.048 C 
ENDROOT
BRANCH   4   9
ATOM      9  O   UNL     1      27.276  26.055  11.503  1.00  0.00    -0.508 OA
ATOM     10  H   UNL     1      26.636  26.553  12.111  1.00  0.00     0.293 HD
ENDBRANCH   4   9
TORSDOF 1
ENDMDL
MODEL 4
REMARK VINA RESULT:    -4.082      1.662      2.615
REMARK INTER + INTRA:          -4.202
REMARK INTER:                  -4.202
REMARK INTRA:                   0.000
REMARK UNBOUND:                 0.000
REMARK SMILES Cc1cccc(O)c1C
REMARK SMILES IDX 1 1 2 2 8 3 6 4 5 5 4 6 3 7 9 8 7 9
REMARK H PARENT 7 10
REMARK Flexibility Score: inf
ROOT
ATOM      1  C   UNL     1      32.124  25.539  11.840  1.00  0.00     0.045 C 
ATOM      2  C   UNL     1      30.945  26.469  11.965  1.00  0.00    -0.045 A 
ATOM      3  C   UNL     1      29.620  26.021  11.730  1.00  0.00    -0.006 A 
ATOM      4  C   UNL     1      28.550  26.938  11.840  1.00  0.00     0.118 A 
ATOM      5  C   UNL     1      28.800  28.263  12.220  1.00  0.00     0.046 A 
ATOM      6  C   UNL     1      30.100  28.689  12.481  1.00  0.00     0.004 A 
ATOM      7  C   UNL     1      31.167  27.800  12.355  1.00  0.00     0.004 A 
ATOM      8  C   UNL     1      29.351  24.595  11.310  1.00  0.00     0.048 C 
ENDROOT
BRANCH   4   9
ATOM      9  O   UNL     1      27.242  26.534  11.572  1.00  0.00    -0.508 OA
ATOM     10  H   UNL     1      27.022  25.581  11.309  1.00  0.00     0.293 HD
ENDBRANCH   4   9
TORSDOF 1
ENDMDL
MODEL 5
REMARK VINA RESULT:    -4.071      1.596      2.886
REMARK INTER + INTRA:          -4.190
REMARK INTER:                  -4.190
REMARK INTRA:                   0.000
REMARK UNBOUND:                 0.000
REMARK SMILES Cc1cccc(O)c1C
REMARK SMILES IDX 1 1 2 2 8 3 6 4 5 5 4 6 3 7 9 8 7 9
REMARK H PARENT 7 10
REMARK Flexibility Score: inf
ROOT
ATOM      1  C   UNL     1      30.668  25.772  10.609  1.00  0.00     0.045 C 
ATOM      2  C   UNL     1      30.209  24.719  11.584  1.00  0.00    -0.045 A 
ATOM      3  C   UNL     1      28.942  24.797  12.216  1.00  0.00    -0.006 A 
ATOM      4  C   UNL     1      28.567  23.795  13.139  1.00  0.00     0.118 A 
ATOM      5  C   UNL     1      29.424  22.716  13.388  1.00  0.00     0.046 A 
ATOM      6  C   UNL     1      30.654  22.627  12.740  1.00  0.00     0.004 A 
ATOM      7  C   UNL     1      31.046  23.621  11.844  1.00  0.00     0.004 A 
ATOM      8  C   UNL     1      28.021  25.966  11.957  1.00  0.00     0.048 C 
ENDROOT
BRANCH   4   9
ATOM      9  O   UNL     1      27.344  23.870  13.807  1.00  0.00    -0.508 OA
ATOM     10  H   UNL     1      27.293  23.991  14.812  1.00  0.00     0.293 HD
ENDBRANCH   4   9
TORSDOF 1
ENDMDL
MODEL 6
REMARK VINA RESULT:    -3.947      2.072      2.953
REMARK INTER + INTRA:          -4.063
REMARK INTER:                  -4.063
REMARK INTRA:                   0.000
REMARK UNBOUND:                 0.000
REMARK SMILES Cc1cccc(O)c1C
REMARK SMILES IDX 1 1 2 2 8 3 6 4 5 5 4 6 3 7 9 8 7 9
REMARK H PARENT 7 10
REMARK Flexibility Score: inf
ROOT
ATOM      1  C   UNL     1      27.791  24.188  12.566  1.00  0.00     0.045 C 
ATOM      2  C   UNL     1      28.495  25.340  11.896  1.00  0.00    -0.045 A 
ATOM      3  C   UNL     1      29.715  25.158  11.196  1.00  0.00    -0.006 A 
ATOM      4  C   UNL     1      30.345  26.275  10.603  1.00  0.00     0.118 A 
ATOM      5  C   UNL     1      29.744  27.538  10.674  1.00  0.00     0.046 A 
ATOM      6  C   UNL     1      28.530  27.706  11.336  1.00  0.00     0.004 A 
ATOM      7  C   UNL     1      27.908  26.615  11.944  1.00  0.00     0.004 A 
ATOM      8  C   UNL     1      30.369  23.798  11.128  1.00  0.00     0.048 C 
ENDROOT
BRANCH   4   9
ATOM      9  O   UNL     1      31.567  26.131   9.945  1.00  0.00    -0.508 OA
ATOM     10  H   UNL     1      31.921  25.222   9.672  1.00  0.00     0.293 HD
ENDBRANCH   4   9
TORSDOF 1
ENDMDL
MODEL 7
REMARK VINA RESULT:    -3.925      2.028      3.841
REMARK INTER + INTRA:          -4.039
REMARK INTER:                  -4.039
REMARK INTRA:                   0.000
REMARK UNBOUND:                 0.000
REMARK SMILES Cc1cccc(O)c1C
REMARK SMILES IDX 1 1 2 2 8 3 6 4 5 5 4 6 3 7 9 8 7 9
REMARK H PARENT 7 10
REMARK Flexibility Score: inf
ROOT
ATOM      1  C   UNL     1      29.497  26.771  10.833  1.00  0.00     0.045 C 
ATOM      2  C   UNL     1      29.296  25.589  11.745  1.00  0.00    -0.045 A 
ATOM      3  C   UNL     1      30.396  24.874  12.286  1.00  0.00    -0.006 A 
ATOM      4  C   UNL     1      30.153  23.759  13.120  1.00  0.00     0.118 A 
ATOM      5  C   UNL     1      28.839  23.396  13.439  1.00  0.00     0.046 A 
ATOM      6  C   UNL     1      27.763  24.121  12.931  1.00  0.00     0.004 A 
ATOM      7  C   UNL     1      27.988  25.210  12.089  1.00  0.00     0.004 A 
ATOM      8  C   UNL     1      31.813  25.258  11.934  1.00  0.00     0.048 C 
ENDROOT
BRANCH   4   9
ATOM      9  O   UNL     1      31.216  23.014  13.631  1.00  0.00    -0.508 OA
ATOM     10  H   UNL     1      31.646  23.239  14.520  1.00  0.00     0.293 HD
ENDBRANCH   4   9
TORSDOF 1
ENDMDL
MODEL 8
REMARK VINA RESULT:    -3.898      1.691      3.003
REMARK INTER + INTRA:          -4.012
REMARK INTER:                  -4.012
REMARK INTRA:                   0.000
REMARK UNBOUND:                 0.000
REMARK SMILES Cc1cccc(O)c1C
REMARK SMILES IDX 1 1 2 2 8 3 6 4 5 5 4 6 3 7 9 8 7 9
REMARK H PARENT 7 10
REMARK Flexibility Score: inf
ROOT
ATOM      1  C   UNL     1      27.264  24.070  12.108  1.00  0.00     0.045 C 
ATOM      2  C   UNL     1      28.701  24.025  12.561  1.00  0.00    -0.045 A 
ATOM      3  C   UNL     1      29.617  25.053  12.222  1.00  0.00    -0.006 A 
ATOM      4  C   UNL     1      30.959  24.953  12.653  1.00  0.00     0.118 A 
ATOM      5  C   UNL     1      31.362  23.869  13.443  1.00  0.00     0.046 A 
ATOM      6  C   UNL     1      30.450  22.878  13.800  1.00  0.00     0.004 A 
ATOM      7  C   UNL     1      29.128  22.954  13.363  1.00  0.00     0.004 A 
ATOM      8  C   UNL     1      29.186  26.217  11.361  1.00  0.00     0.048 C 
ENDROOT
BRANCH   4   9
ATOM      9  O   UNL     1      31.891  25.929  12.298  1.00  0.00    -0.508 OA
ATOM     10  H   UNL     1      31.850  26.403  11.404  1.00  0.00     0.293 HD
ENDBRANCH   4   9
TORSDOF 1
ENDMDL
MODEL 9
REMARK VINA RESULT:    -3.875      1.237      2.944
REMARK INTER + INTRA:          -3.988
REMARK INTER:                  -3.988
REMARK INTRA:                   0.000
REMARK UNBOUND:                 0.000
REMARK SMILES Cc1cccc(O)c1C
REMARK SMILES IDX 1 1 2 2 8 3 6 4 5 5 4 6 3 7 9 8 7 9
REMARK H PARENT 7 10
REMARK Flexibility Score: inf
ROOT
ATOM      1  C   UNL     1      31.175  28.142  12.240  1.00  0.00     0.045 C 
ATOM      2  C   UNL     1      30.524  26.783  12.218  1.00  0.00    -0.045 A 
ATOM      3  C   UNL     1      29.160  26.621  11.861  1.00  0.00    -0.006 A 
ATOM      4  C   UNL     1      28.591  25.328  11.876  1.00  0.00     0.118 A 
ATOM      5  C   UNL     1      29.382  24.218  12.200  1.00  0.00     0.046 A 
ATOM      6  C   UNL     1      30.728  24.380  12.519  1.00  0.00     0.004 A 
ATOM      7  C   UNL     1      31.297  25.653  12.529  1.00  0.00     0.004 A 
ATOM      8  C   UNL     1      28.304  27.818  11.522  1.00  0.00     0.048 C 
ENDROOT
BRANCH   4   9
ATOM      9  O   UNL     1      27.242  25.145  11.571  1.00  0.00    -0.508 OA
ATOM     10  H   UNL     1      26.517  25.269  12.267  1.00  0.00     0.293 HD
ENDBRANCH   4   9
TORSDOF 1
ENDMDL
