MODEL 1
REMARK VINA RESULT:    -5.532      0.000      0.000
REMARK INTER + INTRA:          -6.412
REMARK INTER:                  -6.179
REMARK INTRA:                  -0.234
REMARK UNBOUND:                -0.234
REMARK SMILES COc1cc2c(cc1C(C)=O)C=CC(C)(C)O2
REMARK SMILES IDX 8 1 3 2 4 3 5 4 6 5 7 6 12 7 13 8 14 9 17 10 15 11 16 12
REMARK SMILES IDX 9 13 10 14 11 15 2 16 1 17
REMARK H PARENT
REMARK Flexibility Score: inf
ROOT
ATOM      1  C   UNL     1      30.438  23.198  25.815  1.00  0.00     0.060 A 
ATOM      2  C   UNL     1      30.873  21.905  26.202  1.00  0.00     0.133 A 
ATOM      3  C   UNL     1      29.965  21.031  26.834  1.00  0.00     0.094 A 
ATOM      4  C   UNL     1      28.654  21.433  27.089  1.00  0.00     0.131 A 
ATOM      5  C   UNL     1      28.232  22.715  26.736  1.00  0.00     0.017 A 
ATOM      6  C   UNL     1      29.118  23.595  26.106  1.00  0.00     0.027 A 
ATOM      7  C   UNL     1      26.860  23.127  27.074  1.00  0.00     0.012 C 
ATOM      8  C   UNL     1      25.999  22.255  27.607  1.00  0.00     0.021 C 
ATOM      9  C   UNL     1      26.345  20.786  27.771  1.00  0.00     0.122 C 
ATOM     10  O   UNL     1      27.763  20.563  27.726  1.00  0.00    -0.483 OA
ATOM     11  C   UNL     1      25.690  19.990  26.635  1.00  0.00     0.061 C 
ATOM     12  C   UNL     1      25.823  20.289  29.125  1.00  0.00     0.061 C 
ENDROOT
BRANCH   1  13
ATOM     13  C   UNL     1      31.334  24.164  25.126  1.00  0.00     0.163 C 
ATOM     14  C   UNL     1      32.342  24.993  25.865  1.00  0.00     0.093 C 
ATOM     15  O   UNL     1      31.253  24.298  23.875  1.00  0.00    -0.294 OA
ENDBRANCH   1  13
BRANCH   2  16
ATOM     16  O   UNL     1      32.206  21.526  25.971  1.00  0.00    -0.496 OA
ATOM     17  C   UNL     1      32.613  20.465  25.112  1.00  0.00     0.278 C 
ENDBRANCH   2  16
TORSDOF 2
ENDMDL
MODEL 2
REMARK VINA RESULT:    -5.448     11.924     14.918
REMARK INTER + INTRA:          -6.319
REMARK INTER:                  -6.064
REMARK INTRA:                  -0.255
REMARK UNBOUND:                -0.234
REMARK SMILES COc1cc2c(cc1C(C)=O)C=CC(C)(C)O2
REMARK SMILES IDX 8 1 3 2 4 3 5 4 6 5 7 6 12 7 13 8 14 9 17 10 15 11 16 12
REMARK SMILES IDX 9 13 10 14 11 15 2 16 1 17
REMARK H PARENT
REMARK Flexibility Score: inf
ROOT
ATOM      1  C   UNL     1      20.390  12.644  17.714  1.00  0.00     0.060 A 
ATOM      2  C   UNL     1      19.340  12.339  18.616  1.00  0.00     0.133 A 
ATOM      3  C   UNL     1      19.383  12.857  19.927  1.00  0.00     0.094 A 
ATOM      4  C   UNL     1      20.451  13.652  20.341  1.00  0.00     0.131 A 
ATOM      5  C   UNL     1      21.500  13.930  19.465  1.00  0.00     0.017 A 
ATOM      6  C   UNL     1      21.473  13.427  18.160  1.00  0.00     0.027 A 
ATOM      7  C   UNL     1      22.639  14.722  19.954  1.00  0.00     0.012 C 
ATOM      8  C   UNL     1      22.621  15.261  21.176  1.00  0.00     0.021 C 
ATOM      9  C   UNL     1      21.390  15.191  22.063  1.00  0.00     0.122 C 
ATOM     10  O   UNL     1      20.490  14.153  21.647  1.00  0.00    -0.483 OA
ATOM     11  C   UNL     1      20.650  16.534  21.994  1.00  0.00     0.061 C 
ATOM     12  C   UNL     1      21.819  14.906  23.507  1.00  0.00     0.061 C 
ENDROOT
BRANCH   1  13
ATOM     13  C   UNL     1      20.401  12.152  16.312  1.00  0.00     0.163 C 
ATOM     14  C   UNL     1      19.558  12.770  15.237  1.00  0.00     0.093 C 
ATOM     15  O   UNL     1      21.144  11.182  16.003  1.00  0.00    -0.294 OA
ENDBRANCH   1  13
BRANCH   2  16
ATOM     16  O   UNL     1      18.288  11.508  18.197  1.00  0.00    -0.496 OA
ATOM     17  C   UNL     1      16.977  11.958  17.867  1.00  0.00     0.278 C 
ENDBRANCH   2  16
TORSDOF 2
ENDMDL
MODEL 3
REMARK VINA RESULT:    -5.443      6.434      9.270
REMARK INTER + INTRA:          -6.313
REMARK INTER:                  -6.092
REMARK INTRA:                  -0.221
REMARK UNBOUND:                -0.234
REMARK SMILES COc1cc2c(cc1C(C)=O)C=CC(C)(C)O2
REMARK SMILES IDX 8 1 3 2 4 3 5 4 6 5 7 6 12 7 13 8 14 9 17 10 15 11 16 12
REMARK SMILES IDX 9 13 10 14 11 15 2 16 1 17
REMARK H PARENT
REMARK Flexibility Score: inf
ROOT
ATOM      1  C   UNL     1      30.745  14.246  24.893  1.00  0.00     0.060 A 
ATOM      2  C   UNL     1      30.982  15.525  25.456  1.00  0.00     0.133 A 
ATOM      3  C   UNL     1      31.388  16.584  24.619  1.00  0.00     0.094 A 
ATOM      4  C   UNL     1      31.567  16.379  23.251  1.00  0.00     0.131 A 
ATOM      5  C   UNL     1      31.362  15.114  22.699  1.00  0.00     0.017 A 
ATOM      6  C   UNL     1      30.958  14.052  23.514  1.00  0.00     0.027 A 
ATOM      7  C   UNL     1      31.619  14.919  21.263  1.00  0.00     0.012 C 
ATOM      8  C   UNL     1      31.932  15.954  20.480  1.00  0.00     0.021 C 
ATOM      9  C   UNL     1      31.916  17.383  20.996  1.00  0.00     0.122 C 
ATOM     10  O   UNL     1      31.980  17.433  22.430  1.00  0.00    -0.483 OA
ATOM     11  C   UNL     1      30.617  18.061  20.541  1.00  0.00     0.061 C 
ATOM     12  C   UNL     1      33.125  18.140  20.434  1.00  0.00     0.061 C 
ENDROOT
BRANCH   1  13
ATOM     13  C   UNL     1      30.295  13.089  25.711  1.00  0.00     0.163 C 
ATOM     14  C   UNL     1      31.249  12.246  26.503  1.00  0.00     0.093 C 
ATOM     15  O   UNL     1      29.068  12.799  25.749  1.00  0.00    -0.294 OA
ENDBRANCH   1  13
BRANCH   2  16
ATOM     16  O   UNL     1      30.832  15.710  26.841  1.00  0.00    -0.496 OA
ATOM     17  C   UNL     1      31.187  16.895  27.547  1.00  0.00     0.278 C 
ENDBRANCH   2  16
TORSDOF 2
ENDMDL
MODEL 4
REMARK VINA RESULT:    -5.418     11.613     13.065
REMARK INTER + INTRA:          -6.285
REMARK INTER:                  -6.028
REMARK INTRA:                  -0.257
REMARK UNBOUND:                -0.234
REMARK SMILES COc1cc2c(cc1C(C)=O)C=CC(C)(C)O2
REMARK SMILES IDX 8 1 3 2 4 3 5 4 6 5 7 6 12 7 13 8 14 9 17 10 15 11 16 12
REMARK SMILES IDX 9 13 10 14 11 15 2 16 1 17
REMARK H PARENT
REMARK Flexibility Score: inf
ROOT
ATOM      1  C   UNL     1      21.273  25.037  16.639  1.00  0.00     0.060 A 
ATOM      2  C   UNL     1      21.984  25.350  15.453  1.00  0.00     0.133 A 
ATOM      3  C   UNL     1      23.280  24.826  15.266  1.00  0.00     0.094 A 
ATOM      4  C   UNL     1      23.866  24.017  16.239  1.00  0.00     0.131 A 
ATOM      5  C   UNL     1      23.180  23.731  17.420  1.00  0.00     0.017 A 
ATOM      6  C   UNL     1      21.893  24.241  17.622  1.00  0.00     0.027 A 
ATOM      7  C   UNL     1      23.851  22.925  18.451  1.00  0.00     0.012 C 
ATOM      8  C   UNL     1      25.049  22.381  18.218  1.00  0.00     0.021 C 
ATOM      9  C   UNL     1      25.713  22.460  16.854  1.00  0.00     0.122 C 
ATOM     10  O   UNL     1      25.155  23.511  16.049  1.00  0.00    -0.483 OA
ATOM     11  C   UNL     1      25.510  21.126  16.124  1.00  0.00     0.061 C 
ATOM     12  C   UNL     1      27.211  22.734  17.033  1.00  0.00     0.061 C 
ENDROOT
BRANCH   1  13
ATOM     13  C   UNL     1      19.896  25.536  16.894  1.00  0.00     0.163 C 
ATOM     14  C   UNL     1      18.690  24.932  16.240  1.00  0.00     0.093 C 
ATOM     15  O   UNL     1      19.725  26.498  17.690  1.00  0.00    -0.294 OA
ENDBRANCH   1  13
BRANCH   2  16
ATOM     16  O   UNL     1      21.396  26.195  14.496  1.00  0.00    -0.496 OA
ATOM     17  C   UNL     1      20.865  25.764  13.247  1.00  0.00     0.278 C 
ENDBRANCH   2  16
TORSDOF 2
ENDMDL
MODEL 5
REMARK VINA RESULT:    -5.321     16.485     17.900
REMARK INTER + INTRA:          -6.177
REMARK INTER:                  -5.934
REMARK INTRA:                  -0.243
REMARK UNBOUND:                -0.234
REMARK SMILES COc1cc2c(cc1C(C)=O)C=CC(C)(C)O2
REMARK SMILES IDX 8 1 3 2 4 3 5 4 6 5 7 6 12 7 13 8 14 9 17 10 15 11 16 12
REMARK SMILES IDX 9 13 10 14 11 15 2 16 1 17
REMARK H PARENT
REMARK Flexibility Score: inf
ROOT
ATOM      1  C   UNL     1      18.413  25.078  15.118  1.00  0.00     0.060 A 
ATOM      2  C   UNL     1      19.204  24.675  14.012  1.00  0.00     0.133 A 
ATOM      3  C   UNL     1      18.569  24.287  12.814  1.00  0.00     0.094 A 
ATOM      4  C   UNL     1      17.178  24.287  12.716  1.00  0.00     0.131 A 
ATOM      5  C   UNL     1      16.397  24.655  13.812  1.00  0.00     0.017 A 
ATOM      6  C   UNL     1      17.009  25.044  15.008  1.00  0.00     0.027 A 
ATOM      7  C   UNL     1      14.932  24.585  13.692  1.00  0.00     0.012 C 
ATOM      8  C   UNL     1      14.357  24.285  12.524  1.00  0.00     0.021 C 
ATOM      9  C   UNL     1      15.168  24.127  11.250  1.00  0.00     0.122 C 
ATOM     10  O   UNL     1      16.557  23.891  11.527  1.00  0.00    -0.483 OA
ATOM     11  C   UNL     1      15.047  25.412  10.421  1.00  0.00     0.061 C 
ATOM     12  C   UNL     1      14.629  22.936  10.448  1.00  0.00     0.061 C 
ENDROOT
BRANCH   1  13
ATOM     13  C   UNL     1      19.013  25.519  16.405  1.00  0.00     0.163 C 
ATOM     14  C   UNL     1      18.975  24.671  17.641  1.00  0.00     0.093 C 
ATOM     15  O   UNL     1      19.579  26.644  16.469  1.00  0.00    -0.294 OA
ENDBRANCH   1  13
BRANCH   2  16
ATOM     16  O   UNL     1      20.603  24.647  14.136  1.00  0.00    -0.496 OA
ATOM     17  C   UNL     1      21.487  25.624  13.597  1.00  0.00     0.278 C 
ENDBRANCH   2  16
TORSDOF 2
ENDMDL
MODEL 6
REMARK VINA RESULT:    -5.315      4.159      6.098
REMARK INTER + INTRA:          -6.170
REMARK INTER:                  -5.978
REMARK INTRA:                  -0.193
REMARK UNBOUND:                -0.234
REMARK SMILES COc1cc2c(cc1C(C)=O)C=CC(C)(C)O2
REMARK SMILES IDX 8 1 3 2 4 3 5 4 6 5 7 6 12 7 13 8 14 9 17 10 15 11 16 12
REMARK SMILES IDX 9 13 10 14 11 15 2 16 1 17
REMARK H PARENT
REMARK Flexibility Score: inf
ROOT
ATOM      1  C   UNL     1      31.370  19.585  26.045  1.00  0.00     0.060 A 
ATOM      2  C   UNL     1      30.445  19.291  27.079  1.00  0.00     0.133 A 
ATOM      3  C   UNL     1      30.123  17.947  27.357  1.00  0.00     0.094 A 
ATOM      4  C   UNL     1      30.697  16.913  26.619  1.00  0.00     0.131 A 
ATOM      5  C   UNL     1      31.585  17.199  25.582  1.00  0.00     0.017 A 
ATOM      6  C   UNL     1      31.918  18.527  25.293  1.00  0.00     0.027 A 
ATOM      7  C   UNL     1      32.125  16.087  24.784  1.00  0.00     0.012 C 
ATOM      8  C   UNL     1      31.861  14.820  25.115  1.00  0.00     0.021 C 
ATOM      9  C   UNL     1      31.107  14.464  26.384  1.00  0.00     0.122 C 
ATOM     10  O   UNL     1      30.364  15.582  26.895  1.00  0.00    -0.483 OA
ATOM     11  C   UNL     1      32.113  14.019  27.453  1.00  0.00     0.061 C 
ATOM     12  C   UNL     1      30.122  13.327  26.089  1.00  0.00     0.061 C 
ENDROOT
BRANCH   1  13
ATOM     13  C   UNL     1      31.773  20.976  25.711  1.00  0.00     0.163 C 
ATOM     14  C   UNL     1      33.125  21.525  26.054  1.00  0.00     0.093 C 
ATOM     15  O   UNL     1      30.957  21.729  25.114  1.00  0.00    -0.294 OA
ENDBRANCH   1  13
BRANCH   2  16
ATOM     16  O   UNL     1      29.848  20.345  27.792  1.00  0.00    -0.496 OA
ATOM     17  C   UNL     1      28.772  20.195  28.714  1.00  0.00     0.278 C 
ENDBRANCH   2  16
TORSDOF 2
ENDMDL
MODEL 7
REMARK VINA RESULT:    -5.295     17.284     19.887
REMARK INTER + INTRA:          -6.148
REMARK INTER:                  -5.909
REMARK INTRA:                  -0.240
REMARK UNBOUND:                -0.234
REMARK SMILES COc1cc2c(cc1C(C)=O)C=CC(C)(C)O2
REMARK SMILES IDX 8 1 3 2 4 3 5 4 6 5 7 6 12 7 13 8 14 9 17 10 15 11 16 12
REMARK SMILES IDX 9 13 10 14 11 15 2 16 1 17
REMARK H PARENT
REMARK Flexibility Score: inf
ROOT
ATOM      1  C   UNL     1      18.461  12.673  15.049  1.00  0.00     0.060 A 
ATOM      2  C   UNL     1      17.518  13.094  16.021  1.00  0.00     0.133 A 
ATOM      3  C   UNL     1      16.231  13.495  15.607  1.00  0.00     0.094 A 
ATOM      4  C   UNL     1      15.888  13.491  14.255  1.00  0.00     0.131 A 
ATOM      5  C   UNL     1      16.823  13.104  13.295  1.00  0.00     0.017 A 
ATOM      6  C   UNL     1      18.104  12.702  13.687  1.00  0.00     0.027 A 
ATOM      7  C   UNL     1      16.446  13.169  11.874  1.00  0.00     0.012 C 
ATOM      8  C   UNL     1      15.198  13.483  11.513  1.00  0.00     0.021 C 
ATOM      9  C   UNL     1      14.090  13.662  12.536  1.00  0.00     0.122 C 
ATOM     10  O   UNL     1      14.612  13.899  13.853  1.00  0.00    -0.483 OA
ATOM     11  C   UNL     1      13.237  12.387  12.573  1.00  0.00     0.061 C 
ATOM     12  C   UNL     1      13.221  14.860  12.140  1.00  0.00     0.061 C 
ENDROOT
BRANCH   1  13
ATOM     13  C   UNL     1      19.828  12.217  15.414  1.00  0.00     0.163 C 
ATOM     14  C   UNL     1      21.052  13.031  15.117  1.00  0.00     0.093 C 
ATOM     15  O   UNL     1      19.975  11.110  15.998  1.00  0.00    -0.294 OA
ENDBRANCH   1  13
BRANCH   2  16
ATOM     16  O   UNL     1      17.889  13.128  17.376  1.00  0.00    -0.496 OA
ATOM     17  C   UNL     1      17.395  12.243  18.376  1.00  0.00     0.278 C 
ENDBRANCH   2  16
TORSDOF 2
ENDMDL
MODEL 8
REMARK VINA RESULT:    -5.273      2.964      5.789
REMARK INTER + INTRA:          -6.123
REMARK INTER:                  -5.918
REMARK INTRA:                  -0.205
REMARK UNBOUND:                -0.234
REMARK SMILES COc1cc2c(cc1C(C)=O)C=CC(C)(C)O2
REMARK SMILES IDX 8 1 3 2 4 3 5 4 6 5 7 6 12 7 13 8 14 9 17 10 15 11 16 12
REMARK SMILES IDX 9 13 10 14 11 15 2 16 1 17
REMARK H PARENT
REMARK Flexibility Score: inf
ROOT
ATOM      1  C   UNL     1      31.381  18.295  25.975  1.00  0.00     0.060 A 
ATOM      2  C   UNL     1      32.296  18.624  24.943  1.00  0.00     0.133 A 
ATOM      3  C   UNL     1      32.527  19.980  24.631  1.00  0.00     0.094 A 
ATOM      4  C   UNL     1      31.856  20.991  25.319  1.00  0.00     0.131 A 
ATOM      5  C   UNL     1      30.934  20.669  26.315  1.00  0.00     0.017 A 
ATOM      6  C   UNL     1      30.693  19.330  26.639  1.00  0.00     0.027 A 
ATOM      7  C   UNL     1      30.200  21.758  26.978  1.00  0.00     0.012 C 
ATOM      8  C   UNL     1      30.490  23.035  26.715  1.00  0.00     0.021 C 
ATOM      9  C   UNL     1      31.659  23.424  25.827  1.00  0.00     0.122 C 
ATOM     10  O   UNL     1      32.084  22.332  24.996  1.00  0.00    -0.483 OA
ATOM     11  C   UNL     1      32.837  23.849  26.713  1.00  0.00     0.061 C 
ATOM     12  C   UNL     1      31.243  24.586  24.918  1.00  0.00     0.061 C 
ENDROOT
BRANCH   1  13
ATOM     13  C   UNL     1      31.104  16.890  26.373  1.00  0.00     0.163 C 
ATOM     14  C   UNL     1      31.541  16.328  27.692  1.00  0.00     0.093 C 
ATOM     15  O   UNL     1      30.478  16.135  25.581  1.00  0.00    -0.294 OA
ENDBRANCH   1  13
BRANCH   2  16
ATOM     16  O   UNL     1      32.939  17.595  24.235  1.00  0.00    -0.496 OA
ATOM     17  C   UNL     1      32.905  17.439  22.819  1.00  0.00     0.278 C 
ENDBRANCH   2  16
TORSDOF 2
ENDMDL
MODEL 9
REMARK VINA RESULT:    -5.231      2.134      4.479
REMARK INTER + INTRA:          -6.076
REMARK INTER:                  -5.898
REMARK INTRA:                  -0.178
REMARK UNBOUND:                -0.234
REMARK SMILES COc1cc2c(cc1C(C)=O)C=CC(C)(C)O2
REMARK SMILES IDX 8 1 3 2 4 3 5 4 6 5 7 6 12 7 13 8 14 9 17 10 15 11 16 12
REMARK SMILES IDX 9 13 10 14 11 15 2 16 1 17
REMARK H PARENT
REMARK Flexibility Score: inf
ROOT
ATOM      1  C   UNL     1      30.759  23.183  25.358  1.00  0.00     0.060 A 
ATOM      2  C   UNL     1      29.527  22.721  25.887  1.00  0.00     0.133 A 
ATOM      3  C   UNL     1      29.338  21.339  26.091  1.00  0.00     0.094 A 
ATOM      4  C   UNL     1      30.345  20.430  25.768  1.00  0.00     0.131 A 
ATOM      5  C   UNL     1      31.547  20.879  25.221  1.00  0.00     0.017 A 
ATOM      6  C   UNL     1      31.753  22.247  25.013  1.00  0.00     0.027 A 
ATOM      7  C   UNL     1      32.564  19.887  24.836  1.00  0.00     0.012 C 
ATOM      8  C   UNL     1      32.389  18.591  25.108  1.00  0.00     0.021 C 
ATOM      9  C   UNL     1      31.210  18.096  25.927  1.00  0.00     0.122 C 
ATOM     10  O   UNL     1      30.145  19.059  25.965  1.00  0.00    -0.483 OA
ATOM     11  C   UNL     1      31.679  17.831  27.364  1.00  0.00     0.061 C 
ATOM     12  C   UNL     1      30.667  16.803  25.309  1.00  0.00     0.061 C 
ENDROOT
BRANCH   1  13
ATOM     13  C   UNL     1      31.037  24.626  25.136  1.00  0.00     0.163 C 
ATOM     14  C   UNL     1      32.020  25.393  25.969  1.00  0.00     0.093 C 
ATOM     15  O   UNL     1      30.431  25.238  24.214  1.00  0.00    -0.294 OA
ENDBRANCH   1  13
BRANCH   2  16
ATOM     16  O   UNL     1      28.508  23.645  26.175  1.00  0.00    -0.496 OA
ATOM     17  C   UNL     1      27.536  23.489  27.204  1.00  0.00     0.278 C 
ENDBRANCH   2  16
TORSDOF 2
ENDMDL
