MODEL 1
REMARK VINA RESULT:    -4.636      0.000      0.000
REMARK INTER + INTRA:          -5.307
REMARK INTER:                  -5.178
REMARK INTRA:                  -0.130
REMARK UNBOUND:                -0.130
REMARK SMILES O=C([O-])C=Cc1ccccc1
REMARK SMILES IDX 4 1 5 2 2 3 1 4 3 5 6 6 7 7 11 8 8 9 10 10 9 11
REMARK H PARENT
REMARK Flexibility Score: inf
ROOT
ATOM      1  C   UNL     1       7.650  10.923  14.055  1.00  0.00     0.025 C 
ATOM      2  C   UNL     1       7.532   9.733  14.667  1.00  0.00     0.010 C 
ENDROOT
BRANCH   1   3
ATOM      3  C   UNL     1       7.479  11.076  12.601  1.00  0.00     0.064 C 
ATOM      4  O   UNL     1       6.982  12.123  12.107  1.00  0.00    -0.545 OA
ATOM      5  O   UNL     1       7.875  10.047  11.756  1.00  0.00    -0.545 OA
ENDBRANCH   1   3
BRANCH   2   6
ATOM      6  C   UNL     1       7.693   9.510  16.129  1.00  0.00    -0.026 A 
ATOM      7  C   UNL     1       8.998   9.381  16.640  1.00  0.00     0.008 A 
ATOM      8  C   UNL     1       6.606   9.421  17.025  1.00  0.00     0.008 A 
ATOM      9  C   UNL     1       9.213   9.169  18.005  1.00  0.00     0.001 A 
ATOM     10  C   UNL     1       6.828   9.210  18.390  1.00  0.00     0.001 A 
ATOM     11  C   UNL     1       8.129   9.084  18.880  1.00  0.00     0.000 A 
ENDBRANCH   2   6
TORSDOF 2
ENDMDL
MODEL 2
REMARK VINA RESULT:    -4.615      8.644      9.447
REMARK INTER + INTRA:          -5.284
REMARK INTER:                  -5.139
REMARK INTRA:                  -0.145
REMARK UNBOUND:                -0.130
REMARK SMILES O=C([O-])C=Cc1ccccc1
REMARK SMILES IDX 4 1 5 2 2 3 1 4 3 5 6 6 7 7 11 8 8 9 10 10 9 11
REMARK H PARENT
REMARK Flexibility Score: inf
ROOT
ATOM      1  C   UNL     1       9.763   3.344  20.301  1.00  0.00     0.025 C 
ATOM      2  C   UNL     1       8.439   3.179  20.451  1.00  0.00     0.010 C 
ENDROOT
BRANCH   1   3
ATOM      3  C   UNL     1      10.611   3.884  21.377  1.00  0.00     0.064 C 
ATOM      4  O   UNL     1      10.379   5.011  21.890  1.00  0.00    -0.545 OA
ATOM      5  O   UNL     1      11.687   3.135  21.837  1.00  0.00    -0.545 OA
ENDBRANCH   1   3
BRANCH   2   6
ATOM      6  C   UNL     1       7.527   2.642  19.405  1.00  0.00    -0.026 A 
ATOM      7  C   UNL     1       8.031   2.490  18.099  1.00  0.00     0.008 A 
ATOM      8  C   UNL     1       6.186   2.278  19.657  1.00  0.00     0.008 A 
ATOM      9  C   UNL     1       7.222   1.991  17.075  1.00  0.00     0.001 A 
ATOM     10  C   UNL     1       5.382   1.778  18.627  1.00  0.00     0.001 A 
ATOM     11  C   UNL     1       5.898   1.635  17.338  1.00  0.00     0.000 A 
ENDBRANCH   2   6
TORSDOF 2
ENDMDL
MODEL 3
REMARK VINA RESULT:    -4.569      4.660      6.174
REMARK INTER + INTRA:          -5.233
REMARK INTER:                  -5.090
REMARK INTRA:                  -0.143
REMARK UNBOUND:                -0.130
REMARK SMILES O=C([O-])C=Cc1ccccc1
REMARK SMILES IDX 4 1 5 2 2 3 1 4 3 5 6 6 7 7 11 8 8 9 10 10 9 11
REMARK H PARENT
REMARK Flexibility Score: inf
ROOT
ATOM      1  C   UNL     1       7.919  10.129  20.367  1.00  0.00     0.025 C 
ATOM      2  C   UNL     1       8.595   9.742  19.274  1.00  0.00     0.010 C 
ENDROOT
BRANCH   1   3
ATOM      3  C   UNL     1       8.576  10.298  21.675  1.00  0.00     0.064 C 
ATOM      4  O   UNL     1       9.066  11.405  22.023  1.00  0.00    -0.545 OA
ATOM      5  O   UNL     1       8.654   9.216  22.543  1.00  0.00    -0.545 OA
ENDBRANCH   1   3
BRANCH   2   6
ATOM      6  C   UNL     1       7.993   9.552  17.926  1.00  0.00    -0.026 A 
ATOM      7  C   UNL     1       6.607   9.319  17.847  1.00  0.00     0.008 A 
ATOM      8  C   UNL     1       8.740   9.592  16.729  1.00  0.00     0.008 A 
ATOM      9  C   UNL     1       5.984   9.132  16.609  1.00  0.00     0.001 A 
ATOM     10  C   UNL     1       8.110   9.404  15.494  1.00  0.00     0.001 A 
ATOM     11  C   UNL     1       6.735   9.175  15.433  1.00  0.00     0.000 A 
ENDBRANCH   2   6
TORSDOF 2
ENDMDL
MODEL 4
REMARK VINA RESULT:    -4.568      4.645      5.994
REMARK INTER + INTRA:          -5.232
REMARK INTER:                  -5.102
REMARK INTRA:                  -0.129
REMARK UNBOUND:                -0.130
REMARK SMILES O=C([O-])C=Cc1ccccc1
REMARK SMILES IDX 4 1 5 2 2 3 1 4 3 5 6 6 7 7 11 8 8 9 10 10 9 11
REMARK H PARENT
REMARK Flexibility Score: inf
ROOT
ATOM      1  C   UNL     1       7.940  10.189  20.334  1.00  0.00     0.025 C 
ATOM      2  C   UNL     1       8.535   9.650  19.259  1.00  0.00     0.010 C 
ENDROOT
BRANCH   1   3
ATOM      3  C   UNL     1       8.626  10.310  21.631  1.00  0.00     0.064 C 
ATOM      4  O   UNL     1       9.220  11.371  21.961  1.00  0.00    -0.545 OA
ATOM      5  O   UNL     1       8.618   9.234  22.510  1.00  0.00    -0.545 OA
ENDBRANCH   1   3
BRANCH   2   6
ATOM      6  C   UNL     1       7.898   9.497  17.923  1.00  0.00    -0.026 A 
ATOM      7  C   UNL     1       8.721   9.580  16.783  1.00  0.00     0.008 A 
ATOM      8  C   UNL     1       6.516   9.276  17.742  1.00  0.00     0.008 A 
ATOM      9  C   UNL     1       8.181   9.445  15.501  1.00  0.00     0.001 A 
ATOM     10  C   UNL     1       5.982   9.142  16.456  1.00  0.00     0.001 A 
ATOM     11  C   UNL     1       6.812   9.226  15.337  1.00  0.00     0.000 A 
ENDBRANCH   2   6
TORSDOF 2
ENDMDL
MODEL 5
REMARK VINA RESULT:    -4.561      9.058     10.005
REMARK INTER + INTRA:          -5.224
REMARK INTER:                  -5.084
REMARK INTRA:                  -0.140
REMARK UNBOUND:                -0.130
REMARK SMILES O=C([O-])C=Cc1ccccc1
REMARK SMILES IDX 4 1 5 2 2 3 1 4 3 5 6 6 7 7 11 8 8 9 10 10 9 11
REMARK H PARENT
REMARK Flexibility Score: inf
ROOT
ATOM      1  C   UNL     1      13.098   7.757   7.643  1.00  0.00     0.025 C 
ATOM      2  C   UNL     1      13.854   8.850   7.448  1.00  0.00     0.010 C 
ENDROOT
BRANCH   1   3
ATOM      3  C   UNL     1      12.749   6.840   6.545  1.00  0.00     0.064 C 
ATOM      4  O   UNL     1      11.626   6.899   5.976  1.00  0.00    -0.545 OA
ATOM      5  O   UNL     1      13.675   5.893   6.128  1.00  0.00    -0.545 OA
ENDBRANCH   1   3
BRANCH   2   6
ATOM      6  C   UNL     1      14.241   9.815   8.511  1.00  0.00    -0.026 A 
ATOM      7  C   UNL     1      14.467   9.317   9.808  1.00  0.00     0.008 A 
ATOM      8  C   UNL     1      14.392  11.201   8.285  1.00  0.00     0.008 A 
ATOM      9  C   UNL     1      14.833  10.176  10.849  1.00  0.00     0.001 A 
ATOM     10  C   UNL     1      14.758  12.054   9.331  1.00  0.00     0.001 A 
ATOM     11  C   UNL     1      14.978  11.544  10.611  1.00  0.00     0.000 A 
ENDBRANCH   2   6
TORSDOF 2
ENDMDL
MODEL 6
REMARK VINA RESULT:    -4.555      8.507      9.450
REMARK INTER + INTRA:          -5.217
REMARK INTER:                  -5.086
REMARK INTRA:                  -0.132
REMARK UNBOUND:                -0.130
REMARK SMILES O=C([O-])C=Cc1ccccc1
REMARK SMILES IDX 4 1 5 2 2 3 1 4 3 5 6 6 7 7 11 8 8 9 10 10 9 11
REMARK H PARENT
REMARK Flexibility Score: inf
ROOT
ATOM      1  C   UNL     1       9.820   3.473  20.270  1.00  0.00     0.025 C 
ATOM      2  C   UNL     1       8.481   3.398  20.319  1.00  0.00     0.010 C 
ENDROOT
BRANCH   1   3
ATOM      3  C   UNL     1      10.610   4.104  21.340  1.00  0.00     0.064 C 
ATOM      4  O   UNL     1      11.657   3.564  21.786  1.00  0.00    -0.545 OA
ATOM      5  O   UNL     1      10.193   5.319  21.869  1.00  0.00    -0.545 OA
ENDBRANCH   1   3
BRANCH   2   6
ATOM      6  C   UNL     1       7.625   2.776  19.273  1.00  0.00    -0.026 A 
ATOM      7  C   UNL     1       6.312   2.407  19.622  1.00  0.00     0.008 A 
ATOM      8  C   UNL     1       8.064   2.538  17.952  1.00  0.00     0.008 A 
ATOM      9  C   UNL     1       5.462   1.819  18.682  1.00  0.00     0.001 A 
ATOM     10  C   UNL     1       7.207   1.949  17.016  1.00  0.00     0.001 A 
ATOM     11  C   UNL     1       5.908   1.589  17.380  1.00  0.00     0.000 A 
ENDBRANCH   2   6
TORSDOF 2
ENDMDL
MODEL 7
REMARK VINA RESULT:    -4.312      9.138     11.334
REMARK INTER + INTRA:          -4.945
REMARK INTER:                  -4.814
REMARK INTRA:                  -0.131
REMARK UNBOUND:                -0.130
REMARK SMILES O=C([O-])C=Cc1ccccc1
REMARK SMILES IDX 4 1 5 2 2 3 1 4 3 5 6 6 7 7 11 8 8 9 10 10 9 11
REMARK H PARENT
REMARK Flexibility Score: inf
ROOT
ATOM      1  C   UNL     1      14.641  10.326   8.858  1.00  0.00     0.025 C 
ATOM      2  C   UNL     1      14.207   9.099   8.526  1.00  0.00     0.010 C 
ENDROOT
BRANCH   1   3
ATOM      3  C   UNL     1      14.689  10.787  10.256  1.00  0.00     0.064 C 
ATOM      4  O   UNL     1      14.516  12.000  10.550  1.00  0.00    -0.545 OA
ATOM      5  O   UNL     1      14.928   9.869  11.269  1.00  0.00    -0.545 OA
ENDBRANCH   1   3
BRANCH   2   6
ATOM      6  C   UNL     1      14.132   8.572   7.137  1.00  0.00    -0.026 A 
ATOM      7  C   UNL     1      14.309   7.189   6.942  1.00  0.00     0.008 A 
ATOM      8  C   UNL     1      13.894   9.387   6.009  1.00  0.00     0.008 A 
ATOM      9  C   UNL     1      14.251   6.635   5.660  1.00  0.00     0.001 A 
ATOM     10  C   UNL     1      13.837   8.826   4.728  1.00  0.00     0.001 A 
ATOM     11  C   UNL     1      14.014   7.453   4.553  1.00  0.00     0.000 A 
ENDBRANCH   2   6
TORSDOF 2
ENDMDL
MODEL 8
REMARK VINA RESULT:    -4.303      9.279     10.681
REMARK INTER + INTRA:          -4.936
REMARK INTER:                  -4.810
REMARK INTRA:                  -0.126
REMARK UNBOUND:                -0.130
REMARK SMILES O=C([O-])C=Cc1ccccc1
REMARK SMILES IDX 4 1 5 2 2 3 1 4 3 5 6 6 7 7 11 8 8 9 10 10 9 11
REMARK H PARENT
REMARK Flexibility Score: inf
ROOT
ATOM      1  C   UNL     1      14.548  10.417   8.971  1.00  0.00     0.025 C 
ATOM      2  C   UNL     1      14.241   9.122   9.146  1.00  0.00     0.010 C 
ENDROOT
BRANCH   1   3
ATOM      3  C   UNL     1      14.819  11.318  10.104  1.00  0.00     0.064 C 
ATOM      4  O   UNL     1      13.912  12.042  10.596  1.00  0.00    -0.545 OA
ATOM      5  O   UNL     1      16.098  11.371  10.642  1.00  0.00    -0.545 OA
ENDBRANCH   1   3
BRANCH   2   6
ATOM      6  C   UNL     1      13.955   8.161   8.047  1.00  0.00    -0.026 A 
ATOM      7  C   UNL     1      12.620   7.763   7.845  1.00  0.00     0.008 A 
ATOM      8  C   UNL     1      14.953   7.629   7.201  1.00  0.00     0.008 A 
ATOM      9  C   UNL     1      12.290   6.861   6.829  1.00  0.00     0.001 A 
ATOM     10  C   UNL     1      14.615   6.727   6.186  1.00  0.00     0.001 A 
ATOM     11  C   UNL     1      13.286   6.344   6.000  1.00  0.00     0.000 A 
ENDBRANCH   2   6
TORSDOF 2
ENDMDL
MODEL 9
REMARK VINA RESULT:    -4.287      7.998      8.763
REMARK INTER + INTRA:          -4.917
REMARK INTER:                  -4.780
REMARK INTRA:                  -0.137
REMARK UNBOUND:                -0.130
REMARK SMILES O=C([O-])C=Cc1ccccc1
REMARK SMILES IDX 4 1 5 2 2 3 1 4 3 5 6 6 7 7 11 8 8 9 10 10 9 11
REMARK H PARENT
REMARK Flexibility Score: inf
ROOT
ATOM      1  C   UNL     1       7.674   2.344  18.262  1.00  0.00     0.025 C 
ATOM      2  C   UNL     1       7.599   2.563  19.585  1.00  0.00     0.010 C 
ENDROOT
BRANCH   1   3
ATOM      3  C   UNL     1       6.492   1.990  17.459  1.00  0.00     0.064 C 
ATOM      4  O   UNL     1       6.355   0.837  16.969  1.00  0.00    -0.545 OA
ATOM      5  O   UNL     1       5.508   2.944  17.237  1.00  0.00    -0.545 OA
ENDBRANCH   1   3
BRANCH   2   6
ATOM      6  C   UNL     1       8.753   2.922  20.452  1.00  0.00    -0.026 A 
ATOM      7  C   UNL     1       9.661   3.889  19.981  1.00  0.00     0.008 A 
ATOM      8  C   UNL     1       8.982   2.343  21.720  1.00  0.00     0.008 A 
ATOM      9  C   UNL     1      10.765   4.268  20.751  1.00  0.00     0.001 A 
ATOM     10  C   UNL     1      10.089   2.727  22.485  1.00  0.00     0.001 A 
ATOM     11  C   UNL     1      10.979   3.687  22.002  1.00  0.00     0.000 A 
ENDBRANCH   2   6
TORSDOF 2
ENDMDL
