MODEL 1
REMARK VINA RESULT:    -4.625      0.000      0.000
REMARK INTER + INTRA:          -7.351
REMARK INTER:                  -7.059
REMARK INTRA:                  -0.292
REMARK UNBOUND:                -0.292
REMARK SMILES O=C([O-])CCCCCCCCC(=O)[O-]
REMARK SMILES IDX 7 1 6 2 5 3 4 4 2 5 1 6 3 7 8 8 9 9 10 10 11 11 12 12 13 13
REMARK SMILES IDX 14 14
REMARK H PARENT
REMARK Flexibility Score: inf
ROOT
ATOM      1  C   UNL     1      11.432   7.547  11.565  1.00  0.00     0.000 C 
ENDROOT
BRANCH   1   2
ATOM      2  C   UNL     1      12.024   6.897  10.303  1.00  0.00     0.000 C 
BRANCH   2   3
ATOM      3  C   UNL     1      11.990   5.361  10.360  1.00  0.00     0.006 C 
BRANCH   3   4
ATOM      4  C   UNL     1      13.217   4.768  11.065  1.00  0.00     0.053 C 
BRANCH   4   5
ATOM      5  C   UNL     1      13.025   3.302  11.298  1.00  0.00     0.041 C 
ATOM      6  O   UNL     1      12.657   2.552  10.356  1.00  0.00    -0.550 OA
ATOM      7  O   UNL     1      13.302   2.755  12.545  1.00  0.00    -0.550 OA
ENDBRANCH   4   5
ENDBRANCH   3   4
ENDBRANCH   2   3
ENDBRANCH   1   2
BRANCH   1   8
ATOM      8  C   UNL     1      11.428   9.082  11.491  1.00  0.00     0.000 C 
BRANCH   8   9
ATOM      9  C   UNL     1      12.120   9.618  10.225  1.00  0.00     0.000 C 
BRANCH   9  10
ATOM     10  C   UNL     1      12.657  11.047  10.405  1.00  0.00     0.006 C 
BRANCH  10  11
ATOM     11  C   UNL     1      12.610  11.860   9.105  1.00  0.00     0.053 C 
BRANCH  11  12
ATOM     12  C   UNL     1      12.264  13.287   9.394  1.00  0.00     0.041 C 
ATOM     13  O   UNL     1      12.773  14.214   8.711  1.00  0.00    -0.550 OA
ATOM     14  O   UNL     1      11.417  13.595  10.451  1.00  0.00    -0.550 OA
ENDBRANCH  11  12
ENDBRANCH  10  11
ENDBRANCH   9  10
ENDBRANCH   8   9
ENDBRANCH   1   8
TORSDOF 9
ENDMDL
MODEL 2
REMARK VINA RESULT:    -4.620      0.380      8.214
REMARK INTER + INTRA:          -7.342
REMARK INTER:                  -7.045
REMARK INTRA:                  -0.297
REMARK UNBOUND:                -0.292
REMARK SMILES O=C([O-])CCCCCCCCC(=O)[O-]
REMARK SMILES IDX 7 1 6 2 5 3 4 4 2 5 1 6 3 7 8 8 9 9 10 10 11 11 12 12 13 13
REMARK SMILES IDX 14 14
REMARK H PARENT
REMARK Flexibility Score: inf
ROOT
ATOM      1  C   UNL     1      11.410   8.648  11.685  1.00  0.00     0.000 C 
ENDROOT
BRANCH   1   2
ATOM      2  C   UNL     1      11.942   9.324  10.410  1.00  0.00     0.000 C 
BRANCH   2   3
ATOM      3  C   UNL     1      12.373  10.780  10.651  1.00  0.00     0.006 C 
BRANCH   3   4
ATOM      4  C   UNL     1      12.689  11.527   9.348  1.00  0.00     0.053 C 
BRANCH   4   5
ATOM      5  C   UNL     1      12.324  12.973   9.475  1.00  0.00     0.041 C 
ATOM      6  O   UNL     1      11.563  13.357  10.401  1.00  0.00    -0.550 OA
ATOM      7  O   UNL     1      12.865  13.905   8.598  1.00  0.00    -0.550 OA
ENDBRANCH   4   5
ENDBRANCH   3   4
ENDBRANCH   2   3
ENDBRANCH   1   2
BRANCH   1   8
ATOM      8  C   UNL     1      11.314   7.120  11.546  1.00  0.00     0.000 C 
BRANCH   8   9
ATOM      9  C   UNL     1      12.078   6.586  10.321  1.00  0.00     0.000 C 
BRANCH   9  10
ATOM     10  C   UNL     1      12.114   5.051  10.271  1.00  0.00     0.006 C 
BRANCH  10  11
ATOM     11  C   UNL     1      13.179   4.456  11.201  1.00  0.00     0.053 C 
BRANCH  11  12
ATOM     12  C   UNL     1      13.018   2.972  11.299  1.00  0.00     0.041 C 
ATOM     13  O   UNL     1      13.326   2.369  12.360  1.00  0.00    -0.550 OA
ATOM     14  O   UNL     1      12.574   2.248  10.200  1.00  0.00    -0.550 OA
ENDBRANCH  11  12
ENDBRANCH  10  11
ENDBRANCH   9  10
ENDBRANCH   8   9
ENDBRANCH   1   8
TORSDOF 9
ENDMDL
MODEL 3
REMARK VINA RESULT:    -4.588      2.183      2.658
REMARK INTER + INTRA:          -7.294
REMARK INTER:                  -6.910
REMARK INTRA:                  -0.384
REMARK UNBOUND:                -0.292
REMARK SMILES O=C([O-])CCCCCCCCC(=O)[O-]
REMARK SMILES IDX 7 1 6 2 5 3 4 4 2 5 1 6 3 7 8 8 9 9 10 10 11 11 12 12 13 13
REMARK SMILES IDX 14 14
REMARK H PARENT
REMARK Flexibility Score: inf
ROOT
ATOM      1  C   UNL     1      11.347   7.093  11.831  1.00  0.00     0.000 C 
ENDROOT
BRANCH   1   2
ATOM      2  C   UNL     1      11.885   6.489  10.523  1.00  0.00     0.000 C 
BRANCH   2   3
ATOM      3  C   UNL     1      11.355   5.069  10.268  1.00  0.00     0.006 C 
BRANCH   3   4
ATOM      4  C   UNL     1       9.861   4.928  10.587  1.00  0.00     0.053 C 
BRANCH   4   5
ATOM      5  C   UNL     1       9.139   4.300   9.436  1.00  0.00     0.041 C 
ATOM      6  O   UNL     1       9.592   4.412   8.266  1.00  0.00    -0.550 OA
ATOM      7  O   UNL     1       7.993   3.549   9.661  1.00  0.00    -0.550 OA
ENDBRANCH   4   5
ENDBRANCH   3   4
ENDBRANCH   2   3
ENDBRANCH   1   2
BRANCH   1   8
ATOM      8  C   UNL     1      11.274   8.628  11.785  1.00  0.00     0.000 C 
BRANCH   8   9
ATOM      9  C   UNL     1      11.925   9.216  10.520  1.00  0.00     0.000 C 
BRANCH   9  10
ATOM     10  C   UNL     1      12.343  10.684  10.698  1.00  0.00     0.006 C 
BRANCH  10  11
ATOM     11  C   UNL     1      12.785  11.335   9.381  1.00  0.00     0.053 C 
BRANCH  11  12
ATOM     12  C   UNL     1      12.400  12.780   9.357  1.00  0.00     0.041 C 
ATOM     13  O   UNL     1      11.800  13.292  10.339  1.00  0.00    -0.550 OA
ATOM     14  O   UNL     1      12.659  13.550   8.231  1.00  0.00    -0.550 OA
ENDBRANCH  11  12
ENDBRANCH  10  11
ENDBRANCH   9  10
ENDBRANCH   8   9
ENDBRANCH   1   8
TORSDOF 9
ENDMDL
MODEL 4
REMARK VINA RESULT:    -4.585      1.689      7.670
REMARK INTER + INTRA:          -7.289
REMARK INTER:                  -6.922
REMARK INTRA:                  -0.367
REMARK UNBOUND:                -0.292
REMARK SMILES O=C([O-])CCCCCCCCC(=O)[O-]
REMARK SMILES IDX 7 1 6 2 5 3 4 4 2 5 1 6 3 7 8 8 9 9 10 10 11 11 12 12 13 13
REMARK SMILES IDX 14 14
REMARK H PARENT
REMARK Flexibility Score: inf
ROOT
ATOM      1  C   UNL     1      11.325   8.966  11.669  1.00  0.00     0.000 C 
ENDROOT
BRANCH   1   2
ATOM      2  C   UNL     1      12.020   9.459  10.389  1.00  0.00     0.000 C 
BRANCH   2   3
ATOM      3  C   UNL     1      12.430  10.939  10.475  1.00  0.00     0.006 C 
BRANCH   3   4
ATOM      4  C   UNL     1      13.030  11.463   9.163  1.00  0.00     0.053 C 
BRANCH   4   5
ATOM      5  C   UNL     1      12.546  12.852   8.887  1.00  0.00     0.041 C 
ATOM      6  O   UNL     1      12.742  13.380   7.761  1.00  0.00    -0.550 OA
ATOM      7  O   UNL     1      11.834  13.546   9.858  1.00  0.00    -0.550 OA
ENDBRANCH   4   5
ENDBRANCH   3   4
ENDBRANCH   2   3
ENDBRANCH   1   2
BRANCH   1   8
ATOM      8  C   UNL     1      11.292   7.432  11.768  1.00  0.00     0.000 C 
BRANCH   8   9
ATOM      9  C   UNL     1      12.004   6.746  10.589  1.00  0.00     0.000 C 
BRANCH   9  10
ATOM     10  C   UNL     1      12.383   5.288  10.894  1.00  0.00     0.006 C 
BRANCH  10  11
ATOM     11  C   UNL     1      11.881   4.312   9.822  1.00  0.00     0.053 C 
BRANCH  11  12
ATOM     12  C   UNL     1      10.389   4.370   9.720  1.00  0.00     0.041 C 
ATOM     13  O   UNL     1       9.680   4.278  10.756  1.00  0.00    -0.550 OA
ATOM     14  O   UNL     1       9.781   4.475   8.476  1.00  0.00    -0.550 OA
ENDBRANCH  11  12
ENDBRANCH  10  11
ENDBRANCH   9  10
ENDBRANCH   8   9
ENDBRANCH   1   8
TORSDOF 9
ENDMDL
MODEL 5
REMARK VINA RESULT:    -4.518      1.404      8.119
REMARK INTER + INTRA:          -7.187
REMARK INTER:                  -6.892
REMARK INTRA:                  -0.295
REMARK UNBOUND:                -0.292
REMARK SMILES O=C([O-])CCCCCCCCC(=O)[O-]
REMARK SMILES IDX 7 1 6 2 5 3 4 4 2 5 1 6 3 7 8 8 9 9 10 10 11 11 12 12 13 13
REMARK SMILES IDX 14 14
REMARK H PARENT
REMARK Flexibility Score: inf
ROOT
ATOM      1  C   UNL     1      12.039   9.409  10.449  1.00  0.00     0.000 C 
ENDROOT
BRANCH   1   2
ATOM      2  C   UNL     1      12.607  10.817  10.697  1.00  0.00     0.000 C 
BRANCH   2   3
ATOM      3  C   UNL     1      12.481  11.728   9.465  1.00  0.00     0.006 C 
BRANCH   3   4
ATOM      4  C   UNL     1      12.109  13.171   9.832  1.00  0.00     0.053 C 
BRANCH   4   5
ATOM      5  C   UNL     1      12.778  14.134   8.903  1.00  0.00     0.041 C 
ATOM      6  O   UNL     1      12.512  14.117   7.672  1.00  0.00    -0.550 OA
ATOM      7  O   UNL     1      13.659  15.085   9.403  1.00  0.00    -0.550 OA
ENDBRANCH   4   5
ENDBRANCH   3   4
ENDBRANCH   2   3
ENDBRANCH   1   2
BRANCH   1   8
ATOM      8  C   UNL     1      11.323   8.838  11.684  1.00  0.00     0.000 C 
BRANCH   8   9
ATOM      9  C   UNL     1      11.332   7.299  11.717  1.00  0.00     0.000 C 
BRANCH   9  10
ATOM     10  C   UNL     1      11.953   6.685  10.452  1.00  0.00     0.006 C 
BRANCH  10  11
ATOM     11  C   UNL     1      12.437   5.246  10.673  1.00  0.00     0.053 C 
BRANCH  11  12
ATOM     12  C   UNL     1      11.656   4.296   9.821  1.00  0.00     0.041 C 
ATOM     13  O   UNL     1      12.080   3.128   9.622  1.00  0.00    -0.550 OA
ATOM     14  O   UNL     1      10.484   4.717   9.206  1.00  0.00    -0.550 OA
ENDBRANCH  11  12
ENDBRANCH  10  11
ENDBRANCH   9  10
ENDBRANCH   8   9
ENDBRANCH   1   8
TORSDOF 9
ENDMDL
MODEL 6
REMARK VINA RESULT:    -4.515      2.508      7.659
REMARK INTER + INTRA:          -7.182
REMARK INTER:                  -6.756
REMARK INTRA:                  -0.426
REMARK UNBOUND:                -0.292
REMARK SMILES O=C([O-])CCCCCCCCC(=O)[O-]
REMARK SMILES IDX 7 1 6 2 5 3 4 4 2 5 1 6 3 7 8 8 9 9 10 10 11 11 12 12 13 13
REMARK SMILES IDX 14 14
REMARK H PARENT
REMARK Flexibility Score: inf
ROOT
ATOM      1  C   UNL     1      12.048   7.292  10.329  1.00  0.00     0.000 C 
ENDROOT
BRANCH   1   2
ATOM      2  C   UNL     1      11.446   8.070  11.512  1.00  0.00     0.000 C 
BRANCH   2   3
ATOM      3  C   UNL     1      11.449   9.590  11.281  1.00  0.00     0.006 C 
BRANCH   3   4
ATOM      4  C   UNL     1      12.385  10.013  10.141  1.00  0.00     0.053 C 
BRANCH   4   5
ATOM      5  C   UNL     1      12.468  11.505  10.061  1.00  0.00     0.041 C 
ATOM      6  O   UNL     1      12.423  12.084   8.944  1.00  0.00    -0.550 OA
ATOM      7  O   UNL     1      12.545  12.259  11.225  1.00  0.00    -0.550 OA
ENDBRANCH   4   5
ENDBRANCH   3   4
ENDBRANCH   2   3
ENDBRANCH   1   2
BRANCH   1   8
ATOM      8  C   UNL     1      11.915   5.770  10.497  1.00  0.00     0.000 C 
BRANCH   8   9
ATOM      9  C   UNL     1      10.661   5.366  11.291  1.00  0.00     0.000 C 
BRANCH   9  10
ATOM     10  C   UNL     1       9.596   4.693  10.411  1.00  0.00     0.006 C 
BRANCH  10  11
ATOM     11  C   UNL     1      10.098   4.415   8.988  1.00  0.00     0.053 C 
BRANCH  11  12
ATOM     12  C   UNL     1       9.100   3.595   8.233  1.00  0.00     0.041 C 
ATOM     13  O   UNL     1       8.182   4.158   7.580  1.00  0.00    -0.550 OA
ATOM     14  O   UNL     1       9.153   2.209   8.291  1.00  0.00    -0.550 OA
ENDBRANCH  11  12
ENDBRANCH  10  11
ENDBRANCH   9  10
ENDBRANCH   8   9
ENDBRANCH   1   8
TORSDOF 9
ENDMDL
MODEL 7
REMARK VINA RESULT:    -4.479      1.299      1.925
REMARK INTER + INTRA:          -7.128
REMARK INTER:                  -6.702
REMARK INTRA:                  -0.426
REMARK UNBOUND:                -0.292
REMARK SMILES O=C([O-])CCCCCCCCC(=O)[O-]
REMARK SMILES IDX 7 1 6 2 5 3 4 4 2 5 1 6 3 7 8 8 9 9 10 10 11 11 12 12 13 13
REMARK SMILES IDX 14 14
REMARK H PARENT
REMARK Flexibility Score: inf
ROOT
ATOM      1  C   UNL     1      11.583   8.662  11.596  1.00  0.00     0.000 C 
ENDROOT
BRANCH   1   2
ATOM      2  C   UNL     1      11.343   7.145  11.519  1.00  0.00     0.000 C 
BRANCH   2   3
ATOM      3  C   UNL     1      12.013   6.504  10.293  1.00  0.00     0.006 C 
BRANCH   3   4
ATOM      4  C   UNL     1      12.685   5.163  10.619  1.00  0.00     0.053 C 
BRANCH   4   5
ATOM      5  C   UNL     1      11.932   4.035   9.985  1.00  0.00     0.041 C 
ATOM      6  O   UNL     1      10.887   4.264   9.321  1.00  0.00    -0.550 OA
ATOM      7  O   UNL     1      12.412   2.736  10.087  1.00  0.00    -0.550 OA
ENDBRANCH   4   5
ENDBRANCH   3   4
ENDBRANCH   2   3
ENDBRANCH   1   2
BRANCH   1   8
ATOM      8  C   UNL     1      12.016   9.259  10.247  1.00  0.00     0.000 C 
BRANCH   8   9
ATOM      9  C   UNL     1      12.421  10.740  10.355  1.00  0.00     0.000 C 
BRANCH   9  10
ATOM     10  C   UNL     1      11.965  11.381  11.676  1.00  0.00     0.006 C 
BRANCH  10  11
ATOM     11  C   UNL     1      12.359  12.861  11.778  1.00  0.00     0.053 C 
BRANCH  11  12
ATOM     12  C   UNL     1      11.560  13.681  10.815  1.00  0.00     0.041 C 
ATOM     13  O   UNL     1      10.338  13.896  11.027  1.00  0.00    -0.550 OA
ATOM     14  O   UNL     1      12.153  14.166   9.656  1.00  0.00    -0.550 OA
ENDBRANCH  11  12
ENDBRANCH  10  11
ENDBRANCH   9  10
ENDBRANCH   8   9
ENDBRANCH   1   8
TORSDOF 9
ENDMDL
MODEL 8
REMARK VINA RESULT:    -4.433      1.686      7.482
REMARK INTER + INTRA:          -7.058
REMARK INTER:                  -6.479
REMARK INTRA:                  -0.579
REMARK UNBOUND:                -0.292
REMARK SMILES O=C([O-])CCCCCCCCC(=O)[O-]
REMARK SMILES IDX 7 1 6 2 5 3 4 4 2 5 1 6 3 7 8 8 9 9 10 10 11 11 12 12 13 13
REMARK SMILES IDX 14 14
REMARK H PARENT
REMARK Flexibility Score: inf
ROOT
ATOM      1  C   UNL     1      11.007   7.025  12.810  1.00  0.00     0.000 C 
ENDROOT
BRANCH   1   2
ATOM      2  C   UNL     1      11.371   7.550  11.411  1.00  0.00     0.000 C 
BRANCH   2   3
ATOM      3  C   UNL     1      11.517   9.080  11.376  1.00  0.00     0.006 C 
BRANCH   3   4
ATOM      4  C   UNL     1      12.192   9.581  10.092  1.00  0.00     0.053 C 
BRANCH   4   5
ATOM      5  C   UNL     1      12.418  11.059  10.164  1.00  0.00     0.041 C 
ATOM      6  O   UNL     1      12.613  11.617  11.275  1.00  0.00    -0.550 OA
ATOM      7  O   UNL     1      12.462  11.813   8.998  1.00  0.00    -0.550 OA
ENDBRANCH   4   5
ENDBRANCH   3   4
ENDBRANCH   2   3
ENDBRANCH   1   2
BRANCH   1   8
ATOM      8  C   UNL     1      10.134   5.761  12.756  1.00  0.00     0.000 C 
BRANCH   8   9
ATOM      9  C   UNL     1      10.102   5.120  11.357  1.00  0.00     0.000 C 
BRANCH   9  10
ATOM     10  C   UNL     1      10.479   3.631  11.380  1.00  0.00     0.006 C 
BRANCH  10  11
ATOM     11  C   UNL     1      11.764   3.336  10.595  1.00  0.00     0.053 C 
BRANCH  11  12
ATOM     12  C   UNL     1      12.968   3.641  11.430  1.00  0.00     0.041 C 
ATOM     13  O   UNL     1      13.304   2.867  12.365  1.00  0.00    -0.550 OA
ATOM     14  O   UNL     1      13.689   4.807  11.209  1.00  0.00    -0.550 OA
ENDBRANCH  11  12
ENDBRANCH  10  11
ENDBRANCH   9  10
ENDBRANCH   8   9
ENDBRANCH   1   8
TORSDOF 9
ENDMDL
MODEL 9
REMARK VINA RESULT:    -4.335      2.015      7.594
REMARK INTER + INTRA:          -6.907
REMARK INTER:                  -6.404
REMARK INTRA:                  -0.503
REMARK UNBOUND:                -0.292
REMARK SMILES O=C([O-])CCCCCCCCC(=O)[O-]
REMARK SMILES IDX 7 1 6 2 5 3 4 4 2 5 1 6 3 7 8 8 9 9 10 10 11 11 12 12 13 13
REMARK SMILES IDX 14 14
REMARK H PARENT
REMARK Flexibility Score: inf
ROOT
ATOM      1  C   UNL     1      12.055   9.383  10.273  1.00  0.00     0.000 C 
ENDROOT
BRANCH   1   2
ATOM      2  C   UNL     1      12.434  10.873  10.245  1.00  0.00     0.000 C 
BRANCH   2   3
ATOM      3  C   UNL     1      12.287  11.544  11.620  1.00  0.00     0.006 C 
BRANCH   3   4
ATOM      4  C   UNL     1      11.330  12.743  11.595  1.00  0.00     0.053 C 
BRANCH   4   5
ATOM      5  C   UNL     1      10.147  12.485  12.474  1.00  0.00     0.041 C 
ATOM      6  O   UNL     1       9.014  12.936  12.161  1.00  0.00    -0.550 OA
ATOM      7  O   UNL     1      10.285  11.702  13.613  1.00  0.00    -0.550 OA
ENDBRANCH   4   5
ENDBRANCH   3   4
ENDBRANCH   2   3
ENDBRANCH   1   2
BRANCH   1   8
ATOM      8  C   UNL     1      11.354   8.978  11.580  1.00  0.00     0.000 C 
BRANCH   8   9
ATOM      9  C   UNL     1      11.388   7.459  11.826  1.00  0.00     0.000 C 
BRANCH   9  10
ATOM     10  C   UNL     1      11.958   6.679  10.630  1.00  0.00     0.006 C 
BRANCH  10  11
ATOM     11  C   UNL     1      11.139   5.424  10.302  1.00  0.00     0.053 C 
BRANCH  11  12
ATOM     12  C   UNL     1      12.018   4.214  10.298  1.00  0.00     0.041 C 
ATOM     13  O   UNL     1      11.875   3.329   9.414  1.00  0.00    -0.550 OA
ATOM     14  O   UNL     1      12.962   4.038  11.301  1.00  0.00    -0.550 OA
ENDBRANCH  11  12
ENDBRANCH  10  11
ENDBRANCH   9  10
ENDBRANCH   8   9
ENDBRANCH   1   8
TORSDOF 9
ENDMDL
