MODEL 1
REMARK VINA RESULT:    14.166      0.000      0.000
REMARK INTER + INTRA:          23.609
REMARK INTER:                  24.103
REMARK INTRA:                  -0.495
REMARK UNBOUND:                -0.495
REMARK SMILES CCCCCCCCCCCCCC(=O)[O-]
REMARK SMILES IDX 8 1 9 2 10 3 11 4 12 5 13 6 14 7 15 8 16 9 7 10 6 11 5 12
REMARK SMILES IDX 4 13 3 14 2 15 1 16
REMARK H PARENT
REMARK Flexibility Score: inf
ROOT
ATOM      1  C   UNL     1      56.368  47.993  20.835  1.00  0.00     0.000 C 
ENDROOT
BRANCH   1   2
ATOM      2  C   UNL     1      56.566  46.576  21.398  1.00  0.00     0.000 C 
BRANCH   2   3
ATOM      3  C   UNL     1      55.854  45.499  20.559  1.00  0.00     0.000 C 
BRANCH   3   4
ATOM      4  C   UNL     1      56.526  44.122  20.674  1.00  0.00     0.000 C 
BRANCH   4   5
ATOM      5  C   UNL     1      55.565  42.968  20.350  1.00  0.00     0.006 C 
BRANCH   5   6
ATOM      6  C   UNL     1      55.660  41.863  21.407  1.00  0.00     0.053 C 
BRANCH   6   7
ATOM      7  C   UNL     1      55.169  40.563  20.852  1.00  0.00     0.041 C 
ATOM      8  O   UNL     1      53.984  40.456  20.443  1.00  0.00    -0.550 OA
ATOM      9  O   UNL     1      56.006  39.454  20.835  1.00  0.00    -0.550 OA
ENDBRANCH   6   7
ENDBRANCH   5   6
ENDBRANCH   4   5
ENDBRANCH   3   4
ENDBRANCH   2   3
ENDBRANCH   1   2
BRANCH   1  10
ATOM     10  C   UNL     1      55.978  47.987  19.346  1.00  0.00     0.000 C 
BRANCH  10  11
ATOM     11  C   UNL     1      57.197  47.863  18.418  1.00  0.00    -0.000 C 
BRANCH  11  12
ATOM     12  C   UNL     1      56.905  48.356  16.990  1.00  0.00    -0.000 C 
BRANCH  12  13
ATOM     13  C   UNL     1      55.655  49.250  16.919  1.00  0.00    -0.000 C 
BRANCH  13  14
ATOM     14  C   UNL     1      55.798  50.393  15.903  1.00  0.00    -0.000 C 
BRANCH  14  15
ATOM     15  C   UNL     1      54.652  50.368  14.885  1.00  0.00    -0.003 C 
ATOM     16  C   UNL     1      53.352  49.889  15.529  1.00  0.00     0.004 C 
ENDBRANCH  14  15
ENDBRANCH  13  14
ENDBRANCH  12  13
ENDBRANCH  11  12
ENDBRANCH  10  11
ENDBRANCH   1  10
TORSDOF 12
ENDMDL
MODEL 2
REMARK VINA RESULT:    14.531      4.213      8.428
REMARK INTER + INTRA:          24.231
REMARK INTER:                  24.821
REMARK INTRA:                  -0.590
REMARK UNBOUND:                -0.495
REMARK SMILES CCCCCCCCCCCCCC(=O)[O-]
REMARK SMILES IDX 8 1 9 2 10 3 11 4 12 5 13 6 14 7 15 8 16 9 7 10 6 11 5 12
REMARK SMILES IDX 4 13 3 14 2 15 1 16
REMARK H PARENT
REMARK Flexibility Score: inf
ROOT
ATOM      1  C   UNL     1      56.332  46.104  21.195  1.00  0.00     0.000 C 
ENDROOT
BRANCH   1   2
ATOM      2  C   UNL     1      56.442  47.559  20.713  1.00  0.00     0.000 C 
BRANCH   2   3
ATOM      3  C   UNL     1      55.949  47.744  19.266  1.00  0.00     0.000 C 
BRANCH   3   4
ATOM      4  C   UNL     1      57.083  47.622  18.236  1.00  0.00     0.000 C 
BRANCH   4   5
ATOM      5  C   UNL     1      56.949  48.633  17.088  1.00  0.00     0.006 C 
BRANCH   5   6
ATOM      6  C   UNL     1      55.497  49.096  16.931  1.00  0.00     0.053 C 
BRANCH   6   7
ATOM      7  C   UNL     1      55.389  50.128  15.853  1.00  0.00     0.041 C 
ATOM      8  O   UNL     1      56.259  51.031  15.751  1.00  0.00    -0.550 OA
ATOM      9  O   UNL     1      54.298  50.121  14.992  1.00  0.00    -0.550 OA
ENDBRANCH   6   7
ENDBRANCH   5   6
ENDBRANCH   4   5
ENDBRANCH   3   4
ENDBRANCH   2   3
ENDBRANCH   1   2
BRANCH   1  10
ATOM     10  C   UNL     1      55.503  45.227  20.239  1.00  0.00     0.000 C 
BRANCH  10  11
ATOM     11  C   UNL     1      56.221  43.921  19.865  1.00  0.00    -0.000 C 
BRANCH  11  12
ATOM     12  C   UNL     1      56.153  42.867  20.984  1.00  0.00    -0.000 C 
BRANCH  12  13
ATOM     13  C   UNL     1      54.887  41.999  20.901  1.00  0.00    -0.000 C 
BRANCH  13  14
ATOM     14  C   UNL     1      55.130  40.548  21.344  1.00  0.00    -0.000 C 
BRANCH  14  15
ATOM     15  C   UNL     1      56.177  39.871  20.452  1.00  0.00    -0.003 C 
ATOM     16  C   UNL     1      56.828  38.689  21.166  1.00  0.00     0.004 C 
ENDBRANCH  14  15
ENDBRANCH  13  14
ENDBRANCH  12  13
ENDBRANCH  11  12
ENDBRANCH  10  11
ENDBRANCH   1  10
TORSDOF 12
ENDMDL
MODEL 3
REMARK VINA RESULT:    15.639      1.202      1.939
REMARK INTER + INTRA:          26.115
REMARK INTER:                  26.267
REMARK INTRA:                  -0.152
REMARK UNBOUND:                -0.495
REMARK SMILES CCCCCCCCCCCCCC(=O)[O-]
REMARK SMILES IDX 8 1 9 2 10 3 11 4 12 5 13 6 14 7 15 8 16 9 7 10 6 11 5 12
REMARK SMILES IDX 4 13 3 14 2 15 1 16
REMARK H PARENT
REMARK Flexibility Score: inf
ROOT
ATOM      1  C   UNL     1      55.577  45.961  20.496  1.00  0.00     0.000 C 
ENDROOT
BRANCH   1   2
ATOM      2  C   UNL     1      56.369  44.689  20.841  1.00  0.00     0.000 C 
BRANCH   2   3
ATOM      3  C   UNL     1      55.692  43.409  20.320  1.00  0.00     0.000 C 
BRANCH   3   4
ATOM      4  C   UNL     1      56.176  42.147  21.051  1.00  0.00     0.000 C 
BRANCH   4   5
ATOM      5  C   UNL     1      55.033  41.170  21.363  1.00  0.00     0.006 C 
BRANCH   5   6
ATOM      6  C   UNL     1      55.206  39.858  20.591  1.00  0.00     0.053 C 
BRANCH   6   7
ATOM      7  C   UNL     1      56.437  39.140  21.045  1.00  0.00     0.041 C 
ATOM      8  O   UNL     1      57.568  39.483  20.610  1.00  0.00    -0.550 OA
ATOM      9  O   UNL     1      56.331  38.059  21.911  1.00  0.00    -0.550 OA
ENDBRANCH   6   7
ENDBRANCH   5   6
ENDBRANCH   4   5
ENDBRANCH   3   4
ENDBRANCH   2   3
ENDBRANCH   1   2
BRANCH   1  10
ATOM     10  C   UNL     1      56.483  47.194  20.330  1.00  0.00     0.000 C 
BRANCH  10  11
ATOM     11  C   UNL     1      56.133  48.019  19.081  1.00  0.00    -0.000 C 
BRANCH  11  12
ATOM     12  C   UNL     1      57.280  48.050  18.055  1.00  0.00    -0.000 C 
BRANCH  12  13
ATOM     13  C   UNL     1      56.858  48.685  16.719  1.00  0.00    -0.000 C 
BRANCH  13  14
ATOM     14  C   UNL     1      55.374  49.078  16.689  1.00  0.00    -0.000 C 
BRANCH  14  15
ATOM     15  C   UNL     1      55.192  50.490  16.119  1.00  0.00    -0.003 C 
ATOM     16  C   UNL     1      54.306  50.473  14.875  1.00  0.00     0.004 C 
ENDBRANCH  14  15
ENDBRANCH  13  14
ENDBRANCH  12  13
ENDBRANCH  11  12
ENDBRANCH  10  11
ENDBRANCH   1  10
TORSDOF 12
ENDMDL
MODEL 4
REMARK VINA RESULT:    15.763      1.438      2.107
REMARK INTER + INTRA:          26.327
REMARK INTER:                  27.023
REMARK INTRA:                  -0.696
REMARK UNBOUND:                -0.495
REMARK SMILES CCCCCCCCCCCCCC(=O)[O-]
REMARK SMILES IDX 8 1 9 2 10 3 11 4 12 5 13 6 14 7 15 8 16 9 7 10 6 11 5 12
REMARK SMILES IDX 4 13 3 14 2 15 1 16
REMARK H PARENT
REMARK Flexibility Score: inf
ROOT
ATOM      1  C   UNL     1      56.128  47.264  20.446  1.00  0.00     0.000 C 
ENDROOT
BRANCH   1   2
ATOM      2  C   UNL     1      56.624  48.004  21.699  1.00  0.00     0.000 C 
BRANCH   2   3
ATOM      3  C   UNL     1      56.810  47.067  22.907  1.00  0.00     0.000 C 
BRANCH   3   4
ATOM      4  C   UNL     1      57.714  45.866  22.589  1.00  0.00     0.000 C 
BRANCH   4   5
ATOM      5  C   UNL     1      56.950  44.533  22.600  1.00  0.00     0.006 C 
BRANCH   5   6
ATOM      6  C   UNL     1      57.222  43.734  21.323  1.00  0.00     0.053 C 
BRANCH   6   7
ATOM      7  C   UNL     1      55.943  43.221  20.742  1.00  0.00     0.041 C 
ATOM      8  O   UNL     1      55.550  42.054  21.004  1.00  0.00    -0.550 OA
ATOM      9  O   UNL     1      55.209  44.015  19.869  1.00  0.00    -0.550 OA
ENDBRANCH   6   7
ENDBRANCH   5   6
ENDBRANCH   4   5
ENDBRANCH   3   4
ENDBRANCH   2   3
ENDBRANCH   1   2
BRANCH   1  10
ATOM     10  C   UNL     1      56.095  48.168  19.201  1.00  0.00     0.000 C 
BRANCH  10  11
ATOM     11  C   UNL     1      57.145  47.767  18.152  1.00  0.00    -0.000 C 
BRANCH  11  12
ATOM     12  C   UNL     1      57.017  48.575  16.849  1.00  0.00    -0.000 C 
BRANCH  12  13
ATOM     13  C   UNL     1      55.698  49.362  16.771  1.00  0.00    -0.000 C 
BRANCH  13  14
ATOM     14  C   UNL     1      55.752  50.513  15.755  1.00  0.00    -0.000 C 
BRANCH  14  15
ATOM     15  C   UNL     1      54.484  50.542  14.892  1.00  0.00    -0.003 C 
ATOM     16  C   UNL     1      53.382  49.681  15.503  1.00  0.00     0.004 C 
ENDBRANCH  14  15
ENDBRANCH  13  14
ENDBRANCH  12  13
ENDBRANCH  11  12
ENDBRANCH  10  11
ENDBRANCH   1  10
TORSDOF 12
ENDMDL
MODEL 5
REMARK VINA RESULT:    15.937      2.671      2.993
REMARK INTER + INTRA:          26.622
REMARK INTER:                  27.471
REMARK INTRA:                  -0.849
REMARK UNBOUND:                -0.495
REMARK SMILES CCCCCCCCCCCCCC(=O)[O-]
REMARK SMILES IDX 8 1 9 2 10 3 11 4 12 5 13 6 14 7 15 8 16 9 7 10 6 11 5 12
REMARK SMILES IDX 4 13 3 14 2 15 1 16
REMARK H PARENT
REMARK Flexibility Score: inf
ROOT
ATOM      1  C   UNL     1      56.225  47.667  20.714  1.00  0.00     0.000 C 
ENDROOT
BRANCH   1   2
ATOM      2  C   UNL     1      56.411  46.157  20.936  1.00  0.00     0.000 C 
BRANCH   2   3
ATOM      3  C   UNL     1      55.612  45.307  19.931  1.00  0.00     0.000 C 
BRANCH   3   4
ATOM      4  C   UNL     1      56.037  43.830  19.938  1.00  0.00     0.000 C 
BRANCH   4   5
ATOM      5  C   UNL     1      57.275  43.568  19.068  1.00  0.00     0.006 C 
BRANCH   5   6
ATOM      6  C   UNL     1      57.158  44.281  17.717  1.00  0.00     0.053 C 
BRANCH   6   7
ATOM      7  C   UNL     1      57.860  43.503  16.650  1.00  0.00     0.041 C 
ATOM      8  O   UNL     1      57.244  43.157  15.608  1.00  0.00    -0.550 OA
ATOM      9  O   UNL     1      59.183  43.116  16.829  1.00  0.00    -0.550 OA
ENDBRANCH   6   7
ENDBRANCH   5   6
ENDBRANCH   4   5
ENDBRANCH   3   4
ENDBRANCH   2   3
ENDBRANCH   1   2
BRANCH   1  10
ATOM     10  C   UNL     1      55.988  48.021  19.236  1.00  0.00     0.000 C 
BRANCH  10  11
ATOM     11  C   UNL     1      57.239  47.803  18.369  1.00  0.00    -0.000 C 
BRANCH  11  12
ATOM     12  C   UNL     1      57.125  48.472  16.988  1.00  0.00    -0.000 C 
BRANCH  12  13
ATOM     13  C   UNL     1      55.833  49.292  16.835  1.00  0.00    -0.000 C 
BRANCH  13  14
ATOM     14  C   UNL     1      55.939  50.372  15.748  1.00  0.00    -0.000 C 
BRANCH  14  15
ATOM     15  C   UNL     1      54.590  50.581  15.050  1.00  0.00    -0.003 C 
ATOM     16  C   UNL     1      53.563  49.552  15.515  1.00  0.00     0.004 C 
ENDBRANCH  14  15
ENDBRANCH  13  14
ENDBRANCH  12  13
ENDBRANCH  11  12
ENDBRANCH  10  11
ENDBRANCH   1  10
TORSDOF 12
ENDMDL
MODEL 6
REMARK VINA RESULT:    16.166     16.082     18.033
REMARK INTER + INTRA:          27.012
REMARK INTER:                  26.937
REMARK INTRA:                   0.075
REMARK UNBOUND:                -0.495
REMARK SMILES CCCCCCCCCCCCCC(=O)[O-]
REMARK SMILES IDX 8 1 9 2 10 3 11 4 12 5 13 6 14 7 15 8 16 9 7 10 6 11 5 12
REMARK SMILES IDX 4 13 3 14 2 15 1 16
REMARK H PARENT
REMARK Flexibility Score: inf
ROOT
ATOM      1  C   UNL     1      49.325  40.908  32.885  1.00  0.00     0.000 C 
ENDROOT
BRANCH   1   2
ATOM      2  C   UNL     1      48.093  40.945  31.966  1.00  0.00     0.000 C 
BRANCH   2   3
ATOM      3  C   UNL     1      46.768  40.925  32.750  1.00  0.00     0.000 C 
BRANCH   3   4
ATOM      4  C   UNL     1      45.824  39.806  32.282  1.00  0.00     0.000 C 
BRANCH   4   5
ATOM      5  C   UNL     1      44.528  39.744  33.106  1.00  0.00     0.006 C 
BRANCH   5   6
ATOM      6  C   UNL     1      43.314  39.514  32.201  1.00  0.00     0.053 C 
BRANCH   6   7
ATOM      7  C   UNL     1      42.506  40.768  32.079  1.00  0.00     0.041 C 
ATOM      8  O   UNL     1      43.069  41.861  31.814  1.00  0.00    -0.550 OA
ATOM      9  O   UNL     1      41.136  40.736  32.307  1.00  0.00    -0.550 OA
ENDBRANCH   6   7
ENDBRANCH   5   6
ENDBRANCH   4   5
ENDBRANCH   3   4
ENDBRANCH   2   3
ENDBRANCH   1   2
BRANCH   1  10
ATOM     10  C   UNL     1      49.504  39.545  33.577  1.00  0.00     0.000 C 
BRANCH  10  11
ATOM     11  C   UNL     1      50.272  39.653  34.904  1.00  0.00    -0.000 C 
BRANCH  11  12
ATOM     12  C   UNL     1      51.331  40.769  34.884  1.00  0.00    -0.000 C 
BRANCH  12  13
ATOM     13  C   UNL     1      50.714  42.171  35.028  1.00  0.00    -0.000 C 
BRANCH  13  14
ATOM     14  C   UNL     1      51.773  43.280  35.124  1.00  0.00    -0.000 C 
BRANCH  14  15
ATOM     15  C   UNL     1      51.116  44.665  35.125  1.00  0.00    -0.003 C 
ATOM     16  C   UNL     1      51.109  45.273  33.724  1.00  0.00     0.004 C 
ENDBRANCH  14  15
ENDBRANCH  13  14
ENDBRANCH  12  13
ENDBRANCH  11  12
ENDBRANCH  10  11
ENDBRANCH   1  10
TORSDOF 12
ENDMDL
MODEL 7
REMARK VINA RESULT:    16.911      6.751      8.400
REMARK INTER + INTRA:          28.279
REMARK INTER:                  28.246
REMARK INTRA:                   0.033
REMARK UNBOUND:                -0.495
REMARK SMILES CCCCCCCCCCCCCC(=O)[O-]
REMARK SMILES IDX 8 1 9 2 10 3 11 4 12 5 13 6 14 7 15 8 16 9 7 10 6 11 5 12
REMARK SMILES IDX 4 13 3 14 2 15 1 16
REMARK H PARENT
REMARK Flexibility Score: inf
ROOT
ATOM      1  C   UNL     1      54.100  52.801  20.978  1.00  0.00     0.000 C 
ENDROOT
BRANCH   1   2
ATOM      2  C   UNL     1      55.288  51.826  20.962  1.00  0.00     0.000 C 
BRANCH   2   3
ATOM      3  C   UNL     1      54.917  50.448  20.385  1.00  0.00     0.000 C 
BRANCH   3   4
ATOM      4  C   UNL     1      55.886  49.341  20.828  1.00  0.00     0.000 C 
BRANCH   4   5
ATOM      5  C   UNL     1      55.645  48.015  20.092  1.00  0.00     0.006 C 
BRANCH   5   6
ATOM      6  C   UNL     1      56.567  46.915  20.628  1.00  0.00     0.053 C 
BRANCH   6   7
ATOM      7  C   UNL     1      57.174  47.327  21.931  1.00  0.00     0.041 C 
ATOM      8  O   UNL     1      56.469  47.368  22.974  1.00  0.00    -0.550 OA
ATOM      9  O   UNL     1      58.507  47.715  21.985  1.00  0.00    -0.550 OA
ENDBRANCH   6   7
ENDBRANCH   5   6
ENDBRANCH   4   5
ENDBRANCH   3   4
ENDBRANCH   2   3
ENDBRANCH   1   2
BRANCH   1  10
ATOM     10  C   UNL     1      53.608  53.108  22.404  1.00  0.00     0.000 C 
BRANCH  10  11
ATOM     11  C   UNL     1      53.392  54.611  22.642  1.00  0.00    -0.000 C 
BRANCH  11  12
ATOM     12  C   UNL     1      53.823  55.054  24.052  1.00  0.00    -0.000 C 
BRANCH  12  13
ATOM     13  C   UNL     1      54.641  56.356  24.037  1.00  0.00    -0.000 C 
BRANCH  13  14
ATOM     14  C   UNL     1      56.097  56.149  24.480  1.00  0.00    -0.000 C 
BRANCH  14  15
ATOM     15  C   UNL     1      56.371  56.859  25.811  1.00  0.00    -0.003 C 
ATOM     16  C   UNL     1      57.870  57.023  26.050  1.00  0.00     0.004 C 
ENDBRANCH  14  15
ENDBRANCH  13  14
ENDBRANCH  12  13
ENDBRANCH  11  12
ENDBRANCH  10  11
ENDBRANCH   1  10
TORSDOF 12
ENDMDL
