MODEL 1
REMARK VINA RESULT:    -5.403      0.000      0.000
REMARK INTER + INTRA:          -7.032
REMARK INTER:                  -6.666
REMARK INTRA:                  -0.365
REMARK UNBOUND:                -0.365
REMARK SMILES Oc1cc(O)c2cc(O)c(-c3cc(O)c(O)c(O)c3)[o+]c2c1
REMARK SMILES IDX 10 1 20 2 21 3 22 4 2 5 3 6 4 7 6 8 7 9 8 10 11 11 12 12
REMARK SMILES IDX 13 13 19 14 15 15 17 16 14 17 16 19 18 21 9 23 1 25 5 27
REMARK H PARENT 14 18 16 20 18 22 9 24 1 26 5 28
REMARK Flexibility Score: inf
ROOT
ATOM      1  C   UNL     1      49.045  13.721  -4.506  1.00  0.00     0.402 A 
ATOM      2  O   UNL     1      50.054  13.008  -5.000  1.00  0.00    -0.202 OA
ATOM      3  C   UNL     1      51.131  13.554  -5.556  1.00  0.00     0.368 A 
ATOM      4  C   UNL     1      52.140  12.720  -6.044  1.00  0.00     0.162 A 
ATOM      5  C   UNL     1      53.282  13.266  -6.631  1.00  0.00     0.128 A 
ATOM      6  C   UNL     1      53.420  14.655  -6.729  1.00  0.00     0.093 A 
ATOM      7  C   UNL     1      52.423  15.511  -6.247  1.00  0.00     0.136 A 
ATOM      8  C   UNL     1      51.258  14.961  -5.653  1.00  0.00     0.125 A 
ATOM      9  C   UNL     1      50.202  15.741  -5.154  1.00  0.00     0.078 A 
ATOM     10  C   UNL     1      49.083  15.126  -4.586  1.00  0.00     0.223 A 
ENDROOT
BRANCH   1  11
ATOM     11  C   UNL     1      47.905  12.996  -3.901  1.00  0.00     0.091 A 
ATOM     12  C   UNL     1      47.951  12.535  -2.574  1.00  0.00     0.068 A 
ATOM     13  C   UNL     1      46.870  11.832  -2.026  1.00  0.00     0.162 A 
ATOM     14  C   UNL     1      46.776  12.712  -4.683  1.00  0.00     0.068 A 
ATOM     15  C   UNL     1      45.733  11.572  -2.811  1.00  0.00     0.200 A 
ATOM     16  C   UNL     1      45.691  12.012  -4.146  1.00  0.00     0.162 A 
BRANCH  13  17
ATOM     17  O   UNL     1      46.924  11.385  -0.708  1.00  0.00    -0.504 OA
ATOM     18  H   UNL     1      46.975  12.032   0.071  1.00  0.00     0.293 HD
ENDBRANCH  13  17
BRANCH  15  19
ATOM     19  O   UNL     1      44.645  10.876  -2.281  1.00  0.00    -0.502 OA
ATOM     20  H   UNL     1      43.696  11.041  -2.592  1.00  0.00     0.293 HD
ENDBRANCH  15  19
BRANCH  16  21
ATOM     21  O   UNL     1      44.581  11.762  -4.951  1.00  0.00    -0.504 OA
ATOM     22  H   UNL     1      44.123  12.494  -5.480  1.00  0.00     0.293 HD
ENDBRANCH  16  21
ENDBRANCH   1  11
BRANCH  10  23
ATOM     23  O   UNL     1      48.013  15.899  -4.136  1.00  0.00    -0.500 OA
ATOM     24  H   UNL     1      47.067  15.740  -4.462  1.00  0.00     0.294 HD
ENDBRANCH  10  23
BRANCH   5  25
ATOM     25  O   UNL     1      54.278  12.418  -7.112  1.00  0.00    -0.507 OA
ATOM     26  H   UNL     1      54.059  11.505  -7.493  1.00  0.00     0.293 HD
ENDBRANCH   5  25
BRANCH   7  27
ATOM     27  O   UNL     1      52.636  16.887  -6.380  1.00  0.00    -0.507 OA
ATOM     28  H   UNL     1      52.040  17.508  -6.906  1.00  0.00     0.293 HD
ENDBRANCH   7  27
TORSDOF 7
ENDMDL
MODEL 2
REMARK VINA RESULT:    -5.361      3.874      4.690
REMARK INTER + INTRA:          -6.979
REMARK INTER:                  -6.652
REMARK INTRA:                  -0.327
REMARK UNBOUND:                -0.365
REMARK SMILES Oc1cc(O)c2cc(O)c(-c3cc(O)c(O)c(O)c3)[o+]c2c1
REMARK SMILES IDX 10 1 20 2 21 3 22 4 2 5 3 6 4 7 6 8 7 9 8 10 11 11 12 12
REMARK SMILES IDX 13 13 19 14 15 15 17 16 14 17 16 19 18 21 9 23 1 25 5 27
REMARK H PARENT 14 18 16 20 18 22 9 24 1 26 5 28
REMARK Flexibility Score: inf
ROOT
ATOM      1  C   UNL     1      45.564  16.299  -4.407  1.00  0.00     0.402 A 
ATOM      2  O   UNL     1      46.581  15.499  -4.095  1.00  0.00    -0.202 OA
ATOM      3  C   UNL     1      47.791  15.614  -4.632  1.00  0.00     0.368 A 
ATOM      4  C   UNL     1      48.797  14.728  -4.238  1.00  0.00     0.162 A 
ATOM      5  C   UNL     1      50.077  14.826  -4.783  1.00  0.00     0.128 A 
ATOM      6  C   UNL     1      50.358  15.819  -5.729  1.00  0.00     0.093 A 
ATOM      7  C   UNL     1      49.368  16.719  -6.140  1.00  0.00     0.136 A 
ATOM      8  C   UNL     1      48.063  16.620  -5.590  1.00  0.00     0.125 A 
ATOM      9  C   UNL     1      47.006  17.471  -5.952  1.00  0.00     0.078 A 
ATOM     10  C   UNL     1      45.746  17.309  -5.371  1.00  0.00     0.223 A 
ENDROOT
BRANCH   1  11
ATOM     11  C   UNL     1      44.266  16.077  -3.732  1.00  0.00     0.091 A 
ATOM     12  C   UNL     1      43.794  16.959  -2.744  1.00  0.00     0.068 A 
ATOM     13  C   UNL     1      42.572  16.720  -2.101  1.00  0.00     0.162 A 
ATOM     14  C   UNL     1      43.515  14.933  -4.040  1.00  0.00     0.068 A 
ATOM     15  C   UNL     1      41.815  15.583  -2.433  1.00  0.00     0.200 A 
ATOM     16  C   UNL     1      42.294  14.686  -3.404  1.00  0.00     0.162 A 
BRANCH  13  17
ATOM     17  O   UNL     1      42.111  17.605  -1.128  1.00  0.00    -0.504 OA
ATOM     18  H   UNL     1      41.914  17.299  -0.182  1.00  0.00     0.293 HD
ENDBRANCH  13  17
BRANCH  15  19
ATOM     19  O   UNL     1      40.595  15.332  -1.805  1.00  0.00    -0.502 OA
ATOM     20  H   UNL     1      39.707  15.542  -2.246  1.00  0.00     0.293 HD
ENDBRANCH  15  19
BRANCH  16  21
ATOM     21  O   UNL     1      41.570  13.546  -3.749  1.00  0.00    -0.504 OA
ATOM     22  H   UNL     1      41.628  13.128  -4.669  1.00  0.00     0.293 HD
ENDBRANCH  16  21
ENDBRANCH   1  11
BRANCH  10  23
ATOM     23  O   UNL     1      44.683  18.121  -5.767  1.00  0.00    -0.500 OA
ATOM     24  H   UNL     1      44.835  19.021  -6.205  1.00  0.00     0.294 HD
ENDBRANCH  10  23
BRANCH   5  25
ATOM     25  O   UNL     1      51.067  13.932  -4.378  1.00  0.00    -0.507 OA
ATOM     26  H   UNL     1      52.048  14.112  -4.555  1.00  0.00     0.293 HD
ENDBRANCH   5  25
BRANCH   7  27
ATOM     27  O   UNL     1      49.728  17.684  -7.086  1.00  0.00    -0.507 OA
ATOM     28  H   UNL     1      49.078  18.311  -7.536  1.00  0.00     0.293 HD
ENDBRANCH   7  27
TORSDOF 7
ENDMDL
MODEL 3
REMARK VINA RESULT:    -5.346      4.461      5.763
REMARK INTER + INTRA:          -6.961
REMARK INTER:                  -7.086
REMARK INTRA:                   0.125
REMARK UNBOUND:                -0.365
REMARK SMILES Oc1cc(O)c2cc(O)c(-c3cc(O)c(O)c(O)c3)[o+]c2c1
REMARK SMILES IDX 10 1 20 2 21 3 22 4 2 5 3 6 4 7 6 8 7 9 8 10 11 11 12 12
REMARK SMILES IDX 13 13 19 14 15 15 17 16 14 17 16 19 18 21 9 23 1 25 5 27
REMARK H PARENT 14 18 16 20 18 22 9 24 1 26 5 28
REMARK Flexibility Score: inf
ROOT
ATOM      1  C   UNL     1      45.488  16.092  -3.780  1.00  0.00     0.402 A 
ATOM      2  O   UNL     1      46.006  15.045  -3.143  1.00  0.00    -0.202 OA
ATOM      3  C   UNL     1      47.133  14.448  -3.515  1.00  0.00     0.368 A 
ATOM      4  C   UNL     1      47.599  13.355  -2.779  1.00  0.00     0.162 A 
ATOM      5  C   UNL     1      48.780  12.711  -3.146  1.00  0.00     0.128 A 
ATOM      6  C   UNL     1      49.505  13.161  -4.255  1.00  0.00     0.093 A 
ATOM      7  C   UNL     1      49.060  14.253  -5.008  1.00  0.00     0.136 A 
ATOM      8  C   UNL     1      47.856  14.910  -4.641  1.00  0.00     0.125 A 
ATOM      9  C   UNL     1      47.328  16.004  -5.345  1.00  0.00     0.078 A 
ATOM     10  C   UNL     1      46.134  16.597  -4.925  1.00  0.00     0.223 A 
ENDROOT
BRANCH   1  11
ATOM     11  C   UNL     1      44.231  16.676  -3.261  1.00  0.00     0.091 A 
ATOM     12  C   UNL     1      43.968  18.054  -3.360  1.00  0.00     0.068 A 
ATOM     13  C   UNL     1      42.782  18.592  -2.844  1.00  0.00     0.162 A 
ATOM     14  C   UNL     1      43.305  15.851  -2.606  1.00  0.00     0.068 A 
ATOM     15  C   UNL     1      41.850  17.752  -2.209  1.00  0.00     0.200 A 
ATOM     16  C   UNL     1      42.118  16.378  -2.088  1.00  0.00     0.162 A 
BRANCH  13  17
ATOM     17  O   UNL     1      42.529  19.958  -2.953  1.00  0.00    -0.504 OA
ATOM     18  H   UNL     1      42.521  20.427  -3.852  1.00  0.00     0.293 HD
ENDBRANCH  13  17
BRANCH  15  19
ATOM     19  O   UNL     1      40.661  18.271  -1.692  1.00  0.00    -0.502 OA
ATOM     20  H   UNL     1      39.811  18.321  -2.241  1.00  0.00     0.293 HD
ENDBRANCH  15  19
BRANCH  16  21
ATOM     21  O   UNL     1      41.217  15.522  -1.457  1.00  0.00    -0.504 OA
ATOM     22  H   UNL     1      40.709  14.806  -1.961  1.00  0.00     0.293 HD
ENDBRANCH  16  21
ENDBRANCH   1  11
BRANCH  10  23
ATOM     23  O   UNL     1      45.582  17.651  -5.652  1.00  0.00    -0.500 OA
ATOM     24  H   UNL     1      44.662  17.586  -6.071  1.00  0.00     0.294 HD
ENDBRANCH  10  23
BRANCH   5  25
ATOM     25  O   UNL     1      49.229  11.622  -2.399  1.00  0.00    -0.507 OA
ATOM     26  H   UNL     1      48.981  10.671  -2.647  1.00  0.00     0.293 HD
ENDBRANCH   5  25
BRANCH   7  27
ATOM     27  O   UNL     1      49.841  14.644  -6.100  1.00  0.00    -0.507 OA
ATOM     28  H   UNL     1      49.470  14.910  -7.000  1.00  0.00     0.293 HD
ENDBRANCH   7  27
TORSDOF 7
ENDMDL
MODEL 4
REMARK VINA RESULT:    -5.287      4.451      5.683
REMARK INTER + INTRA:          -6.889
REMARK INTER:                  -7.102
REMARK INTRA:                   0.214
REMARK UNBOUND:                -0.365
REMARK SMILES Oc1cc(O)c2cc(O)c(-c3cc(O)c(O)c(O)c3)[o+]c2c1
REMARK SMILES IDX 10 1 20 2 21 3 22 4 2 5 3 6 4 7 6 8 7 9 8 10 11 11 12 12
REMARK SMILES IDX 13 13 19 14 15 15 17 16 14 17 16 19 18 21 9 23 1 25 5 27
REMARK H PARENT 14 18 16 20 18 22 9 24 1 26 5 28
REMARK Flexibility Score: inf
ROOT
ATOM      1  C   UNL     1      45.494  16.051  -3.745  1.00  0.00     0.402 A 
ATOM      2  O   UNL     1      46.030  15.001  -3.128  1.00  0.00    -0.202 OA
ATOM      3  C   UNL     1      47.157  14.419  -3.524  1.00  0.00     0.368 A 
ATOM      4  C   UNL     1      47.643  13.322  -2.807  1.00  0.00     0.162 A 
ATOM      5  C   UNL     1      48.824  12.692  -3.198  1.00  0.00     0.128 A 
ATOM      6  C   UNL     1      49.528  13.160  -4.313  1.00  0.00     0.093 A 
ATOM      7  C   UNL     1      49.062  14.258  -5.047  1.00  0.00     0.136 A 
ATOM      8  C   UNL     1      47.859  14.900  -4.655  1.00  0.00     0.125 A 
ATOM      9  C   UNL     1      47.311  15.997  -5.338  1.00  0.00     0.078 A 
ATOM     10  C   UNL     1      46.118  16.574  -4.894  1.00  0.00     0.223 A 
ENDROOT
BRANCH   1  11
ATOM     11  C   UNL     1      44.240  16.618  -3.201  1.00  0.00     0.091 A 
ATOM     12  C   UNL     1      43.272  15.803  -2.589  1.00  0.00     0.068 A 
ATOM     13  C   UNL     1      42.081  16.356  -2.099  1.00  0.00     0.162 A 
ATOM     14  C   UNL     1      43.982  17.989  -3.348  1.00  0.00     0.068 A 
ATOM     15  C   UNL     1      41.842  17.735  -2.231  1.00  0.00     0.200 A 
ATOM     16  C   UNL     1      42.797  18.550  -2.862  1.00  0.00     0.162 A 
BRANCH  13  17
ATOM     17  O   UNL     1      41.132  15.539  -1.488  1.00  0.00    -0.504 OA
ATOM     18  H   UNL     1      41.329  15.051  -0.622  1.00  0.00     0.293 HD
ENDBRANCH  13  17
BRANCH  15  19
ATOM     19  O   UNL     1      40.663  18.302  -1.745  1.00  0.00    -0.502 OA
ATOM     20  H   UNL     1      40.303  19.181  -2.097  1.00  0.00     0.293 HD
ENDBRANCH  15  19
BRANCH  16  21
ATOM     21  O   UNL     1      42.585  19.920  -3.015  1.00  0.00    -0.504 OA
ATOM     22  H   UNL     1      42.328  20.330  -3.903  1.00  0.00     0.293 HD
ENDBRANCH  16  21
ENDBRANCH   1  11
BRANCH  10  23
ATOM     23  O   UNL     1      45.547  17.632  -5.601  1.00  0.00    -0.500 OA
ATOM     24  H   UNL     1      45.195  18.458  -5.132  1.00  0.00     0.294 HD
ENDBRANCH  10  23
BRANCH   5  25
ATOM     25  O   UNL     1      49.292  11.599  -2.471  1.00  0.00    -0.507 OA
ATOM     26  H   UNL     1      50.086  11.052  -2.786  1.00  0.00     0.293 HD
ENDBRANCH   5  25
BRANCH   7  27
ATOM     27  O   UNL     1      49.824  14.667  -6.146  1.00  0.00    -0.507 OA
ATOM     28  H   UNL     1      49.440  14.911  -7.046  1.00  0.00     0.293 HD
ENDBRANCH   7  27
TORSDOF 7
ENDMDL
MODEL 5
REMARK VINA RESULT:    -5.212      4.002      7.799
REMARK INTER + INTRA:          -6.796
REMARK INTER:                  -7.096
REMARK INTRA:                   0.300
REMARK UNBOUND:                -0.365
REMARK SMILES Oc1cc(O)c2cc(O)c(-c3cc(O)c(O)c(O)c3)[o+]c2c1
REMARK SMILES IDX 10 1 20 2 21 3 22 4 2 5 3 6 4 7 6 8 7 9 8 10 11 11 12 12
REMARK SMILES IDX 13 13 19 14 15 15 17 16 14 17 16 19 18 21 9 23 1 25 5 27
REMARK H PARENT 14 18 16 20 18 22 9 24 1 26 5 28
REMARK Flexibility Score: inf
ROOT
ATOM      1  C   UNL     1      46.678  16.478  -4.884  1.00  0.00     0.402 A 
ATOM      2  O   UNL     1      45.863  16.089  -3.907  1.00  0.00    -0.202 OA
ATOM      3  C   UNL     1      44.620  16.539  -3.771  1.00  0.00     0.368 A 
ATOM      4  C   UNL     1      43.839  16.066  -2.712  1.00  0.00     0.162 A 
ATOM      5  C   UNL     1      42.530  16.520  -2.545  1.00  0.00     0.128 A 
ATOM      6  C   UNL     1      41.995  17.450  -3.443  1.00  0.00     0.093 A 
ATOM      7  C   UNL     1      42.757  17.938  -4.511  1.00  0.00     0.136 A 
ATOM      8  C   UNL     1      44.090  17.482  -4.683  1.00  0.00     0.125 A 
ATOM      9  C   UNL     1      44.931  17.925  -5.717  1.00  0.00     0.078 A 
ATOM     10  C   UNL     1      46.235  17.434  -5.818  1.00  0.00     0.223 A 
ENDROOT
BRANCH   1  11
ATOM     11  C   UNL     1      48.038  15.896  -4.936  1.00  0.00     0.091 A 
ATOM     12  C   UNL     1      49.083  16.537  -5.622  1.00  0.00     0.068 A 
ATOM     13  C   UNL     1      50.359  15.960  -5.678  1.00  0.00     0.162 A 
ATOM     14  C   UNL     1      48.279  14.651  -4.337  1.00  0.00     0.068 A 
ATOM     15  C   UNL     1      50.596  14.722  -5.055  1.00  0.00     0.200 A 
ATOM     16  C   UNL     1      49.548  14.066  -4.386  1.00  0.00     0.162 A 
BRANCH  13  17
ATOM     17  O   UNL     1      51.390  16.608  -6.356  1.00  0.00    -0.504 OA
ATOM     18  H   UNL     1      51.446  17.619  -6.397  1.00  0.00     0.293 HD
ENDBRANCH  13  17
BRANCH  15  19
ATOM     19  O   UNL     1      51.861  14.134  -5.098  1.00  0.00    -0.502 OA
ATOM     20  H   UNL     1      52.647  14.578  -5.558  1.00  0.00     0.293 HD
ENDBRANCH  15  19
BRANCH  16  21
ATOM     21  O   UNL     1      49.750  12.834  -3.766  1.00  0.00    -0.504 OA
ATOM     22  H   UNL     1      49.066  12.089  -3.811  1.00  0.00     0.293 HD
ENDBRANCH  16  21
ENDBRANCH   1  11
BRANCH  10  23
ATOM     23  O   UNL     1      47.087  17.911  -6.815  1.00  0.00    -0.500 OA
ATOM     24  H   UNL     1      47.773  17.313  -7.260  1.00  0.00     0.294 HD
ENDBRANCH  10  23
BRANCH   5  25
ATOM     25  O   UNL     1      41.767  16.038  -1.483  1.00  0.00    -0.507 OA
ATOM     26  H   UNL     1      41.673  15.045  -1.305  1.00  0.00     0.293 HD
ENDBRANCH   5  25
BRANCH   7  27
ATOM     27  O   UNL     1      42.149  18.863  -5.366  1.00  0.00    -0.507 OA
ATOM     28  H   UNL     1      41.559  18.616  -6.147  1.00  0.00     0.293 HD
ENDBRANCH   7  27
TORSDOF 7
ENDMDL
MODEL 6
REMARK VINA RESULT:    -5.189      3.276      4.541
REMARK INTER + INTRA:          -6.767
REMARK INTER:                  -6.447
REMARK INTRA:                  -0.320
REMARK UNBOUND:                -0.365
REMARK SMILES Oc1cc(O)c2cc(O)c(-c3cc(O)c(O)c(O)c3)[o+]c2c1
REMARK SMILES IDX 10 1 20 2 21 3 22 4 2 5 3 6 4 7 6 8 7 9 8 10 11 11 12 12
REMARK SMILES IDX 13 13 19 14 15 15 17 16 14 17 16 19 18 21 9 23 1 25 5 27
REMARK H PARENT 14 18 16 20 18 22 9 24 1 26 5 28
REMARK Flexibility Score: inf
ROOT
ATOM      1  C   UNL     1      46.141  15.038  -3.888  1.00  0.00     0.402 A 
ATOM      2  O   UNL     1      46.678  15.955  -4.688  1.00  0.00    -0.202 OA
ATOM      3  C   UNL     1      47.961  15.961  -5.034  1.00  0.00     0.368 A 
ATOM      4  C   UNL     1      48.431  16.967  -5.883  1.00  0.00     0.162 A 
ATOM      5  C   UNL     1      49.773  16.997  -6.264  1.00  0.00     0.128 A 
ATOM      6  C   UNL     1      50.653  16.015  -5.797  1.00  0.00     0.093 A 
ATOM      7  C   UNL     1      50.206  14.997  -4.946  1.00  0.00     0.136 A 
ATOM      8  C   UNL     1      48.843  14.964  -4.552  1.00  0.00     0.125 A 
ATOM      9  C   UNL     1      48.310  13.990  -3.693  1.00  0.00     0.078 A 
ATOM     10  C   UNL     1      46.957  14.026  -3.347  1.00  0.00     0.223 A 
ENDROOT
BRANCH   1  11
ATOM     11  C   UNL     1      44.696  15.132  -3.585  1.00  0.00     0.091 A 
ATOM     12  C   UNL     1      44.199  16.082  -2.676  1.00  0.00     0.068 A 
ATOM     13  C   UNL     1      42.829  16.143  -2.385  1.00  0.00     0.162 A 
ATOM     14  C   UNL     1      43.806  14.221  -4.172  1.00  0.00     0.068 A 
ATOM     15  C   UNL     1      41.942  15.239  -2.996  1.00  0.00     0.200 A 
ATOM     16  C   UNL     1      42.437  14.273  -3.889  1.00  0.00     0.162 A 
BRANCH  13  17
ATOM     17  O   UNL     1      42.347  17.093  -1.487  1.00  0.00    -0.504 OA
ATOM     18  H   UNL     1      42.556  18.080  -1.594  1.00  0.00     0.293 HD
ENDBRANCH  13  17
BRANCH  15  19
ATOM     19  O   UNL     1      40.575  15.287  -2.721  1.00  0.00    -0.502 OA
ATOM     20  H   UNL     1      39.941  14.550  -3.005  1.00  0.00     0.293 HD
ENDBRANCH  15  19
BRANCH  16  21
ATOM     21  O   UNL     1      41.584  13.358  -4.504  1.00  0.00    -0.504 OA
ATOM     22  H   UNL     1      40.775  13.649  -5.038  1.00  0.00     0.293 HD
ENDBRANCH  16  21
ENDBRANCH   1  11
BRANCH  10  23
ATOM     23  O   UNL     1      46.437  13.088  -2.454  1.00  0.00    -0.500 OA
ATOM     24  H   UNL     1      46.350  13.286  -1.464  1.00  0.00     0.294 HD
ENDBRANCH  10  23
BRANCH   5  25
ATOM     25  O   UNL     1      50.223  18.008  -7.111  1.00  0.00    -0.507 OA
ATOM     26  H   UNL     1      50.097  17.955  -8.115  1.00  0.00     0.293 HD
ENDBRANCH   5  25
BRANCH   7  27
ATOM     27  O   UNL     1      51.146  14.051  -4.525  1.00  0.00    -0.507 OA
ATOM     28  H   UNL     1      50.995  13.391  -3.777  1.00  0.00     0.293 HD
ENDBRANCH   7  27
TORSDOF 7
ENDMDL
MODEL 7
REMARK VINA RESULT:    -5.021      4.143      5.728
REMARK INTER + INTRA:          -6.560
REMARK INTER:                  -6.516
REMARK INTRA:                  -0.044
REMARK UNBOUND:                -0.365
REMARK SMILES Oc1cc(O)c2cc(O)c(-c3cc(O)c(O)c(O)c3)[o+]c2c1
REMARK SMILES IDX 10 1 20 2 21 3 22 4 2 5 3 6 4 7 6 8 7 9 8 10 11 11 12 12
REMARK SMILES IDX 13 13 19 14 15 15 17 16 14 17 16 19 18 21 9 23 1 25 5 27
REMARK H PARENT 14 18 16 20 18 22 9 24 1 26 5 28
REMARK Flexibility Score: inf
ROOT
ATOM      1  C   UNL     1      46.135  15.908  -4.148  1.00  0.00     0.402 A 
ATOM      2  O   UNL     1      47.292  16.354  -4.632  1.00  0.00    -0.202 OA
ATOM      3  C   UNL     1      48.400  15.621  -4.667  1.00  0.00     0.368 A 
ATOM      4  C   UNL     1      49.567  16.177  -5.197  1.00  0.00     0.162 A 
ATOM      5  C   UNL     1      50.744  15.431  -5.248  1.00  0.00     0.128 A 
ATOM      6  C   UNL     1      50.757  14.116  -4.768  1.00  0.00     0.093 A 
ATOM      7  C   UNL     1      49.601  13.536  -4.233  1.00  0.00     0.136 A 
ATOM      8  C   UNL     1      48.402  14.293  -4.175  1.00  0.00     0.125 A 
ATOM      9  C   UNL     1      47.201  13.798  -3.644  1.00  0.00     0.078 A 
ATOM     10  C   UNL     1      46.061  14.606  -3.617  1.00  0.00     0.223 A 
ENDROOT
BRANCH   1  11
ATOM     11  C   UNL     1      44.968  16.817  -4.174  1.00  0.00     0.091 A 
ATOM     12  C   UNL     1      44.596  17.498  -5.346  1.00  0.00     0.068 A 
ATOM     13  C   UNL     1      43.500  18.372  -5.346  1.00  0.00     0.162 A 
ATOM     14  C   UNL     1      44.249  17.052  -2.993  1.00  0.00     0.068 A 
ATOM     15  C   UNL     1      42.772  18.582  -4.162  1.00  0.00     0.200 A 
ATOM     16  C   UNL     1      43.154  17.921  -2.982  1.00  0.00     0.162 A 
BRANCH  13  17
ATOM     17  O   UNL     1      43.137  19.036  -6.516  1.00  0.00    -0.504 OA
ATOM     18  H   UNL     1      43.521  19.943  -6.754  1.00  0.00     0.293 HD
ENDBRANCH  13  17
BRANCH  15  19
ATOM     19  O   UNL     1      41.676  19.446  -4.145  1.00  0.00    -0.502 OA
ATOM     20  H   UNL     1      41.751  20.407  -3.835  1.00  0.00     0.293 HD
ENDBRANCH  15  19
BRANCH  16  21
ATOM     21  O   UNL     1      42.457  18.115  -1.791  1.00  0.00    -0.504 OA
ATOM     22  H   UNL     1      42.817  18.694  -1.043  1.00  0.00     0.293 HD
ENDBRANCH  16  21
ENDBRANCH   1  11
BRANCH  10  23
ATOM     23  O   UNL     1      44.880  14.132  -3.044  1.00  0.00    -0.500 OA
ATOM     24  H   UNL     1      44.439  14.606  -2.265  1.00  0.00     0.294 HD
ENDBRANCH  10  23
BRANCH   5  25
ATOM     25  O   UNL     1      51.898  16.003  -5.781  1.00  0.00    -0.507 OA
ATOM     26  H   UNL     1      52.815  15.793  -5.406  1.00  0.00     0.293 HD
ENDBRANCH   5  25
BRANCH   7  27
ATOM     27  O   UNL     1      49.695  12.217  -3.777  1.00  0.00    -0.507 OA
ATOM     28  H   UNL     1      49.982  11.436  -4.347  1.00  0.00     0.293 HD
ENDBRANCH   7  27
TORSDOF 7
ENDMDL
MODEL 8
REMARK VINA RESULT:    -4.982      4.147      5.492
REMARK INTER + INTRA:          -6.512
REMARK INTER:                  -6.420
REMARK INTRA:                  -0.092
REMARK UNBOUND:                -0.365
REMARK SMILES Oc1cc(O)c2cc(O)c(-c3cc(O)c(O)c(O)c3)[o+]c2c1
REMARK SMILES IDX 10 1 20 2 21 3 22 4 2 5 3 6 4 7 6 8 7 9 8 10 11 11 12 12
REMARK SMILES IDX 13 13 19 14 15 15 17 16 14 17 16 19 18 21 9 23 1 25 5 27
REMARK H PARENT 14 18 16 20 18 22 9 24 1 26 5 28
REMARK Flexibility Score: inf
ROOT
ATOM      1  C   UNL     1      46.170  15.942  -4.143  1.00  0.00     0.402 A 
ATOM      2  O   UNL     1      47.326  16.379  -4.635  1.00  0.00    -0.202 OA
ATOM      3  C   UNL     1      48.431  15.642  -4.668  1.00  0.00     0.368 A 
ATOM      4  C   UNL     1      49.598  16.190  -5.208  1.00  0.00     0.162 A 
ATOM      5  C   UNL     1      50.772  15.438  -5.258  1.00  0.00     0.128 A 
ATOM      6  C   UNL     1      50.782  14.127  -4.767  1.00  0.00     0.093 A 
ATOM      7  C   UNL     1      49.626  13.556  -4.222  1.00  0.00     0.136 A 
ATOM      8  C   UNL     1      48.430  14.319  -4.166  1.00  0.00     0.125 A 
ATOM      9  C   UNL     1      47.229  13.833  -3.625  1.00  0.00     0.078 A 
ATOM     10  C   UNL     1      46.092  14.645  -3.601  1.00  0.00     0.223 A 
ENDROOT
BRANCH   1  11
ATOM     11  C   UNL     1      45.006  16.856  -4.172  1.00  0.00     0.091 A 
ATOM     12  C   UNL     1      44.276  17.149  -3.007  1.00  0.00     0.068 A 
ATOM     13  C   UNL     1      43.163  18.000  -3.058  1.00  0.00     0.162 A 
ATOM     14  C   UNL     1      44.585  17.400  -5.394  1.00  0.00     0.068 A 
ATOM     15  C   UNL     1      42.763  18.557  -4.285  1.00  0.00     0.200 A 
ATOM     16  C   UNL     1      43.477  18.250  -5.456  1.00  0.00     0.162 A 
BRANCH  13  17
ATOM     17  O   UNL     1      42.450  18.287  -1.896  1.00  0.00    -0.504 OA
ATOM     18  H   UNL     1      42.896  18.289  -0.985  1.00  0.00     0.293 HD
ENDBRANCH  13  17
BRANCH  15  19
ATOM     19  O   UNL     1      41.660  19.410  -4.353  1.00  0.00    -0.502 OA
ATOM     20  H   UNL     1      40.721  19.065  -4.508  1.00  0.00     0.293 HD
ENDBRANCH  15  19
BRANCH  16  21
ATOM     21  O   UNL     1      43.100  18.782  -6.688  1.00  0.00    -0.504 OA
ATOM     22  H   UNL     1      42.225  18.539  -7.136  1.00  0.00     0.293 HD
ENDBRANCH  16  21
ENDBRANCH   1  11
BRANCH  10  23
ATOM     23  O   UNL     1      44.912  14.181  -3.019  1.00  0.00    -0.500 OA
ATOM     24  H   UNL     1      44.783  13.204  -2.785  1.00  0.00     0.294 HD
ENDBRANCH  10  23
BRANCH   5  25
ATOM     25  O   UNL     1      51.926  16.002  -5.799  1.00  0.00    -0.507 OA
ATOM     26  H   UNL     1      52.018  16.168  -6.795  1.00  0.00     0.293 HD
ENDBRANCH   5  25
BRANCH   7  27
ATOM     27  O   UNL     1      49.717  12.241  -3.755  1.00  0.00    -0.507 OA
ATOM     28  H   UNL     1      49.435  11.428  -4.282  1.00  0.00     0.293 HD
ENDBRANCH   7  27
TORSDOF 7
ENDMDL
MODEL 9
REMARK VINA RESULT:    -4.968      3.489      8.054
REMARK INTER + INTRA:          -6.495
REMARK INTER:                  -6.451
REMARK INTRA:                  -0.044
REMARK UNBOUND:                -0.365
REMARK SMILES Oc1cc(O)c2cc(O)c(-c3cc(O)c(O)c(O)c3)[o+]c2c1
REMARK SMILES IDX 10 1 20 2 21 3 22 4 2 5 3 6 4 7 6 8 7 9 8 10 11 11 12 12
REMARK SMILES IDX 13 13 19 14 15 15 17 16 14 17 16 19 18 21 9 23 1 25 5 27
REMARK H PARENT 14 18 16 20 18 22 9 24 1 26 5 28
REMARK Flexibility Score: inf
ROOT
ATOM      1  C   UNL     1      46.698  15.482  -4.527  1.00  0.00     0.402 A 
ATOM      2  O   UNL     1      45.990  16.523  -4.098  1.00  0.00    -0.202 OA
ATOM      3  C   UNL     1      44.742  16.425  -3.653  1.00  0.00     0.368 A 
ATOM      4  C   UNL     1      44.081  17.578  -3.220  1.00  0.00     0.162 A 
ATOM      5  C   UNL     1      42.771  17.504  -2.747  1.00  0.00     0.128 A 
ATOM      6  C   UNL     1      42.115  16.269  -2.702  1.00  0.00     0.093 A 
ATOM      7  C   UNL     1      42.755  15.100  -3.130  1.00  0.00     0.136 A 
ATOM      8  C   UNL     1      44.086  15.171  -3.616  1.00  0.00     0.125 A 
ATOM      9  C   UNL     1      44.801  14.053  -4.077  1.00  0.00     0.078 A 
ATOM     10  C   UNL     1      46.109  14.203  -4.546  1.00  0.00     0.223 A 
ENDROOT
BRANCH   1  11
ATOM     11  C   UNL     1      48.084  15.719  -4.989  1.00  0.00     0.091 A 
ATOM     12  C   UNL     1      49.142  14.887  -4.585  1.00  0.00     0.068 A 
ATOM     13  C   UNL     1      50.452  15.140  -5.015  1.00  0.00     0.162 A 
ATOM     14  C   UNL     1      48.361  16.828  -5.801  1.00  0.00     0.068 A 
ATOM     15  C   UNL     1      50.716  16.242  -5.847  1.00  0.00     0.200 A 
ATOM     16  C   UNL     1      49.664  17.089  -6.236  1.00  0.00     0.162 A 
BRANCH  13  17
ATOM     17  O   UNL     1      51.493  14.305  -4.613  1.00  0.00    -0.504 OA
ATOM     18  H   UNL     1      51.786  14.249  -3.644  1.00  0.00     0.293 HD
ENDBRANCH  13  17
BRANCH  15  19
ATOM     19  O   UNL     1      52.013  16.506  -6.288  1.00  0.00    -0.502 OA
ATOM     20  H   UNL     1      52.710  15.777  -6.384  1.00  0.00     0.293 HD
ENDBRANCH  15  19
BRANCH  16  21
ATOM     21  O   UNL     1      49.895  18.194  -7.054  1.00  0.00    -0.504 OA
ATOM     22  H   UNL     1      49.813  19.144  -6.714  1.00  0.00     0.293 HD
ENDBRANCH  16  21
ENDBRANCH   1  11
BRANCH  10  23
ATOM     23  O   UNL     1      46.802  13.102  -5.051  1.00  0.00    -0.500 OA
ATOM     24  H   UNL     1      46.854  12.227  -4.543  1.00  0.00     0.294 HD
ENDBRANCH  10  23
BRANCH   5  25
ATOM     25  O   UNL     1      42.129  18.665  -2.319  1.00  0.00    -0.507 OA
ATOM     26  H   UNL     1      42.316  19.070  -1.409  1.00  0.00     0.293 HD
ENDBRANCH   5  25
BRANCH   7  27
ATOM     27  O   UNL     1      42.032  13.905  -3.052  1.00  0.00    -0.507 OA
ATOM     28  H   UNL     1      42.386  13.005  -3.340  1.00  0.00     0.293 HD
ENDBRANCH   7  27
TORSDOF 7
ENDMDL
