MODEL 1
REMARK VINA RESULT:    -5.203      0.000      0.000
REMARK INTER + INTRA:          -8.938
REMARK INTER:                  -7.941
REMARK INTRA:                  -0.997
REMARK UNBOUND:                -0.997
REMARK SMILES CCCCCCCCCCC(=O)[O-]
REMARK SMILES IDX 7 1 8 2 9 3 10 4 11 5 12 6 13 7 6 8 5 9 4 10 3 11 2 12 1 13
REMARK H PARENT
REMARK Flexibility Score: inf
ROOT
ATOM      1  C   UNL     1      -5.260 -30.551 -52.814  1.00  0.00     0.000 C 
ENDROOT
BRANCH   1   2
ATOM      2  C   UNL     1      -5.362 -32.010 -52.340  1.00  0.00     0.000 C 
BRANCH   2   3
ATOM      3  C   UNL     1      -4.419 -32.321 -51.166  1.00  0.00     0.006 C 
BRANCH   3   4
ATOM      4  C   UNL     1      -3.234 -33.199 -51.593  1.00  0.00     0.053 C 
BRANCH   4   5
ATOM      5  C   UNL     1      -2.032 -32.967 -50.730  1.00  0.00     0.041 C 
ATOM      6  O   UNL     1      -1.390 -31.887 -50.816  1.00  0.00    -0.550 OA
ATOM      7  O   UNL     1      -1.600 -33.957 -49.857  1.00  0.00    -0.550 OA
ENDBRANCH   4   5
ENDBRANCH   3   4
ENDBRANCH   2   3
ENDBRANCH   1   2
BRANCH   1   8
ATOM      8  C   UNL     1      -4.721 -29.612 -51.720  1.00  0.00     0.000 C 
BRANCH   8   9
ATOM      9  C   UNL     1      -5.404 -28.236 -51.735  1.00  0.00    -0.000 C 
BRANCH   9  10
ATOM     10  C   UNL     1      -6.202 -27.956 -50.452  1.00  0.00    -0.000 C 
BRANCH  10  11
ATOM     11  C   UNL     1      -6.151 -29.158 -49.501  1.00  0.00    -0.000 C 
BRANCH  11  12
ATOM     12  C   UNL     1      -7.545 -29.763 -49.303  1.00  0.00    -0.003 C 
ATOM     13  C   UNL     1      -7.489 -31.288 -49.300  1.00  0.00     0.004 C 
ENDBRANCH  11  12
ENDBRANCH  10  11
ENDBRANCH   9  10
ENDBRANCH   8   9
ENDBRANCH   1   8
TORSDOF 9
ENDMDL
MODEL 2
REMARK VINA RESULT:    -5.102      2.820      5.025
REMARK INTER + INTRA:          -8.784
REMARK INTER:                  -7.902
REMARK INTRA:                  -0.883
REMARK UNBOUND:                -0.997
REMARK SMILES CCCCCCCCCCC(=O)[O-]
REMARK SMILES IDX 7 1 8 2 9 3 10 4 11 5 12 6 13 7 6 8 5 9 4 10 3 11 2 12 1 13
REMARK H PARENT
REMARK Flexibility Score: inf
ROOT
ATOM      1  C   UNL     1      -5.776 -28.707 -50.193  1.00  0.00     0.000 C 
ENDROOT
BRANCH   1   2
ATOM      2  C   UNL     1      -6.298 -27.524 -51.025  1.00  0.00     0.000 C 
BRANCH   2   3
ATOM      3  C   UNL     1      -5.649 -27.445 -52.418  1.00  0.00     0.006 C 
BRANCH   3   4
ATOM      4  C   UNL     1      -5.157 -28.814 -52.906  1.00  0.00     0.053 C 
BRANCH   4   5
ATOM      5  C   UNL     1      -5.511 -29.053 -54.342  1.00  0.00     0.041 C 
ATOM      6  O   UNL     1      -6.201 -28.209 -54.972  1.00  0.00    -0.550 OA
ATOM      7  O   UNL     1      -5.107 -30.222 -54.974  1.00  0.00    -0.550 OA
ENDBRANCH   4   5
ENDBRANCH   3   4
ENDBRANCH   2   3
ENDBRANCH   1   2
BRANCH   1   8
ATOM      8  C   UNL     1      -6.892 -29.407 -49.399  1.00  0.00     0.000 C 
BRANCH   8   9
ATOM      9  C   UNL     1      -7.059 -30.884 -49.792  1.00  0.00    -0.000 C 
BRANCH   9  10
ATOM     10  C   UNL     1      -5.725 -31.556 -50.150  1.00  0.00    -0.000 C 
BRANCH  10  11
ATOM     11  C   UNL     1      -5.749 -32.088 -51.589  1.00  0.00    -0.000 C 
BRANCH  11  12
ATOM     12  C   UNL     1      -4.334 -32.427 -52.074  1.00  0.00    -0.003 C 
ATOM     13  C   UNL     1      -3.438 -32.846 -50.913  1.00  0.00     0.004 C 
ENDBRANCH  11  12
ENDBRANCH  10  11
ENDBRANCH   9  10
ENDBRANCH   8   9
ENDBRANCH   1   8
TORSDOF 9
ENDMDL
MODEL 3
REMARK VINA RESULT:    -5.063      3.427      5.816
REMARK INTER + INTRA:          -8.725
REMARK INTER:                  -7.801
REMARK INTRA:                  -0.923
REMARK UNBOUND:                -0.997
REMARK SMILES CCCCCCCCCCC(=O)[O-]
REMARK SMILES IDX 7 1 8 2 9 3 10 4 11 5 12 6 13 7 6 8 5 9 4 10 3 11 2 12 1 13
REMARK H PARENT
REMARK Flexibility Score: inf
ROOT
ATOM      1  C   UNL     1      -3.098 -32.896 -51.570  1.00  0.00     0.000 C 
ENDROOT
BRANCH   1   2
ATOM      2  C   UNL     1      -4.506 -32.313 -51.369  1.00  0.00     0.000 C 
BRANCH   2   3
ATOM      3  C   UNL     1      -5.203 -31.971 -52.697  1.00  0.00     0.006 C 
BRANCH   3   4
ATOM      4  C   UNL     1      -5.347 -30.457 -52.903  1.00  0.00     0.053 C 
BRANCH   4   5
ATOM      5  C   UNL     1      -5.401 -30.097 -54.356  1.00  0.00     0.041 C 
ATOM      6  O   UNL     1      -4.935 -30.884 -55.221  1.00  0.00    -0.550 OA
ATOM      7  O   UNL     1      -5.935 -28.877 -54.751  1.00  0.00    -0.550 OA
ENDBRANCH   4   5
ENDBRANCH   3   4
ENDBRANCH   2   3
ENDBRANCH   1   2
BRANCH   1   8
ATOM      8  C   UNL     1      -2.615 -32.781 -53.027  1.00  0.00     0.000 C 
BRANCH   8   9
ATOM      9  C   UNL     1      -1.120 -33.103 -53.180  1.00  0.00    -0.000 C 
BRANCH   9  10
ATOM     10  C   UNL     1      -0.292 -32.667 -51.963  1.00  0.00    -0.000 C 
BRANCH  10  11
ATOM     11  C   UNL     1       0.295 -31.265 -52.171  1.00  0.00    -0.000 C 
BRANCH  11  12
ATOM     12  C   UNL     1      -0.378 -30.243 -51.249  1.00  0.00    -0.003 C 
ATOM     13  C   UNL     1      -1.460 -29.461 -51.988  1.00  0.00     0.004 C 
ENDBRANCH  11  12
ENDBRANCH  10  11
ENDBRANCH   9  10
ENDBRANCH   8   9
ENDBRANCH   1   8
TORSDOF 9
ENDMDL
MODEL 4
REMARK VINA RESULT:    -5.006      0.969      2.409
REMARK INTER + INTRA:          -8.637
REMARK INTER:                  -7.786
REMARK INTRA:                  -0.851
REMARK UNBOUND:                -0.997
REMARK SMILES CCCCCCCCCCC(=O)[O-]
REMARK SMILES IDX 7 1 8 2 9 3 10 4 11 5 12 6 13 7 6 8 5 9 4 10 3 11 2 12 1 13
REMARK H PARENT
REMARK Flexibility Score: inf
ROOT
ATOM      1  C   UNL     1      -5.588 -31.752 -51.485  1.00  0.00     0.000 C 
ENDROOT
BRANCH   1   2
ATOM      2  C   UNL     1      -4.365 -30.956 -51.970  1.00  0.00     0.000 C 
BRANCH   2   3
ATOM      3  C   UNL     1      -3.307 -31.845 -52.646  1.00  0.00     0.006 C 
BRANCH   3   4
ATOM      4  C   UNL     1      -3.056 -33.142 -51.865  1.00  0.00     0.053 C 
BRANCH   4   5
ATOM      5  C   UNL     1      -1.936 -32.990 -50.882  1.00  0.00     0.041 C 
ATOM      6  O   UNL     1      -1.801 -33.819 -49.944  1.00  0.00    -0.550 OA
ATOM      7  O   UNL     1      -1.063 -31.914 -50.981  1.00  0.00    -0.550 OA
ENDBRANCH   4   5
ENDBRANCH   3   4
ENDBRANCH   2   3
ENDBRANCH   1   2
BRANCH   1   8
ATOM      8  C   UNL     1      -5.842 -31.582 -49.977  1.00  0.00     0.000 C 
BRANCH   8   9
ATOM      9  C   UNL     1      -7.331 -31.387 -49.648  1.00  0.00    -0.000 C 
BRANCH   9  10
ATOM     10  C   UNL     1      -7.649 -29.969 -49.152  1.00  0.00    -0.000 C 
BRANCH  10  11
ATOM     11  C   UNL     1      -6.403 -29.306 -48.551  1.00  0.00    -0.000 C 
BRANCH  11  12
ATOM     12  C   UNL     1      -6.245 -27.868 -49.059  1.00  0.00    -0.003 C 
ATOM     13  C   UNL     1      -6.167 -27.826 -50.582  1.00  0.00     0.004 C 
ENDBRANCH  11  12
ENDBRANCH  10  11
ENDBRANCH   9  10
ENDBRANCH   8   9
ENDBRANCH   1   8
TORSDOF 9
ENDMDL
MODEL 5
REMARK VINA RESULT:    -4.906      2.754      4.110
REMARK INTER + INTRA:          -8.484
REMARK INTER:                  -7.744
REMARK INTRA:                  -0.740
REMARK UNBOUND:                -0.997
REMARK SMILES CCCCCCCCCCC(=O)[O-]
REMARK SMILES IDX 7 1 8 2 9 3 10 4 11 5 12 6 13 7 6 8 5 9 4 10 3 11 2 12 1 13
REMARK H PARENT
REMARK Flexibility Score: inf
ROOT
ATOM      1  C   UNL     1      -6.068 -31.992 -50.924  1.00  0.00     0.000 C 
ENDROOT
BRANCH   1   2
ATOM      2  C   UNL     1      -4.631 -32.266 -51.396  1.00  0.00     0.000 C 
BRANCH   2   3
ATOM      3  C   UNL     1      -4.158 -31.273 -52.471  1.00  0.00     0.006 C 
BRANCH   3   4
ATOM      4  C   UNL     1      -5.275 -30.313 -52.903  1.00  0.00     0.053 C 
BRANCH   4   5
ATOM      5  C   UNL     1      -5.284 -30.105 -54.387  1.00  0.00     0.041 C 
ATOM      6  O   UNL     1      -4.945 -31.039 -55.160  1.00  0.00    -0.550 OA
ATOM      7  O   UNL     1      -5.635 -28.868 -54.914  1.00  0.00    -0.550 OA
ENDBRANCH   4   5
ENDBRANCH   3   4
ENDBRANCH   2   3
ENDBRANCH   1   2
BRANCH   1   8
ATOM      8  C   UNL     1      -6.119 -31.393 -49.507  1.00  0.00     0.000 C 
BRANCH   8   9
ATOM      9  C   UNL     1      -7.555 -31.113 -49.036  1.00  0.00    -0.000 C 
BRANCH   9  10
ATOM     10  C   UNL     1      -7.716 -29.713 -48.425  1.00  0.00    -0.000 C 
BRANCH  10  11
ATOM     11  C   UNL     1      -6.372 -28.975 -48.382  1.00  0.00    -0.000 C 
BRANCH  11  12
ATOM     12  C   UNL     1      -6.448 -27.646 -49.142  1.00  0.00    -0.003 C 
ATOM     13  C   UNL     1      -6.020 -27.817 -50.596  1.00  0.00     0.004 C 
ENDBRANCH  11  12
ENDBRANCH  10  11
ENDBRANCH   9  10
ENDBRANCH   8   9
ENDBRANCH   1   8
TORSDOF 9
ENDMDL
MODEL 6
REMARK VINA RESULT:    -4.887      3.202      5.570
REMARK INTER + INTRA:          -8.456
REMARK INTER:                  -7.401
REMARK INTRA:                  -1.055
REMARK UNBOUND:                -0.997
REMARK SMILES CCCCCCCCCCC(=O)[O-]
REMARK SMILES IDX 7 1 8 2 9 3 10 4 11 5 12 6 13 7 6 8 5 9 4 10 3 11 2 12 1 13
REMARK H PARENT
REMARK Flexibility Score: inf
ROOT
ATOM      1  C   UNL     1      -1.242 -29.433 -51.729  1.00  0.00     0.000 C 
ENDROOT
BRANCH   1   2
ATOM      2  C   UNL     1      -2.381 -29.711 -52.723  1.00  0.00     0.000 C 
BRANCH   2   3
ATOM      3  C   UNL     1      -3.683 -28.980 -52.354  1.00  0.00     0.006 C 
BRANCH   3   4
ATOM      4  C   UNL     1      -4.924 -29.846 -52.607  1.00  0.00     0.053 C 
BRANCH   4   5
ATOM      5  C   UNL     1      -5.042 -30.241 -54.048  1.00  0.00     0.041 C 
ATOM      6  O   UNL     1      -5.420 -29.401 -54.906  1.00  0.00    -0.550 OA
ATOM      7  O   UNL     1      -4.766 -31.546 -54.436  1.00  0.00    -0.550 OA
ENDBRANCH   4   5
ENDBRANCH   3   4
ENDBRANCH   2   3
ENDBRANCH   1   2
BRANCH   1   8
ATOM      8  C   UNL     1      -0.310 -30.645 -51.546  1.00  0.00     0.000 C 
BRANCH   8   9
ATOM      9  C   UNL     1      -0.120 -31.444 -52.845  1.00  0.00    -0.000 C 
BRANCH   9  10
ATOM     10  C   UNL     1      -0.340 -32.951 -52.651  1.00  0.00    -0.000 C 
BRANCH  10  11
ATOM     11  C   UNL     1      -1.827 -33.309 -52.772  1.00  0.00    -0.000 C 
BRANCH  11  12
ATOM     12  C   UNL     1      -2.394 -33.773 -51.426  1.00  0.00    -0.003 C 
ATOM     13  C   UNL     1      -3.584 -32.917 -51.004  1.00  0.00     0.004 C 
ENDBRANCH  11  12
ENDBRANCH  10  11
ENDBRANCH   9  10
ENDBRANCH   8   9
ENDBRANCH   1   8
TORSDOF 9
ENDMDL
MODEL 7
REMARK VINA RESULT:    -4.837      3.330      5.945
REMARK INTER + INTRA:          -8.379
REMARK INTER:                  -7.808
REMARK INTRA:                  -0.571
REMARK UNBOUND:                -0.997
REMARK SMILES CCCCCCCCCCC(=O)[O-]
REMARK SMILES IDX 7 1 8 2 9 3 10 4 11 5 12 6 13 7 6 8 5 9 4 10 3 11 2 12 1 13
REMARK H PARENT
REMARK Flexibility Score: inf
ROOT
ATOM      1  C   UNL     1      -4.223 -32.373 -52.195  1.00  0.00     0.000 C 
ENDROOT
BRANCH   1   2
ATOM      2  C   UNL     1      -5.664 -32.155 -51.707  1.00  0.00     0.000 C 
BRANCH   2   3
ATOM      3  C   UNL     1      -5.804 -30.921 -50.799  1.00  0.00     0.006 C 
BRANCH   3   4
ATOM      4  C   UNL     1      -6.711 -31.190 -49.591  1.00  0.00     0.053 C 
BRANCH   4   5
ATOM      5  C   UNL     1      -7.509 -29.980 -49.214  1.00  0.00     0.041 C 
ATOM      6  O   UNL     1      -7.077 -28.828 -49.481  1.00  0.00    -0.550 OA
ATOM      7  O   UNL     1      -8.714 -30.124 -48.537  1.00  0.00    -0.550 OA
ENDBRANCH   4   5
ENDBRANCH   3   4
ENDBRANCH   2   3
ENDBRANCH   1   2
BRANCH   1   8
ATOM      8  C   UNL     1      -3.360 -33.125 -51.167  1.00  0.00     0.000 C 
BRANCH   8   9
ATOM      9  C   UNL     1      -1.972 -33.492 -51.717  1.00  0.00    -0.000 C 
BRANCH   9  10
ATOM     10  C   UNL     1      -1.745 -32.976 -53.145  1.00  0.00    -0.000 C 
BRANCH  10  11
ATOM     11  C   UNL     1      -0.644 -31.909 -53.175  1.00  0.00    -0.000 C 
BRANCH  11  12
ATOM     12  C   UNL     1      -0.119 -31.620 -51.764  1.00  0.00    -0.003 C 
ATOM     13  C   UNL     1      -0.384 -30.172 -51.363  1.00  0.00     0.004 C 
ENDBRANCH  11  12
ENDBRANCH  10  11
ENDBRANCH   9  10
ENDBRANCH   8   9
ENDBRANCH   1   8
TORSDOF 9
ENDMDL
MODEL 8
REMARK VINA RESULT:    -4.802      1.843      3.423
REMARK INTER + INTRA:          -8.326
REMARK INTER:                  -7.348
REMARK INTRA:                  -0.978
REMARK UNBOUND:                -0.997
REMARK SMILES CCCCCCCCCCC(=O)[O-]
REMARK SMILES IDX 7 1 8 2 9 3 10 4 11 5 12 6 13 7 6 8 5 9 4 10 3 11 2 12 1 13
REMARK H PARENT
REMARK Flexibility Score: inf
ROOT
ATOM      1  C   UNL     1      -5.144 -30.881 -52.752  1.00  0.00     0.000 C 
ENDROOT
BRANCH   1   2
ATOM      2  C   UNL     1      -5.163 -32.349 -52.295  1.00  0.00     0.000 C 
BRANCH   2   3
ATOM      3  C   UNL     1      -4.020 -32.682 -51.321  1.00  0.00     0.006 C 
BRANCH   3   4
ATOM      4  C   UNL     1      -2.722 -33.044 -52.054  1.00  0.00     0.053 C 
BRANCH   4   5
ATOM      5  C   UNL     1      -1.587 -33.261 -51.100  1.00  0.00     0.041 C 
ATOM      6  O   UNL     1      -1.793 -33.815 -49.987  1.00  0.00    -0.550 OA
ATOM      7  O   UNL     1      -0.310 -32.822 -51.425  1.00  0.00    -0.550 OA
ENDBRANCH   4   5
ENDBRANCH   3   4
ENDBRANCH   2   3
ENDBRANCH   1   2
BRANCH   1   8
ATOM      8  C   UNL     1      -5.391 -29.899 -51.592  1.00  0.00     0.000 C 
BRANCH   8   9
ATOM      9  C   UNL     1      -4.597 -28.592 -51.747  1.00  0.00    -0.000 C 
BRANCH   9  10
ATOM     10  C   UNL     1      -3.817 -28.524 -53.068  1.00  0.00    -0.000 C 
BRANCH  10  11
ATOM     11  C   UNL     1      -2.319 -28.322 -52.811  1.00  0.00    -0.000 C 
BRANCH  11  12
ATOM     12  C   UNL     1      -1.699 -29.563 -52.157  1.00  0.00    -0.003 C 
ATOM     13  C   UNL     1      -0.462 -29.198 -51.343  1.00  0.00     0.004 C 
ENDBRANCH  11  12
ENDBRANCH  10  11
ENDBRANCH   9  10
ENDBRANCH   8   9
ENDBRANCH   1   8
TORSDOF 9
ENDMDL
MODEL 9
REMARK VINA RESULT:    -4.769      3.233      5.651
REMARK INTER + INTRA:          -8.275
REMARK INTER:                  -7.599
REMARK INTRA:                  -0.677
REMARK UNBOUND:                -0.997
REMARK SMILES CCCCCCCCCCC(=O)[O-]
REMARK SMILES IDX 7 1 8 2 9 3 10 4 11 5 12 6 13 7 6 8 5 9 4 10 3 11 2 12 1 13
REMARK H PARENT
REMARK Flexibility Score: inf
ROOT
ATOM      1  C   UNL     1      -5.687 -31.571 -50.166  1.00  0.00     0.000 C 
ENDROOT
BRANCH   1   2
ATOM      2  C   UNL     1      -7.156 -31.321 -49.787  1.00  0.00     0.000 C 
BRANCH   2   3
ATOM      3  C   UNL     1      -7.383 -29.926 -49.179  1.00  0.00     0.006 C 
BRANCH   3   4
ATOM      4  C   UNL     1      -6.344 -28.906 -49.666  1.00  0.00     0.053 C 
BRANCH   4   5
ATOM      5  C   UNL     1      -6.470 -27.598 -48.947  1.00  0.00     0.041 C 
ATOM      6  O   UNL     1      -6.328 -27.547 -47.697  1.00  0.00    -0.550 OA
ATOM      7  O   UNL     1      -6.779 -26.442 -49.652  1.00  0.00    -0.550 OA
ENDBRANCH   4   5
ENDBRANCH   3   4
ENDBRANCH   2   3
ENDBRANCH   1   2
BRANCH   1   8
ATOM      8  C   UNL     1      -5.516 -31.931 -51.652  1.00  0.00     0.000 C 
BRANCH   8   9
ATOM      9  C   UNL     1      -4.730 -30.863 -52.431  1.00  0.00    -0.000 C 
BRANCH   9  10
ATOM     10  C   UNL     1      -3.235 -31.193 -52.545  1.00  0.00    -0.000 C 
BRANCH  10  11
ATOM     11  C   UNL     1      -3.025 -32.615 -53.078  1.00  0.00    -0.000 C 
BRANCH  11  12
ATOM     12  C   UNL     1      -1.969 -33.362 -52.255  1.00  0.00    -0.003 C 
ATOM     13  C   UNL     1      -2.548 -33.858 -50.934  1.00  0.00     0.004 C 
ENDBRANCH  11  12
ENDBRANCH  10  11
ENDBRANCH   9  10
ENDBRANCH   8   9
ENDBRANCH   1   8
TORSDOF 9
ENDMDL
