MODEL 1
REMARK VINA RESULT:    -3.527      0.000      0.000
REMARK INTER + INTRA:          -4.387
REMARK INTER:                  -4.352
REMARK INTRA:                  -0.036
REMARK UNBOUND:                -0.036
REMARK SMILES CCCCCC=O
REMARK SMILES IDX 4 1 3 2 2 3 1 4 5 5 6 6 7 7
REMARK H PARENT
REMARK Flexibility Score: inf
ROOT
ATOM      1  C   UNL     1      24.389  55.726  -8.592  1.00  0.00     0.008 C 
ENDROOT
BRANCH   1   2
ATOM      2  C   UNL     1      25.709  56.511  -8.699  1.00  0.00     0.000 C 
BRANCH   2   3
ATOM      3  C   UNL     1      25.549  57.995  -9.076  1.00  0.00    -0.003 C 
ATOM      4  C   UNL     1      26.713  58.528  -9.910  1.00  0.00     0.004 C 
ENDBRANCH   2   3
ENDBRANCH   1   2
BRANCH   1   5
ATOM      5  C   UNL     1      23.825  55.696  -7.165  1.00  0.00     0.072 C 
BRANCH   5   6
ATOM      6  C   UNL     1      22.625  54.802  -7.084  1.00  0.00     0.224 C 
ATOM      7  O   UNL     1      22.160  54.488  -6.000  1.00  0.00    -0.303 OA
ENDBRANCH   5   6
ENDBRANCH   1   5
TORSDOF 4
ENDMDL
MODEL 2
REMARK VINA RESULT:    -3.374      1.270      2.054
REMARK INTER + INTRA:          -4.199
REMARK INTER:                  -4.171
REMARK INTRA:                  -0.028
REMARK UNBOUND:                -0.036
REMARK SMILES CCCCCC=O
REMARK SMILES IDX 4 1 3 2 2 3 1 4 5 5 6 6 7 7
REMARK H PARENT
REMARK Flexibility Score: inf
ROOT
ATOM      1  C   UNL     1      25.814  57.088  -9.082  1.00  0.00     0.008 C 
ENDROOT
BRANCH   1   2
ATOM      2  C   UNL     1      26.119  58.562  -9.401  1.00  0.00     0.000 C 
BRANCH   2   3
ATOM      3  C   UNL     1      27.226  58.780 -10.448  1.00  0.00    -0.003 C 
ATOM      4  C   UNL     1      27.854  60.171 -10.373  1.00  0.00     0.004 C 
ENDBRANCH   2   3
ENDBRANCH   1   2
BRANCH   1   5
ATOM      5  C   UNL     1      24.395  56.877  -8.535  1.00  0.00     0.072 C 
BRANCH   5   6
ATOM      6  C   UNL     1      24.248  55.505  -7.947  1.00  0.00     0.224 C 
ATOM      7  O   UNL     1      23.206  55.173  -7.406  1.00  0.00    -0.303 OA
ENDBRANCH   5   6
ENDBRANCH   1   5
TORSDOF 4
ENDMDL
MODEL 3
REMARK VINA RESULT:    -3.338      3.581      5.337
REMARK INTER + INTRA:          -4.155
REMARK INTER:                  -4.119
REMARK INTRA:                  -0.036
REMARK UNBOUND:                -0.036
REMARK SMILES CCCCCC=O
REMARK SMILES IDX 4 1 3 2 2 3 1 4 5 5 6 6 7 7
REMARK H PARENT
REMARK Flexibility Score: inf
ROOT
ATOM      1  C   UNL     1      25.476  58.075  -8.988  1.00  0.00     0.008 C 
ENDROOT
BRANCH   1   2
ATOM      2  C   UNL     1      25.702  56.595  -8.627  1.00  0.00     0.000 C 
BRANCH   2   3
ATOM      3  C   UNL     1      24.454  55.703  -8.750  1.00  0.00    -0.003 C 
ATOM      4  C   UNL     1      23.672  55.586  -7.442  1.00  0.00     0.004 C 
ENDBRANCH   2   3
ENDBRANCH   1   2
BRANCH   1   5
ATOM      5  C   UNL     1      26.665  58.696  -9.733  1.00  0.00     0.072 C 
BRANCH   5   6
ATOM      6  C   UNL     1      26.629  60.192  -9.643  1.00  0.00     0.224 C 
ATOM      7  O   UNL     1      27.391  60.870 -10.313  1.00  0.00    -0.303 OA
ENDBRANCH   5   6
ENDBRANCH   1   5
TORSDOF 4
ENDMDL
MODEL 4
REMARK VINA RESULT:    -3.225     15.485     16.732
REMARK INTER + INTRA:          -4.015
REMARK INTER:                  -3.863
REMARK INTRA:                  -0.152
REMARK UNBOUND:                -0.036
REMARK SMILES CCCCCC=O
REMARK SMILES IDX 4 1 3 2 2 3 1 4 5 5 6 6 7 7
REMARK H PARENT
REMARK Flexibility Score: inf
ROOT
ATOM      1  C   UNL     1      19.526  44.745   0.305  1.00  0.00     0.008 C 
ENDROOT
BRANCH   1   2
ATOM      2  C   UNL     1      18.013  44.476   0.221  1.00  0.00     0.000 C 
BRANCH   2   3
ATOM      3  C   UNL     1      17.387  43.898   1.502  1.00  0.00    -0.003 C 
ATOM      4  C   UNL     1      16.016  44.495   1.819  1.00  0.00     0.004 C 
ENDBRANCH   2   3
ENDBRANCH   1   2
BRANCH   1   5
ATOM      5  C   UNL     1      20.166  44.162   1.573  1.00  0.00     0.072 C 
BRANCH   5   6
ATOM      6  C   UNL     1      21.025  42.979   1.241  1.00  0.00     0.224 C 
ATOM      7  O   UNL     1      20.726  42.237   0.319  1.00  0.00    -0.303 OA
ENDBRANCH   5   6
ENDBRANCH   1   5
TORSDOF 4
ENDMDL
MODEL 5
REMARK VINA RESULT:    -3.157     14.834     15.856
REMARK INTER + INTRA:          -3.931
REMARK INTER:                  -3.779
REMARK INTRA:                  -0.153
REMARK UNBOUND:                -0.036
REMARK SMILES CCCCCC=O
REMARK SMILES IDX 4 1 3 2 2 3 1 4 5 5 6 6 7 7
REMARK H PARENT
REMARK Flexibility Score: inf
ROOT
ATOM      1  C   UNL     1      19.848  45.150   0.007  1.00  0.00     0.008 C 
ENDROOT
BRANCH   1   2
ATOM      2  C   UNL     1      19.892  44.426   1.365  1.00  0.00     0.000 C 
BRANCH   2   3
ATOM      3  C   UNL     1      20.932  43.296   1.461  1.00  0.00    -0.003 C 
ATOM      4  C   UNL     1      20.928  42.376   0.241  1.00  0.00     0.004 C 
ENDBRANCH   2   3
ENDBRANCH   1   2
BRANCH   1   5
ATOM      5  C   UNL     1      18.430  45.575  -0.397  1.00  0.00     0.072 C 
BRANCH   5   6
ATOM      6  C   UNL     1      17.416  44.583   0.088  1.00  0.00     0.224 C 
ATOM      7  O   UNL     1      16.282  44.941   0.363  1.00  0.00    -0.303 OA
ENDBRANCH   5   6
ENDBRANCH   1   5
TORSDOF 4
ENDMDL
MODEL 6
REMARK VINA RESULT:    -3.056     14.562     15.454
REMARK INTER + INTRA:          -3.807
REMARK INTER:                  -3.749
REMARK INTRA:                  -0.057
REMARK UNBOUND:                -0.036
REMARK SMILES CCCCCC=O
REMARK SMILES IDX 4 1 3 2 2 3 1 4 5 5 6 6 7 7
REMARK H PARENT
REMARK Flexibility Score: inf
ROOT
ATOM      1  C   UNL     1      30.453  45.482   1.177  1.00  0.00     0.008 C 
ENDROOT
BRANCH   1   2
ATOM      2  C   UNL     1      31.983  45.633   1.104  1.00  0.00     0.000 C 
BRANCH   2   3
ATOM      3  C   UNL     1      32.679  45.811   2.465  1.00  0.00    -0.003 C 
ATOM      4  C   UNL     1      32.222  47.065   3.211  1.00  0.00     0.004 C 
ENDBRANCH   2   3
ENDBRANCH   1   2
BRANCH   1   5
ATOM      5  C   UNL     1      29.873  44.703  -0.011  1.00  0.00     0.072 C 
BRANCH   5   6
ATOM      6  C   UNL     1      28.526  45.239  -0.395  1.00  0.00     0.224 C 
ATOM      7  O   UNL     1      28.290  46.434  -0.316  1.00  0.00    -0.303 OA
ENDBRANCH   5   6
ENDBRANCH   1   5
TORSDOF 4
ENDMDL
MODEL 7
REMARK VINA RESULT:    -3.016     14.466     16.198
REMARK INTER + INTRA:          -3.757
REMARK INTER:                  -3.660
REMARK INTRA:                  -0.097
REMARK UNBOUND:                -0.036
REMARK SMILES CCCCCC=O
REMARK SMILES IDX 4 1 3 2 2 3 1 4 5 5 6 6 7 7
REMARK H PARENT
REMARK Flexibility Score: inf
ROOT
ATOM      1  C   UNL     1      18.868  43.927   1.690  1.00  0.00     0.008 C 
ENDROOT
BRANCH   1   2
ATOM      2  C   UNL     1      17.812  44.184   0.600  1.00  0.00     0.000 C 
BRANCH   2   3
ATOM      3  C   UNL     1      18.086  45.410  -0.289  1.00  0.00    -0.003 C 
ATOM      4  C   UNL     1      19.570  45.765  -0.376  1.00  0.00     0.004 C 
ENDBRANCH   2   3
ENDBRANCH   1   2
BRANCH   1   5
ATOM      5  C   UNL     1      19.609  42.597   1.503  1.00  0.00     0.072 C 
BRANCH   5   6
ATOM      6  C   UNL     1      21.016  42.829   1.042  1.00  0.00     0.224 C 
ATOM      7  O   UNL     1      21.459  42.227   0.077  1.00  0.00    -0.303 OA
ENDBRANCH   5   6
ENDBRANCH   1   5
TORSDOF 4
ENDMDL
MODEL 8
REMARK VINA RESULT:    -2.983     14.929     15.932
REMARK INTER + INTRA:          -3.716
REMARK INTER:                  -3.655
REMARK INTRA:                  -0.061
REMARK UNBOUND:                -0.036
REMARK SMILES CCCCCC=O
REMARK SMILES IDX 4 1 3 2 2 3 1 4 5 5 6 6 7 7
REMARK H PARENT
REMARK Flexibility Score: inf
ROOT
ATOM      1  C   UNL     1      31.848  45.608   0.912  1.00  0.00     0.008 C 
ENDROOT
BRANCH   1   2
ATOM      2  C   UNL     1      30.373  45.227   1.131  1.00  0.00     0.000 C 
BRANCH   2   3
ATOM      3  C   UNL     1      29.571  44.980  -0.159  1.00  0.00    -0.003 C 
ATOM      4  C   UNL     1      28.466  46.012  -0.383  1.00  0.00     0.004 C 
ENDBRANCH   2   3
ENDBRANCH   1   2
BRANCH   1   5
ATOM      5  C   UNL     1      32.671  45.580   2.206  1.00  0.00     0.072 C 
BRANCH   5   6
ATOM      6  C   UNL     1      32.772  46.951   2.805  1.00  0.00     0.224 C 
ATOM      7  O   UNL     1      31.893  47.371   3.540  1.00  0.00    -0.303 OA
ENDBRANCH   5   6
ENDBRANCH   1   5
TORSDOF 4
ENDMDL
