MODEL 1
REMARK VINA RESULT:    -4.808      0.000      0.000
REMARK INTER + INTRA:         -14.803
REMARK INTER:                 -12.678
REMARK INTRA:                  -2.125
REMARK UNBOUND:                -2.125
REMARK SMILES CCCCCCCCCCCCCCCCCCCCCCCCCCCCCC(=O)[O-]
REMARK SMILES IDX 16 1 17 2 18 3 19 4 20 5 21 6 22 7 23 8 24 9 25 10 26 11
REMARK SMILES IDX 27 12 28 13 29 14 30 15 31 16 32 17 15 18 14 19 13 20 12 21
REMARK SMILES IDX 11 22 10 23 9 24 8 25 7 26 6 27 5 28 4 29 3 30 2 31 1 32
REMARK H PARENT
REMARK Flexibility Score: inf
ROOT
ATOM      1  C   UNL     1      53.264  57.380  94.092  1.00  0.00     0.000 C 
ENDROOT
BRANCH   1   2
ATOM      2  C   UNL     1      52.358  56.377  94.830  1.00  0.00     0.000 C 
BRANCH   2   3
ATOM      3  C   UNL     1      52.850  54.915  94.837  1.00  0.00     0.000 C 
BRANCH   3   4
ATOM      4  C   UNL     1      53.158  54.324  93.449  1.00  0.00     0.000 C 
BRANCH   4   5
ATOM      5  C   UNL     1      51.966  54.421  92.486  1.00  0.00     0.000 C 
BRANCH   5   6
ATOM      6  C   UNL     1      51.276  53.059  92.323  1.00  0.00     0.000 C 
BRANCH   6   7
ATOM      7  C   UNL     1      52.275  51.890  92.307  1.00  0.00     0.000 C 
BRANCH   7   8
ATOM      8  C   UNL     1      51.627  50.552  92.705  1.00  0.00     0.000 C 
BRANCH   8   9
ATOM      9  C   UNL     1      52.528  49.341  92.416  1.00  0.00     0.000 C 
BRANCH   9  10
ATOM     10  C   UNL     1      52.130  48.102  93.237  1.00  0.00     0.000 C 
BRANCH  10  11
ATOM     11  C   UNL     1      52.866  48.076  94.582  1.00  0.00     0.000 C 
BRANCH  11  12
ATOM     12  C   UNL     1      54.388  48.097  94.373  1.00  0.00     0.000 C 
BRANCH  12  13
ATOM     13  C   UNL     1      55.048  49.371  94.922  1.00  0.00     0.006 C 
BRANCH  13  14
ATOM     14  C   UNL     1      56.469  49.589  94.380  1.00  0.00     0.053 C 
BRANCH  14  15
ATOM     15  C   UNL     1      57.518  49.275  95.407  1.00  0.00     0.041 C 
ATOM     16  O   UNL     1      57.199  49.032  96.603  1.00  0.00    -0.550 OA
ATOM     17  O   UNL     1      58.862  49.331  95.054  1.00  0.00    -0.550 OA
ENDBRANCH  14  15
ENDBRANCH  13  14
ENDBRANCH  12  13
ENDBRANCH  11  12
ENDBRANCH  10  11
ENDBRANCH   9  10
ENDBRANCH   8   9
ENDBRANCH   7   8
ENDBRANCH   6   7
ENDBRANCH   5   6
ENDBRANCH   4   5
ENDBRANCH   3   4
ENDBRANCH   2   3
ENDBRANCH   1   2
BRANCH   1  18
ATOM     18  C   UNL     1      52.580  58.234  93.007  1.00  0.00     0.000 C 
BRANCH  18  19
ATOM     19  C   UNL     1      51.125  57.834  92.693  1.00  0.00     0.000 C 
BRANCH  19  20
ATOM     20  C   UNL     1      50.104  58.958  92.970  1.00  0.00     0.000 C 
BRANCH  20  21
ATOM     21  C   UNL     1      49.786  59.110  94.464  1.00  0.00     0.000 C 
BRANCH  21  22
ATOM     22  C   UNL     1      49.735  60.580  94.916  1.00  0.00     0.000 C 
BRANCH  22  23
ATOM     23  C   UNL     1      50.027  61.568  93.773  1.00  0.00     0.000 C 
BRANCH  23  24
ATOM     24  C   UNL     1      48.788  62.264  93.181  1.00  0.00    -0.000 C 
BRANCH  24  25
ATOM     25  C   UNL     1      48.920  63.793  93.119  1.00  0.00    -0.000 C 
BRANCH  25  26
ATOM     26  C   UNL     1      47.710  64.418  92.408  1.00  0.00    -0.000 C 
BRANCH  26  27
ATOM     27  C   UNL     1      47.772  65.955  92.372  1.00  0.00    -0.000 C 
BRANCH  27  28
ATOM     28  C   UNL     1      47.956  66.552  90.963  1.00  0.00    -0.000 C 
BRANCH  28  29
ATOM     29  C   UNL     1      49.084  67.602  90.878  1.00  0.00    -0.000 C 
BRANCH  29  30
ATOM     30  C   UNL     1      50.452  67.072  91.363  1.00  0.00    -0.000 C 
BRANCH  30  31
ATOM     31  C   UNL     1      50.820  67.536  92.782  1.00  0.00    -0.003 C 
ATOM     32  C   UNL     1      52.215  67.079  93.210  1.00  0.00     0.004 C 
ENDBRANCH  30  31
ENDBRANCH  29  30
ENDBRANCH  28  29
ENDBRANCH  27  28
ENDBRANCH  26  27
ENDBRANCH  25  26
ENDBRANCH  24  25
ENDBRANCH  23  24
ENDBRANCH  22  23
ENDBRANCH  21  22
ENDBRANCH  20  21
ENDBRANCH  19  20
ENDBRANCH  18  19
ENDBRANCH   1  18
TORSDOF 28
ENDMDL
MODEL 2
REMARK VINA RESULT:    -4.790      3.744      6.083
REMARK INTER + INTRA:         -14.755
REMARK INTER:                 -11.264
REMARK INTRA:                  -3.491
REMARK UNBOUND:                -2.125
REMARK SMILES CCCCCCCCCCCCCCCCCCCCCCCCCCCCCC(=O)[O-]
REMARK SMILES IDX 16 1 17 2 18 3 19 4 20 5 21 6 22 7 23 8 24 9 25 10 26 11
REMARK SMILES IDX 27 12 28 13 29 14 30 15 31 16 32 17 15 18 14 19 13 20 12 21
REMARK SMILES IDX 11 22 10 23 9 24 8 25 7 26 6 27 5 28 4 29 3 30 2 31 1 32
REMARK H PARENT
REMARK Flexibility Score: inf
ROOT
ATOM      1  C   UNL     1      50.338  61.486  94.022  1.00  0.00     0.000 C 
ENDROOT
BRANCH   1   2
ATOM      2  C   UNL     1      49.455  60.593  94.913  1.00  0.00     0.000 C 
BRANCH   2   3
ATOM      3  C   UNL     1      50.036  59.205  95.249  1.00  0.00     0.000 C 
BRANCH   3   4
ATOM      4  C   UNL     1      49.140  58.013  94.866  1.00  0.00     0.000 C 
BRANCH   4   5
ATOM      5  C   UNL     1      49.743  57.155  93.745  1.00  0.00     0.000 C 
BRANCH   5   6
ATOM      6  C   UNL     1      50.171  58.024  92.554  1.00  0.00     0.000 C 
BRANCH   6   7
ATOM      7  C   UNL     1      51.184  57.316  91.640  1.00  0.00     0.000 C 
BRANCH   7   8
ATOM      8  C   UNL     1      52.545  58.034  91.594  1.00  0.00     0.000 C 
BRANCH   8   9
ATOM      9  C   UNL     1      52.670  59.147  92.647  1.00  0.00     0.000 C 
BRANCH   9  10
ATOM     10  C   UNL     1      53.315  58.652  93.953  1.00  0.00     0.000 C 
BRANCH  10  11
ATOM     11  C   UNL     1      53.646  57.157  93.868  1.00  0.00     0.000 C 
BRANCH  11  12
ATOM     12  C   UNL     1      52.987  56.384  95.020  1.00  0.00     0.000 C 
BRANCH  12  13
ATOM     13  C   UNL     1      52.373  55.050  94.569  1.00  0.00     0.006 C 
BRANCH  13  14
ATOM     14  C   UNL     1      53.068  54.460  93.332  1.00  0.00     0.053 C 
BRANCH  14  15
ATOM     15  C   UNL     1      52.084  54.025  92.286  1.00  0.00     0.041 C 
ATOM     16  O   UNL     1      50.906  53.704  92.601  1.00  0.00    -0.550 OA
ATOM     17  O   UNL     1      52.499  53.897  90.965  1.00  0.00    -0.550 OA
ENDBRANCH  14  15
ENDBRANCH  13  14
ENDBRANCH  12  13
ENDBRANCH  11  12
ENDBRANCH  10  11
ENDBRANCH   9  10
ENDBRANCH   8   9
ENDBRANCH   7   8
ENDBRANCH   6   7
ENDBRANCH   5   6
ENDBRANCH   4   5
ENDBRANCH   3   4
ENDBRANCH   2   3
ENDBRANCH   1   2
BRANCH   1  18
ATOM     18  C   UNL     1      49.741  61.877  92.656  1.00  0.00     0.000 C 
BRANCH  18  19
ATOM     19  C   UNL     1      48.201  61.917  92.613  1.00  0.00     0.000 C 
BRANCH  19  20
ATOM     20  C   UNL     1      47.622  63.347  92.585  1.00  0.00     0.000 C 
BRANCH  20  21
ATOM     21  C   UNL     1      48.660  64.410  92.974  1.00  0.00     0.000 C 
BRANCH  21  22
ATOM     22  C   UNL     1      48.018  65.744  93.392  1.00  0.00     0.000 C 
BRANCH  22  23
ATOM     23  C   UNL     1      46.740  66.069  92.598  1.00  0.00     0.000 C 
BRANCH  23  24
ATOM     24  C   UNL     1      46.966  66.843  91.286  1.00  0.00    -0.000 C 
BRANCH  24  25
ATOM     25  C   UNL     1      48.319  66.538  90.626  1.00  0.00    -0.000 C 
BRANCH  25  26
ATOM     26  C   UNL     1      48.971  67.824  90.096  1.00  0.00    -0.000 C 
BRANCH  26  27
ATOM     27  C   UNL     1      50.448  67.955  90.510  1.00  0.00    -0.000 C 
BRANCH  27  28
ATOM     28  C   UNL     1      50.834  67.138  91.757  1.00  0.00    -0.000 C 
BRANCH  28  29
ATOM     29  C   UNL     1      51.955  67.786  92.599  1.00  0.00    -0.000 C 
BRANCH  29  30
ATOM     30  C   UNL     1      51.637  67.832  94.110  1.00  0.00    -0.000 C 
BRANCH  30  31
ATOM     31  C   UNL     1      52.890  67.806  95.000  1.00  0.00    -0.003 C 
ATOM     32  C   UNL     1      54.169  67.525  94.212  1.00  0.00     0.004 C 
ENDBRANCH  30  31
ENDBRANCH  29  30
ENDBRANCH  28  29
ENDBRANCH  27  28
ENDBRANCH  26  27
ENDBRANCH  25  26
ENDBRANCH  24  25
ENDBRANCH  23  24
ENDBRANCH  22  23
ENDBRANCH  21  22
ENDBRANCH  20  21
ENDBRANCH  19  20
ENDBRANCH  18  19
ENDBRANCH   1  18
TORSDOF 28
ENDMDL
MODEL 3
REMARK VINA RESULT:    -4.591      1.164      2.558
REMARK INTER + INTRA:         -14.231
REMARK INTER:                 -12.717
REMARK INTRA:                  -1.514
REMARK UNBOUND:                -2.125
REMARK SMILES CCCCCCCCCCCCCCCCCCCCCCCCCCCCCC(=O)[O-]
REMARK SMILES IDX 16 1 17 2 18 3 19 4 20 5 21 6 22 7 23 8 24 9 25 10 26 11
REMARK SMILES IDX 27 12 28 13 29 14 30 15 31 16 32 17 15 18 14 19 13 20 12 21
REMARK SMILES IDX 11 22 10 23 9 24 8 25 7 26 6 27 5 28 4 29 3 30 2 31 1 32
REMARK H PARENT
REMARK Flexibility Score: inf
ROOT
ATOM      1  C   UNL     1      50.417  58.083  94.060  1.00  0.00     0.000 C 
ENDROOT
BRANCH   1   2
ATOM      2  C   UNL     1      51.639  57.301  94.578  1.00  0.00     0.000 C 
BRANCH   2   3
ATOM      3  C   UNL     1      52.342  56.401  93.542  1.00  0.00     0.000 C 
BRANCH   3   4
ATOM      4  C   UNL     1      53.206  55.274  94.136  1.00  0.00     0.000 C 
BRANCH   4   5
ATOM      5  C   UNL     1      52.974  53.923  93.445  1.00  0.00     0.000 C 
BRANCH   5   6
ATOM      6  C   UNL     1      51.854  54.022  92.400  1.00  0.00     0.000 C 
BRANCH   6   7
ATOM      7  C   UNL     1      51.245  52.653  92.056  1.00  0.00     0.000 C 
BRANCH   7   8
ATOM      8  C   UNL     1      52.190  51.484  92.387  1.00  0.00     0.000 C 
BRANCH   8   9
ATOM      9  C   UNL     1      51.450  50.151  92.578  1.00  0.00     0.000 C 
BRANCH   9  10
ATOM     10  C   UNL     1      52.402  48.942  92.573  1.00  0.00     0.000 C 
BRANCH  10  11
ATOM     11  C   UNL     1      53.136  48.818  93.914  1.00  0.00     0.000 C 
BRANCH  11  12
ATOM     12  C   UNL     1      54.350  47.886  93.789  1.00  0.00     0.000 C 
BRANCH  12  13
ATOM     13  C   UNL     1      55.433  48.439  92.850  1.00  0.00     0.006 C 
BRANCH  13  14
ATOM     14  C   UNL     1      56.855  48.239  93.397  1.00  0.00     0.053 C 
BRANCH  14  15
ATOM     15  C   UNL     1      57.181  49.214  94.490  1.00  0.00     0.041 C 
ATOM     16  O   UNL     1      56.340  50.080  94.855  1.00  0.00    -0.550 OA
ATOM     17  O   UNL     1      58.453  49.215  95.052  1.00  0.00    -0.550 OA
ENDBRANCH  14  15
ENDBRANCH  13  14
ENDBRANCH  12  13
ENDBRANCH  11  12
ENDBRANCH  10  11
ENDBRANCH   9  10
ENDBRANCH   8   9
ENDBRANCH   7   8
ENDBRANCH   6   7
ENDBRANCH   5   6
ENDBRANCH   4   5
ENDBRANCH   3   4
ENDBRANCH   2   3
ENDBRANCH   1   2
BRANCH   1  18
ATOM     18  C   UNL     1      49.495  58.686  95.139  1.00  0.00     0.000 C 
BRANCH  18  19
ATOM     19  C   UNL     1      49.385  60.223  95.106  1.00  0.00     0.000 C 
BRANCH  19  20
ATOM     20  C   UNL     1      49.617  60.829  93.706  1.00  0.00     0.000 C 
BRANCH  20  21
ATOM     21  C   UNL     1      49.753  62.358  93.741  1.00  0.00     0.000 C 
BRANCH  21  22
ATOM     22  C   UNL     1      48.660  63.071  92.925  1.00  0.00     0.000 C 
BRANCH  22  23
ATOM     23  C   UNL     1      48.752  64.605  93.013  1.00  0.00     0.000 C 
BRANCH  23  24
ATOM     24  C   UNL     1      47.653  65.368  92.252  1.00  0.00    -0.000 C 
BRANCH  24  25
ATOM     25  C   UNL     1      48.020  66.831  91.960  1.00  0.00    -0.000 C 
BRANCH  25  26
ATOM     26  C   UNL     1      48.923  66.930  90.722  1.00  0.00    -0.000 C 
BRANCH  26  27
ATOM     27  C   UNL     1      50.232  67.691  91.001  1.00  0.00    -0.000 C 
BRANCH  27  28
ATOM     28  C   UNL     1      50.522  67.931  92.495  1.00  0.00    -0.000 C 
BRANCH  28  29
ATOM     29  C   UNL     1      51.628  67.018  93.065  1.00  0.00    -0.000 C 
BRANCH  29  30
ATOM     30  C   UNL     1      52.565  67.739  94.061  1.00  0.00    -0.000 C 
BRANCH  30  31
ATOM     31  C   UNL     1      54.055  67.599  93.709  1.00  0.00    -0.003 C 
ATOM     32  C   UNL     1      54.969  67.791  94.920  1.00  0.00     0.004 C 
ENDBRANCH  30  31
ENDBRANCH  29  30
ENDBRANCH  28  29
ENDBRANCH  27  28
ENDBRANCH  26  27
ENDBRANCH  25  26
ENDBRANCH  24  25
ENDBRANCH  23  24
ENDBRANCH  22  23
ENDBRANCH  21  22
ENDBRANCH  20  21
ENDBRANCH  19  20
ENDBRANCH  18  19
ENDBRANCH   1  18
TORSDOF 28
ENDMDL
MODEL 4
REMARK VINA RESULT:    -4.538      4.783     14.389
REMARK INTER + INTRA:         -14.090
REMARK INTER:                 -12.394
REMARK INTRA:                  -1.697
REMARK UNBOUND:                -2.125
REMARK SMILES CCCCCCCCCCCCCCCCCCCCCCCCCCCCCC(=O)[O-]
REMARK SMILES IDX 16 1 17 2 18 3 19 4 20 5 21 6 22 7 23 8 24 9 25 10 26 11
REMARK SMILES IDX 27 12 28 13 29 14 30 15 31 16 32 17 15 18 14 19 13 20 12 21
REMARK SMILES IDX 11 22 10 23 9 24 8 25 7 26 6 27 5 28 4 29 3 30 2 31 1 32
REMARK H PARENT
REMARK Flexibility Score: inf
ROOT
ATOM      1  C   UNL     1      53.358  57.304  94.056  1.00  0.00     0.000 C 
ENDROOT
BRANCH   1   2
ATOM      2  C   UNL     1      52.698  58.416  93.220  1.00  0.00     0.000 C 
BRANCH   2   3
ATOM      3  C   UNL     1      51.459  57.991  92.406  1.00  0.00     0.000 C 
BRANCH   3   4
ATOM      4  C   UNL     1      50.110  58.471  92.972  1.00  0.00     0.000 C 
BRANCH   4   5
ATOM      5  C   UNL     1      50.269  59.570  94.031  1.00  0.00     0.000 C 
BRANCH   5   6
ATOM      6  C   UNL     1      50.384  60.954  93.377  1.00  0.00     0.000 C 
BRANCH   6   7
ATOM      7  C   UNL     1      49.013  61.573  93.060  1.00  0.00     0.000 C 
BRANCH   7   8
ATOM      8  C   UNL     1      49.008  63.106  93.199  1.00  0.00     0.000 C 
BRANCH   8   9
ATOM      9  C   UNL     1      47.778  63.762  92.553  1.00  0.00     0.000 C 
BRANCH   9  10
ATOM     10  C   UNL     1      48.040  65.217  92.129  1.00  0.00     0.000 C 
BRANCH  10  11
ATOM     11  C   UNL     1      49.135  65.851  92.996  1.00  0.00     0.000 C 
BRANCH  11  12
ATOM     12  C   UNL     1      49.997  66.817  92.169  1.00  0.00     0.000 C 
BRANCH  12  13
ATOM     13  C   UNL     1      50.771  67.820  93.039  1.00  0.00     0.006 C 
BRANCH  13  14
ATOM     14  C   UNL     1      52.289  67.763  92.808  1.00  0.00     0.053 C 
BRANCH  14  15
ATOM     15  C   UNL     1      53.045  67.531  94.083  1.00  0.00     0.041 C 
ATOM     16  O   UNL     1      52.511  67.762  95.202  1.00  0.00    -0.550 OA
ATOM     17  O   UNL     1      54.377  67.134  94.029  1.00  0.00    -0.550 OA
ENDBRANCH  14  15
ENDBRANCH  13  14
ENDBRANCH  12  13
ENDBRANCH  11  12
ENDBRANCH  10  11
ENDBRANCH   9  10
ENDBRANCH   8   9
ENDBRANCH   7   8
ENDBRANCH   6   7
ENDBRANCH   5   6
ENDBRANCH   4   5
ENDBRANCH   3   4
ENDBRANCH   2   3
ENDBRANCH   1   2
BRANCH   1  18
ATOM     18  C   UNL     1      52.399  56.401  94.856  1.00  0.00     0.000 C 
BRANCH  18  19
ATOM     19  C   UNL     1      52.839  54.928  94.964  1.00  0.00     0.000 C 
BRANCH  19  20
ATOM     20  C   UNL     1      53.069  54.251  93.596  1.00  0.00     0.000 C 
BRANCH  20  21
ATOM     21  C   UNL     1      51.820  54.289  92.704  1.00  0.00     0.000 C 
BRANCH  21  22
ATOM     22  C   UNL     1      51.750  53.102  91.727  1.00  0.00     0.000 C 
BRANCH  22  23
ATOM     23  C   UNL     1      52.407  51.827  92.286  1.00  0.00     0.000 C 
BRANCH  23  24
ATOM     24  C   UNL     1      51.428  50.696  92.650  1.00  0.00    -0.000 C 
BRANCH  24  25
ATOM     25  C   UNL     1      51.973  49.295  92.335  1.00  0.00    -0.000 C 
BRANCH  25  26
ATOM     26  C   UNL     1      53.198  48.976  93.205  1.00  0.00    -0.000 C 
BRANCH  26  27
ATOM     27  C   UNL     1      52.869  48.019  94.365  1.00  0.00    -0.000 C 
BRANCH  27  28
ATOM     28  C   UNL     1      53.664  48.289  95.657  1.00  0.00    -0.000 C 
BRANCH  28  29
ATOM     29  C   UNL     1      55.174  47.993  95.528  1.00  0.00    -0.000 C 
BRANCH  29  30
ATOM     30  C   UNL     1      56.013  49.238  95.164  1.00  0.00    -0.000 C 
BRANCH  30  31
ATOM     31  C   UNL     1      57.294  48.905  94.382  1.00  0.00    -0.003 C 
ATOM     32  C   UNL     1      58.553  49.464  95.045  1.00  0.00     0.004 C 
ENDBRANCH  30  31
ENDBRANCH  29  30
ENDBRANCH  28  29
ENDBRANCH  27  28
ENDBRANCH  26  27
ENDBRANCH  25  26
ENDBRANCH  24  25
ENDBRANCH  23  24
ENDBRANCH  22  23
ENDBRANCH  21  22
ENDBRANCH  20  21
ENDBRANCH  19  20
ENDBRANCH  18  19
ENDBRANCH   1  18
TORSDOF 28
ENDMDL
MODEL 5
REMARK VINA RESULT:    -4.448      5.261     15.090
REMARK INTER + INTRA:         -13.855
REMARK INTER:                 -12.260
REMARK INTRA:                  -1.595
REMARK UNBOUND:                -2.125
REMARK SMILES CCCCCCCCCCCCCCCCCCCCCCCCCCCCCC(=O)[O-]
REMARK SMILES IDX 16 1 17 2 18 3 19 4 20 5 21 6 22 7 23 8 24 9 25 10 26 11
REMARK SMILES IDX 27 12 28 13 29 14 30 15 31 16 32 17 15 18 14 19 13 20 12 21
REMARK SMILES IDX 11 22 10 23 9 24 8 25 7 26 6 27 5 28 4 29 3 30 2 31 1 32
REMARK H PARENT
REMARK Flexibility Score: inf
ROOT
ATOM      1  C   UNL     1      50.465  58.414  93.815  1.00  0.00     0.000 C 
ENDROOT
BRANCH   1   2
ATOM      2  C   UNL     1      49.936  59.439  94.836  1.00  0.00     0.000 C 
BRANCH   2   3
ATOM      3  C   UNL     1      49.625  60.841  94.273  1.00  0.00     0.000 C 
BRANCH   3   4
ATOM      4  C   UNL     1      48.780  60.854  92.986  1.00  0.00     0.000 C 
BRANCH   4   5
ATOM      5  C   UNL     1      48.246  62.252  92.642  1.00  0.00     0.000 C 
BRANCH   5   6
ATOM      6  C   UNL     1      49.037  63.341  93.379  1.00  0.00     0.000 C 
BRANCH   6   7
ATOM      7  C   UNL     1      48.689  64.756  92.888  1.00  0.00     0.000 C 
BRANCH   7   8
ATOM      8  C   UNL     1      48.942  65.834  93.958  1.00  0.00     0.000 C 
BRANCH   8   9
ATOM      9  C   UNL     1      49.439  67.161  93.365  1.00  0.00     0.000 C 
BRANCH   9  10
ATOM     10  C   UNL     1      50.081  66.983  91.978  1.00  0.00     0.000 C 
BRANCH  10  11
ATOM     11  C   UNL     1      49.364  67.842  90.929  1.00  0.00     0.000 C 
BRANCH  11  12
ATOM     12  C   UNL     1      47.847  67.845  91.168  1.00  0.00     0.000 C 
BRANCH  12  13
ATOM     13  C   UNL     1      47.174  66.529  90.747  1.00  0.00     0.006 C 
BRANCH  13  14
ATOM     14  C   UNL     1      45.668  66.504  91.052  1.00  0.00     0.053 C 
BRANCH  14  15
ATOM     15  C   UNL     1      45.345  65.620  92.220  1.00  0.00     0.041 C 
ATOM     16  O   UNL     1      45.135  64.387  92.059  1.00  0.00    -0.550 OA
ATOM     17  O   UNL     1      45.195  66.181  93.484  1.00  0.00    -0.550 OA
ENDBRANCH  14  15
ENDBRANCH  13  14
ENDBRANCH  12  13
ENDBRANCH  11  12
ENDBRANCH  10  11
ENDBRANCH   9  10
ENDBRANCH   8   9
ENDBRANCH   7   8
ENDBRANCH   6   7
ENDBRANCH   5   6
ENDBRANCH   4   5
ENDBRANCH   3   4
ENDBRANCH   2   3
ENDBRANCH   1   2
BRANCH   1  18
ATOM     18  C   UNL     1      51.977  58.475  93.519  1.00  0.00     0.000 C 
BRANCH  18  19
ATOM     19  C   UNL     1      52.409  57.761  92.222  1.00  0.00     0.000 C 
BRANCH  19  20
ATOM     20  C   UNL     1      51.384  56.724  91.719  1.00  0.00     0.000 C 
BRANCH  20  21
ATOM     21  C   UNL     1      52.029  55.368  91.398  1.00  0.00     0.000 C 
BRANCH  21  22
ATOM     22  C   UNL     1      51.967  54.384  92.579  1.00  0.00     0.000 C 
BRANCH  22  23
ATOM     23  C   UNL     1      51.274  53.058  92.219  1.00  0.00     0.000 C 
BRANCH  23  24
ATOM     24  C   UNL     1      52.212  51.843  92.099  1.00  0.00    -0.000 C 
BRANCH  24  25
ATOM     25  C   UNL     1      51.570  50.530  92.570  1.00  0.00    -0.000 C 
BRANCH  25  26
ATOM     26  C   UNL     1      52.584  49.377  92.522  1.00  0.00    -0.000 C 
BRANCH  26  27
ATOM     27  C   UNL     1      52.297  48.289  93.572  1.00  0.00    -0.000 C 
BRANCH  27  28
ATOM     28  C   UNL     1      53.302  48.251  94.740  1.00  0.00    -0.000 C 
BRANCH  28  29
ATOM     29  C   UNL     1      54.392  49.340  94.654  1.00  0.00    -0.000 C 
BRANCH  29  30
ATOM     30  C   UNL     1      55.817  48.767  94.482  1.00  0.00    -0.000 C 
BRANCH  30  31
ATOM     31  C   UNL     1      56.854  49.416  95.413  1.00  0.00    -0.003 C 
ATOM     32  C   UNL     1      58.283  49.293  94.884  1.00  0.00     0.004 C 
ENDBRANCH  30  31
ENDBRANCH  29  30
ENDBRANCH  28  29
ENDBRANCH  27  28
ENDBRANCH  26  27
ENDBRANCH  25  26
ENDBRANCH  24  25
ENDBRANCH  23  24
ENDBRANCH  22  23
ENDBRANCH  21  22
ENDBRANCH  20  21
ENDBRANCH  19  20
ENDBRANCH  18  19
ENDBRANCH   1  18
TORSDOF 28
ENDMDL
MODEL 6
REMARK VINA RESULT:    -4.367      5.492     14.503
REMARK INTER + INTRA:         -13.641
REMARK INTER:                 -11.845
REMARK INTRA:                  -1.796
REMARK UNBOUND:                -2.125
REMARK SMILES CCCCCCCCCCCCCCCCCCCCCCCCCCCCCC(=O)[O-]
REMARK SMILES IDX 16 1 17 2 18 3 19 4 20 5 21 6 22 7 23 8 24 9 25 10 26 11
REMARK SMILES IDX 27 12 28 13 29 14 30 15 31 16 32 17 15 18 14 19 13 20 12 21
REMARK SMILES IDX 11 22 10 23 9 24 8 25 7 26 6 27 5 28 4 29 3 30 2 31 1 32
REMARK H PARENT
REMARK Flexibility Score: inf
ROOT
ATOM      1  C   UNL     1      51.344  57.266  94.135  1.00  0.00     0.000 C 
ENDROOT
BRANCH   1   2
ATOM      2  C   UNL     1      52.853  57.476  94.364  1.00  0.00     0.000 C 
BRANCH   2   3
ATOM      3  C   UNL     1      53.563  58.383  93.338  1.00  0.00     0.000 C 
BRANCH   3   4
ATOM      4  C   UNL     1      52.648  58.983  92.255  1.00  0.00     0.000 C 
BRANCH   4   5
ATOM      5  C   UNL     1      52.739  60.514  92.184  1.00  0.00     0.000 C 
BRANCH   5   6
ATOM      6  C   UNL     1      51.836  61.169  93.239  1.00  0.00     0.000 C 
BRANCH   6   7
ATOM      7  C   UNL     1      50.473  60.469  93.366  1.00  0.00     0.000 C 
BRANCH   7   8
ATOM      8  C   UNL     1      49.341  61.441  93.744  1.00  0.00     0.000 C 
BRANCH   8   9
ATOM      9  C   UNL     1      48.347  61.677  92.597  1.00  0.00     0.000 C 
BRANCH   9  10
ATOM     10  C   UNL     1      47.813  63.120  92.567  1.00  0.00     0.000 C 
BRANCH  10  11
ATOM     11  C   UNL     1      48.806  64.085  93.227  1.00  0.00     0.000 C 
BRANCH  11  12
ATOM     12  C   UNL     1      48.598  65.518  92.716  1.00  0.00     0.000 C 
BRANCH  12  13
ATOM     13  C   UNL     1      47.611  65.596  91.541  1.00  0.00     0.006 C 
BRANCH  13  14
ATOM     14  C   UNL     1      46.389  66.476  91.845  1.00  0.00     0.053 C 
BRANCH  14  15
ATOM     15  C   UNL     1      45.098  65.745  91.620  1.00  0.00     0.041 C 
ATOM     16  O   UNL     1      45.076  64.487  91.524  1.00  0.00    -0.550 OA
ATOM     17  O   UNL     1      43.924  66.467  91.436  1.00  0.00    -0.550 OA
ENDBRANCH  14  15
ENDBRANCH  13  14
ENDBRANCH  12  13
ENDBRANCH  11  12
ENDBRANCH  10  11
ENDBRANCH   9  10
ENDBRANCH   8   9
ENDBRANCH   7   8
ENDBRANCH   6   7
ENDBRANCH   5   6
ENDBRANCH   4   5
ENDBRANCH   3   4
ENDBRANCH   2   3
ENDBRANCH   1   2
BRANCH   1  18
ATOM     18  C   UNL     1      50.960  56.430  92.899  1.00  0.00     0.000 C 
BRANCH  18  19
ATOM     19  C   UNL     1      51.768  55.128  92.723  1.00  0.00     0.000 C 
BRANCH  19  20
ATOM     20  C   UNL     1      52.085  54.794  91.251  1.00  0.00     0.000 C 
BRANCH  20  21
ATOM     21  C   UNL     1      52.317  53.293  91.025  1.00  0.00     0.000 C 
BRANCH  21  22
ATOM     22  C   UNL     1      51.495  52.412  91.982  1.00  0.00     0.000 C 
BRANCH  22  23
ATOM     23  C   UNL     1      52.164  51.057  92.274  1.00  0.00     0.000 C 
BRANCH  23  24
ATOM     24  C   UNL     1      51.200  49.926  92.674  1.00  0.00    -0.000 C 
BRANCH  24  25
ATOM     25  C   UNL     1      51.661  48.539  92.203  1.00  0.00    -0.000 C 
BRANCH  25  26
ATOM     26  C   UNL     1      52.767  47.991  93.117  1.00  0.00    -0.000 C 
BRANCH  26  27
ATOM     27  C   UNL     1      52.410  48.097  94.610  1.00  0.00    -0.000 C 
BRANCH  27  28
ATOM     28  C   UNL     1      53.621  48.027  95.560  1.00  0.00    -0.000 C 
BRANCH  28  29
ATOM     29  C   UNL     1      54.982  48.033  94.830  1.00  0.00    -0.000 C 
BRANCH  29  30
ATOM     30  C   UNL     1      55.661  49.421  94.812  1.00  0.00    -0.000 C 
BRANCH  30  31
ATOM     31  C   UNL     1      57.152  49.377  95.183  1.00  0.00    -0.003 C 
ATOM     32  C   UNL     1      57.385  49.036  96.655  1.00  0.00     0.004 C 
ENDBRANCH  30  31
ENDBRANCH  29  30
ENDBRANCH  28  29
ENDBRANCH  27  28
ENDBRANCH  26  27
ENDBRANCH  25  26
ENDBRANCH  24  25
ENDBRANCH  23  24
ENDBRANCH  22  23
ENDBRANCH  21  22
ENDBRANCH  20  21
ENDBRANCH  19  20
ENDBRANCH  18  19
ENDBRANCH   1  18
TORSDOF 28
ENDMDL
MODEL 7
REMARK VINA RESULT:    -4.362      1.104      2.671
REMARK INTER + INTRA:         -13.626
REMARK INTER:                 -11.412
REMARK INTRA:                  -2.214
REMARK UNBOUND:                -2.125
REMARK SMILES CCCCCCCCCCCCCCCCCCCCCCCCCCCCCC(=O)[O-]
REMARK SMILES IDX 16 1 17 2 18 3 19 4 20 5 21 6 22 7 23 8 24 9 25 10 26 11
REMARK SMILES IDX 27 12 28 13 29 14 30 15 31 16 32 17 15 18 14 19 13 20 12 21
REMARK SMILES IDX 11 22 10 23 9 24 8 25 7 26 6 27 5 28 4 29 3 30 2 31 1 32
REMARK H PARENT
REMARK Flexibility Score: inf
ROOT
ATOM      1  C   UNL     1      50.951  58.448  94.047  1.00  0.00     0.000 C 
ENDROOT
BRANCH   1   2
ATOM      2  C   UNL     1      51.151  57.973  92.596  1.00  0.00     0.000 C 
BRANCH   2   3
ATOM      3  C   UNL     1      51.452  56.471  92.422  1.00  0.00     0.000 C 
BRANCH   3   4
ATOM      4  C   UNL     1      52.285  55.838  93.550  1.00  0.00     0.000 C 
BRANCH   4   5
ATOM      5  C   UNL     1      52.711  54.396  93.237  1.00  0.00     0.000 C 
BRANCH   5   6
ATOM      6  C   UNL     1      52.004  53.874  91.978  1.00  0.00     0.000 C 
BRANCH   6   7
ATOM      7  C   UNL     1      51.156  52.622  92.254  1.00  0.00     0.000 C 
BRANCH   7   8
ATOM      8  C   UNL     1      52.014  51.382  92.566  1.00  0.00     0.000 C 
BRANCH   8   9
ATOM      9  C   UNL     1      51.192  50.084  92.621  1.00  0.00     0.000 C 
BRANCH   9  10
ATOM     10  C   UNL     1      52.032  48.841  92.279  1.00  0.00     0.000 C 
BRANCH  10  11
ATOM     11  C   UNL     1      52.985  48.491  93.428  1.00  0.00     0.000 C 
BRANCH  11  12
ATOM     12  C   UNL     1      54.449  48.570  92.969  1.00  0.00     0.000 C 
BRANCH  12  13
ATOM     13  C   UNL     1      55.447  48.291  94.103  1.00  0.00     0.006 C 
BRANCH  13  14
ATOM     14  C   UNL     1      55.880  49.565  94.845  1.00  0.00     0.053 C 
BRANCH  14  15
ATOM     15  C   UNL     1      57.200  49.393  95.537  1.00  0.00     0.041 C 
ATOM     16  O   UNL     1      58.283  49.583  94.919  1.00  0.00    -0.550 OA
ATOM     17  O   UNL     1      57.232  48.941  96.852  1.00  0.00    -0.550 OA
ENDBRANCH  14  15
ENDBRANCH  13  14
ENDBRANCH  12  13
ENDBRANCH  11  12
ENDBRANCH  10  11
ENDBRANCH   9  10
ENDBRANCH   8   9
ENDBRANCH   7   8
ENDBRANCH   6   7
ENDBRANCH   5   6
ENDBRANCH   4   5
ENDBRANCH   3   4
ENDBRANCH   2   3
ENDBRANCH   1   2
BRANCH   1  18
ATOM     18  C   UNL     1      50.143  59.748  94.227  1.00  0.00     0.000 C 
BRANCH  18  19
ATOM     19  C   UNL     1      49.743  60.446  92.911  1.00  0.00     0.000 C 
BRANCH  19  20
ATOM     20  C   UNL     1      48.888  61.713  93.120  1.00  0.00     0.000 C 
BRANCH  20  21
ATOM     21  C   UNL     1      49.741  62.964  93.372  1.00  0.00     0.000 C 
BRANCH  21  22
ATOM     22  C   UNL     1      48.903  64.253  93.440  1.00  0.00     0.000 C 
BRANCH  22  23
ATOM     23  C   UNL     1      47.978  64.431  92.223  1.00  0.00     0.000 C 
BRANCH  23  24
ATOM     24  C   UNL     1      47.138  65.721  92.225  1.00  0.00    -0.000 C 
BRANCH  24  25
ATOM     25  C   UNL     1      47.989  67.000  92.217  1.00  0.00    -0.000 C 
BRANCH  25  26
ATOM     26  C   UNL     1      48.629  67.222  90.839  1.00  0.00    -0.000 C 
BRANCH  26  27
ATOM     27  C   UNL     1      50.154  67.011  90.851  1.00  0.00    -0.000 C 
BRANCH  27  28
ATOM     28  C   UNL     1      50.911  67.899  91.858  1.00  0.00    -0.000 C 
BRANCH  28  29
ATOM     29  C   UNL     1      51.709  67.099  92.909  1.00  0.00    -0.000 C 
BRANCH  29  30
ATOM     30  C   UNL     1      51.540  67.637  94.347  1.00  0.00    -0.000 C 
BRANCH  30  31
ATOM     31  C   UNL     1      50.113  68.117  94.657  1.00  0.00    -0.003 C 
ATOM     32  C   UNL     1      49.366  67.179  95.606  1.00  0.00     0.004 C 
ENDBRANCH  30  31
ENDBRANCH  29  30
ENDBRANCH  28  29
ENDBRANCH  27  28
ENDBRANCH  26  27
ENDBRANCH  25  26
ENDBRANCH  24  25
ENDBRANCH  23  24
ENDBRANCH  22  23
ENDBRANCH  21  22
ENDBRANCH  20  21
ENDBRANCH  19  20
ENDBRANCH  18  19
ENDBRANCH   1  18
TORSDOF 28
ENDMDL
MODEL 8
REMARK VINA RESULT:    -4.299      4.960     14.550
REMARK INTER + INTRA:         -13.462
REMARK INTER:                 -12.233
REMARK INTRA:                  -1.229
REMARK UNBOUND:                -2.125
REMARK SMILES CCCCCCCCCCCCCCCCCCCCCCCCCCCCCC(=O)[O-]
REMARK SMILES IDX 16 1 17 2 18 3 19 4 20 5 21 6 22 7 23 8 24 9 25 10 26 11
REMARK SMILES IDX 27 12 28 13 29 14 30 15 31 16 32 17 15 18 14 19 13 20 12 21
REMARK SMILES IDX 11 22 10 23 9 24 8 25 7 26 6 27 5 28 4 29 3 30 2 31 1 32
REMARK H PARENT
REMARK Flexibility Score: inf
ROOT
ATOM      1  C   UNL     1      51.449  58.195  92.621  1.00  0.00     0.000 C 
ENDROOT
BRANCH   1   2
ATOM      2  C   UNL     1      50.074  58.810  92.943  1.00  0.00     0.000 C 
BRANCH   2   3
ATOM      3  C   UNL     1      49.745  58.958  94.443  1.00  0.00     0.000 C 
BRANCH   3   4
ATOM      4  C   UNL     1      49.676  60.407  94.956  1.00  0.00     0.000 C 
BRANCH   4   5
ATOM      5  C   UNL     1      50.089  61.433  93.892  1.00  0.00     0.000 C 
BRANCH   5   6
ATOM      6  C   UNL     1      48.858  62.093  93.255  1.00  0.00     0.000 C 
BRANCH   6   7
ATOM      7  C   UNL     1      49.027  63.611  93.079  1.00  0.00     0.000 C 
BRANCH   7   8
ATOM      8  C   UNL     1      47.849  64.256  92.326  1.00  0.00     0.000 C 
BRANCH   8   9
ATOM      9  C   UNL     1      47.747  65.771  92.559  1.00  0.00     0.000 C 
BRANCH   9  10
ATOM     10  C   UNL     1      47.392  66.541  91.274  1.00  0.00     0.000 C 
BRANCH  10  11
ATOM     11  C   UNL     1      48.403  67.665  91.013  1.00  0.00     0.000 C 
BRANCH  11  12
ATOM     12  C   UNL     1      49.832  67.108  90.934  1.00  0.00     0.000 C 
BRANCH  12  13
ATOM     13  C   UNL     1      50.893  68.123  91.385  1.00  0.00     0.006 C 
BRANCH  13  14
ATOM     14  C   UNL     1      51.959  67.505  92.304  1.00  0.00     0.053 C 
BRANCH  14  15
ATOM     15  C   UNL     1      51.606  67.653  93.755  1.00  0.00     0.041 C 
ATOM     16  O   UNL     1      52.503  67.842  94.621  1.00  0.00    -0.550 OA
ATOM     17  O   UNL     1      50.284  67.500  94.159  1.00  0.00    -0.550 OA
ENDBRANCH  14  15
ENDBRANCH  13  14
ENDBRANCH  12  13
ENDBRANCH  11  12
ENDBRANCH  10  11
ENDBRANCH   9  10
ENDBRANCH   8   9
ENDBRANCH   7   8
ENDBRANCH   6   7
ENDBRANCH   5   6
ENDBRANCH   4   5
ENDBRANCH   3   4
ENDBRANCH   2   3
ENDBRANCH   1   2
BRANCH   1  18
ATOM     18  C   UNL     1      52.641  58.748  93.426  1.00  0.00     0.000 C 
BRANCH  18  19
ATOM     19  C   UNL     1      53.585  57.673  94.001  1.00  0.00     0.000 C 
BRANCH  19  20
ATOM     20  C   UNL     1      52.852  56.562  94.780  1.00  0.00     0.000 C 
BRANCH  20  21
ATOM     21  C   UNL     1      51.959  55.700  93.876  1.00  0.00     0.000 C 
BRANCH  21  22
ATOM     22  C   UNL     1      52.695  54.474  93.307  1.00  0.00     0.000 C 
BRANCH  22  23
ATOM     23  C   UNL     1      52.023  53.905  92.044  1.00  0.00     0.000 C 
BRANCH  23  24
ATOM     24  C   UNL     1      51.274  52.575  92.247  1.00  0.00    -0.000 C 
BRANCH  24  25
ATOM     25  C   UNL     1      52.182  51.342  92.129  1.00  0.00    -0.000 C 
BRANCH  25  26
ATOM     26  C   UNL     1      51.458  50.081  92.625  1.00  0.00    -0.000 C 
BRANCH  26  27
ATOM     27  C   UNL     1      52.394  48.865  92.737  1.00  0.00    -0.000 C 
BRANCH  27  28
ATOM     28  C   UNL     1      52.122  47.963  93.957  1.00  0.00    -0.000 C 
BRANCH  28  29
ATOM     29  C   UNL     1      53.170  48.110  95.081  1.00  0.00    -0.000 C 
BRANCH  29  30
ATOM     30  C   UNL     1      54.294  49.115  94.743  1.00  0.00    -0.000 C 
BRANCH  30  31
ATOM     31  C   UNL     1      55.679  48.676  95.247  1.00  0.00    -0.003 C 
ATOM     32  C   UNL     1      56.797  48.993  94.253  1.00  0.00     0.004 C 
ENDBRANCH  30  31
ENDBRANCH  29  30
ENDBRANCH  28  29
ENDBRANCH  27  28
ENDBRANCH  26  27
ENDBRANCH  25  26
ENDBRANCH  24  25
ENDBRANCH  23  24
ENDBRANCH  22  23
ENDBRANCH  21  22
ENDBRANCH  20  21
ENDBRANCH  19  20
ENDBRANCH  18  19
ENDBRANCH   1  18
TORSDOF 28
ENDMDL
MODEL 9
REMARK VINA RESULT:    -3.906      4.508      6.701
REMARK INTER + INTRA:         -12.425
REMARK INTER:                  -9.482
REMARK INTRA:                  -2.942
REMARK UNBOUND:                -2.125
REMARK SMILES CCCCCCCCCCCCCCCCCCCCCCCCCCCCCC(=O)[O-]
REMARK SMILES IDX 16 1 17 2 18 3 19 4 20 5 21 6 22 7 23 8 24 9 25 10 26 11
REMARK SMILES IDX 27 12 28 13 29 14 30 15 31 16 32 17 15 18 14 19 13 20 12 21
REMARK SMILES IDX 11 22 10 23 9 24 8 25 7 26 6 27 5 28 4 29 3 30 2 31 1 32
REMARK H PARENT
REMARK Flexibility Score: inf
ROOT
ATOM      1  C   UNL     1      50.497  58.065  94.599  1.00  0.00     0.000 C 
ENDROOT
BRANCH   1   2
ATOM      2  C   UNL     1      51.425  57.317  95.574  1.00  0.00     0.000 C 
BRANCH   2   3
ATOM      3  C   UNL     1      52.712  56.734  94.954  1.00  0.00     0.000 C 
BRANCH   3   4
ATOM      4  C   UNL     1      52.832  55.201  95.022  1.00  0.00     0.000 C 
BRANCH   4   5
ATOM      5  C   UNL     1      53.114  54.567  93.653  1.00  0.00     0.000 C 
BRANCH   5   6
ATOM      6  C   UNL     1      51.815  54.094  92.986  1.00  0.00     0.000 C 
BRANCH   6   7
ATOM      7  C   UNL     1      51.999  53.780  91.492  1.00  0.00     0.000 C 
BRANCH   7   8
ATOM      8  C   UNL     1      52.560  54.975  90.700  1.00  0.00     0.000 C 
BRANCH   8   9
ATOM      9  C   UNL     1      51.493  56.031  90.372  1.00  0.00     0.000 C 
BRANCH   9  10
ATOM     10  C   UNL     1      51.410  57.136  91.439  1.00  0.00     0.000 C 
BRANCH  10  11
ATOM     11  C   UNL     1      52.770  57.821  91.624  1.00  0.00     0.000 C 
BRANCH  11  12
ATOM     12  C   UNL     1      52.594  59.258  92.137  1.00  0.00     0.000 C 
BRANCH  12  13
ATOM     13  C   UNL     1      53.499  60.266  91.411  1.00  0.00     0.006 C 
BRANCH  13  14
ATOM     14  C   UNL     1      52.962  61.704  91.475  1.00  0.00     0.053 C 
BRANCH  14  15
ATOM     15  C   UNL     1      53.004  62.259  92.868  1.00  0.00     0.041 C 
ATOM     16  O   UNL     1      53.009  63.505  93.067  1.00  0.00    -0.550 OA
ATOM     17  O   UNL     1      53.121  61.393  93.950  1.00  0.00    -0.550 OA
ENDBRANCH  14  15
ENDBRANCH  13  14
ENDBRANCH  12  13
ENDBRANCH  11  12
ENDBRANCH  10  11
ENDBRANCH   9  10
ENDBRANCH   8   9
ENDBRANCH   7   8
ENDBRANCH   6   7
ENDBRANCH   5   6
ENDBRANCH   4   5
ENDBRANCH   3   4
ENDBRANCH   2   3
ENDBRANCH   1   2
BRANCH   1  18
ATOM     18  C   UNL     1      49.467  59.015  95.242  1.00  0.00     0.000 C 
BRANCH  18  19
ATOM     19  C   UNL     1      49.651  60.503  94.884  1.00  0.00     0.000 C 
BRANCH  19  20
ATOM     20  C   UNL     1      49.775  60.761  93.368  1.00  0.00     0.000 C 
BRANCH  20  21
ATOM     21  C   UNL     1      48.419  61.041  92.705  1.00  0.00     0.000 C 
BRANCH  21  22
ATOM     22  C   UNL     1      48.123  62.545  92.565  1.00  0.00     0.000 C 
BRANCH  22  23
ATOM     23  C   UNL     1      49.175  63.429  93.258  1.00  0.00     0.000 C 
BRANCH  23  24
ATOM     24  C   UNL     1      48.846  64.933  93.285  1.00  0.00    -0.000 C 
BRANCH  24  25
ATOM     25  C   UNL     1      47.678  65.317  92.365  1.00  0.00    -0.000 C 
BRANCH  25  26
ATOM     26  C   UNL     1      47.701  66.820  92.049  1.00  0.00    -0.000 C 
BRANCH  26  27
ATOM     27  C   UNL     1      48.311  67.127  90.669  1.00  0.00    -0.000 C 
BRANCH  27  28
ATOM     28  C   UNL     1      49.661  67.868  90.721  1.00  0.00    -0.000 C 
BRANCH  28  29
ATOM     29  C   UNL     1      50.810  67.018  91.306  1.00  0.00    -0.000 C 
BRANCH  29  30
ATOM     30  C   UNL     1      51.703  67.796  92.298  1.00  0.00    -0.000 C 
BRANCH  30  31
ATOM     31  C   UNL     1      51.498  67.378  93.763  1.00  0.00    -0.003 C 
ATOM     32  C   UNL     1      50.346  68.125  94.436  1.00  0.00     0.004 C 
ENDBRANCH  30  31
ENDBRANCH  29  30
ENDBRANCH  28  29
ENDBRANCH  27  28
ENDBRANCH  26  27
ENDBRANCH  25  26
ENDBRANCH  24  25
ENDBRANCH  23  24
ENDBRANCH  22  23
ENDBRANCH  21  22
ENDBRANCH  20  21
ENDBRANCH  19  20
ENDBRANCH  18  19
ENDBRANCH   1  18
TORSDOF 28
ENDMDL
