MODEL 1
REMARK VINA RESULT:    -3.439      0.000      0.000
REMARK INTER + INTRA:          -4.268
REMARK INTER:                  -4.042
REMARK INTRA:                  -0.226
REMARK UNBOUND:                -0.226
REMARK SMILES [NH3+][C@H](CO)C(=O)[O-]
REMARK SMILES IDX 3 1 2 2 1 3 5 7 6 8 7 9 4 10
REMARK H PARENT 1 4 1 5 1 6 4 11
REMARK Flexibility Score: inf
ROOT
ATOM      1  C   UNL     1      49.627  15.306  19.042  1.00  0.00     0.227 C 
ENDROOT
BRANCH   1   2
ATOM      2  C   UNL     1      49.346  14.127  18.098  1.00  0.00     0.253 C 
BRANCH   2   3
ATOM      3  N   UNL     1      48.117  13.423  18.483  1.00  0.00    -0.348 N 
ATOM      4  H   UNL     1      47.762  13.800  19.391  1.00  0.00     0.345 HD
ATOM      5  H   UNL     1      47.378  13.573  17.759  1.00  0.00     0.345 HD
ATOM      6  H   UNL     1      48.293  12.396  18.583  1.00  0.00     0.345 HD
ENDBRANCH   2   3
BRANCH   2   7
ATOM      7  C   UNL     1      49.242  14.617  16.679  1.00  0.00     0.102 C 
ATOM      8  O   UNL     1      49.609  15.785  16.383  1.00  0.00    -0.544 OA
ATOM      9  O   UNL     1      48.728  13.789  15.688  1.00  0.00    -0.544 OA
ENDBRANCH   2   7
ENDBRANCH   1   2
BRANCH   1  10
ATOM     10  O   UNL     1      48.494  16.125  19.137  1.00  0.00    -0.390 OA
ATOM     11  H   UNL     1      48.747  16.876  19.733  1.00  0.00     0.210 HD
ENDBRANCH   1  10
TORSDOF 4
ENDMDL
MODEL 2
REMARK VINA RESULT:    -3.425     18.271     18.960
REMARK INTER + INTRA:          -4.251
REMARK INTER:                  -4.019
REMARK INTRA:                  -0.232
REMARK UNBOUND:                -0.226
REMARK SMILES [NH3+][C@H](CO)C(=O)[O-]
REMARK SMILES IDX 3 1 2 2 1 3 5 7 6 8 7 9 4 10
REMARK H PARENT 1 4 1 5 1 6 4 11
REMARK Flexibility Score: inf
ROOT
ATOM      1  C   UNL     1      54.226  -1.874  19.608  1.00  0.00     0.227 C 
ENDROOT
BRANCH   1   2
ATOM      2  C   UNL     1      55.640  -2.216  19.115  1.00  0.00     0.253 C 
BRANCH   2   3
ATOM      3  N   UNL     1      56.595  -2.250  20.230  1.00  0.00    -0.348 N 
ATOM      4  H   UNL     1      56.480  -1.396  20.822  1.00  0.00     0.345 HD
ATOM      5  H   UNL     1      56.414  -3.087  20.830  1.00  0.00     0.345 HD
ATOM      6  H   UNL     1      57.578  -2.292  19.875  1.00  0.00     0.345 HD
ENDBRANCH   2   3
BRANCH   2   7
ATOM      7  C   UNL     1      55.629  -3.540  18.399  1.00  0.00     0.102 C 
ATOM      8  O   UNL     1      56.713  -4.122  18.126  1.00  0.00    -0.544 OA
ATOM      9  O   UNL     1      54.425  -4.123  18.023  1.00  0.00    -0.544 OA
ENDBRANCH   2   7
ENDBRANCH   1   2
BRANCH   1  10
ATOM     10  O   UNL     1      53.798  -2.831  20.538  1.00  0.00    -0.390 OA
ATOM     11  H   UNL     1      53.733  -3.687  20.041  1.00  0.00     0.210 HD
ENDBRANCH   1  10
TORSDOF 4
ENDMDL
MODEL 3
REMARK VINA RESULT:    -3.416      1.913      3.049
REMARK INTER + INTRA:          -4.240
REMARK INTER:                  -3.865
REMARK INTRA:                  -0.376
REMARK UNBOUND:                -0.226
REMARK SMILES [NH3+][C@H](CO)C(=O)[O-]
REMARK SMILES IDX 3 1 2 2 1 3 5 7 6 8 7 9 4 10
REMARK H PARENT 1 4 1 5 1 6 4 11
REMARK Flexibility Score: inf
ROOT
ATOM      1  C   UNL     1      48.950  14.629  16.011  1.00  0.00     0.227 C 
ENDROOT
BRANCH   1   2
ATOM      2  C   UNL     1      49.567  14.829  17.404  1.00  0.00     0.253 C 
BRANCH   2   3
ATOM      3  N   UNL     1      49.177  16.125  17.974  1.00  0.00    -0.348 N 
ATOM      4  H   UNL     1      48.989  16.808  17.205  1.00  0.00     0.345 HD
ATOM      5  H   UNL     1      48.301  16.019  18.535  1.00  0.00     0.345 HD
ATOM      6  H   UNL     1      49.933  16.501  18.591  1.00  0.00     0.345 HD
ENDBRANCH   2   3
BRANCH   2   7
ATOM      7  C   UNL     1      49.145  13.711  18.319  1.00  0.00     0.102 C 
ATOM      8  O   UNL     1      49.689  12.579  18.229  1.00  0.00    -0.544 OA
ATOM      9  O   UNL     1      48.142  13.915  19.260  1.00  0.00    -0.544 OA
ENDBRANCH   2   7
ENDBRANCH   1   2
BRANCH   1  10
ATOM     10  O   UNL     1      47.802  13.831  16.105  1.00  0.00    -0.390 OA
ATOM     11  H   UNL     1      47.848  13.194  15.345  1.00  0.00     0.210 HD
ENDBRANCH   1  10
TORSDOF 4
ENDMDL
MODEL 4
REMARK VINA RESULT:    -3.378      1.932      2.087
REMARK INTER + INTRA:          -4.197
REMARK INTER:                  -3.971
REMARK INTRA:                  -0.226
REMARK UNBOUND:                -0.226
REMARK SMILES [NH3+][C@H](CO)C(=O)[O-]
REMARK SMILES IDX 3 1 2 2 1 3 5 7 6 8 7 9 4 10
REMARK H PARENT 1 4 1 5 1 6 4 11
REMARK Flexibility Score: inf
ROOT
ATOM      1  C   UNL     1      49.148  13.447  17.771  1.00  0.00     0.227 C 
ENDROOT
BRANCH   1   2
ATOM      2  C   UNL     1      49.106  13.937  16.315  1.00  0.00     0.253 C 
BRANCH   2   3
ATOM      3  N   UNL     1      47.773  13.746  15.731  1.00  0.00    -0.348 N 
ATOM      4  H   UNL     1      47.689  14.303  14.851  1.00  0.00     0.345 HD
ATOM      5  H   UNL     1      47.630  12.738  15.492  1.00  0.00     0.345 HD
ATOM      6  H   UNL     1      47.028  14.047  16.401  1.00  0.00     0.345 HD
ENDBRANCH   2   3
BRANCH   2   7
ATOM      7  C   UNL     1      49.500  15.389  16.249  1.00  0.00     0.102 C 
ATOM      8  O   UNL     1      49.552  16.080  17.301  1.00  0.00    -0.544 OA
ATOM      9  O   UNL     1      49.795  15.980  15.027  1.00  0.00    -0.544 OA
ENDBRANCH   2   7
ENDBRANCH   1   2
BRANCH   1  10
ATOM     10  O   UNL     1      47.984  13.842  18.443  1.00  0.00    -0.390 OA
ATOM     11  H   UNL     1      47.436  14.334  17.778  1.00  0.00     0.210 HD
ENDBRANCH   1  10
TORSDOF 4
ENDMDL
MODEL 5
REMARK VINA RESULT:    -3.364      1.908      3.564
REMARK INTER + INTRA:          -4.180
REMARK INTER:                  -3.973
REMARK INTRA:                  -0.207
REMARK UNBOUND:                -0.226
REMARK SMILES [NH3+][C@H](CO)C(=O)[O-]
REMARK SMILES IDX 3 1 2 2 1 3 5 7 6 8 7 9 4 10
REMARK H PARENT 1 4 1 5 1 6 4 11
REMARK Flexibility Score: inf
ROOT
ATOM      1  C   UNL     1      49.137  13.656  18.041  1.00  0.00     0.227 C 
ENDROOT
BRANCH   1   2
ATOM      2  C   UNL     1      49.233  14.866  18.982  1.00  0.00     0.253 C 
BRANCH   2   3
ATOM      3  N   UNL     1      49.243  16.125  18.226  1.00  0.00    -0.348 N 
ATOM      4  H   UNL     1      49.273  15.922  17.201  1.00  0.00     0.345 HD
ATOM      5  H   UNL     1      48.371  16.667  18.424  1.00  0.00     0.345 HD
ATOM      6  H   UNL     1      50.073  16.706  18.486  1.00  0.00     0.345 HD
ENDBRANCH   2   3
BRANCH   2   7
ATOM      7  C   UNL     1      48.084  14.854  19.955  1.00  0.00     0.102 C 
ATOM      8  O   UNL     1      47.387  13.814  20.099  1.00  0.00    -0.544 OA
ATOM      9  O   UNL     1      47.776  15.992  20.690  1.00  0.00    -0.544 OA
ENDBRANCH   2   7
ENDBRANCH   1   2
BRANCH   1  10
ATOM     10  O   UNL     1      48.124  13.862  17.096  1.00  0.00    -0.390 OA
ATOM     11  H   UNL     1      47.492  13.104  17.200  1.00  0.00     0.210 HD
ENDBRANCH   1  10
TORSDOF 4
ENDMDL
MODEL 6
REMARK VINA RESULT:    -3.360     17.340     18.083
REMARK INTER + INTRA:          -4.175
REMARK INTER:                  -3.789
REMARK INTRA:                  -0.387
REMARK UNBOUND:                -0.226
REMARK SMILES [NH3+][C@H](CO)C(=O)[O-]
REMARK SMILES IDX 3 1 2 2 1 3 5 7 6 8 7 9 4 10
REMARK H PARENT 1 4 1 5 1 6 4 11
REMARK Flexibility Score: inf
ROOT
ATOM      1  C   UNL     1      55.351  -0.694  18.773  1.00  0.00     0.227 C 
ENDROOT
BRANCH   1   2
ATOM      2  C   UNL     1      55.656  -2.178  19.029  1.00  0.00     0.253 C 
BRANCH   2   3
ATOM      3  N   UNL     1      56.481  -2.349  20.232  1.00  0.00    -0.348 N 
ATOM      4  H   UNL     1      57.027  -1.477  20.414  1.00  0.00     0.345 HD
ATOM      5  H   UNL     1      55.869  -2.527  21.061  1.00  0.00     0.345 HD
ATOM      6  H   UNL     1      57.142  -3.152  20.118  1.00  0.00     0.345 HD
ENDBRANCH   2   3
BRANCH   2   7
ATOM      7  C   UNL     1      54.373  -2.952  19.164  1.00  0.00     0.102 C 
ATOM      8  O   UNL     1      53.971  -3.682  18.219  1.00  0.00    -0.544 OA
ATOM      9  O   UNL     1      53.615  -2.856  20.325  1.00  0.00    -0.544 OA
ENDBRANCH   2   7
ENDBRANCH   1   2
BRANCH   1  10
ATOM     10  O   UNL     1      53.969  -0.506  18.640  1.00  0.00    -0.390 OA
ATOM     11  H   UNL     1      53.558  -1.403  18.743  1.00  0.00     0.210 HD
ENDBRANCH   1  10
TORSDOF 4
ENDMDL
MODEL 7
REMARK VINA RESULT:    -3.311      1.660      2.289
REMARK INTER + INTRA:          -4.117
REMARK INTER:                  -3.885
REMARK INTRA:                  -0.232
REMARK UNBOUND:                -0.226
REMARK SMILES [NH3+][C@H](CO)C(=O)[O-]
REMARK SMILES IDX 3 1 2 2 1 3 5 7 6 8 7 9 4 10
REMARK H PARENT 1 4 1 5 1 6 4 11
REMARK Flexibility Score: inf
ROOT
ATOM      1  C   UNL     1      48.365  13.222  18.890  1.00  0.00     0.227 C 
ENDROOT
BRANCH   1   2
ATOM      2  C   UNL     1      49.149  13.837  17.720  1.00  0.00     0.253 C 
BRANCH   2   3
ATOM      3  N   UNL     1      48.330  13.884  16.502  1.00  0.00    -0.348 N 
ATOM      4  H   UNL     1      48.504  13.030  15.925  1.00  0.00     0.345 HD
ATOM      5  H   UNL     1      47.316  13.904  16.754  1.00  0.00     0.345 HD
ATOM      6  H   UNL     1      48.557  14.734  15.935  1.00  0.00     0.345 HD
ENDBRANCH   2   3
BRANCH   2   7
ATOM      7  C   UNL     1      49.617  15.220  18.085  1.00  0.00     0.102 C 
ATOM      8  O   UNL     1      49.665  16.125  17.210  1.00  0.00    -0.544 OA
ATOM      9  O   UNL     1      50.013  15.505  19.387  1.00  0.00    -0.544 OA
ENDBRANCH   2   7
ENDBRANCH   1   2
BRANCH   1  10
ATOM     10  O   UNL     1      47.566  14.199  19.498  1.00  0.00    -0.390 OA
ATOM     11  H   UNL     1      47.018  14.596  18.772  1.00  0.00     0.210 HD
ENDBRANCH   1  10
TORSDOF 4
ENDMDL
MODEL 8
REMARK VINA RESULT:    -3.193     18.435     18.903
REMARK INTER + INTRA:          -3.979
REMARK INTER:                  -3.754
REMARK INTRA:                  -0.225
REMARK UNBOUND:                -0.226
REMARK SMILES [NH3+][C@H](CO)C(=O)[O-]
REMARK SMILES IDX 3 1 2 2 1 3 5 7 6 8 7 9 4 10
REMARK H PARENT 1 4 1 5 1 6 4 11
REMARK Flexibility Score: inf
ROOT
ATOM      1  C   UNL     1      57.093  -1.616  18.994  1.00  0.00     0.227 C 
ENDROOT
BRANCH   1   2
ATOM      2  C   UNL     1      56.345  -2.841  18.444  1.00  0.00     0.253 C 
BRANCH   2   3
ATOM      3  N   UNL     1      56.983  -4.090  18.879  1.00  0.00    -0.348 N 
ATOM      4  H   UNL     1      56.271  -4.720  19.311  1.00  0.00     0.345 HD
ATOM      5  H   UNL     1      57.397  -4.584  18.055  1.00  0.00     0.345 HD
ATOM      6  H   UNL     1      57.739  -3.896  19.576  1.00  0.00     0.345 HD
ENDBRANCH   2   3
BRANCH   2   7
ATOM      7  C   UNL     1      54.908  -2.809  18.889  1.00  0.00     0.102 C 
ATOM      8  O   UNL     1      54.526  -1.961  19.739  1.00  0.00    -0.544 OA
ATOM      9  O   UNL     1      53.995  -3.723  18.376  1.00  0.00    -0.544 OA
ENDBRANCH   2   7
ENDBRANCH   1   2
BRANCH   1  10
ATOM     10  O   UNL     1      57.444  -1.831  20.333  1.00  0.00    -0.390 OA
ATOM     11  H   UNL     1      58.413  -1.627  20.398  1.00  0.00     0.210 HD
ENDBRANCH   1  10
TORSDOF 4
ENDMDL
MODEL 9
REMARK VINA RESULT:    -3.183     18.192     18.559
REMARK INTER + INTRA:          -3.967
REMARK INTER:                  -3.673
REMARK INTRA:                  -0.295
REMARK UNBOUND:                -0.226
REMARK SMILES [NH3+][C@H](CO)C(=O)[O-]
REMARK SMILES IDX 3 1 2 2 1 3 5 7 6 8 7 9 4 10
REMARK H PARENT 1 4 1 5 1 6 4 11
REMARK Flexibility Score: inf
ROOT
ATOM      1  C   UNL     1      56.167  -2.086  19.263  1.00  0.00     0.227 C 
ENDROOT
BRANCH   1   2
ATOM      2  C   UNL     1      54.669  -1.868  19.526  1.00  0.00     0.253 C 
BRANCH   2   3
ATOM      3  N   UNL     1      54.126  -0.821  18.652  1.00  0.00    -0.348 N 
ATOM      4  H   UNL     1      54.825  -0.577  17.914  1.00  0.00     0.345 HD
ATOM      5  H   UNL     1      53.260  -1.166  18.177  1.00  0.00     0.345 HD
ATOM      6  H   UNL     1      53.893   0.038  19.203  1.00  0.00     0.345 HD
ENDBRANCH   2   3
BRANCH   2   7
ATOM      7  C   UNL     1      53.918  -3.156  19.322  1.00  0.00     0.102 C 
ATOM      8  O   UNL     1      53.313  -3.696  20.286  1.00  0.00    -0.544 OA
ATOM      9  O   UNL     1      53.899  -3.767  18.073  1.00  0.00    -0.544 OA
ENDBRANCH   2   7
ENDBRANCH   1   2
BRANCH   1  10
ATOM     10  O   UNL     1      56.443  -3.456  19.168  1.00  0.00    -0.390 OA
ATOM     11  H   UNL     1      57.381  -3.569  19.470  1.00  0.00     0.210 HD
ENDBRANCH   1  10
TORSDOF 4
ENDMDL
