MODEL 1
REMARK VINA RESULT:    -5.715      0.000      0.000
REMARK INTER + INTRA:          -6.569
REMARK INTER:                  -6.383
REMARK INTRA:                  -0.186
REMARK UNBOUND:                -0.186
REMARK SMILES CC(C)c1ccc(C=O)cc1
REMARK SMILES IDX 4 1 5 2 6 3 7 4 10 5 11 6 2 7 1 8 3 9 8 10 9 11
REMARK H PARENT
REMARK Flexibility Score: inf
ROOT
ATOM      1  C   UNL     1     -12.331  62.011  39.250  1.00  0.00    -0.045 A 
ATOM      2  C   UNL     1     -12.591  60.627  39.258  1.00  0.00     0.005 A 
ATOM      3  C   UNL     1     -13.865  60.143  38.951  1.00  0.00     0.012 A 
ATOM      4  C   UNL     1     -14.905  61.030  38.631  1.00  0.00     0.014 A 
ATOM      5  C   UNL     1     -14.649  62.409  38.621  1.00  0.00     0.012 A 
ATOM      6  C   UNL     1     -13.375  62.896  38.928  1.00  0.00     0.005 A 
ENDROOT
BRANCH   1   7
ATOM      7  C   UNL     1     -10.952  62.551  39.580  1.00  0.00     0.013 C 
ATOM      8  C   UNL     1     -10.323  63.241  38.366  1.00  0.00     0.012 C 
ATOM      9  C   UNL     1     -10.040  61.444  40.121  1.00  0.00     0.012 C 
ENDBRANCH   1   7
BRANCH   4  10
ATOM     10  C   UNL     1     -16.255  60.537  38.305  1.00  0.00     0.260 C 
ATOM     11  O   UNL     1     -16.819  59.665  39.017  1.00  0.00    -0.298 OA
ENDBRANCH   4  10
TORSDOF 2
ENDMDL
MODEL 2
REMARK VINA RESULT:    -5.673      0.056      1.461
REMARK INTER + INTRA:          -6.523
REMARK INTER:                  -6.335
REMARK INTRA:                  -0.188
REMARK UNBOUND:                -0.186
REMARK SMILES CC(C)c1ccc(C=O)cc1
REMARK SMILES IDX 4 1 5 2 6 3 7 4 10 5 11 6 2 7 1 8 3 9 8 10 9 11
REMARK H PARENT
REMARK Flexibility Score: inf
ROOT
ATOM      1  C   UNL     1     -12.323  62.066  39.266  1.00  0.00    -0.045 A 
ATOM      2  C   UNL     1     -13.375  62.946  38.949  1.00  0.00     0.005 A 
ATOM      3  C   UNL     1     -14.642  62.451  38.629  1.00  0.00     0.012 A 
ATOM      4  C   UNL     1     -14.883  61.068  38.619  1.00  0.00     0.014 A 
ATOM      5  C   UNL     1     -13.837  60.188  38.935  1.00  0.00     0.012 A 
ATOM      6  C   UNL     1     -12.569  60.681  39.255  1.00  0.00     0.005 A 
ENDROOT
BRANCH   1   7
ATOM      7  C   UNL     1     -10.942  62.589  39.616  1.00  0.00     0.013 C 
ATOM      8  C   UNL     1     -10.305  63.312  38.425  1.00  0.00     0.012 C 
ATOM      9  C   UNL     1     -10.037  61.461  40.126  1.00  0.00     0.012 C 
ENDBRANCH   1   7
BRANCH   4  10
ATOM     10  C   UNL     1     -16.213  60.528  38.284  1.00  0.00     0.260 C 
ATOM     11  O   UNL     1     -16.760  59.651  39.004  1.00  0.00    -0.298 OA
ENDBRANCH   4  10
TORSDOF 2
ENDMDL
MODEL 3
REMARK VINA RESULT:    -5.668      2.592      4.957
REMARK INTER + INTRA:          -6.517
REMARK INTER:                  -6.326
REMARK INTRA:                  -0.191
REMARK UNBOUND:                -0.186
REMARK SMILES CC(C)c1ccc(C=O)cc1
REMARK SMILES IDX 4 1 5 2 6 3 7 4 10 5 11 6 2 7 1 8 3 9 8 10 9 11
REMARK H PARENT
REMARK Flexibility Score: inf
ROOT
ATOM      1  C   UNL     1     -14.297  61.445  39.274  1.00  0.00    -0.045 A 
ATOM      2  C   UNL     1     -13.530  62.573  38.927  1.00  0.00     0.005 A 
ATOM      3  C   UNL     1     -12.151  62.591  39.154  1.00  0.00     0.012 A 
ATOM      4  C   UNL     1     -11.513  61.483  39.734  1.00  0.00     0.014 A 
ATOM      5  C   UNL     1     -12.274  60.358  40.080  1.00  0.00     0.012 A 
ATOM      6  C   UNL     1     -13.653  60.338  39.853  1.00  0.00     0.005 A 
ENDROOT
BRANCH   1   7
ATOM      7  C   UNL     1     -15.795  61.412  39.031  1.00  0.00     0.013 C 
ATOM      8  C   UNL     1     -16.283  59.980  38.782  1.00  0.00     0.012 C 
ATOM      9  C   UNL     1     -16.188  62.338  37.875  1.00  0.00     0.012 C 
ENDBRANCH   1   7
BRANCH   4  10
ATOM     10  C   UNL     1     -10.059  61.484  39.982  1.00  0.00     0.260 C 
ATOM     11  O   UNL     1      -9.545  62.253  40.837  1.00  0.00    -0.298 OA
ENDBRANCH   4  10
TORSDOF 2
ENDMDL
MODEL 4
REMARK VINA RESULT:    -5.637      2.500      4.629
REMARK INTER + INTRA:          -6.482
REMARK INTER:                  -6.291
REMARK INTRA:                  -0.190
REMARK UNBOUND:                -0.186
REMARK SMILES CC(C)c1ccc(C=O)cc1
REMARK SMILES IDX 4 1 5 2 6 3 7 4 10 5 11 6 2 7 1 8 3 9 8 10 9 11
REMARK H PARENT
REMARK Flexibility Score: inf
ROOT
ATOM      1  C   UNL     1     -14.542  61.194  38.678  1.00  0.00    -0.045 A 
ATOM      2  C   UNL     1     -13.941  59.999  39.117  1.00  0.00     0.005 A 
ATOM      3  C   UNL     1     -12.661  60.012  39.678  1.00  0.00     0.012 A 
ATOM      4  C   UNL     1     -11.956  61.219  39.811  1.00  0.00     0.014 A 
ATOM      5  C   UNL     1     -12.552  62.411  39.375  1.00  0.00     0.012 A 
ATOM      6  C   UNL     1     -13.832  62.400  38.814  1.00  0.00     0.005 A 
ENDROOT
BRANCH   1   7
ATOM      7  C   UNL     1     -15.932  61.195  38.069  1.00  0.00     0.013 C 
ATOM      8  C   UNL     1     -16.450  62.624  37.875  1.00  0.00     0.012 C 
ATOM      9  C   UNL     1     -16.905  60.363  38.912  1.00  0.00     0.012 C 
ENDBRANCH   1   7
BRANCH   4  10
ATOM     10  C   UNL     1     -10.605  61.252  40.399  1.00  0.00     0.260 C 
ATOM     11  O   UNL     1      -9.615  61.654  39.733  1.00  0.00    -0.298 OA
ENDBRANCH   4  10
TORSDOF 2
ENDMDL
MODEL 5
REMARK VINA RESULT:    -5.633      3.456      5.430
REMARK INTER + INTRA:          -6.478
REMARK INTER:                  -6.291
REMARK INTRA:                  -0.187
REMARK UNBOUND:                -0.186
REMARK SMILES CC(C)c1ccc(C=O)cc1
REMARK SMILES IDX 4 1 5 2 6 3 7 4 10 5 11 6 2 7 1 8 3 9 8 10 9 11
REMARK H PARENT
REMARK Flexibility Score: inf
ROOT
ATOM      1  C   UNL     1     -11.621  61.191  39.838  1.00  0.00    -0.045 A 
ATOM      2  C   UNL     1     -11.855  62.304  39.008  1.00  0.00     0.005 A 
ATOM      3  C   UNL     1     -10.956  63.373  38.985  1.00  0.00     0.012 A 
ATOM      4  C   UNL     1      -9.806  63.352  39.789  1.00  0.00     0.014 A 
ATOM      5  C   UNL     1      -9.569  62.245  40.617  1.00  0.00     0.012 A 
ATOM      6  C   UNL     1     -10.468  61.174  40.642  1.00  0.00     0.005 A 
ENDROOT
BRANCH   1   7
ATOM      7  C   UNL     1     -12.588  60.023  39.872  1.00  0.00     0.013 C 
ATOM      8  C   UNL     1     -13.489  60.013  38.633  1.00  0.00     0.012 C 
ATOM      9  C   UNL     1     -13.420  60.032  41.160  1.00  0.00     0.012 C 
ENDBRANCH   1   7
BRANCH   4  10
ATOM     10  C   UNL     1      -8.846  64.471  39.778  1.00  0.00     0.260 C 
ATOM     11  O   UNL     1      -7.658  64.314  40.166  1.00  0.00    -0.298 OA
ENDBRANCH   4  10
TORSDOF 2
ENDMDL
MODEL 6
REMARK VINA RESULT:    -5.517     14.455     16.258
REMARK INTER + INTRA:          -6.348
REMARK INTER:                  -6.167
REMARK INTRA:                  -0.181
REMARK UNBOUND:                -0.186
REMARK SMILES CC(C)c1ccc(C=O)cc1
REMARK SMILES IDX 4 1 5 2 6 3 7 4 10 5 11 6 2 7 1 8 3 9 8 10 9 11
REMARK H PARENT
REMARK Flexibility Score: inf
ROOT
ATOM      1  C   UNL     1      -7.234  63.883  52.772  1.00  0.00    -0.045 A 
ATOM      2  C   UNL     1      -8.087  63.675  53.872  1.00  0.00     0.005 A 
ATOM      3  C   UNL     1      -7.858  62.619  54.757  1.00  0.00     0.012 A 
ATOM      4  C   UNL     1      -6.773  61.749  54.560  1.00  0.00     0.014 A 
ATOM      5  C   UNL     1      -5.922  61.954  53.466  1.00  0.00     0.012 A 
ATOM      6  C   UNL     1      -6.149  63.010  52.579  1.00  0.00     0.005 A 
ENDROOT
BRANCH   1   7
ATOM      7  C   UNL     1      -7.469  65.027  51.803  1.00  0.00     0.013 C 
ATOM      8  C   UNL     1      -7.788  64.506  50.398  1.00  0.00     0.012 C 
ATOM      9  C   UNL     1      -6.273  65.985  51.779  1.00  0.00     0.012 C 
ENDBRANCH   1   7
BRANCH   4  10
ATOM     10  C   UNL     1      -6.517  60.629  55.484  1.00  0.00     0.260 C 
ATOM     11  O   UNL     1      -5.440  60.552  56.131  1.00  0.00    -0.298 OA
ENDBRANCH   4  10
TORSDOF 2
ENDMDL
MODEL 7
REMARK VINA RESULT:    -5.444     15.328     16.817
REMARK INTER + INTRA:          -6.267
REMARK INTER:                  -6.074
REMARK INTRA:                  -0.192
REMARK UNBOUND:                -0.186
REMARK SMILES CC(C)c1ccc(C=O)cc1
REMARK SMILES IDX 4 1 5 2 6 3 7 4 10 5 11 6 2 7 1 8 3 9 8 10 9 11
REMARK H PARENT
REMARK Flexibility Score: inf
ROOT
ATOM      1  C   UNL     1      -6.218  61.296  54.363  1.00  0.00    -0.045 A 
ATOM      2  C   UNL     1      -7.390  61.814  54.945  1.00  0.00     0.005 A 
ATOM      3  C   UNL     1      -7.986  62.969  54.431  1.00  0.00     0.012 A 
ATOM      4  C   UNL     1      -7.421  63.629  53.328  1.00  0.00     0.014 A 
ATOM      5  C   UNL     1      -6.254  63.115  52.746  1.00  0.00     0.012 A 
ATOM      6  C   UNL     1      -5.657  61.960  53.258  1.00  0.00     0.005 A 
ENDROOT
BRANCH   1   7
ATOM      7  C   UNL     1      -5.561  60.041  54.909  1.00  0.00     0.013 C 
ATOM      8  C   UNL     1      -6.297  59.526  56.150  1.00  0.00     0.012 C 
ATOM      9  C   UNL     1      -4.076  60.280  55.207  1.00  0.00     0.012 C 
ENDBRANCH   1   7
BRANCH   4  10
ATOM     10  C   UNL     1      -8.036  64.850  52.774  1.00  0.00     0.260 C 
ATOM     11  O   UNL     1      -7.362  65.663  52.087  1.00  0.00    -0.298 OA
ENDBRANCH   4  10
TORSDOF 2
ENDMDL
MODEL 8
REMARK VINA RESULT:    -5.293      2.050      3.605
REMARK INTER + INTRA:          -6.098
REMARK INTER:                  -5.917
REMARK INTRA:                  -0.181
REMARK UNBOUND:                -0.186
REMARK SMILES CC(C)c1ccc(C=O)cc1
REMARK SMILES IDX 4 1 5 2 6 3 7 4 10 5 11 6 2 7 1 8 3 9 8 10 9 11
REMARK H PARENT
REMARK Flexibility Score: inf
ROOT
ATOM      1  C   UNL     1      -9.705  63.203  39.881  1.00  0.00    -0.045 A 
ATOM      2  C   UNL     1     -10.811  63.452  39.047  1.00  0.00     0.005 A 
ATOM      3  C   UNL     1     -11.847  62.520  38.947  1.00  0.00     0.012 A 
ATOM      4  C   UNL     1     -11.798  61.321  39.677  1.00  0.00     0.014 A 
ATOM      5  C   UNL     1     -10.698  61.071  40.509  1.00  0.00     0.012 A 
ATOM      6  C   UNL     1      -9.661  62.002  40.611  1.00  0.00     0.005 A 
ENDROOT
BRANCH   1   7
ATOM      7  C   UNL     1      -8.573  64.207  40.001  1.00  0.00     0.013 C 
ATOM      8  C   UNL     1      -8.912  65.305  41.015  1.00  0.00     0.012 C 
ATOM      9  C   UNL     1      -8.219  64.806  38.635  1.00  0.00     0.012 C 
ENDBRANCH   1   7
BRANCH   4  10
ATOM     10  C   UNL     1     -12.882  60.326  39.583  1.00  0.00     0.260 C 
ATOM     11  O   UNL     1     -13.358  59.985  38.468  1.00  0.00    -0.298 OA
ENDBRANCH   4  10
TORSDOF 2
ENDMDL
MODEL 9
REMARK VINA RESULT:    -5.270      2.058      3.340
REMARK INTER + INTRA:          -6.073
REMARK INTER:                  -5.888
REMARK INTRA:                  -0.184
REMARK UNBOUND:                -0.186
REMARK SMILES CC(C)c1ccc(C=O)cc1
REMARK SMILES IDX 4 1 5 2 6 3 7 4 10 5 11 6 2 7 1 8 3 9 8 10 9 11
REMARK H PARENT
REMARK Flexibility Score: inf
ROOT
ATOM      1  C   UNL     1      -9.776  63.211  39.833  1.00  0.00    -0.045 A 
ATOM      2  C   UNL     1      -9.686  62.065  40.647  1.00  0.00     0.005 A 
ATOM      3  C   UNL     1     -10.688  61.092  40.615  1.00  0.00     0.012 A 
ATOM      4  C   UNL     1     -11.800  61.244  39.771  1.00  0.00     0.014 A 
ATOM      5  C   UNL     1     -11.893  62.384  38.959  1.00  0.00     0.012 A 
ATOM      6  C   UNL     1     -10.891  63.358  38.989  1.00  0.00     0.005 A 
ENDROOT
BRANCH   1   7
ATOM      7  C   UNL     1      -8.695  64.275  39.856  1.00  0.00     0.013 C 
ATOM      8  C   UNL     1      -9.010  65.361  40.891  1.00  0.00     0.012 C 
ATOM      9  C   UNL     1      -8.488  64.881  38.464  1.00  0.00     0.012 C 
ENDBRANCH   1   7
BRANCH   4  10
ATOM     10  C   UNL     1     -12.867  60.228  39.725  1.00  0.00     0.260 C 
ATOM     11  O   UNL     1     -13.411  59.904  38.636  1.00  0.00    -0.298 OA
ENDBRANCH   4  10
TORSDOF 2
ENDMDL
