MODEL 1
REMARK VINA RESULT:    -7.160      0.000      0.000
REMARK INTER + INTRA:          -8.026
REMARK INTER:                  -7.788
REMARK INTRA:                  -0.238
REMARK UNBOUND:                -0.238
REMARK SMILES CC(C)c1cc2c(cc1O)[C@@]1(C)CCCC(C)(C)[C@@H]1CC2=O
REMARK SMILES IDX 4 1 9 2 8 3 7 4 6 5 5 6 21 7 22 8 20 9 19 10 11 11 13 12
REMARK SMILES IDX 14 13 15 14 16 15 17 16 18 17 12 18 2 19 1 20 3 21 10 22
REMARK H PARENT 10 23
REMARK Flexibility Score: inf
ROOT
ATOM      1  C   UNL     1      -8.639 -22.760  -0.902  1.00  0.00    -0.003 A 
ATOM      2  C   UNL     1      -7.497 -22.878  -1.719  1.00  0.00     0.119 A 
ATOM      3  C   UNL     1      -7.171 -24.107  -2.301  1.00  0.00     0.051 A 
ATOM      4  C   UNL     1      -7.947 -25.264  -2.067  1.00  0.00    -0.027 A 
ATOM      5  C   UNL     1      -9.118 -25.134  -1.278  1.00  0.00     0.022 A 
ATOM      6  C   UNL     1      -9.444 -23.893  -0.703  1.00  0.00     0.020 A 
ATOM      7  C   UNL     1      -9.995 -26.307  -1.035  1.00  0.00     0.163 C 
ATOM      8  O   UNL     1     -11.124 -26.154  -0.493  1.00  0.00    -0.294 OA
ATOM      9  C   UNL     1      -9.587 -27.689  -1.453  1.00  0.00     0.086 C 
ATOM     10  C   UNL     1      -8.072 -27.763  -1.758  1.00  0.00     0.013 C 
ATOM     11  C   UNL     1      -7.626 -26.613  -2.750  1.00  0.00    -0.003 C 
ATOM     12  C   UNL     1      -6.098 -26.751  -3.031  1.00  0.00     0.012 C 
ATOM     13  C   UNL     1      -5.678 -28.162  -3.454  1.00  0.00     0.001 C 
ATOM     14  C   UNL     1      -6.036 -29.187  -2.382  1.00  0.00     0.007 C 
ATOM     15  C   UNL     1      -7.552 -29.227  -2.059  1.00  0.00    -0.031 C 
ATOM     16  C   UNL     1      -7.711 -30.110  -0.791  1.00  0.00     0.011 C 
ATOM     17  C   UNL     1      -8.321 -29.946  -3.197  1.00  0.00     0.011 C 
ATOM     18  C   UNL     1      -8.391 -26.594  -4.101  1.00  0.00     0.017 C 
ENDROOT
BRANCH   1  19
ATOM     19  C   UNL     1      -9.024 -21.453  -0.225  1.00  0.00     0.017 C 
ATOM     20  C   UNL     1      -9.873 -20.567  -1.144  1.00  0.00     0.012 C 
ATOM     21  C   UNL     1      -9.710 -21.689   1.126  1.00  0.00     0.012 C 
ENDBRANCH   1  19
BRANCH   2  22
ATOM     22  O   UNL     1      -6.681 -21.773  -1.959  1.00  0.00    -0.508 OA
ATOM     23  H   UNL     1      -5.824 -21.615  -1.439  1.00  0.00     0.293 HD
ENDBRANCH   2  22
TORSDOF 2
ENDMDL
MODEL 2
REMARK VINA RESULT:    -6.409     13.552     15.756
REMARK INTER + INTRA:          -7.209
REMARK INTER:                  -6.993
REMARK INTRA:                  -0.216
REMARK UNBOUND:                -0.238
REMARK SMILES CC(C)c1cc2c(cc1O)[C@@]1(C)CCCC(C)(C)[C@@H]1CC2=O
REMARK SMILES IDX 4 1 9 2 8 3 7 4 6 5 5 6 21 7 22 8 20 9 19 10 11 11 13 12
REMARK SMILES IDX 14 13 15 14 16 15 17 16 18 17 12 18 2 19 1 20 3 21 10 22
REMARK H PARENT 10 23
REMARK Flexibility Score: inf
ROOT
ATOM      1  C   UNL     1       1.940 -21.226  -6.621  1.00  0.00    -0.003 A 
ATOM      2  C   UNL     1       2.338 -20.900  -7.933  1.00  0.00     0.119 A 
ATOM      3  C   UNL     1       3.635 -20.441  -8.182  1.00  0.00     0.051 A 
ATOM      4  C   UNL     1       4.569 -20.262  -7.137  1.00  0.00    -0.027 A 
ATOM      5  C   UNL     1       4.180 -20.630  -5.824  1.00  0.00     0.022 A 
ATOM      6  C   UNL     1       2.876 -21.098  -5.582  1.00  0.00     0.020 A 
ATOM      7  C   UNL     1       5.135 -20.503  -4.694  1.00  0.00     0.163 C 
ATOM      8  O   UNL     1       4.855 -20.999  -3.568  1.00  0.00    -0.294 OA
ATOM      9  C   UNL     1       6.461 -19.822  -4.863  1.00  0.00     0.086 C 
ATOM     10  C   UNL     1       6.499 -18.972  -6.155  1.00  0.00     0.013 C 
ATOM     11  C   UNL     1       6.021 -19.808  -7.411  1.00  0.00    -0.003 C 
ATOM     12  C   UNL     1       6.098 -18.906  -8.680  1.00  0.00     0.012 C 
ATOM     13  C   UNL     1       7.449 -18.205  -8.853  1.00  0.00     0.001 C 
ATOM     14  C   UNL     1       7.770 -17.324  -7.650  1.00  0.00     0.007 C 
ATOM     15  C   UNL     1       7.817 -18.110  -6.313  1.00  0.00    -0.031 C 
ATOM     16  C   UNL     1       7.889 -17.050  -5.179  1.00  0.00     0.011 C 
ATOM     17  C   UNL     1       9.125 -18.938  -6.227  1.00  0.00     0.011 C 
ATOM     18  C   UNL     1       6.828 -21.111  -7.664  1.00  0.00     0.017 C 
ENDROOT
BRANCH   1  19
ATOM     19  C   UNL     1       0.534 -21.705  -6.290  1.00  0.00     0.017 C 
ATOM     20  C   UNL     1       0.363 -23.201  -6.578  1.00  0.00     0.012 C 
ATOM     21  C   UNL     1       0.133 -21.355  -4.853  1.00  0.00     0.012 C 
ENDBRANCH   1  19
BRANCH   2  22
ATOM     22  O   UNL     1       1.445 -21.032  -8.996  1.00  0.00    -0.508 OA
ATOM     23  H   UNL     1       1.753 -21.293  -9.926  1.00  0.00     0.293 HD
ENDBRANCH   2  22
TORSDOF 2
ENDMDL
MODEL 3
REMARK VINA RESULT:    -6.389     12.008     14.754
REMARK INTER + INTRA:          -7.187
REMARK INTER:                  -6.952
REMARK INTRA:                  -0.235
REMARK UNBOUND:                -0.238
REMARK SMILES CC(C)c1cc2c(cc1O)[C@@]1(C)CCCC(C)(C)[C@@H]1CC2=O
REMARK SMILES IDX 4 1 9 2 8 3 7 4 6 5 5 6 21 7 22 8 20 9 19 10 11 11 13 12
REMARK SMILES IDX 14 13 15 14 16 15 17 16 18 17 12 18 2 19 1 20 3 21 10 22
REMARK H PARENT 10 23
REMARK Flexibility Score: inf
ROOT
ATOM      1  C   UNL     1       2.232 -21.002  -6.264  1.00  0.00    -0.003 A 
ATOM      2  C   UNL     1       3.637 -20.892  -6.292  1.00  0.00     0.119 A 
ATOM      3  C   UNL     1       4.292 -20.006  -5.430  1.00  0.00     0.051 A 
ATOM      4  C   UNL     1       3.575 -19.180  -4.536  1.00  0.00    -0.027 A 
ATOM      5  C   UNL     1       2.166 -19.322  -4.480  1.00  0.00     0.022 A 
ATOM      6  C   UNL     1       1.515 -20.220  -5.344  1.00  0.00     0.020 A 
ATOM      7  C   UNL     1       1.365 -18.511  -3.529  1.00  0.00     0.163 C 
ATOM      8  O   UNL     1       0.142 -18.765  -3.349  1.00  0.00    -0.294 OA
ATOM      9  C   UNL     1       1.986 -17.399  -2.734  1.00  0.00     0.086 C 
ATOM     10  C   UNL     1       3.357 -16.984  -3.319  1.00  0.00     0.013 C 
ATOM     11  C   UNL     1       4.294 -18.240  -3.542  1.00  0.00    -0.003 C 
ATOM     12  C   UNL     1       5.661 -17.756  -4.114  1.00  0.00     0.012 C 
ATOM     13  C   UNL     1       6.295 -16.618  -3.308  1.00  0.00     0.001 C 
ATOM     14  C   UNL     1       5.373 -15.404  -3.251  1.00  0.00     0.007 C 
ATOM     15  C   UNL     1       3.992 -15.716  -2.616  1.00  0.00    -0.031 C 
ATOM     16  C   UNL     1       3.098 -14.472  -2.870  1.00  0.00     0.011 C 
ATOM     17  C   UNL     1       4.132 -15.853  -1.078  1.00  0.00     0.011 C 
ATOM     18  C   UNL     1       4.548 -19.089  -2.267  1.00  0.00     0.017 C 
ENDROOT
BRANCH   1  19
ATOM     19  C   UNL     1       1.468 -21.930  -7.197  1.00  0.00     0.017 C 
ATOM     20  C   UNL     1       0.170 -22.434  -6.557  1.00  0.00     0.012 C 
ATOM     21  C   UNL     1       1.213 -21.284  -8.564  1.00  0.00     0.012 C 
ENDBRANCH   1  19
BRANCH   2  22
ATOM     22  O   UNL     1       4.389 -21.664  -7.177  1.00  0.00    -0.508 OA
ATOM     23  H   UNL     1       3.961 -22.349  -7.789  1.00  0.00     0.293 HD
ENDBRANCH   2  22
TORSDOF 2
ENDMDL
MODEL 4
REMARK VINA RESULT:    -6.367     13.003     15.235
REMARK INTER + INTRA:          -7.163
REMARK INTER:                  -6.914
REMARK INTRA:                  -0.249
REMARK UNBOUND:                -0.238
REMARK SMILES CC(C)c1cc2c(cc1O)[C@@]1(C)CCCC(C)(C)[C@@H]1CC2=O
REMARK SMILES IDX 4 1 9 2 8 3 7 4 6 5 5 6 21 7 22 8 20 9 19 10 11 11 13 12
REMARK SMILES IDX 14 13 15 14 16 15 17 16 18 17 12 18 2 19 1 20 3 21 10 22
REMARK H PARENT 10 23
REMARK Flexibility Score: inf
ROOT
ATOM      1  C   UNL     1       2.168 -20.948  -6.196  1.00  0.00    -0.003 A 
ATOM      2  C   UNL     1       2.028 -20.154  -5.040  1.00  0.00     0.119 A 
ATOM      3  C   UNL     1       3.158 -19.758  -4.317  1.00  0.00     0.051 A 
ATOM      4  C   UNL     1       4.457 -20.159  -4.698  1.00  0.00    -0.027 A 
ATOM      5  C   UNL     1       4.599 -20.923  -5.885  1.00  0.00     0.022 A 
ATOM      6  C   UNL     1       3.459 -21.311  -6.611  1.00  0.00     0.020 A 
ATOM      7  C   UNL     1       5.945 -21.336  -6.357  1.00  0.00     0.163 C 
ATOM      8  O   UNL     1       6.086 -21.852  -7.500  1.00  0.00    -0.294 OA
ATOM      9  C   UNL     1       7.168 -21.123  -5.515  1.00  0.00     0.086 C 
ATOM     10  C   UNL     1       6.797 -20.830  -4.042  1.00  0.00     0.013 C 
ATOM     11  C   UNL     1       5.715 -19.679  -3.938  1.00  0.00    -0.003 C 
ATOM     12  C   UNL     1       5.396 -19.419  -2.434  1.00  0.00     0.012 C 
ATOM     13  C   UNL     1       6.644 -19.206  -1.571  1.00  0.00     0.001 C 
ATOM     14  C   UNL     1       7.571 -20.416  -1.635  1.00  0.00     0.007 C 
ATOM     15  C   UNL     1       8.047 -20.744  -3.074  1.00  0.00    -0.031 C 
ATOM     16  C   UNL     1       8.749 -22.128  -3.003  1.00  0.00     0.011 C 
ATOM     17  C   UNL     1       9.124 -19.724  -3.525  1.00  0.00     0.011 C 
ATOM     18  C   UNL     1       6.128 -18.341  -4.609  1.00  0.00     0.017 C 
ENDROOT
BRANCH   1  19
ATOM     19  C   UNL     1       0.972 -21.428  -7.004  1.00  0.00     0.017 C 
ATOM     20  C   UNL     1       1.250 -21.381  -8.511  1.00  0.00     0.012 C 
ATOM     21  C   UNL     1       0.500 -22.817  -6.559  1.00  0.00     0.012 C 
ENDBRANCH   1  19
BRANCH   2  22
ATOM     22  O   UNL     1       0.765 -19.755  -4.604  1.00  0.00    -0.508 OA
ATOM     23  H   UNL     1       0.003 -19.587  -5.251  1.00  0.00     0.293 HD
ENDBRANCH   2  22
TORSDOF 2
ENDMDL
MODEL 5
REMARK VINA RESULT:    -6.053     14.251     15.814
REMARK INTER + INTRA:          -6.821
REMARK INTER:                  -6.574
REMARK INTRA:                  -0.247
REMARK UNBOUND:                -0.238
REMARK SMILES CC(C)c1cc2c(cc1O)[C@@]1(C)CCCC(C)(C)[C@@H]1CC2=O
REMARK SMILES IDX 4 1 9 2 8 3 7 4 6 5 5 6 21 7 22 8 20 9 19 10 11 11 13 12
REMARK SMILES IDX 14 13 15 14 16 15 17 16 18 17 12 18 2 19 1 20 3 21 10 22
REMARK H PARENT 10 23
REMARK Flexibility Score: inf
ROOT
ATOM      1  C   UNL     1       2.002 -27.900   8.177  1.00  0.00    -0.003 A 
ATOM      2  C   UNL     1       1.973 -28.140   6.789  1.00  0.00     0.119 A 
ATOM      3  C   UNL     1       2.873 -27.485   5.942  1.00  0.00     0.051 A 
ATOM      4  C   UNL     1       3.808 -26.550   6.438  1.00  0.00    -0.027 A 
ATOM      5  C   UNL     1       3.862 -26.341   7.839  1.00  0.00     0.022 A 
ATOM      6  C   UNL     1       2.960 -27.008   8.686  1.00  0.00     0.020 A 
ATOM      7  C   UNL     1       4.854 -25.401   8.421  1.00  0.00     0.163 C 
ATOM      8  O   UNL     1       5.027 -25.353   9.670  1.00  0.00    -0.294 OA
ATOM      9  C   UNL     1       5.697 -24.516   7.551  1.00  0.00     0.086 C 
ATOM     10  C   UNL     1       5.127 -24.426   6.115  1.00  0.00     0.013 C 
ATOM     11  C   UNL     1       4.842 -25.864   5.516  1.00  0.00    -0.003 C 
ATOM     12  C   UNL     1       4.288 -25.708   4.067  1.00  0.00     0.012 C 
ATOM     13  C   UNL     1       5.144 -24.801   3.178  1.00  0.00     0.001 C 
ATOM     14  C   UNL     1       5.261 -23.401   3.771  1.00  0.00     0.007 C 
ATOM     15  C   UNL     1       5.886 -23.390   5.191  1.00  0.00    -0.031 C 
ATOM     16  C   UNL     1       5.694 -21.952   5.748  1.00  0.00     0.011 C 
ATOM     17  C   UNL     1       7.416 -23.628   5.102  1.00  0.00     0.011 C 
ATOM     18  C   UNL     1       6.075 -26.808   5.491  1.00  0.00     0.017 C 
ENDROOT
BRANCH   1  19
ATOM     19  C   UNL     1       1.030 -28.566   9.140  1.00  0.00     0.017 C 
ATOM     20  C   UNL     1       1.677 -29.747   9.871  1.00  0.00     0.012 C 
ATOM     21  C   UNL     1       0.415 -27.560  10.120  1.00  0.00     0.012 C 
ENDBRANCH   1  19
BRANCH   2  22
ATOM     22  O   UNL     1       1.051 -29.033   6.244  1.00  0.00    -0.508 OA
ATOM     23  H   UNL     1       0.657 -29.795   6.785  1.00  0.00     0.293 HD
ENDBRANCH   2  22
TORSDOF 2
ENDMDL
MODEL 6
REMARK VINA RESULT:    -6.034     13.379     14.662
REMARK INTER + INTRA:          -6.801
REMARK INTER:                  -6.558
REMARK INTRA:                  -0.243
REMARK UNBOUND:                -0.238
REMARK SMILES CC(C)c1cc2c(cc1O)[C@@]1(C)CCCC(C)(C)[C@@H]1CC2=O
REMARK SMILES IDX 4 1 9 2 8 3 7 4 6 5 5 6 21 7 22 8 20 9 19 10 11 11 13 12
REMARK SMILES IDX 14 13 15 14 16 15 17 16 18 17 12 18 2 19 1 20 3 21 10 22
REMARK H PARENT 10 23
REMARK Flexibility Score: inf
ROOT
ATOM      1  C   UNL     1       4.397 -25.226   4.933  1.00  0.00    -0.003 A 
ATOM      2  C   UNL     1       3.572 -26.239   5.461  1.00  0.00     0.119 A 
ATOM      3  C   UNL     1       3.705 -27.558   5.016  1.00  0.00     0.051 A 
ATOM      4  C   UNL     1       4.636 -27.910   4.014  1.00  0.00    -0.027 A 
ATOM      5  C   UNL     1       5.493 -26.897   3.515  1.00  0.00     0.022 A 
ATOM      6  C   UNL     1       5.359 -25.574   3.972  1.00  0.00     0.020 A 
ATOM      7  C   UNL     1       6.521 -27.218   2.492  1.00  0.00     0.163 C 
ATOM      8  O   UNL     1       7.399 -26.366   2.184  1.00  0.00    -0.294 OA
ATOM      9  C   UNL     1       6.568 -28.562   1.827  1.00  0.00     0.086 C 
ATOM     10  C   UNL     1       5.248 -29.342   2.032  1.00  0.00     0.013 C 
ATOM     11  C   UNL     1       4.828 -29.375   3.558  1.00  0.00    -0.003 C 
ATOM     12  C   UNL     1       3.504 -30.186   3.701  1.00  0.00     0.012 C 
ATOM     13  C   UNL     1       3.548 -31.556   3.019  1.00  0.00     0.001 C 
ATOM     14  C   UNL     1       3.836 -31.419   1.527  1.00  0.00     0.007 C 
ATOM     15  C   UNL     1       5.180 -30.703   1.228  1.00  0.00    -0.031 C 
ATOM     16  C   UNL     1       5.196 -30.413  -0.298  1.00  0.00     0.011 C 
ATOM     17  C   UNL     1       6.367 -31.660   1.508  1.00  0.00     0.011 C 
ATOM     18  C   UNL     1       5.898 -29.976   4.508  1.00  0.00     0.017 C 
ENDROOT
BRANCH   1  19
ATOM     19  C   UNL     1       4.277 -23.771   5.362  1.00  0.00     0.017 C 
ATOM     20  C   UNL     1       5.541 -23.286   6.080  1.00  0.00     0.012 C 
ATOM     21  C   UNL     1       3.905 -22.857   4.189  1.00  0.00     0.012 C 
ENDBRANCH   1  19
BRANCH   2  22
ATOM     22  O   UNL     1       2.616 -25.939   6.431  1.00  0.00    -0.508 OA
ATOM     23  H   UNL     1       1.800 -25.373   6.224  1.00  0.00     0.293 HD
ENDBRANCH   2  22
TORSDOF 2
ENDMDL
MODEL 7
REMARK VINA RESULT:    -5.936     13.300     15.807
REMARK INTER + INTRA:          -6.694
REMARK INTER:                  -6.450
REMARK INTRA:                  -0.244
REMARK UNBOUND:                -0.238
REMARK SMILES CC(C)c1cc2c(cc1O)[C@@]1(C)CCCC(C)(C)[C@@H]1CC2=O
REMARK SMILES IDX 4 1 9 2 8 3 7 4 6 5 5 6 21 7 22 8 20 9 19 10 11 11 13 12
REMARK SMILES IDX 14 13 15 14 16 15 17 16 18 17 12 18 2 19 1 20 3 21 10 22
REMARK H PARENT 10 23
REMARK Flexibility Score: inf
ROOT
ATOM      1  C   UNL     1       1.816 -19.060  -3.134  1.00  0.00    -0.003 A 
ATOM      2  C   UNL     1       1.701 -17.656  -3.097  1.00  0.00     0.119 A 
ATOM      3  C   UNL     1       2.819 -16.865  -2.813  1.00  0.00     0.051 A 
ATOM      4  C   UNL     1       4.077 -17.439  -2.528  1.00  0.00    -0.027 A 
ATOM      5  C   UNL     1       4.200 -18.850  -2.607  1.00  0.00     0.022 A 
ATOM      6  C   UNL     1       3.074 -19.638  -2.900  1.00  0.00     0.020 A 
ATOM      7  C   UNL     1       5.509 -19.506  -2.359  1.00  0.00     0.163 C 
ATOM      8  O   UNL     1       5.662 -20.734  -2.608  1.00  0.00    -0.294 OA
ATOM      9  C   UNL     1       6.687 -18.731  -1.846  1.00  0.00     0.086 C 
ATOM     10  C   UNL     1       6.255 -17.367  -1.260  1.00  0.00     0.013 C 
ATOM     11  C   UNL     1       5.330 -16.571  -2.269  1.00  0.00    -0.003 C 
ATOM     12  C   UNL     1       4.943 -15.203  -1.630  1.00  0.00     0.012 C 
ATOM     13  C   UNL     1       6.143 -14.412  -1.101  1.00  0.00     0.001 C 
ATOM     14  C   UNL     1       6.903 -15.207  -0.043  1.00  0.00     0.007 C 
ATOM     15  C   UNL     1       7.432 -16.568  -0.567  1.00  0.00    -0.031 C 
ATOM     16  C   UNL     1       7.938 -17.352   0.675  1.00  0.00     0.011 C 
ATOM     17  C   UNL     1       8.665 -16.345  -1.480  1.00  0.00     0.011 C 
ATOM     18  C   UNL     1       5.964 -16.320  -3.664  1.00  0.00     0.017 C 
ENDROOT
BRANCH   1  19
ATOM     19  C   UNL     1       0.627 -19.968  -3.412  1.00  0.00     0.017 C 
ATOM     20  C   UNL     1       0.724 -20.621  -4.795  1.00  0.00     0.012 C 
ATOM     21  C   UNL     1       0.432 -21.010  -2.305  1.00  0.00     0.012 C 
ENDBRANCH   1  19
BRANCH   2  22
ATOM     22  O   UNL     1       0.475 -17.040  -3.342  1.00  0.00    -0.508 OA
ATOM     23  H   UNL     1       0.235 -16.665  -4.254  1.00  0.00     0.293 HD
ENDBRANCH   2  22
TORSDOF 2
ENDMDL
MODEL 8
REMARK VINA RESULT:    -5.863     13.203     15.263
REMARK INTER + INTRA:          -6.615
REMARK INTER:                  -6.367
REMARK INTRA:                  -0.247
REMARK UNBOUND:                -0.238
REMARK SMILES CC(C)c1cc2c(cc1O)[C@@]1(C)CCCC(C)(C)[C@@H]1CC2=O
REMARK SMILES IDX 4 1 9 2 8 3 7 4 6 5 5 6 21 7 22 8 20 9 19 10 11 11 13 12
REMARK SMILES IDX 14 13 15 14 16 15 17 16 18 17 12 18 2 19 1 20 3 21 10 22
REMARK H PARENT 10 23
REMARK Flexibility Score: inf
ROOT
ATOM      1  C   UNL     1       2.955 -30.014   5.148  1.00  0.00    -0.003 A 
ATOM      2  C   UNL     1       4.212 -29.944   4.516  1.00  0.00     0.119 A 
ATOM      3  C   UNL     1       4.925 -28.740   4.499  1.00  0.00     0.051 A 
ATOM      4  C   UNL     1       4.402 -27.564   5.078  1.00  0.00    -0.027 A 
ATOM      5  C   UNL     1       3.155 -27.647   5.749  1.00  0.00     0.022 A 
ATOM      6  C   UNL     1       2.447 -28.862   5.769  1.00  0.00     0.020 A 
ATOM      7  C   UNL     1       2.577 -26.451   6.413  1.00  0.00     0.163 C 
ATOM      8  O   UNL     1       1.567 -26.566   7.161  1.00  0.00    -0.294 OA
ATOM      9  C   UNL     1       3.189 -25.092   6.246  1.00  0.00     0.086 C 
ATOM     10  C   UNL     1       4.165 -25.054   5.047  1.00  0.00     0.013 C 
ATOM     11  C   UNL     1       5.207 -26.244   5.112  1.00  0.00    -0.003 C 
ATOM     12  C   UNL     1       6.169 -26.142   3.890  1.00  0.00     0.012 C 
ATOM     13  C   UNL     1       6.792 -24.754   3.715  1.00  0.00     0.001 C 
ATOM     14  C   UNL     1       5.717 -23.687   3.534  1.00  0.00     0.007 C 
ATOM     15  C   UNL     1       4.728 -23.610   4.727  1.00  0.00    -0.031 C 
ATOM     16  C   UNL     1       3.566 -22.681   4.279  1.00  0.00     0.011 C 
ATOM     17  C   UNL     1       5.405 -22.917   5.937  1.00  0.00     0.011 C 
ATOM     18  C   UNL     1       6.046 -26.296   6.417  1.00  0.00     0.017 C 
ENDROOT
BRANCH   1  19
ATOM     19  C   UNL     1       2.126 -31.291   5.174  1.00  0.00     0.017 C 
ATOM     20  C   UNL     1       2.296 -32.049   6.495  1.00  0.00     0.012 C 
ATOM     21  C   UNL     1       0.650 -31.022   4.860  1.00  0.00     0.012 C 
ENDBRANCH   1  19
BRANCH   2  22
ATOM     22  O   UNL     1       4.761 -31.070   3.904  1.00  0.00    -0.508 OA
ATOM     23  H   UNL     1       4.588 -31.289   2.930  1.00  0.00     0.293 HD
ENDBRANCH   2  22
TORSDOF 2
ENDMDL
MODEL 9
REMARK VINA RESULT:    -5.820     14.381     16.703
REMARK INTER + INTRA:          -6.568
REMARK INTER:                  -6.325
REMARK INTRA:                  -0.244
REMARK UNBOUND:                -0.238
REMARK SMILES CC(C)c1cc2c(cc1O)[C@@]1(C)CCCC(C)(C)[C@@H]1CC2=O
REMARK SMILES IDX 4 1 9 2 8 3 7 4 6 5 5 6 21 7 22 8 20 9 19 10 11 11 13 12
REMARK SMILES IDX 14 13 15 14 16 15 17 16 18 17 12 18 2 19 1 20 3 21 10 22
REMARK H PARENT 10 23
REMARK Flexibility Score: inf
ROOT
ATOM      1  C   UNL     1       6.285 -29.016   2.711  1.00  0.00    -0.003 A 
ATOM      2  C   UNL     1       6.013 -29.183   4.084  1.00  0.00     0.119 A 
ATOM      3  C   UNL     1       5.745 -28.071   4.889  1.00  0.00     0.051 A 
ATOM      4  C   UNL     1       5.768 -26.759   4.368  1.00  0.00    -0.027 A 
ATOM      5  C   UNL     1       6.000 -26.597   2.978  1.00  0.00     0.022 A 
ATOM      6  C   UNL     1       6.261 -27.719   2.173  1.00  0.00     0.020 A 
ATOM      7  C   UNL     1       5.993 -25.243   2.368  1.00  0.00     0.163 C 
ATOM      8  O   UNL     1       6.015 -25.112   1.113  1.00  0.00    -0.294 OA
ATOM      9  C   UNL     1       5.922 -24.005   3.212  1.00  0.00     0.086 C 
ATOM     10  C   UNL     1       6.263 -24.308   4.690  1.00  0.00     0.013 C 
ATOM     11  C   UNL     1       5.418 -25.530   5.238  1.00  0.00    -0.003 C 
ATOM     12  C   UNL     1       5.792 -25.775   6.732  1.00  0.00     0.012 C 
ATOM     13  C   UNL     1       5.726 -24.512   7.595  1.00  0.00     0.001 C 
ATOM     14  C   UNL     1       6.664 -23.432   7.065  1.00  0.00     0.007 C 
ATOM     15  C   UNL     1       6.352 -23.018   5.602  1.00  0.00    -0.031 C 
ATOM     16  C   UNL     1       7.535 -22.126   5.134  1.00  0.00     0.011 C 
ATOM     17  C   UNL     1       5.084 -22.127   5.560  1.00  0.00     0.011 C 
ATOM     18  C   UNL     1       3.880 -25.355   5.121  1.00  0.00     0.017 C 
ENDROOT
BRANCH   1  19
ATOM     19  C   UNL     1       6.608 -30.188   1.795  1.00  0.00     0.017 C 
ATOM     20  C   UNL     1       5.478 -30.452   0.793  1.00  0.00     0.012 C 
ATOM     21  C   UNL     1       7.959 -30.010   1.093  1.00  0.00     0.012 C 
ENDBRANCH   1  19
BRANCH   2  22
ATOM     22  O   UNL     1       6.008 -30.455   4.654  1.00  0.00    -0.508 OA
ATOM     23  H   UNL     1       5.351 -30.715   5.381  1.00  0.00     0.293 HD
ENDBRANCH   2  22
TORSDOF 2
ENDMDL
