MODEL 1
REMARK VINA RESULT:    -3.424      0.000      0.000
REMARK INTER + INTRA:          -5.086
REMARK INTER:                  -4.625
REMARK INTRA:                  -0.461
REMARK UNBOUND:                -0.461
REMARK SMILES CCCCCCCC(=O)[O-]
REMARK SMILES IDX 5 1 6 2 7 3 8 4 9 5 10 6 4 7 3 8 2 9 1 10
REMARK H PARENT
REMARK Flexibility Score: inf
ROOT
ATOM      1  C   UNL     1     -16.406  22.125  34.075  1.00  0.00     0.000 C 
ENDROOT
BRANCH   1   2
ATOM      2  C   UNL     1     -17.108  23.032  33.052  1.00  0.00     0.006 C 
BRANCH   2   3
ATOM      3  C   UNL     1     -16.912  24.509  33.404  1.00  0.00     0.053 C 
BRANCH   3   4
ATOM      4  C   UNL     1     -15.873  25.124  32.523  1.00  0.00     0.041 C 
ATOM      5  O   UNL     1     -14.657  24.835  32.679  1.00  0.00    -0.550 OA
ATOM      6  O   UNL     1     -16.250  25.981  31.496  1.00  0.00    -0.550 OA
ENDBRANCH   3   4
ENDBRANCH   2   3
ENDBRANCH   1   2
BRANCH   1   7
ATOM      7  C   UNL     1     -16.245  22.795  35.448  1.00  0.00     0.000 C 
BRANCH   7   8
ATOM      8  C   UNL     1     -14.890  22.477  36.107  1.00  0.00    -0.000 C 
BRANCH   8   9
ATOM      9  C   UNL     1     -13.940  21.723  35.164  1.00  0.00    -0.003 C 
ATOM     10  C   UNL     1     -12.655  22.499  34.876  1.00  0.00     0.004 C 
ENDBRANCH   8   9
ENDBRANCH   7   8
ENDBRANCH   1   7
TORSDOF 6
ENDMDL
MODEL 2
REMARK VINA RESULT:    -3.301      2.062      4.529
REMARK INTER + INTRA:          -4.921
REMARK INTER:                  -4.574
REMARK INTRA:                  -0.347
REMARK UNBOUND:                -0.461
REMARK SMILES CCCCCCCC(=O)[O-]
REMARK SMILES IDX 5 1 6 2 7 3 8 4 9 5 10 6 4 7 3 8 2 9 1 10
REMARK H PARENT
REMARK Flexibility Score: inf
ROOT
ATOM      1  C   UNL     1     -16.626  24.020  34.969  1.00  0.00     0.000 C 
ENDROOT
BRANCH   1   2
ATOM      2  C   UNL     1     -16.236  22.574  35.315  1.00  0.00     0.006 C 
BRANCH   2   3
ATOM      3  C   UNL     1     -14.812  22.509  35.873  1.00  0.00     0.053 C 
BRANCH   3   4
ATOM      4  C   UNL     1     -13.831  22.242  34.777  1.00  0.00     0.041 C 
ATOM      5  O   UNL     1     -14.223  21.782  33.672  1.00  0.00    -0.550 OA
ATOM      6  O   UNL     1     -12.487  22.547  34.956  1.00  0.00    -0.550 OA
ENDBRANCH   3   4
ENDBRANCH   2   3
ENDBRANCH   1   2
BRANCH   1   7
ATOM      7  C   UNL     1     -17.093  24.175  33.514  1.00  0.00     0.000 C 
BRANCH   7   8
ATOM      8  C   UNL     1     -16.058  24.901  32.634  1.00  0.00    -0.000 C 
BRANCH   8   9
ATOM      9  C   UNL     1     -16.634  26.157  31.964  1.00  0.00    -0.003 C 
ATOM     10  C   UNL     1     -18.091  26.416  32.349  1.00  0.00     0.004 C 
ENDBRANCH   8   9
ENDBRANCH   7   8
ENDBRANCH   1   7
TORSDOF 6
ENDMDL
MODEL 3
REMARK VINA RESULT:    -3.179      2.724      4.973
REMARK INTER + INTRA:          -4.755
REMARK INTER:                  -4.492
REMARK INTRA:                  -0.263
REMARK UNBOUND:                -0.461
REMARK SMILES CCCCCCCC(=O)[O-]
REMARK SMILES IDX 5 1 6 2 7 3 8 4 9 5 10 6 4 7 3 8 2 9 1 10
REMARK H PARENT
REMARK Flexibility Score: inf
ROOT
ATOM      1  C   UNL     1     -15.334  24.692  33.049  1.00  0.00     0.000 C 
ENDROOT
BRANCH   1   2
ATOM      2  C   UNL     1     -15.652  23.667  34.148  1.00  0.00     0.006 C 
BRANCH   2   3
ATOM      3  C   UNL     1     -14.850  22.378  33.944  1.00  0.00     0.053 C 
BRANCH   3   4
ATOM      4  C   UNL     1     -13.897  22.168  35.076  1.00  0.00     0.041 C 
ATOM      5  O   UNL     1     -14.303  22.230  36.267  1.00  0.00    -0.550 OA
ATOM      6  O   UNL     1     -12.568  21.855  34.819  1.00  0.00    -0.550 OA
ENDBRANCH   3   4
ENDBRANCH   2   3
ENDBRANCH   1   2
BRANCH   1   7
ATOM      7  C   UNL     1     -16.516  24.920  32.093  1.00  0.00     0.000 C 
BRANCH   7   8
ATOM      8  C   UNL     1     -16.900  26.406  31.970  1.00  0.00    -0.000 C 
BRANCH   8   9
ATOM      9  C   UNL     1     -17.592  26.940  33.233  1.00  0.00    -0.003 C 
ATOM     10  C   UNL     1     -16.780  28.026  33.938  1.00  0.00     0.004 C 
ENDBRANCH   8   9
ENDBRANCH   7   8
ENDBRANCH   1   7
TORSDOF 6
ENDMDL
MODEL 4
REMARK VINA RESULT:    -3.177     14.896     16.490
REMARK INTER + INTRA:          -4.753
REMARK INTER:                  -4.388
REMARK INTRA:                  -0.365
REMARK UNBOUND:                -0.461
REMARK SMILES CCCCCCCC(=O)[O-]
REMARK SMILES IDX 5 1 6 2 7 3 8 4 9 5 10 6 4 7 3 8 2 9 1 10
REMARK H PARENT
REMARK Flexibility Score: inf
ROOT
ATOM      1  C   UNL     1      -2.399  27.375  25.582  1.00  0.00     0.000 C 
ENDROOT
BRANCH   1   2
ATOM      2  C   UNL     1      -1.854  26.659  24.337  1.00  0.00     0.006 C 
BRANCH   2   3
ATOM      3  C   UNL     1      -0.396  26.236  24.542  1.00  0.00     0.053 C 
BRANCH   3   4
ATOM      4  C   UNL     1      -0.190  24.827  24.086  1.00  0.00     0.041 C 
ATOM      5  O   UNL     1      -0.891  23.896  24.565  1.00  0.00    -0.550 OA
ATOM      6  O   UNL     1       0.743  24.546  23.096  1.00  0.00    -0.550 OA
ENDBRANCH   3   4
ENDBRANCH   2   3
ENDBRANCH   1   2
BRANCH   1   7
ATOM      7  C   UNL     1      -3.476  26.557  26.311  1.00  0.00     0.000 C 
BRANCH   7   8
ATOM      8  C   UNL     1      -3.928  25.324  25.508  1.00  0.00    -0.000 C 
BRANCH   8   9
ATOM      9  C   UNL     1      -3.956  24.046  26.360  1.00  0.00    -0.003 C 
ATOM     10  C   UNL     1      -5.303  23.325  26.298  1.00  0.00     0.004 C 
ENDBRANCH   8   9
ENDBRANCH   7   8
ENDBRANCH   1   7
TORSDOF 6
ENDMDL
MODEL 5
REMARK VINA RESULT:    -3.113     10.592     12.222
REMARK INTER + INTRA:          -4.666
REMARK INTER:                  -4.478
REMARK INTRA:                  -0.189
REMARK UNBOUND:                -0.461
REMARK SMILES CCCCCCCC(=O)[O-]
REMARK SMILES IDX 5 1 6 2 7 3 8 4 9 5 10 6 4 7 3 8 2 9 1 10
REMARK H PARENT
REMARK Flexibility Score: inf
ROOT
ATOM      1  C   UNL     1      -9.886  24.498  23.633  1.00  0.00     0.000 C 
ENDROOT
BRANCH   1   2
ATOM      2  C   UNL     1      -8.895  24.247  24.780  1.00  0.00     0.006 C 
BRANCH   2   3
ATOM      3  C   UNL     1      -9.213  22.934  25.501  1.00  0.00     0.053 C 
BRANCH   3   4
ATOM      4  C   UNL     1      -8.419  22.824  26.763  1.00  0.00     0.041 C 
ATOM      5  O   UNL     1      -9.002  22.780  27.879  1.00  0.00    -0.550 OA
ATOM      6  O   UNL     1      -7.034  22.719  26.706  1.00  0.00    -0.550 OA
ENDBRANCH   3   4
ENDBRANCH   2   3
ENDBRANCH   1   2
BRANCH   1   7
ATOM      7  C   UNL     1     -10.697  23.245  23.267  1.00  0.00     0.000 C 
BRANCH   7   8
ATOM      8  C   UNL     1     -11.992  23.580  22.505  1.00  0.00    -0.000 C 
BRANCH   8   9
ATOM      9  C   UNL     1     -11.732  23.949  21.036  1.00  0.00    -0.003 C 
ATOM     10  C   UNL     1     -12.281  22.909  20.060  1.00  0.00     0.004 C 
ENDBRANCH   8   9
ENDBRANCH   7   8
ENDBRANCH   1   7
TORSDOF 6
ENDMDL
MODEL 6
REMARK VINA RESULT:    -2.996     15.746     17.352
REMARK INTER + INTRA:          -4.509
REMARK INTER:                  -4.162
REMARK INTRA:                  -0.346
REMARK UNBOUND:                -0.461
REMARK SMILES CCCCCCCC(=O)[O-]
REMARK SMILES IDX 5 1 6 2 7 3 8 4 9 5 10 6 4 7 3 8 2 9 1 10
REMARK H PARENT
REMARK Flexibility Score: inf
ROOT
ATOM      1  C   UNL     1      -1.990  26.700  24.228  1.00  0.00     0.000 C 
ENDROOT
BRANCH   1   2
ATOM      2  C   UNL     1      -0.544  26.196  24.363  1.00  0.00     0.006 C 
BRANCH   2   3
ATOM      3  C   UNL     1      -0.488  24.667  24.294  1.00  0.00     0.053 C 
BRANCH   3   4
ATOM      4  C   UNL     1       0.467  24.225  23.231  1.00  0.00     0.041 C 
ATOM      5  O   UNL     1       1.498  24.905  22.982  1.00  0.00    -0.550 OA
ATOM      6  O   UNL     1       0.245  23.036  22.548  1.00  0.00    -0.550 OA
ENDBRANCH   3   4
ENDBRANCH   2   3
ENDBRANCH   1   2
BRANCH   1   7
ATOM      7  C   UNL     1      -2.514  27.345  25.521  1.00  0.00     0.000 C 
BRANCH   7   8
ATOM      8  C   UNL     1      -3.446  26.410  26.313  1.00  0.00    -0.000 C 
BRANCH   8   9
ATOM      9  C   UNL     1      -3.852  25.165  25.510  1.00  0.00    -0.003 C 
ATOM     10  C   UNL     1      -4.193  23.972  26.402  1.00  0.00     0.004 C 
ENDBRANCH   8   9
ENDBRANCH   7   8
ENDBRANCH   1   7
TORSDOF 6
ENDMDL
MODEL 7
REMARK VINA RESULT:    -2.996     15.058     16.597
REMARK INTER + INTRA:          -4.508
REMARK INTER:                  -4.200
REMARK INTRA:                  -0.307
REMARK UNBOUND:                -0.461
REMARK SMILES CCCCCCCC(=O)[O-]
REMARK SMILES IDX 5 1 6 2 7 3 8 4 9 5 10 6 4 7 3 8 2 9 1 10
REMARK H PARENT
REMARK Flexibility Score: inf
ROOT
ATOM      1  C   UNL     1      -2.417  27.375  25.568  1.00  0.00     0.000 C 
ENDROOT
BRANCH   1   2
ATOM      2  C   UNL     1      -2.076  26.787  24.189  1.00  0.00     0.006 C 
BRANCH   2   3
ATOM      3  C   UNL     1      -0.587  26.954  23.876  1.00  0.00     0.053 C 
BRANCH   3   4
ATOM      4  C   UNL     1       0.103  25.627  23.886  1.00  0.00     0.041 C 
ATOM      5  O   UNL     1       1.293  25.527  23.487  1.00  0.00    -0.550 OA
ATOM      6  O   UNL     1      -0.552  24.507  24.383  1.00  0.00    -0.550 OA
ENDBRANCH   3   4
ENDBRANCH   2   3
ENDBRANCH   1   2
BRANCH   1   7
ATOM      7  C   UNL     1      -3.409  26.503  26.353  1.00  0.00     0.000 C 
BRANCH   7   8
ATOM      8  C   UNL     1      -3.788  25.214  25.602  1.00  0.00    -0.000 C 
BRANCH   8   9
ATOM      9  C   UNL     1      -4.017  24.027  26.551  1.00  0.00    -0.003 C 
ATOM     10  C   UNL     1      -5.333  23.298  26.279  1.00  0.00     0.004 C 
ENDBRANCH   8   9
ENDBRANCH   7   8
ENDBRANCH   1   7
TORSDOF 6
ENDMDL
MODEL 8
REMARK VINA RESULT:    -2.835     14.533     16.166
REMARK INTER + INTRA:          -4.291
REMARK INTER:                  -4.034
REMARK INTRA:                  -0.258
REMARK UNBOUND:                -0.461
REMARK SMILES CCCCCCCC(=O)[O-]
REMARK SMILES IDX 5 1 6 2 7 3 8 4 9 5 10 6 4 7 3 8 2 9 1 10
REMARK H PARENT
REMARK Flexibility Score: inf
ROOT
ATOM      1  C   UNL     1      -2.399  27.325  25.573  1.00  0.00     0.000 C 
ENDROOT
BRANCH   1   2
ATOM      2  C   UNL     1      -3.531  26.483  26.182  1.00  0.00     0.006 C 
BRANCH   2   3
ATOM      3  C   UNL     1      -3.629  25.117  25.495  1.00  0.00     0.053 C 
BRANCH   3   4
ATOM      4  C   UNL     1      -4.283  24.122  26.398  1.00  0.00     0.041 C 
ATOM      5  O   UNL     1      -5.125  23.305  25.939  1.00  0.00    -0.550 OA
ATOM      6  O   UNL     1      -3.927  24.061  27.740  1.00  0.00    -0.550 OA
ENDBRANCH   3   4
ENDBRANCH   2   3
ENDBRANCH   1   2
BRANCH   1   7
ATOM      7  C   UNL     1      -1.987  26.839  24.175  1.00  0.00     0.000 C 
BRANCH   7   8
ATOM      8  C   UNL     1      -0.499  26.451  24.099  1.00  0.00    -0.000 C 
BRANCH   8   9
ATOM      9  C   UNL     1      -0.285  24.930  24.131  1.00  0.00    -0.003 C 
ATOM     10  C   UNL     1       0.710  24.451  23.074  1.00  0.00     0.004 C 
ENDBRANCH   8   9
ENDBRANCH   7   8
ENDBRANCH   1   7
TORSDOF 6
ENDMDL
MODEL 9
REMARK VINA RESULT:    -2.653      1.810      2.610
REMARK INTER + INTRA:          -4.045
REMARK INTER:                  -3.535
REMARK INTRA:                  -0.511
REMARK UNBOUND:                -0.461
REMARK SMILES CCCCCCCC(=O)[O-]
REMARK SMILES IDX 5 1 6 2 7 3 8 4 9 5 10 6 4 7 3 8 2 9 1 10
REMARK H PARENT
REMARK Flexibility Score: inf
ROOT
ATOM      1  C   UNL     1     -16.571  24.003  35.469  1.00  0.00     0.000 C 
ENDROOT
BRANCH   1   2
ATOM      2  C   UNL     1     -17.720  24.561  34.616  1.00  0.00     0.006 C 
BRANCH   2   3
ATOM      3  C   UNL     1     -17.295  25.845  33.896  1.00  0.00     0.053 C 
BRANCH   3   4
ATOM      4  C   UNL     1     -17.056  25.577  32.445  1.00  0.00     0.041 C 
ATOM      5  O   UNL     1     -17.188  24.413  31.984  1.00  0.00    -0.550 OA
ATOM      6  O   UNL     1     -16.733  26.623  31.589  1.00  0.00    -0.550 OA
ENDBRANCH   3   4
ENDBRANCH   2   3
ENDBRANCH   1   2
BRANCH   1   7
ATOM      7  C   UNL     1     -16.373  22.491  35.279  1.00  0.00     0.000 C 
BRANCH   7   8
ATOM      8  C   UNL     1     -15.577  22.154  34.005  1.00  0.00    -0.000 C 
BRANCH   8   9
ATOM      9  C   UNL     1     -16.301  21.135  33.112  1.00  0.00    -0.003 C 
ATOM     10  C   UNL     1     -17.794  21.034  33.421  1.00  0.00     0.004 C 
ENDBRANCH   8   9
ENDBRANCH   7   8
ENDBRANCH   1   7
TORSDOF 6
ENDMDL
