MODEL 1
REMARK VINA RESULT:    -4.168      0.000      0.000
REMARK INTER + INTRA:          -6.323
REMARK INTER:                  -6.361
REMARK INTRA:                   0.038
REMARK UNBOUND:                 0.038
REMARK SMILES CC1=CCC[C@@H](C)C(=O)C[C@@H](C(C)C)C(=O)C1
REMARK SMILES IDX 8 1 9 2 6 3 7 4 5 5 4 6 3 7 2 8 1 9 10 11 11 12 15 13 16 14
REMARK SMILES IDX 17 15 12 17 13 18 14 19
REMARK H PARENT
REMARK Flexibility Score: 70.00
ROOT
ATOM      1  C   UNL     1     -13.941 -21.912  20.804  1.00  0.00     0.136 C 
ATOM      2  O   UNL     1     -13.941 -22.240  19.625  1.00  0.00    -0.299 OA
ENDROOT
BRANCH   1   3
ATOM      3  C   UNL     1     -15.148 -22.211  21.677  1.00  0.00     0.053 C 
ATOM      4  C   UNL     1     -16.103 -21.013  21.788  1.00  0.00     0.016 C 
BRANCH   3   5
ATOM      5  C   UNL     1     -14.762 -22.786  23.062  1.00  0.00     0.015 C 
BRANCH   5   6
ATOM      6  C   UNL     1     -14.610 -21.801  24.241  1.00  0.00     0.028 C 
BRANCH   6   7
ATOM      7  C   UNL     1     -13.550 -22.111  25.273  1.00  0.00    -0.028 C 
ATOM      8  C   UNL     1     -12.212 -21.950  25.130  1.00  0.00    -0.070 CG0
ATOM      9  C   UNL     1     -11.321 -22.494  26.220  1.00  0.00     0.039 C 
ATOM     10  G   UNL     1     -11.568 -21.193  23.988  1.00  0.00     0.000 G0
ENDBRANCH   6   7
ENDBRANCH   5   6
ENDBRANCH   3   5
ENDBRANCH   1   3
BRANCH   1  11
ATOM     11  C   UNL     1     -12.715 -21.218  21.365  1.00  0.00     0.087 C 
BRANCH  11  12
ATOM     12  C   UNL     1     -11.476 -22.144  21.509  1.00  0.00     0.066 C 
BRANCH  12  13
ATOM     13  C   UNL     1     -11.004 -22.171  22.951  1.00  0.00     0.140 C 
ATOM     14  O   UNL     1     -10.146 -22.976  23.285  1.00  0.00    -0.299 OA
BRANCH  13  15
ATOM     15  C   UNL     1     -11.546 -21.202  23.978  1.00  0.00     0.106 CG0
ATOM     16  G   UNL     1     -12.202 -21.963  25.111  1.00  0.00     0.000 G0
ENDBRANCH  13  15
ENDBRANCH  12  13
BRANCH  12  17
ATOM     17  C   UNL     1     -10.315 -21.729  20.550  1.00  0.00    -0.006 C 
ATOM     18  C   UNL     1     -10.236 -22.666  19.331  1.00  0.00     0.008 C 
ATOM     19  C   UNL     1     -10.465 -20.279  20.055  1.00  0.00     0.008 C 
ENDBRANCH  12  17
ENDBRANCH  11  12
ENDBRANCH   1  11
TORSDOF 1
ENDMDL
MODEL 2
REMARK VINA RESULT:    -4.006      2.032      3.611
REMARK INTER + INTRA:          -6.076
REMARK INTER:                  -5.827
REMARK INTRA:                  -0.249
REMARK UNBOUND:                 0.038
REMARK SMILES CC1=CCC[C@@H](C)C(=O)C[C@@H](C(C)C)C(=O)C1
REMARK SMILES IDX 8 1 9 2 6 3 7 4 5 5 4 6 3 7 2 8 1 9 10 11 11 12 15 13 16 14
REMARK SMILES IDX 17 15 12 17 13 18 14 19
REMARK H PARENT
REMARK Flexibility Score: 70.00
ROOT
ATOM      1  C   UNL     1     -11.971 -21.561  21.427  1.00  0.00     0.136 C 
ATOM      2  O   UNL     1     -11.716 -20.421  21.066  1.00  0.00    -0.299 OA
ENDROOT
BRANCH   1   3
ATOM      3  C   UNL     1     -12.988 -22.392  20.663  1.00  0.00     0.053 C 
ATOM      4  C   UNL     1     -12.504 -22.762  19.252  1.00  0.00     0.016 C 
BRANCH   3   5
ATOM      5  C   UNL     1     -14.400 -21.756  20.651  1.00  0.00     0.015 C 
BRANCH   5   6
ATOM      6  C   UNL     1     -15.371 -22.123  21.794  1.00  0.00     0.028 C 
BRANCH   6   7
ATOM      7  C   UNL     1     -15.633 -21.071  22.847  1.00  0.00    -0.028 C 
ATOM      8  C   UNL     1     -15.316 -21.148  24.162  1.00  0.00    -0.070 CG0
ATOM      9  C   UNL     1     -15.833 -20.060  25.072  1.00  0.00     0.039 C 
ATOM     10  G   UNL     1     -14.415 -22.211  24.754  1.00  0.00     0.000 G0
ENDBRANCH   6   7
ENDBRANCH   5   6
ENDBRANCH   3   5
ENDBRANCH   1   3
BRANCH   1  11
ATOM     11  C   UNL     1     -11.245 -22.121  22.635  1.00  0.00     0.087 C 
BRANCH  11  12
ATOM     12  C   UNL     1     -12.158 -22.920  23.605  1.00  0.00     0.066 C 
BRANCH  12  13
ATOM     13  C   UNL     1     -12.959 -21.969  24.476  1.00  0.00     0.140 C 
ATOM     14  O   UNL     1     -12.421 -20.964  24.918  1.00  0.00    -0.299 OA
BRANCH  13  15
ATOM     15  C   UNL     1     -14.419 -22.220  24.783  1.00  0.00     0.106 CG0
ATOM     16  G   UNL     1     -15.273 -21.141  24.150  1.00  0.00     0.000 G0
ENDBRANCH  13  15
ENDBRANCH  12  13
BRANCH  12  17
ATOM     17  C   UNL     1     -11.348 -23.928  24.481  1.00  0.00    -0.006 C 
ATOM     18  C   UNL     1     -11.347 -25.335  23.856  1.00  0.00     0.008 C 
ATOM     19  C   UNL     1      -9.891 -23.474  24.687  1.00  0.00     0.008 C 
ENDBRANCH  12  17
ENDBRANCH  11  12
ENDBRANCH   1  11
TORSDOF 1
ENDMDL
MODEL 3
REMARK VINA RESULT:    -3.997      1.275      1.418
REMARK INTER + INTRA:          -6.062
REMARK INTER:                  -6.085
REMARK INTRA:                   0.023
REMARK UNBOUND:                 0.038
REMARK SMILES CC1=CCC[C@@H](C)C(=O)C[C@@H](C(C)C)C(=O)C1
REMARK SMILES IDX 8 1 9 2 6 3 7 4 5 5 4 6 3 7 2 8 1 9 10 11 11 12 15 13 16 14
REMARK SMILES IDX 17 15 12 17 13 18 14 19
REMARK H PARENT
REMARK Flexibility Score: 70.00
ROOT
ATOM      1  C   UNL     1     -14.001 -21.843  21.441  1.00  0.00     0.136 C 
ATOM      2  O   UNL     1     -14.224 -21.848  20.238  1.00  0.00    -0.299 OA
ENDROOT
BRANCH   1   3
ATOM      3  C   UNL     1     -15.121 -22.132  22.425  1.00  0.00     0.053 C 
ATOM      4  C   UNL     1     -16.403 -21.349  22.101  1.00  0.00     0.016 C 
BRANCH   3   5
ATOM      5  C   UNL     1     -14.687 -21.965  23.901  1.00  0.00     0.015 C 
BRANCH   5   6
ATOM      6  C   UNL     1     -14.133 -23.202  24.640  1.00  0.00     0.028 C 
BRANCH   6   7
ATOM      7  C   UNL     1     -12.757 -23.085  25.257  1.00  0.00    -0.028 C 
ATOM      8  C   UNL     1     -11.605 -23.597  24.763  1.00  0.00    -0.070 CG0
ATOM      9  C   UNL     1     -10.374 -23.519  25.632  1.00  0.00     0.039 C 
ATOM     10  G   UNL     1     -11.462 -24.168  23.367  1.00  0.00     0.000 G0
ENDBRANCH   6   7
ENDBRANCH   5   6
ENDBRANCH   3   5
ENDBRANCH   1   3
BRANCH   1  11
ATOM     11  C   UNL     1     -12.589 -21.556  21.917  1.00  0.00     0.087 C 
BRANCH  11  12
ATOM     12  C   UNL     1     -11.516 -22.508  21.322  1.00  0.00     0.066 C 
BRANCH  12  13
ATOM     13  C   UNL     1     -10.763 -23.213  22.436  1.00  0.00     0.140 C 
ATOM     14  O   UNL     1      -9.579 -22.960  22.610  1.00  0.00    -0.299 OA
BRANCH  13  15
ATOM     15  C   UNL     1     -11.451 -24.195  23.356  1.00  0.00     0.106 CG0
ATOM     16  G   UNL     1     -11.591 -23.597  24.741  1.00  0.00     0.000 G0
ENDBRANCH  13  15
ENDBRANCH  12  13
BRANCH  12  17
ATOM     17  C   UNL     1     -10.530 -21.763  20.368  1.00  0.00    -0.006 C 
ATOM     18  C   UNL     1     -10.731 -22.202  18.906  1.00  0.00     0.008 C 
ATOM     19  C   UNL     1     -10.686 -20.233  20.455  1.00  0.00     0.008 C 
ENDBRANCH  12  17
ENDBRANCH  11  12
ENDBRANCH   1  11
TORSDOF 1
ENDMDL
MODEL 4
REMARK VINA RESULT:    -3.860      2.158      4.009
REMARK INTER + INTRA:          -5.853
REMARK INTER:                  -5.563
REMARK INTRA:                  -0.290
REMARK UNBOUND:                 0.038
REMARK SMILES CC1=CCC[C@@H](C)C(=O)C[C@@H](C(C)C)C(=O)C1
REMARK SMILES IDX 8 1 9 2 6 3 7 4 5 5 4 6 3 7 2 8 1 9 10 11 11 12 15 13 16 14
REMARK SMILES IDX 17 15 12 17 13 18 14 19
REMARK H PARENT
REMARK Flexibility Score: 70.00
ROOT
ATOM      1  C   UNL     1     -13.191 -23.886  23.844  1.00  0.00     0.136 C 
ATOM      2  O   UNL     1     -13.677 -24.742  24.570  1.00  0.00    -0.299 OA
ENDROOT
BRANCH   1   3
ATOM      3  C   UNL     1     -13.858 -22.527  23.717  1.00  0.00     0.053 C 
ATOM      4  C   UNL     1     -14.411 -22.017  25.058  1.00  0.00     0.016 C 
BRANCH   3   5
ATOM      5  C   UNL     1     -14.916 -22.477  22.589  1.00  0.00     0.015 C 
BRANCH   5   6
ATOM      6  C   UNL     1     -14.442 -22.121  21.163  1.00  0.00     0.028 C 
BRANCH   6   7
ATOM      7  C   UNL     1     -13.437 -21.000  21.025  1.00  0.00    -0.028 C 
ATOM      8  C   UNL     1     -12.107 -21.131  20.802  1.00  0.00    -0.070 CG0
ATOM      9  C   UNL     1     -11.258 -19.885  20.880  1.00  0.00     0.039 C 
ATOM     10  G   UNL     1     -11.439 -22.430  20.405  1.00  0.00     0.000 G0
ENDBRANCH   6   7
ENDBRANCH   5   6
ENDBRANCH   3   5
ENDBRANCH   1   3
BRANCH   1  11
ATOM     11  C   UNL     1     -11.914 -24.210  23.092  1.00  0.00     0.087 C 
BRANCH  11  12
ATOM     12  C   UNL     1     -10.948 -23.003  22.939  1.00  0.00     0.066 C 
BRANCH  12  13
ATOM     13  C   UNL     1     -10.480 -22.883  21.500  1.00  0.00     0.140 C 
ATOM     14  O   UNL     1      -9.330 -23.189  21.218  1.00  0.00    -0.299 OA
BRANCH  13  15
ATOM     15  C   UNL     1     -11.412 -22.424  20.402  1.00  0.00     0.106 CG0
ATOM     16  G   UNL     1     -12.119 -21.152  20.821  1.00  0.00     0.000 G0
ENDBRANCH  13  15
ENDBRANCH  12  13
BRANCH  12  17
ATOM     17  C   UNL     1      -9.732 -23.094  23.915  1.00  0.00    -0.006 C 
ATOM     18  C   UNL     1      -9.793 -21.990  24.986  1.00  0.00     0.008 C 
ATOM     19  C   UNL     1      -9.653 -24.464  24.614  1.00  0.00     0.008 C 
ENDBRANCH  12  17
ENDBRANCH  11  12
ENDBRANCH   1  11
TORSDOF 1
ENDMDL
MODEL 5
REMARK VINA RESULT:    -3.836      2.078      4.046
REMARK INTER + INTRA:          -5.816
REMARK INTER:                  -6.035
REMARK INTRA:                   0.219
REMARK UNBOUND:                 0.038
REMARK SMILES CC1=CCC[C@@H](C)C(=O)C[C@@H](C(C)C)C(=O)C1
REMARK SMILES IDX 8 1 9 2 6 3 7 4 5 5 4 6 3 7 2 8 1 9 10 11 11 12 15 13 16 14
REMARK SMILES IDX 17 15 12 17 13 18 14 19
REMARK H PARENT
REMARK Flexibility Score: 70.00
ROOT
ATOM      1  C   UNL     1     -13.890 -21.845  25.046  1.00  0.00     0.136 C 
ATOM      2  O   UNL     1     -14.341 -22.678  25.820  1.00  0.00    -0.299 OA
ENDROOT
BRANCH   1   3
ATOM      3  C   UNL     1     -14.830 -20.969  24.237  1.00  0.00     0.053 C 
ATOM      4  C   UNL     1     -15.952 -20.361  25.095  1.00  0.00     0.016 C 
BRANCH   3   5
ATOM      5  C   UNL     1     -15.376 -21.676  22.973  1.00  0.00     0.015 C 
BRANCH   5   6
ATOM      6  C   UNL     1     -14.943 -21.135  21.593  1.00  0.00     0.028 C 
BRANCH   6   7
ATOM      7  C   UNL     1     -14.135 -22.056  20.708  1.00  0.00    -0.028 C 
ATOM      8  C   UNL     1     -12.815 -21.950  20.422  1.00  0.00    -0.070 CG0
ATOM      9  C   UNL     1     -12.250 -22.872  19.369  1.00  0.00     0.039 C 
ATOM     10  G   UNL     1     -11.864 -21.021  21.146  1.00  0.00     0.000 G0
ENDBRANCH   6   7
ENDBRANCH   5   6
ENDBRANCH   3   5
ENDBRANCH   1   3
BRANCH   1  11
ATOM     11  C   UNL     1     -12.384 -21.704  24.927  1.00  0.00     0.087 C 
BRANCH  11  12
ATOM     12  C   UNL     1     -11.927 -20.751  23.790  1.00  0.00     0.066 C 
BRANCH  12  13
ATOM     13  C   UNL     1     -11.567 -21.548  22.549  1.00  0.00     0.140 C 
ATOM     14  O   UNL     1     -11.054 -22.651  22.674  1.00  0.00    -0.299 OA
BRANCH  13  15
ATOM     15  C   UNL     1     -11.856 -21.022  21.161  1.00  0.00     0.106 CG0
ATOM     16  G   UNL     1     -12.791 -21.966  20.435  1.00  0.00     0.000 G0
ENDBRANCH  13  15
ENDBRANCH  12  13
BRANCH  12  17
ATOM     17  C   UNL     1     -10.740 -19.836  24.229  1.00  0.00    -0.006 C 
ATOM     18  C   UNL     1     -10.083 -19.155  23.014  1.00  0.00     0.008 C 
ATOM     19  C   UNL     1     -11.184 -18.753  25.229  1.00  0.00     0.008 C 
ENDBRANCH  12  17
ENDBRANCH  11  12
ENDBRANCH   1  11
TORSDOF 1
ENDMDL
MODEL 6
REMARK VINA RESULT:    -3.686      1.809      4.337
REMARK INTER + INTRA:          -5.587
REMARK INTER:                  -5.485
REMARK INTRA:                  -0.101
REMARK UNBOUND:                 0.038
REMARK SMILES CC1=CCC[C@@H](C)C(=O)C[C@@H](C(C)C)C(=O)C1
REMARK SMILES IDX 8 1 9 2 6 3 7 4 5 5 4 6 3 7 2 8 1 9 10 11 11 12 15 13 16 14
REMARK SMILES IDX 17 15 12 17 13 18 14 19
REMARK H PARENT
REMARK Flexibility Score: 70.00
ROOT
ATOM      1  C   UNL     1     -12.263 -21.602  21.176  1.00  0.00     0.136 C 
ATOM      2  O   UNL     1     -13.324 -21.001  21.080  1.00  0.00    -0.299 OA
ENDROOT
BRANCH   1   3
ATOM      3  C   UNL     1     -11.271 -21.586  20.026  1.00  0.00     0.053 C 
ATOM      4  C   UNL     1     -10.425 -22.868  19.962  1.00  0.00     0.016 C 
BRANCH   3   5
ATOM      5  C   UNL     1     -10.402 -20.306  19.997  1.00  0.00     0.015 C 
BRANCH   5   6
ATOM      6  C   UNL     1     -10.374 -19.417  21.259  1.00  0.00     0.028 C 
BRANCH   6   7
ATOM      7  C   UNL     1      -9.306 -19.706  22.289  1.00  0.00    -0.028 C 
ATOM      8  C   UNL     1      -9.463 -19.718  23.634  1.00  0.00    -0.070 CG0
ATOM      9  C   UNL     1      -8.222 -19.850  24.483  1.00  0.00     0.039 C 
ATOM     10  G   UNL     1     -10.807 -19.685  24.330  1.00  0.00     0.000 G0
ENDBRANCH   6   7
ENDBRANCH   5   6
ENDBRANCH   3   5
ENDBRANCH   1   3
BRANCH   1  11
ATOM     11  C   UNL     1     -11.964 -22.346  22.464  1.00  0.00     0.087 C 
BRANCH  11  12
ATOM     12  C   UNL     1     -12.497 -21.639  23.740  1.00  0.00     0.066 C 
BRANCH  12  13
ATOM     13  C   UNL     1     -11.342 -21.089  24.557  1.00  0.00     0.140 C 
ATOM     14  O   UNL     1     -10.802 -21.806  25.389  1.00  0.00    -0.299 OA
BRANCH  13  15
ATOM     15  C   UNL     1     -10.821 -19.685  24.344  1.00  0.00     0.106 CG0
ATOM     16  G   UNL     1      -9.476 -19.732  23.650  1.00  0.00     0.000 G0
ENDBRANCH  13  15
ENDBRANCH  12  13
BRANCH  12  17
ATOM     17  C   UNL     1     -13.393 -22.580  24.605  1.00  0.00    -0.006 C 
ATOM     18  C   UNL     1     -14.579 -21.813  25.217  1.00  0.00     0.008 C 
ATOM     19  C   UNL     1     -13.935 -23.771  23.793  1.00  0.00     0.008 C 
ENDBRANCH  12  17
ENDBRANCH  11  12
ENDBRANCH   1  11
TORSDOF 1
ENDMDL
MODEL 7
REMARK VINA RESULT:    -3.611      1.824      2.478
REMARK INTER + INTRA:          -5.473
REMARK INTER:                  -5.395
REMARK INTRA:                  -0.078
REMARK UNBOUND:                 0.038
REMARK SMILES CC1=CCC[C@@H](C)C(=O)C[C@@H](C(C)C)C(=O)C1
REMARK SMILES IDX 8 1 9 2 6 3 7 4 5 5 4 6 3 7 2 8 1 9 10 11 11 12 15 13 16 14
REMARK SMILES IDX 17 15 12 17 13 18 14 19
REMARK H PARENT
REMARK Flexibility Score: 70.00
ROOT
ATOM      1  C   UNL     1     -11.839 -21.733  20.591  1.00  0.00     0.136 C 
ATOM      2  O   UNL     1     -10.904 -22.226  19.976  1.00  0.00    -0.299 OA
ENDROOT
BRANCH   1   3
ATOM      3  C   UNL     1     -13.232 -22.326  20.464  1.00  0.00     0.053 C 
ATOM      4  C   UNL     1     -13.511 -22.873  19.056  1.00  0.00     0.016 C 
BRANCH   3   5
ATOM      5  C   UNL     1     -14.343 -21.365  20.953  1.00  0.00     0.015 C 
BRANCH   5   6
ATOM      6  C   UNL     1     -15.174 -21.782  22.185  1.00  0.00     0.028 C 
BRANCH   6   7
ATOM      7  C   UNL     1     -14.460 -22.542  23.280  1.00  0.00    -0.028 C 
ATOM      8  C   UNL     1     -13.419 -22.099  24.024  1.00  0.00    -0.070 CG0
ATOM      9  C   UNL     1     -12.740 -23.089  24.938  1.00  0.00     0.039 C 
ATOM     10  G   UNL     1     -12.949 -20.660  24.050  1.00  0.00     0.000 G0
ENDBRANCH   6   7
ENDBRANCH   5   6
ENDBRANCH   3   5
ENDBRANCH   1   3
BRANCH   1  11
ATOM     11  C   UNL     1     -11.571 -20.535  21.482  1.00  0.00     0.087 C 
BRANCH  11  12
ATOM     12  C   UNL     1     -10.682 -20.853  22.716  1.00  0.00     0.066 C 
BRANCH  12  13
ATOM     13  C   UNL     1     -11.442 -20.570  23.999  1.00  0.00     0.140 C 
ATOM     14  O   UNL     1     -10.823 -20.249  25.003  1.00  0.00    -0.299 OA
BRANCH  13  15
ATOM     15  C   UNL     1     -12.951 -20.644  24.055  1.00  0.00     0.106 CG0
ATOM     16  G   UNL     1     -13.401 -22.089  24.006  1.00  0.00     0.000 G0
ENDBRANCH  13  15
ENDBRANCH  12  13
BRANCH  12  17
ATOM     17  C   UNL     1      -9.331 -20.071  22.685  1.00  0.00    -0.006 C 
ATOM     18  C   UNL     1      -8.190 -20.950  22.142  1.00  0.00     0.008 C 
ATOM     19  C   UNL     1      -9.422 -18.790  21.834  1.00  0.00     0.008 C 
ENDBRANCH  12  17
ENDBRANCH  11  12
ENDBRANCH   1  11
TORSDOF 1
ENDMDL
MODEL 8
REMARK VINA RESULT:    -3.450      2.711      4.563
REMARK INTER + INTRA:          -5.226
REMARK INTER:                  -4.803
REMARK INTRA:                  -0.424
REMARK UNBOUND:                 0.038
REMARK SMILES CC1=CCC[C@@H](C)C(=O)C[C@@H](C(C)C)C(=O)C1
REMARK SMILES IDX 8 1 9 2 6 3 7 4 5 5 4 6 3 7 2 8 1 9 10 11 11 12 15 13 16 14
REMARK SMILES IDX 17 15 12 17 13 18 14 19
REMARK H PARENT
REMARK Flexibility Score: 70.00
ROOT
ATOM      1  C   UNL     1      -9.631 -22.697  20.858  1.00  0.00     0.136 C 
ATOM      2  O   UNL     1      -8.811 -22.843  19.962  1.00  0.00    -0.299 OA
ENDROOT
BRANCH   1   3
ATOM      3  C   UNL     1     -10.971 -22.046  20.566  1.00  0.00     0.053 C 
ATOM      4  C   UNL     1     -11.808 -22.850  19.559  1.00  0.00     0.016 C 
BRANCH   3   5
ATOM      5  C   UNL     1     -10.843 -20.556  20.166  1.00  0.00     0.015 C 
BRANCH   5   6
ATOM      6  C   UNL     1     -10.789 -19.503  21.294  1.00  0.00     0.028 C 
BRANCH   6   7
ATOM      7  C   UNL     1      -9.427 -19.137  21.839  1.00  0.00    -0.028 C 
ATOM      8  C   UNL     1      -9.002 -19.282  23.116  1.00  0.00    -0.070 CG0
ATOM      9  C   UNL     1      -7.667 -18.683  23.483  1.00  0.00     0.039 C 
ATOM     10  G   UNL     1      -9.748 -20.073  24.171  1.00  0.00     0.000 G0
ENDBRANCH   6   7
ENDBRANCH   5   6
ENDBRANCH   3   5
ENDBRANCH   1   3
BRANCH   1  11
ATOM     11  C   UNL     1      -9.281 -23.190  22.249  1.00  0.00     0.087 C 
BRANCH  11  12
ATOM     12  C   UNL     1     -10.141 -22.558  23.378  1.00  0.00     0.066 C 
BRANCH  12  13
ATOM     13  C   UNL     1      -9.331 -21.527  24.142  1.00  0.00     0.140 C 
ATOM     14  O   UNL     1      -8.307 -21.874  24.714  1.00  0.00    -0.299 OA
BRANCH  13  15
ATOM     15  C   UNL     1      -9.743 -20.072  24.185  1.00  0.00     0.106 CG0
ATOM     16  G   UNL     1      -8.998 -19.292  23.122  1.00  0.00     0.000 G0
ENDBRANCH  13  15
ENDBRANCH  12  13
BRANCH  12  17
ATOM     17  C   UNL     1     -10.726 -23.635  24.346  1.00  0.00    -0.006 C 
ATOM     18  C   UNL     1     -12.080 -23.186  24.926  1.00  0.00     0.008 C 
ATOM     19  C   UNL     1     -10.909 -24.998  23.653  1.00  0.00     0.008 C 
ENDBRANCH  12  17
ENDBRANCH  11  12
ENDBRANCH   1  11
TORSDOF 1
ENDMDL
MODEL 9
REMARK VINA RESULT:    -3.403      6.413      8.201
REMARK INTER + INTRA:          -5.155
REMARK INTER:                  -4.849
REMARK INTRA:                  -0.306
REMARK UNBOUND:                 0.038
REMARK SMILES CC1=CCC[C@@H](C)C(=O)C[C@@H](C(C)C)C(=O)C1
REMARK SMILES IDX 8 1 9 2 6 3 7 4 5 5 4 6 3 7 2 8 1 9 10 11 11 12 15 13 16 14
REMARK SMILES IDX 17 15 12 17 13 18 14 19
REMARK H PARENT
REMARK Flexibility Score: 70.00
ROOT
ATOM      1  C   UNL     1      -5.864 -15.595  25.069  1.00  0.00     0.136 C 
ATOM      2  O   UNL     1      -5.515 -14.553  25.607  1.00  0.00    -0.299 OA
ENDROOT
BRANCH   1   3
ATOM      3  C   UNL     1      -6.448 -15.569  23.667  1.00  0.00     0.053 C 
ATOM      4  C   UNL     1      -5.723 -14.573  22.747  1.00  0.00     0.016 C 
BRANCH   3   5
ATOM      5  C   UNL     1      -7.983 -15.368  23.656  1.00  0.00     0.015 C 
BRANCH   5   6
ATOM      6  C   UNL     1      -8.871 -16.573  23.277  1.00  0.00     0.028 C 
BRANCH   6   7
ATOM      7  C   UNL     1      -9.588 -17.288  24.399  1.00  0.00    -0.028 C 
ATOM      8  C   UNL     1      -9.334 -18.539  24.853  1.00  0.00    -0.070 CG0
ATOM      9  C   UNL     1     -10.291 -19.126  25.861  1.00  0.00     0.039 C 
ATOM     10  G   UNL     1      -8.112 -19.346  24.469  1.00  0.00     0.000 G0
ENDBRANCH   6   7
ENDBRANCH   5   6
ENDBRANCH   3   5
ENDBRANCH   1   3
BRANCH   1  11
ATOM     11  C   UNL     1      -5.689 -16.898  25.826  1.00  0.00     0.087 C 
BRANCH  11  12
ATOM     12  C   UNL     1      -5.796 -18.165  24.933  1.00  0.00     0.066 C 
BRANCH  12  13
ATOM     13  C   UNL     1      -6.954 -19.033  25.390  1.00  0.00     0.140 C 
ATOM     14  O   UNL     1      -6.970 -19.453  26.539  1.00  0.00    -0.299 OA
BRANCH  13  15
ATOM     15  C   UNL     1      -8.105 -19.365  24.468  1.00  0.00     0.106 CG0
ATOM     16  G   UNL     1      -9.325 -18.552  24.849  1.00  0.00     0.000 G0
ENDBRANCH  13  15
ENDBRANCH  12  13
BRANCH  12  17
ATOM     17  C   UNL     1      -4.465 -18.981  24.906  1.00  0.00    -0.006 C 
ATOM     18  C   UNL     1      -3.967 -19.188  23.464  1.00  0.00     0.008 C 
ATOM     19  C   UNL     1      -3.352 -18.300  25.724  1.00  0.00     0.008 C 
ENDBRANCH  12  17
ENDBRANCH  11  12
ENDBRANCH   1  11
TORSDOF 1
ENDMDL
