MODEL 1
REMARK VINA RESULT:    -4.922      0.000      0.000
REMARK INTER + INTRA:          -5.353
REMARK INTER:                  -5.353
REMARK INTRA:                   0.000
REMARK UNBOUND:                 0.000
REMARK SMILES Cc1cc(O)c2c(c1)C(=O)c1cc(O)cc(O)c1C2=O
REMARK SMILES IDX 1 1 2 2 8 3 7 4 6 5 4 6 3 7 19 8 20 9 18 10 11 11 9 12 10 13
REMARK SMILES IDX 12 14 13 15 15 16 16 17 5 18 17 20 14 22
REMARK H PARENT 5 19 17 21 14 23
REMARK Flexibility Score: inf
ROOT
ATOM      1  C   UNL     1      24.360  12.492  -8.632  1.00  0.00     0.044 C 
ATOM      2  C   UNL     1      23.906  11.141  -8.162  1.00  0.00    -0.047 A 
ATOM      3  C   UNL     1      24.670  10.426  -7.232  1.00  0.00     0.016 A 
ATOM      4  C   UNL     1      24.273   9.144  -6.813  1.00  0.00     0.038 A 
ATOM      5  C   UNL     1      23.098   8.568  -7.337  1.00  0.00     0.076 A 
ATOM      6  C   UNL     1      22.343   9.282  -8.295  1.00  0.00     0.127 A 
ATOM      7  C   UNL     1      22.755  10.558  -8.702  1.00  0.00     0.050 A 
ATOM      8  C   UNL     1      22.670   7.229  -6.853  1.00  0.00     0.201 C 
ATOM      9  O   UNL     1      21.475   6.863  -7.017  1.00  0.00    -0.288 OA
ATOM     10  C   UNL     1      23.614   6.377  -6.076  1.00  0.00     0.076 A 
ATOM     11  C   UNL     1      24.758   6.986  -5.509  1.00  0.00     0.041 A 
ATOM     12  C   UNL     1      25.084   8.397  -5.824  1.00  0.00     0.194 C 
ATOM     13  O   UNL     1      26.064   8.958  -5.262  1.00  0.00    -0.289 OA
ATOM     14  C   UNL     1      25.591   6.248  -4.651  1.00  0.00     0.059 A 
ATOM     15  C   UNL     1      25.310   4.910  -4.366  1.00  0.00     0.120 A 
ATOM     16  C   UNL     1      24.212   4.291  -4.958  1.00  0.00     0.093 A 
ATOM     17  C   UNL     1      23.381   4.994  -5.837  1.00  0.00     0.131 A 
ENDROOT
BRANCH   6  18
ATOM     18  O   UNL     1      21.193   8.725  -8.856  1.00  0.00    -0.507 OA
ATOM     19  H   UNL     1      20.835   9.030  -9.754  1.00  0.00     0.293 HD
ENDBRANCH   6  18
BRANCH  17  20
ATOM     20  O   UNL     1      22.367   4.271  -6.471  1.00  0.00    -0.507 OA
ATOM     21  H   UNL     1      22.044   4.464  -7.409  1.00  0.00     0.293 HD
ENDBRANCH  17  20
BRANCH  15  22
ATOM     22  O   UNL     1      26.125   4.181  -3.502  1.00  0.00    -0.508 OA
ATOM     23  H   UNL     1      26.206   3.174  -3.572  1.00  0.00     0.293 HD
ENDBRANCH  15  22
TORSDOF 3
ENDMDL
MODEL 2
REMARK VINA RESULT:    -4.744      1.855      5.785
REMARK INTER + INTRA:          -5.160
REMARK INTER:                  -5.160
REMARK INTRA:                   0.000
REMARK UNBOUND:                 0.000
REMARK SMILES Cc1cc(O)c2c(c1)C(=O)c1cc(O)cc(O)c1C2=O
REMARK SMILES IDX 1 1 2 2 8 3 7 4 6 5 4 6 3 7 19 8 20 9 18 10 11 11 9 12 10 13
REMARK SMILES IDX 12 14 13 15 15 16 16 17 5 18 17 20 14 22
REMARK H PARENT 5 19 17 21 14 23
REMARK Flexibility Score: inf
ROOT
ATOM      1  C   UNL     1      23.877   4.676  -5.164  1.00  0.00     0.044 C 
ATOM      2  C   UNL     1      23.440   5.854  -5.984  1.00  0.00    -0.047 A 
ATOM      3  C   UNL     1      24.327   6.909  -6.229  1.00  0.00     0.016 A 
ATOM      4  C   UNL     1      23.918   8.035  -6.965  1.00  0.00     0.038 A 
ATOM      5  C   UNL     1      22.598   8.108  -7.457  1.00  0.00     0.076 A 
ATOM      6  C   UNL     1      21.697   7.053  -7.185  1.00  0.00     0.127 A 
ATOM      7  C   UNL     1      22.123   5.940  -6.448  1.00  0.00     0.050 A 
ATOM      8  C   UNL     1      22.192   9.286  -8.268  1.00  0.00     0.201 C 
ATOM      9  O   UNL     1      21.173   9.209  -9.006  1.00  0.00    -0.288 OA
ATOM     10  C   UNL     1      23.048  10.506  -8.297  1.00  0.00     0.076 A 
ATOM     11  C   UNL     1      24.387  10.398  -7.853  1.00  0.00     0.041 A 
ATOM     12  C   UNL     1      24.864   9.143  -7.225  1.00  0.00     0.194 C 
ATOM     13  O   UNL     1      26.076   9.026  -6.894  1.00  0.00    -0.289 OA
ATOM     14  C   UNL     1      25.263  11.486  -8.003  1.00  0.00     0.059 A 
ATOM     15  C   UNL     1      24.819  12.682  -8.570  1.00  0.00     0.120 A 
ATOM     16  C   UNL     1      23.490  12.811  -8.965  1.00  0.00     0.093 A 
ATOM     17  C   UNL     1      22.589  11.753  -8.804  1.00  0.00     0.131 A 
ENDROOT
BRANCH   6  18
ATOM     18  O   UNL     1      20.376   7.111  -7.631  1.00  0.00    -0.507 OA
ATOM     19  H   UNL     1      19.644   7.542  -7.077  1.00  0.00     0.293 HD
ENDBRANCH   6  18
BRANCH  17  20
ATOM     20  O   UNL     1      21.252  12.000  -9.125  1.00  0.00    -0.507 OA
ATOM     21  H   UNL     1      20.513  11.320  -9.013  1.00  0.00     0.293 HD
ENDBRANCH  17  20
BRANCH  15  22
ATOM     22  O   UNL     1      25.691  13.757  -8.734  1.00  0.00    -0.508 OA
ATOM     23  H   UNL     1      25.384  14.632  -9.142  1.00  0.00     0.293 HD
ENDBRANCH  15  22
TORSDOF 3
ENDMDL
MODEL 3
REMARK VINA RESULT:    -4.682      2.139      5.805
REMARK INTER + INTRA:          -5.093
REMARK INTER:                  -5.093
REMARK INTRA:                   0.000
REMARK UNBOUND:                 0.000
REMARK SMILES Cc1cc(O)c2c(c1)C(=O)c1cc(O)cc(O)c1C2=O
REMARK SMILES IDX 1 1 2 2 8 3 7 4 6 5 4 6 3 7 19 8 20 9 18 10 11 11 9 12 10 13
REMARK SMILES IDX 12 14 13 15 15 16 16 17 5 18 17 20 14 22
REMARK H PARENT 5 19 17 21 14 23
REMARK Flexibility Score: inf
ROOT
ATOM      1  C   UNL     1      26.125   1.875  -4.156  1.00  0.00     0.044 C 
ATOM      2  C   UNL     1      25.214   2.727  -4.991  1.00  0.00    -0.047 A 
ATOM      3  C   UNL     1      25.167   4.111  -4.793  1.00  0.00     0.016 A 
ATOM      4  C   UNL     1      24.290   4.914  -5.544  1.00  0.00     0.038 A 
ATOM      5  C   UNL     1      23.444   4.320  -6.503  1.00  0.00     0.076 A 
ATOM      6  C   UNL     1      23.475   2.917  -6.681  1.00  0.00     0.127 A 
ATOM      7  C   UNL     1      24.354   2.134  -5.922  1.00  0.00     0.050 A 
ATOM      8  C   UNL     1      22.552   5.186  -7.317  1.00  0.00     0.201 C 
ATOM      9  O   UNL     1      22.074   4.744  -8.397  1.00  0.00    -0.288 OA
ATOM     10  C   UNL     1      22.320   6.604  -6.922  1.00  0.00     0.076 A 
ATOM     11  C   UNL     1      23.215   7.200  -6.002  1.00  0.00     0.041 A 
ATOM     12  C   UNL     1      24.252   6.379  -5.333  1.00  0.00     0.194 C 
ATOM     13  O   UNL     1      25.092   6.926  -4.568  1.00  0.00    -0.289 OA
ATOM     14  C   UNL     1      23.115   8.573  -5.718  1.00  0.00     0.059 A 
ATOM     15  C   UNL     1      22.127   9.353  -6.323  1.00  0.00     0.120 A 
ATOM     16  C   UNL     1      21.213   8.762  -7.192  1.00  0.00     0.093 A 
ATOM     17  C   UNL     1      21.273   7.393  -7.472  1.00  0.00     0.131 A 
ENDROOT
BRANCH   6  18
ATOM     18  O   UNL     1      22.626   2.297  -7.599  1.00  0.00    -0.507 OA
ATOM     19  H   UNL     1      21.618   2.351  -7.514  1.00  0.00     0.293 HD
ENDBRANCH   6  18
BRANCH  17  20
ATOM     20  O   UNL     1      20.254   6.861  -8.268  1.00  0.00    -0.507 OA
ATOM     21  H   UNL     1      19.563   6.206  -7.930  1.00  0.00     0.293 HD
ENDBRANCH  17  20
BRANCH  15  22
ATOM     22  O   UNL     1      22.037  10.717  -6.055  1.00  0.00    -0.508 OA
ATOM     23  H   UNL     1      21.259  11.106  -5.535  1.00  0.00     0.293 HD
ENDBRANCH  15  22
TORSDOF 3
ENDMDL
MODEL 4
REMARK VINA RESULT:    -4.295      1.386      3.195
REMARK INTER + INTRA:          -4.672
REMARK INTER:                  -4.672
REMARK INTRA:                   0.000
REMARK UNBOUND:                 0.000
REMARK SMILES Cc1cc(O)c2c(c1)C(=O)c1cc(O)cc(O)c1C2=O
REMARK SMILES IDX 1 1 2 2 8 3 7 4 6 5 4 6 3 7 19 8 20 9 18 10 11 11 9 12 10 13
REMARK SMILES IDX 12 14 13 15 15 16 16 17 5 18 17 20 14 22
REMARK H PARENT 5 19 17 21 14 23
REMARK Flexibility Score: inf
ROOT
ATOM      1  C   UNL     1      21.623  11.291  -9.125  1.00  0.00     0.044 C 
ATOM      2  C   UNL     1      22.395  10.360  -8.236  1.00  0.00    -0.047 A 
ATOM      3  C   UNL     1      22.240   8.975  -8.364  1.00  0.00     0.016 A 
ATOM      4  C   UNL     1      22.931   8.095  -7.512  1.00  0.00     0.038 A 
ATOM      5  C   UNL     1      23.782   8.610  -6.513  1.00  0.00     0.076 A 
ATOM      6  C   UNL     1      23.914  10.011  -6.369  1.00  0.00     0.127 A 
ATOM      7  C   UNL     1      23.217  10.871  -7.227  1.00  0.00     0.050 A 
ATOM      8  C   UNL     1      24.536   7.666  -5.646  1.00  0.00     0.201 C 
ATOM      9  O   UNL     1      25.548   8.076  -5.016  1.00  0.00    -0.288 OA
ATOM     10  C   UNL     1      24.168   6.222  -5.615  1.00  0.00     0.076 A 
ATOM     11  C   UNL     1      23.361   5.712  -6.658  1.00  0.00     0.041 A 
ATOM     12  C   UNL     1      22.767   6.630  -7.658  1.00  0.00     0.194 C 
ATOM     13  O   UNL     1      22.106   6.165  -8.627  1.00  0.00    -0.289 OA
ATOM     14  C   UNL     1      23.116   4.330  -6.741  1.00  0.00     0.059 A 
ATOM     15  C   UNL     1      23.648   3.456  -5.791  1.00  0.00     0.120 A 
ATOM     16  C   UNL     1      24.404   3.959  -4.735  1.00  0.00     0.093 A 
ATOM     17  C   UNL     1      24.642   5.332  -4.613  1.00  0.00     0.131 A 
ENDROOT
BRANCH   6  18
ATOM     18  O   UNL     1      24.724  10.551  -5.369  1.00  0.00    -0.507 OA
ATOM     19  H   UNL     1      25.688  10.261  -5.249  1.00  0.00     0.293 HD
ENDBRANCH   6  18
BRANCH  17  20
ATOM     20  O   UNL     1      25.316   5.762  -3.467  1.00  0.00    -0.507 OA
ATOM     21  H   UNL     1      25.720   5.136  -2.785  1.00  0.00     0.293 HD
ENDBRANCH  17  20
BRANCH  15  22
ATOM     22  O   UNL     1      23.420   2.085  -5.880  1.00  0.00    -0.508 OA
ATOM     23  H   UNL     1      24.171   1.433  -6.076  1.00  0.00     0.293 HD
ENDBRANCH  15  22
TORSDOF 3
ENDMDL
MODEL 5
REMARK VINA RESULT:    -3.926      1.715      6.202
REMARK INTER + INTRA:          -4.270
REMARK INTER:                  -4.270
REMARK INTRA:                   0.000
REMARK UNBOUND:                 0.000
REMARK SMILES Cc1cc(O)c2c(c1)C(=O)c1cc(O)cc(O)c1C2=O
REMARK SMILES IDX 1 1 2 2 8 3 7 4 6 5 4 6 3 7 19 8 20 9 18 10 11 11 9 12 10 13
REMARK SMILES IDX 12 14 13 15 15 16 16 17 5 18 17 20 14 22
REMARK H PARENT 5 19 17 21 14 23
REMARK Flexibility Score: inf
ROOT
ATOM      1  C   UNL     1      23.232   1.875  -7.686  1.00  0.00     0.044 C 
ATOM      2  C   UNL     1      23.522   3.260  -7.185  1.00  0.00    -0.047 A 
ATOM      3  C   UNL     1      22.689   4.326  -7.542  1.00  0.00     0.016 A 
ATOM      4  C   UNL     1      22.972   5.634  -7.108  1.00  0.00     0.038 A 
ATOM      5  C   UNL     1      24.110   5.876  -6.311  1.00  0.00     0.076 A 
ATOM      6  C   UNL     1      24.964   4.801  -5.976  1.00  0.00     0.127 A 
ATOM      7  C   UNL     1      24.666   3.505  -6.419  1.00  0.00     0.050 A 
ATOM      8  C   UNL     1      24.373   7.257  -5.827  1.00  0.00     0.201 C 
ATOM      9  O   UNL     1      25.144   7.434  -4.846  1.00  0.00    -0.288 OA
ATOM     10  C   UNL     1      23.641   8.411  -6.421  1.00  0.00     0.076 A 
ATOM     11  C   UNL     1      22.468   8.150  -7.169  1.00  0.00     0.041 A 
ATOM     12  C   UNL     1      22.081   6.755  -7.484  1.00  0.00     0.194 C 
ATOM     13  O   UNL     1      20.999   6.523  -8.089  1.00  0.00    -0.289 OA
ATOM     14  C   UNL     1      21.674   9.219  -7.619  1.00  0.00     0.059 A 
ATOM     15  C   UNL     1      22.041  10.539  -7.351  1.00  0.00     0.120 A 
ATOM     16  C   UNL     1      23.219  10.803  -6.657  1.00  0.00     0.093 A 
ATOM     17  C   UNL     1      24.042   9.760  -6.220  1.00  0.00     0.131 A 
ENDROOT
BRANCH   6  18
ATOM     18  O   UNL     1      26.114   5.015  -5.216  1.00  0.00    -0.507 OA
ATOM     19  H   UNL     1      26.996   4.569  -5.444  1.00  0.00     0.293 HD
ENDBRANCH   6  18
BRANCH  17  20
ATOM     20  O   UNL     1      25.258  10.114  -5.628  1.00  0.00    -0.507 OA
ATOM     21  H   UNL     1      25.527  11.066  -5.424  1.00  0.00     0.293 HD
ENDBRANCH  17  20
BRANCH  15  22
ATOM     22  O   UNL     1      21.246  11.599  -7.782  1.00  0.00    -0.508 OA
ATOM     23  H   UNL     1      21.597  12.299  -8.425  1.00  0.00     0.293 HD
ENDBRANCH  15  22
TORSDOF 3
ENDMDL
MODEL 6
REMARK VINA RESULT:    -3.895      1.354      5.512
REMARK INTER + INTRA:          -4.236
REMARK INTER:                  -4.236
REMARK INTRA:                   0.000
REMARK UNBOUND:                 0.000
REMARK SMILES Cc1cc(O)c2c(c1)C(=O)c1cc(O)cc(O)c1C2=O
REMARK SMILES IDX 1 1 2 2 8 3 7 4 6 5 4 6 3 7 19 8 20 9 18 10 11 11 9 12 10 13
REMARK SMILES IDX 12 14 13 15 15 16 16 17 5 18 17 20 14 22
REMARK H PARENT 5 19 17 21 14 23
REMARK Flexibility Score: inf
ROOT
ATOM      1  C   UNL     1      25.975   3.624  -3.822  1.00  0.00     0.044 C 
ATOM      2  C   UNL     1      25.227   4.418  -4.852  1.00  0.00    -0.047 A 
ATOM      3  C   UNL     1      25.521   5.773  -5.047  1.00  0.00     0.016 A 
ATOM      4  C   UNL     1      24.801   6.536  -5.983  1.00  0.00     0.038 A 
ATOM      5  C   UNL     1      23.768   5.934  -6.731  1.00  0.00     0.076 A 
ATOM      6  C   UNL     1      23.456   4.572  -6.513  1.00  0.00     0.127 A 
ATOM      7  C   UNL     1      24.184   3.829  -5.574  1.00  0.00     0.050 A 
ATOM      8  C   UNL     1      23.044   6.743  -7.746  1.00  0.00     0.201 C 
ATOM      9  O   UNL     1      22.394   6.160  -8.656  1.00  0.00    -0.288 OA
ATOM     10  C   UNL     1      23.181   8.227  -7.758  1.00  0.00     0.076 A 
ATOM     11  C   UNL     1      24.259   8.808  -7.049  1.00  0.00     0.041 A 
ATOM     12  C   UNL     1      25.123   7.966  -6.188  1.00  0.00     0.194 C 
ATOM     13  O   UNL     1      26.125   8.474  -5.613  1.00  0.00    -0.289 OA
ATOM     14  C   UNL     1      24.505  10.187  -7.157  1.00  0.00     0.059 A 
ATOM     15  C   UNL     1      23.683  10.995  -7.945  1.00  0.00     0.120 A 
ATOM     16  C   UNL     1      22.593  10.438  -8.607  1.00  0.00     0.093 A 
ATOM     17  C   UNL     1      22.308   9.073  -8.497  1.00  0.00     0.131 A 
ENDROOT
BRANCH   6  18
ATOM     18  O   UNL     1      22.418   3.958  -7.214  1.00  0.00    -0.507 OA
ATOM     19  H   UNL     1      22.174   4.236  -8.158  1.00  0.00     0.293 HD
ENDBRANCH   6  18
BRANCH  17  20
ATOM     20  O   UNL     1      21.136   8.615  -9.103  1.00  0.00    -0.507 OA
ATOM     21  H   UNL     1      21.110   7.865  -9.779  1.00  0.00     0.293 HD
ENDBRANCH  17  20
BRANCH  15  22
ATOM     22  O   UNL     1      23.936  12.361  -8.067  1.00  0.00    -0.508 OA
ATOM     23  H   UNL     1      24.814  12.708  -8.435  1.00  0.00     0.293 HD
ENDBRANCH  15  22
TORSDOF 3
ENDMDL
MODEL 7
REMARK VINA RESULT:    -3.818      2.309      5.033
REMARK INTER + INTRA:          -4.153
REMARK INTER:                  -4.153
REMARK INTRA:                   0.000
REMARK UNBOUND:                 0.000
REMARK SMILES Cc1cc(O)c2c(c1)C(=O)c1cc(O)cc(O)c1C2=O
REMARK SMILES IDX 1 1 2 2 8 3 7 4 6 5 4 6 3 7 19 8 20 9 18 10 11 11 9 12 10 13
REMARK SMILES IDX 12 14 13 15 15 16 16 17 5 18 17 20 14 22
REMARK H PARENT 5 19 17 21 14 23
REMARK Flexibility Score: inf
ROOT
ATOM      1  C   UNL     1      24.098   2.197  -8.679  1.00  0.00     0.044 C 
ATOM      2  C   UNL     1      23.613   3.600  -8.457  1.00  0.00    -0.047 A 
ATOM      3  C   UNL     1      24.459   4.555  -7.880  1.00  0.00     0.016 A 
ATOM      4  C   UNL     1      24.003   5.862  -7.635  1.00  0.00     0.038 A 
ATOM      5  C   UNL     1      22.679   6.216  -7.965  1.00  0.00     0.076 A 
ATOM      6  C   UNL     1      21.819   5.242  -8.523  1.00  0.00     0.127 A 
ATOM      7  C   UNL     1      22.291   3.944  -8.759  1.00  0.00     0.050 A 
ATOM      8  C   UNL     1      22.225   7.613  -7.737  1.00  0.00     0.201 C 
ATOM      9  O   UNL     1      21.205   8.040  -8.342  1.00  0.00    -0.288 OA
ATOM     10  C   UNL     1      23.035   8.535  -6.891  1.00  0.00     0.076 A 
ATOM     11  C   UNL     1      24.380   8.190  -6.619  1.00  0.00     0.041 A 
ATOM     12  C   UNL     1      24.907   6.867  -7.030  1.00  0.00     0.194 C 
ATOM     13  O   UNL     1      26.124   6.590  -6.849  1.00  0.00    -0.289 OA
ATOM     14  C   UNL     1      25.215   9.102  -5.951  1.00  0.00     0.059 A 
ATOM     15  C   UNL     1      24.723  10.341  -5.536  1.00  0.00     0.120 A 
ATOM     16  C   UNL     1      23.388  10.667  -5.758  1.00  0.00     0.093 A 
ATOM     17  C   UNL     1      22.528   9.768  -6.398  1.00  0.00     0.131 A 
ENDROOT
BRANCH   6  18
ATOM     18  O   UNL     1      20.494   5.553  -8.830  1.00  0.00    -0.507 OA
ATOM     19  H   UNL     1      19.741   5.393  -8.171  1.00  0.00     0.293 HD
ENDBRANCH   6  18
BRANCH  17  20
ATOM     20  O   UNL     1      21.180  10.128  -6.484  1.00  0.00    -0.507 OA
ATOM     21  H   UNL     1      20.853  10.974  -6.928  1.00  0.00     0.293 HD
ENDBRANCH  17  20
BRANCH  15  22
ATOM     22  O   UNL     1      25.554  11.253  -4.887  1.00  0.00    -0.508 OA
ATOM     23  H   UNL     1      26.562  11.156  -4.901  1.00  0.00     0.293 HD
ENDBRANCH  15  22
TORSDOF 3
ENDMDL
MODEL 8
REMARK VINA RESULT:    -3.563     23.191     24.354
REMARK INTER + INTRA:          -3.876
REMARK INTER:                  -3.876
REMARK INTRA:                   0.000
REMARK UNBOUND:                 0.000
REMARK SMILES Cc1cc(O)c2c(c1)C(=O)c1cc(O)cc(O)c1C2=O
REMARK SMILES IDX 1 1 2 2 8 3 7 4 6 5 4 6 3 7 19 8 20 9 18 10 11 11 9 12 10 13
REMARK SMILES IDX 12 14 13 15 15 16 16 17 5 18 17 20 14 22
REMARK H PARENT 5 19 17 21 14 23
REMARK Flexibility Score: inf
ROOT
ATOM      1  C   UNL     1       6.476  22.089   9.966  1.00  0.00     0.044 C 
ATOM      2  C   UNL     1       6.601  21.052   8.889  1.00  0.00    -0.047 A 
ATOM      3  C   UNL     1       6.805  21.439   7.559  1.00  0.00     0.016 A 
ATOM      4  C   UNL     1       6.887  20.477   6.537  1.00  0.00     0.038 A 
ATOM      5  C   UNL     1       6.756  19.108   6.850  1.00  0.00     0.076 A 
ATOM      6  C   UNL     1       6.523  18.723   8.190  1.00  0.00     0.127 A 
ATOM      7  C   UNL     1       6.443  19.696   9.195  1.00  0.00     0.050 A 
ATOM      8  C   UNL     1       6.885  18.102   5.764  1.00  0.00     0.201 C 
ATOM      9  O   UNL     1       7.134  16.901   6.058  1.00  0.00    -0.288 OA
ATOM     10  C   UNL     1       6.838  18.529   4.337  1.00  0.00     0.076 A 
ATOM     11  C   UNL     1       7.030  19.899   4.039  1.00  0.00     0.041 A 
ATOM     12  C   UNL     1       7.110  20.895   5.134  1.00  0.00     0.194 C 
ATOM     13  O   UNL     1       7.352  22.104   4.869  1.00  0.00    -0.289 OA
ATOM     14  C   UNL     1       7.138  20.315   2.701  1.00  0.00     0.059 A 
ATOM     15  C   UNL     1       7.038  19.391   1.660  1.00  0.00     0.120 A 
ATOM     16  C   UNL     1       6.801  18.048   1.945  1.00  0.00     0.093 A 
ATOM     17  C   UNL     1       6.664  17.610   3.266  1.00  0.00     0.131 A 
ENDROOT
BRANCH   6  18
ATOM     18  O   UNL     1       6.356  17.379   8.526  1.00  0.00    -0.507 OA
ATOM     19  H   UNL     1       6.500  16.638   7.850  1.00  0.00     0.293 HD
ENDBRANCH   6  18
BRANCH  17  20
ATOM     20  O   UNL     1       6.321  16.269   3.460  1.00  0.00    -0.507 OA
ATOM     21  H   UNL     1       5.676  15.764   2.869  1.00  0.00     0.293 HD
ENDBRANCH  17  20
BRANCH  15  22
ATOM     22  O   UNL     1       7.161  19.799   0.333  1.00  0.00    -0.508 OA
ATOM     23  H   UNL     1       7.762  19.310  -0.320  1.00  0.00     0.293 HD
ENDBRANCH  15  22
TORSDOF 3
ENDMDL
