MODEL 1
REMARK VINA RESULT:    -4.328      0.000      0.000
REMARK INTER + INTRA:          -7.010
REMARK INTER:                  -5.846
REMARK INTRA:                  -1.164
REMARK UNBOUND:                -1.164
REMARK SMILES CC[C@H](CC[C@H](C)[C@H]1CC[C@H]2[C@@H]3CC(=O)C4=CC(=O)CC[C@@]4(C)[C@@H]3CC[C@@]12C)C(C)C
REMARK SMILES IDX 4 1 3 2 2 3 1 4 29 5 30 6 31 7 5 8 6 9 7 10 8 11 9 12 27 13
REMARK SMILES IDX 10 14 11 15 26 16 28 17 12 18 25 19 24 20 13 21 22 22 14 23
REMARK SMILES IDX 16 24 21 25 23 26 15 27 17 28 20 29 18 30 19 31
REMARK H PARENT
REMARK Flexibility Score: inf
ROOT
ATOM      1  C   UNL     1      -9.876 -30.441  36.344  1.00  0.00     0.004 C 
ENDROOT
BRANCH   1   2
ATOM      2  C   UNL     1     -11.033 -29.510  36.814  1.00  0.00    -0.009 C 
BRANCH   2   3
ATOM      3  C   UNL     1     -11.439 -28.463  35.735  1.00  0.00     0.000 C 
ATOM      4  C   UNL     1     -10.258 -27.853  34.973  1.00  0.00     0.004 C 
ENDBRANCH   2   3
BRANCH   2   5
ATOM      5  C   UNL     1     -12.255 -30.347  37.342  1.00  0.00    -0.014 C 
ATOM      6  C   UNL     1     -12.804 -29.795  38.673  1.00  0.00     0.007 C 
ATOM      7  C   UNL     1     -13.410 -30.407  36.322  1.00  0.00     0.007 C 
ENDBRANCH   2   5
ENDBRANCH   1   2
BRANCH   1   8
ATOM      8  C   UNL     1     -10.297 -31.903  36.079  1.00  0.00     0.004 C 
BRANCH   8   9
ATOM      9  C   UNL     1     -10.150 -32.330  34.592  1.00  0.00    -0.011 C 
ATOM     10  C   UNL     1      -9.876 -31.102  33.695  1.00  0.00     0.008 C 
BRANCH   9  11
ATOM     11  C   UNL     1     -11.393 -33.187  34.142  1.00  0.00    -0.002 C 
ATOM     12  C   UNL     1     -12.661 -32.410  33.799  1.00  0.00     0.005 C 
ATOM     13  C   UNL     1     -11.189 -34.247  33.011  1.00  0.00    -0.026 C 
ATOM     14  C   UNL     1     -13.530 -33.370  32.996  1.00  0.00     0.005 C 
ATOM     15  C   UNL     1     -12.651 -34.570  32.567  1.00  0.00    -0.001 C 
ATOM     16  C   UNL     1     -10.318 -33.766  31.806  1.00  0.00     0.007 C 
ATOM     17  C   UNL     1     -10.511 -35.502  33.628  1.00  0.00     0.012 C 
ATOM     18  C   UNL     1     -12.844 -34.911  31.055  1.00  0.00     0.004 C 
ATOM     19  C   UNL     1     -11.108 -32.990  30.743  1.00  0.00     0.005 C 
ATOM     20  C   UNL     1     -12.210 -33.852  30.071  1.00  0.00     0.003 C 
ATOM     21  C   UNL     1     -12.460 -36.374  30.734  1.00  0.00     0.085 C 
ATOM     22  C   UNL     1     -11.830 -34.412  28.634  1.00  0.00    -0.000 C 
ATOM     23  C   UNL     1     -12.790 -36.689  29.304  1.00  0.00     0.159 C 
ATOM     24  C   UNL     1     -12.754 -35.594  28.316  1.00  0.00     0.005 C 
ATOM     25  C   UNL     1     -11.933 -33.275  27.554  1.00  0.00     0.020 C 
ATOM     26  C   UNL     1     -10.372 -34.951  28.559  1.00  0.00     0.017 C 
ATOM     27  O   UNL     1     -13.098 -37.864  28.967  1.00  0.00    -0.295 OA
ATOM     28  C   UNL     1     -13.631 -35.591  27.297  1.00  0.00     0.055 C 
ATOM     29  C   UNL     1     -13.345 -33.072  27.008  1.00  0.00     0.081 C 
ATOM     30  C   UNL     1     -13.877 -34.377  26.515  1.00  0.00     0.156 C 
ATOM     31  O   UNL     1     -14.607 -34.421  25.491  1.00  0.00    -0.295 OA
ENDBRANCH   9  11
ENDBRANCH   8   9
ENDBRANCH   1   8
TORSDOF 6
ENDMDL
