MODEL 1
REMARK VINA RESULT:    -4.747      0.000      0.000
REMARK INTER + INTRA:          -7.391
REMARK INTER:                  -6.967
REMARK INTRA:                  -0.424
REMARK UNBOUND:                -0.424
REMARK SMILES O=C([O-])CCCCCCCC(=O)[O-]
REMARK SMILES IDX 7 1 6 2 5 3 4 4 2 5 1 6 3 7 8 8 9 9 10 10 11 11 12 12 13 13
REMARK H PARENT
REMARK Flexibility Score: inf
ROOT
ATOM      1  C   UNL     1      41.207  41.232  16.279  1.00  0.00     0.000 C 
ENDROOT
BRANCH   1   2
ATOM      2  C   UNL     1      42.360  40.305  15.865  1.00  0.00     0.000 C 
BRANCH   2   3
ATOM      3  C   UNL     1      42.048  39.511  14.585  1.00  0.00     0.006 C 
BRANCH   3   4
ATOM      4  C   UNL     1      40.547  39.494  14.266  1.00  0.00     0.053 C 
BRANCH   4   5
ATOM      5  C   UNL     1      40.208  38.449  13.246  1.00  0.00     0.041 C 
ATOM      6  O   UNL     1      40.647  37.276  13.373  1.00  0.00    -0.550 OA
ATOM      7  O   UNL     1      39.437  38.779  12.140  1.00  0.00    -0.550 OA
ENDBRANCH   4   5
ENDBRANCH   3   4
ENDBRANCH   2   3
ENDBRANCH   1   2
BRANCH   1   8
ATOM      8  C   UNL     1      40.652  40.898  17.674  1.00  0.00     0.000 C 
BRANCH   8   9
ATOM      9  C   UNL     1      41.718  40.325  18.625  1.00  0.00     0.006 C 
BRANCH   9  10
ATOM     10  C   UNL     1      41.862  41.105  19.943  1.00  0.00     0.053 C 
BRANCH  10  11
ATOM     11  C   UNL     1      42.873  42.207  19.855  1.00  0.00     0.041 C 
ATOM     12  O   UNL     1      43.494  42.416  18.780  1.00  0.00    -0.550 OA
ATOM     13  O   UNL     1      43.154  42.985  20.972  1.00  0.00    -0.550 OA
ENDBRANCH  10  11
ENDBRANCH   9  10
ENDBRANCH   8   9
ENDBRANCH   1   8
TORSDOF 8
ENDMDL
MODEL 2
REMARK VINA RESULT:    -4.727      1.101      6.434
REMARK INTER + INTRA:          -7.361
REMARK INTER:                  -6.858
REMARK INTRA:                  -0.503
REMARK UNBOUND:                -0.424
REMARK SMILES O=C([O-])CCCCCCCC(=O)[O-]
REMARK SMILES IDX 7 1 6 2 5 3 4 4 2 5 1 6 3 7 8 8 9 9 10 10 11 11 12 12 13 13
REMARK H PARENT
REMARK Flexibility Score: inf
ROOT
ATOM      1  C   UNL     1      42.611  41.272  15.814  1.00  0.00     0.000 C 
ENDROOT
BRANCH   1   2
ATOM      2  C   UNL     1      41.229  40.697  16.158  1.00  0.00     0.000 C 
BRANCH   2   3
ATOM      3  C   UNL     1      40.771  41.073  17.579  1.00  0.00     0.006 C 
BRANCH   3   4
ATOM      4  C   UNL     1      41.763  40.602  18.651  1.00  0.00     0.053 C 
BRANCH   4   5
ATOM      5  C   UNL     1      42.245  41.739  19.499  1.00  0.00     0.041 C 
ATOM      6  O   UNL     1      41.668  42.007  20.585  1.00  0.00    -0.550 OA
ATOM      7  O   UNL     1      43.309  42.524  19.074  1.00  0.00    -0.550 OA
ENDBRANCH   4   5
ENDBRANCH   3   4
ENDBRANCH   2   3
ENDBRANCH   1   2
BRANCH   1   8
ATOM      8  C   UNL     1      43.410  40.362  14.864  1.00  0.00     0.000 C 
BRANCH   8   9
ATOM      9  C   UNL     1      42.987  38.884  14.949  1.00  0.00     0.006 C 
BRANCH   9  10
ATOM     10  C   UNL     1      42.607  38.265  13.593  1.00  0.00     0.053 C 
BRANCH  10  11
ATOM     11  C   UNL     1      41.142  37.976  13.478  1.00  0.00     0.041 C 
ATOM     12  O   UNL     1      40.732  36.789  13.382  1.00  0.00    -0.550 OA
ATOM     13  O   UNL     1      40.227  39.022  13.445  1.00  0.00    -0.550 OA
ENDBRANCH  10  11
ENDBRANCH   9  10
ENDBRANCH   8   9
ENDBRANCH   1   8
TORSDOF 8
ENDMDL
MODEL 3
REMARK VINA RESULT:    -4.725      1.021      6.634
REMARK INTER + INTRA:          -7.358
REMARK INTER:                  -6.878
REMARK INTRA:                  -0.479
REMARK UNBOUND:                -0.424
REMARK SMILES O=C([O-])CCCCCCCC(=O)[O-]
REMARK SMILES IDX 7 1 6 2 5 3 4 4 2 5 1 6 3 7 8 8 9 9 10 10 11 11 12 12 13 13
REMARK H PARENT
REMARK Flexibility Score: inf
ROOT
ATOM      1  C   UNL     1      41.176  40.906  15.583  1.00  0.00     0.000 C 
ENDROOT
BRANCH   1   2
ATOM      2  C   UNL     1      40.592  41.006  17.000  1.00  0.00     0.000 C 
BRANCH   2   3
ATOM      3  C   UNL     1      41.558  40.478  18.075  1.00  0.00     0.006 C 
BRANCH   3   4
ATOM      4  C   UNL     1      41.563  41.357  19.332  1.00  0.00     0.053 C 
BRANCH   4   5
ATOM      5  C   UNL     1      42.813  42.178  19.430  1.00  0.00     0.041 C 
ATOM      6  O   UNL     1      43.144  42.696  20.529  1.00  0.00    -0.550 OA
ATOM      7  O   UNL     1      43.591  42.400  18.302  1.00  0.00    -0.550 OA
ENDBRANCH   4   5
ENDBRANCH   3   4
ENDBRANCH   2   3
ENDBRANCH   1   2
BRANCH   1   8
ATOM      8  C   UNL     1      42.600  40.323  15.570  1.00  0.00     0.000 C 
BRANCH   8   9
ATOM      9  C   UNL     1      42.752  39.123  14.619  1.00  0.00     0.006 C 
BRANCH   9  10
ATOM     10  C   UNL     1      41.456  38.743  13.882  1.00  0.00     0.053 C 
BRANCH  10  11
ATOM     11  C   UNL     1      41.431  37.306  13.457  1.00  0.00     0.041 C 
ATOM     12  O   UNL     1      40.338  36.737  13.202  1.00  0.00    -0.550 OA
ATOM     13  O   UNL     1      42.616  36.584  13.377  1.00  0.00    -0.550 OA
ENDBRANCH  10  11
ENDBRANCH   9  10
ENDBRANCH   8   9
ENDBRANCH   1   8
TORSDOF 8
ENDMDL
MODEL 4
REMARK VINA RESULT:    -4.715      1.618      1.850
REMARK INTER + INTRA:          -7.344
REMARK INTER:                  -6.866
REMARK INTRA:                  -0.478
REMARK UNBOUND:                -0.424
REMARK SMILES O=C([O-])CCCCCCCC(=O)[O-]
REMARK SMILES IDX 7 1 6 2 5 3 4 4 2 5 1 6 3 7 8 8 9 9 10 10 11 11 12 12 13 13
REMARK H PARENT
REMARK Flexibility Score: inf
ROOT
ATOM      1  C   UNL     1      40.998  41.333  15.364  1.00  0.00     0.000 C 
ENDROOT
BRANCH   1   2
ATOM      2  C   UNL     1      42.450  40.985  15.000  1.00  0.00     0.000 C 
BRANCH   2   3
ATOM      3  C   UNL     1      42.795  39.515  15.292  1.00  0.00     0.006 C 
BRANCH   3   4
ATOM      4  C   UNL     1      43.178  38.746  14.021  1.00  0.00     0.053 C 
BRANCH   4   5
ATOM      5  C   UNL     1      42.087  37.817  13.584  1.00  0.00     0.041 C 
ATOM      6  O   UNL     1      42.312  36.583  13.477  1.00  0.00    -0.550 OA
ATOM      7  O   UNL     1      40.833  38.318  13.262  1.00  0.00    -0.550 OA
ENDBRANCH   4   5
ENDBRANCH   3   4
ENDBRANCH   2   3
ENDBRANCH   1   2
BRANCH   1   8
ATOM      8  C   UNL     1      40.622  40.882  16.785  1.00  0.00     0.000 C 
BRANCH   8   9
ATOM      9  C   UNL     1      40.878  41.966  17.849  1.00  0.00     0.006 C 
BRANCH   9  10
ATOM     10  C   UNL     1      42.117  41.703  18.721  1.00  0.00     0.053 C 
BRANCH  10  11
ATOM     11  C   UNL     1      41.768  41.399  20.146  1.00  0.00     0.041 C 
ATOM     12  O   UNL     1      41.780  40.211  20.564  1.00  0.00    -0.550 OA
ATOM     13  O   UNL     1      41.396  42.425  21.006  1.00  0.00    -0.550 OA
ENDBRANCH  10  11
ENDBRANCH   9  10
ENDBRANCH   8   9
ENDBRANCH   1   8
TORSDOF 8
ENDMDL
MODEL 5
REMARK VINA RESULT:    -4.693      1.288      6.679
REMARK INTER + INTRA:          -7.311
REMARK INTER:                  -6.972
REMARK INTRA:                  -0.339
REMARK UNBOUND:                -0.424
REMARK SMILES O=C([O-])CCCCCCCC(=O)[O-]
REMARK SMILES IDX 7 1 6 2 5 3 4 4 2 5 1 6 3 7 8 8 9 9 10 10 11 11 12 12 13 13
REMARK H PARENT
REMARK Flexibility Score: inf
ROOT
ATOM      1  C   UNL     1      40.575  41.088  16.981  1.00  0.00     0.000 C 
ENDROOT
BRANCH   1   2
ATOM      2  C   UNL     1      41.805  40.639  17.785  1.00  0.00     0.000 C 
BRANCH   2   3
ATOM      3  C   UNL     1      41.439  40.145  19.196  1.00  0.00     0.006 C 
BRANCH   3   4
ATOM      4  C   UNL     1      42.452  40.607  20.252  1.00  0.00     0.053 C 
BRANCH   4   5
ATOM      5  C   UNL     1      42.354  42.080  20.510  1.00  0.00     0.041 C 
ATOM      6  O   UNL     1      43.387  42.799  20.471  1.00  0.00    -0.550 OA
ATOM      7  O   UNL     1      41.129  42.652  20.826  1.00  0.00    -0.550 OA
ENDBRANCH   4   5
ENDBRANCH   3   4
ENDBRANCH   2   3
ENDBRANCH   1   2
BRANCH   1   8
ATOM      8  C   UNL     1      40.874  41.240  15.480  1.00  0.00     0.000 C 
BRANCH   8   9
ATOM      9  C   UNL     1      41.777  40.121  14.929  1.00  0.00     0.006 C 
BRANCH   9  10
ATOM     10  C   UNL     1      41.018  39.032  14.152  1.00  0.00     0.053 C 
BRANCH  10  11
ATOM     11  C   UNL     1      41.927  37.983  13.589  1.00  0.00     0.041 C 
ATOM     12  O   UNL     1      41.475  36.849  13.278  1.00  0.00    -0.550 OA
ATOM     13  O   UNL     1      43.283  38.245  13.438  1.00  0.00    -0.550 OA
ENDBRANCH  10  11
ENDBRANCH   9  10
ENDBRANCH   8   9
ENDBRANCH   1   8
TORSDOF 8
ENDMDL
MODEL 6
REMARK VINA RESULT:    -4.528     10.398     12.101
REMARK INTER + INTRA:          -7.070
REMARK INTER:                  -6.746
REMARK INTRA:                  -0.324
REMARK UNBOUND:                -0.424
REMARK SMILES O=C([O-])CCCCCCCC(=O)[O-]
REMARK SMILES IDX 7 1 6 2 5 3 4 4 2 5 1 6 3 7 8 8 9 9 10 10 11 11 12 12 13 13
REMARK H PARENT
REMARK Flexibility Score: inf
ROOT
ATOM      1  C   UNL     1      38.975  29.767  13.838  1.00  0.00     0.000 C 
ENDROOT
BRANCH   1   2
ATOM      2  C   UNL     1      40.172  28.929  14.311  1.00  0.00     0.000 C 
BRANCH   2   3
ATOM      3  C   UNL     1      41.356  29.799  14.770  1.00  0.00     0.006 C 
BRANCH   3   4
ATOM      4  C   UNL     1      42.150  29.144  15.907  1.00  0.00     0.053 C 
BRANCH   4   5
ATOM      5  C   UNL     1      41.927  29.841  17.214  1.00  0.00     0.041 C 
ATOM      6  O   UNL     1      42.337  29.323  18.286  1.00  0.00    -0.550 OA
ATOM      7  O   UNL     1      41.236  31.045  17.253  1.00  0.00    -0.550 OA
ENDBRANCH   4   5
ENDBRANCH   3   4
ENDBRANCH   2   3
ENDBRANCH   1   2
BRANCH   1   8
ATOM      8  C   UNL     1      38.380  30.635  14.961  1.00  0.00     0.000 C 
BRANCH   8   9
ATOM      9  C   UNL     1      36.841  30.635  14.971  1.00  0.00     0.006 C 
BRANCH   9  10
ATOM     10  C   UNL     1      36.212  31.781  14.159  1.00  0.00     0.053 C 
BRANCH  10  11
ATOM     11  C   UNL     1      34.956  31.368  13.454  1.00  0.00     0.041 C 
ATOM     12  O   UNL     1      34.178  32.237  12.978  1.00  0.00    -0.550 OA
ATOM     13  O   UNL     1      34.627  30.022  13.350  1.00  0.00    -0.550 OA
ENDBRANCH  10  11
ENDBRANCH   9  10
ENDBRANCH   8   9
ENDBRANCH   1   8
TORSDOF 8
ENDMDL
MODEL 7
REMARK VINA RESULT:    -4.504     10.422     11.171
REMARK INTER + INTRA:          -7.034
REMARK INTER:                  -6.689
REMARK INTRA:                  -0.346
REMARK UNBOUND:                -0.424
REMARK SMILES O=C([O-])CCCCCCCC(=O)[O-]
REMARK SMILES IDX 7 1 6 2 5 3 4 4 2 5 1 6 3 7 8 8 9 9 10 10 11 11 12 12 13 13
REMARK H PARENT
REMARK Flexibility Score: inf
ROOT
ATOM      1  C   UNL     1      38.890  29.637  13.782  1.00  0.00     0.000 C 
ENDROOT
BRANCH   1   2
ATOM      2  C   UNL     1      38.438  30.557  14.926  1.00  0.00     0.000 C 
BRANCH   2   3
ATOM      3  C   UNL     1      36.908  30.715  14.986  1.00  0.00     0.006 C 
BRANCH   3   4
ATOM      4  C   UNL     1      36.398  31.785  14.013  1.00  0.00     0.053 C 
BRANCH   4   5
ATOM      5  C   UNL     1      35.048  31.437  13.463  1.00  0.00     0.041 C 
ATOM      6  O   UNL     1      34.272  32.347  13.069  1.00  0.00    -0.550 OA
ATOM      7  O   UNL     1      34.634  30.112  13.418  1.00  0.00    -0.550 OA
ENDBRANCH   4   5
ENDBRANCH   3   4
ENDBRANCH   2   3
ENDBRANCH   1   2
BRANCH   1   8
ATOM      8  C   UNL     1      40.172  28.857  14.123  1.00  0.00     0.000 C 
BRANCH   8   9
ATOM      9  C   UNL     1      41.283  29.749  14.706  1.00  0.00     0.006 C 
BRANCH   9  10
ATOM     10  C   UNL     1      42.068  29.095  15.856  1.00  0.00     0.053 C 
BRANCH  10  11
ATOM     11  C   UNL     1      41.880  29.804  17.162  1.00  0.00     0.041 C 
ATOM     12  O   UNL     1      42.464  29.393  18.199  1.00  0.00    -0.550 OA
ATOM     13  O   UNL     1      41.031  30.901  17.242  1.00  0.00    -0.550 OA
ENDBRANCH  10  11
ENDBRANCH   9  10
ENDBRANCH   8   9
ENDBRANCH   1   8
TORSDOF 8
ENDMDL
MODEL 8
REMARK VINA RESULT:    -4.421     10.406     12.289
REMARK INTER + INTRA:          -6.912
REMARK INTER:                  -6.619
REMARK INTRA:                  -0.293
REMARK UNBOUND:                -0.424
REMARK SMILES O=C([O-])CCCCCCCC(=O)[O-]
REMARK SMILES IDX 7 1 6 2 5 3 4 4 2 5 1 6 3 7 8 8 9 9 10 10 11 11 12 12 13 13
REMARK H PARENT
REMARK Flexibility Score: inf
ROOT
ATOM      1  C   UNL     1      39.891  29.683  14.280  1.00  0.00     0.000 C 
ENDROOT
BRANCH   1   2
ATOM      2  C   UNL     1      40.298  30.381  15.587  1.00  0.00     0.000 C 
BRANCH   2   3
ATOM      3  C   UNL     1      41.601  29.813  16.177  1.00  0.00     0.006 C 
BRANCH   3   4
ATOM      4  C   UNL     1      41.719  30.080  17.684  1.00  0.00     0.053 C 
BRANCH   4   5
ATOM      5  C   UNL     1      42.878  29.348  18.288  1.00  0.00     0.041 C 
ATOM      6  O   UNL     1      42.864  28.092  18.362  1.00  0.00    -0.550 OA
ATOM      7  O   UNL     1      43.958  30.055  18.801  1.00  0.00    -0.550 OA
ENDBRANCH   4   5
ENDBRANCH   3   4
ENDBRANCH   2   3
ENDBRANCH   1   2
BRANCH   1   8
ATOM      8  C   UNL     1      38.472  30.064  13.825  1.00  0.00     0.000 C 
BRANCH   8   9
ATOM      9  C   UNL     1      37.668  30.801  14.911  1.00  0.00     0.006 C 
BRANCH   9  10
ATOM     10  C   UNL     1      36.216  30.312  15.053  1.00  0.00     0.053 C 
BRANCH  10  11
ATOM     11  C   UNL     1      35.313  30.861  13.992  1.00  0.00     0.041 C 
ATOM     12  O   UNL     1      35.279  32.099  13.763  1.00  0.00    -0.550 OA
ATOM     13  O   UNL     1      34.482  30.009  13.275  1.00  0.00    -0.550 OA
ENDBRANCH  10  11
ENDBRANCH   9  10
ENDBRANCH   8   9
ENDBRANCH   1   8
TORSDOF 8
ENDMDL
MODEL 9
REMARK VINA RESULT:    -4.377      2.412      3.232
REMARK INTER + INTRA:          -6.848
REMARK INTER:                  -6.309
REMARK INTRA:                  -0.539
REMARK UNBOUND:                -0.424
REMARK SMILES O=C([O-])CCCCCCCC(=O)[O-]
REMARK SMILES IDX 7 1 6 2 5 3 4 4 2 5 1 6 3 7 8 8 9 9 10 10 11 11 12 12 13 13
REMARK H PARENT
REMARK Flexibility Score: inf
ROOT
ATOM      1  C   UNL     1      43.876  38.803  14.506  1.00  0.00     0.000 C 
ENDROOT
BRANCH   1   2
ATOM      2  C   UNL     1      43.087  37.941  13.509  1.00  0.00     0.000 C 
BRANCH   2   3
ATOM      3  C   UNL     1      41.825  37.321  14.136  1.00  0.00     0.006 C 
BRANCH   3   4
ATOM      4  C   UNL     1      40.659  37.251  13.141  1.00  0.00     0.053 C 
BRANCH   4   5
ATOM      5  C   UNL     1      39.982  38.578  12.985  1.00  0.00     0.041 C 
ATOM      6  O   UNL     1      40.104  39.459  13.876  1.00  0.00    -0.550 OA
ATOM      7  O   UNL     1      39.187  38.829  11.874  1.00  0.00    -0.550 OA
ENDBRANCH   4   5
ENDBRANCH   3   4
ENDBRANCH   2   3
ENDBRANCH   1   2
BRANCH   1   8
ATOM      8  C   UNL     1      43.409  40.269  14.518  1.00  0.00     0.000 C 
BRANCH   8   9
ATOM      9  C   UNL     1      43.261  40.843  15.939  1.00  0.00     0.006 C 
BRANCH   9  10
ATOM     10  C   UNL     1      41.901  40.546  16.594  1.00  0.00     0.053 C 
BRANCH  10  11
ATOM     11  C   UNL     1      40.981  41.728  16.578  1.00  0.00     0.041 C 
ATOM     12  O   UNL     1      40.880  42.442  15.546  1.00  0.00    -0.550 OA
ATOM     13  O   UNL     1      40.258  42.063  17.717  1.00  0.00    -0.550 OA
ENDBRANCH  10  11
ENDBRANCH   9  10
ENDBRANCH   8   9
ENDBRANCH   1   8
TORSDOF 8
ENDMDL
