MODEL 1
REMARK VINA RESULT:    -6.306      0.000      0.000
REMARK INTER + INTRA:          -8.862
REMARK INTER:                  -7.781
REMARK INTRA:                  -1.081
REMARK UNBOUND:                -1.081
REMARK SMILES CC(C)=CCC[C@H](C)c1ccc(C)cc1
REMARK SMILES IDX 6 1 7 2 8 3 9 4 13 5 12 6 11 7 14 8 10 9 15 10 5 11 4 12
REMARK SMILES IDX 2 13 1 14 3 15
REMARK H PARENT
REMARK Flexibility Score: inf
ROOT
ATOM      1  C   UNL     1       8.415  14.298  18.802  1.00  0.00     0.012 C 
ENDROOT
BRANCH   1   2
ATOM      2  C   UNL     1       8.161  14.767  20.255  1.00  0.00     0.016 C 
ATOM      3  C   UNL     1       6.992  14.012  20.908  1.00  0.00     0.013 C 
BRANCH   2   4
ATOM      4  C   UNL     1       7.903  16.262  20.297  1.00  0.00    -0.045 A 
ATOM      5  C   UNL     1       7.186  20.519  20.455  1.00  0.00     0.044 C 
ATOM      6  C   UNL     1       7.406  19.036  20.389  1.00  0.00    -0.051 A 
ATOM      7  C   UNL     1       7.935  18.452  19.230  1.00  0.00     0.004 A 
ATOM      8  C   UNL     1       7.150  18.233  21.510  1.00  0.00     0.004 A 
ATOM      9  C   UNL     1       8.176  17.076  19.180  1.00  0.00     0.004 A 
ATOM     10  C   UNL     1       7.390  16.858  21.462  1.00  0.00     0.004 A 
ENDBRANCH   2   4
ENDBRANCH   1   2
BRANCH   1  11
ATOM     11  C   UNL     1       7.199  13.617  18.154  1.00  0.00     0.028 C 
BRANCH  11  12
ATOM     12  C   UNL     1       6.496  14.549  17.192  1.00  0.00    -0.028 C 
ATOM     13  C   UNL     1       5.180  14.854  17.228  1.00  0.00    -0.080 C 
ATOM     14  C   UNL     1       4.631  15.785  16.178  1.00  0.00     0.039 C 
ATOM     15  C   UNL     1       4.253  14.292  18.279  1.00  0.00     0.039 C 
ENDBRANCH  11  12
ENDBRANCH   1  11
TORSDOF 4
ENDMDL
MODEL 2
REMARK VINA RESULT:    -6.302      1.444      1.966
REMARK INTER + INTRA:          -8.857
REMARK INTER:                  -8.054
REMARK INTRA:                  -0.803
REMARK UNBOUND:                -1.081
REMARK SMILES CC(C)=CCC[C@H](C)c1ccc(C)cc1
REMARK SMILES IDX 6 1 7 2 8 3 9 4 13 5 12 6 11 7 14 8 10 9 15 10 5 11 4 12
REMARK SMILES IDX 2 13 1 14 3 15
REMARK H PARENT
REMARK Flexibility Score: inf
ROOT
ATOM      1  C   UNL     1       7.914  15.887  16.782  1.00  0.00     0.012 C 
ENDROOT
BRANCH   1   2
ATOM      2  C   UNL     1       8.713  16.047  18.099  1.00  0.00     0.016 C 
ATOM      3  C   UNL     1       8.487  14.866  19.057  1.00  0.00     0.013 C 
BRANCH   2   4
ATOM      4  C   UNL     1       8.354  17.351  18.786  1.00  0.00    -0.045 A 
ATOM      5  C   UNL     1       7.348  21.049  20.780  1.00  0.00     0.044 C 
ATOM      6  C   UNL     1       7.669  19.764  20.076  1.00  0.00    -0.051 A 
ATOM      7  C   UNL     1       8.232  19.784  18.792  1.00  0.00     0.004 A 
ATOM      8  C   UNL     1       7.473  18.535  20.723  1.00  0.00     0.004 A 
ATOM      9  C   UNL     1       8.566  18.589  18.149  1.00  0.00     0.004 A 
ATOM     10  C   UNL     1       7.806  17.339  20.081  1.00  0.00     0.004 A 
ENDBRANCH   2   4
ENDBRANCH   1   2
BRANCH   1  11
ATOM     11  C   UNL     1       6.389  15.900  16.983  1.00  0.00     0.028 C 
BRANCH  11  12
ATOM     12  C   UNL     1       5.689  15.079  15.923  1.00  0.00    -0.028 C 
ATOM     13  C   UNL     1       5.269  13.804  16.081  1.00  0.00    -0.080 C 
ATOM     14  C   UNL     1       4.607  13.119  14.914  1.00  0.00     0.039 C 
ATOM     15  C   UNL     1       5.444  13.055  17.380  1.00  0.00     0.039 C 
ENDBRANCH  11  12
ENDBRANCH   1  11
TORSDOF 4
ENDMDL
MODEL 3
REMARK VINA RESULT:    -6.205      1.564      2.244
REMARK INTER + INTRA:          -8.737
REMARK INTER:                  -7.747
REMARK INTRA:                  -0.990
REMARK UNBOUND:                -1.081
REMARK SMILES CC(C)=CCC[C@H](C)c1ccc(C)cc1
REMARK SMILES IDX 6 1 7 2 8 3 9 4 13 5 12 6 11 7 14 8 10 9 15 10 5 11 4 12
REMARK SMILES IDX 2 13 1 14 3 15
REMARK H PARENT
REMARK Flexibility Score: inf
ROOT
ATOM      1  C   UNL     1       6.942  13.629  18.978  1.00  0.00     0.012 C 
ENDROOT
BRANCH   1   2
ATOM      2  C   UNL     1       7.849  14.524  19.858  1.00  0.00     0.016 C 
ATOM      3  C   UNL     1       7.228  14.792  21.239  1.00  0.00     0.013 C 
BRANCH   2   4
ATOM      4  C   UNL     1       8.146  15.837  19.157  1.00  0.00    -0.045 A 
ATOM      5  C   UNL     1       9.002  19.591  17.199  1.00  0.00     0.044 C 
ATOM      6  C   UNL     1       8.678  18.286  17.864  1.00  0.00    -0.051 A 
ATOM      7  C   UNL     1       9.085  17.077  17.282  1.00  0.00     0.004 A 
ATOM      8  C   UNL     1       8.025  18.268  19.105  1.00  0.00     0.004 A 
ATOM      9  C   UNL     1       8.816  15.862  17.919  1.00  0.00     0.004 A 
ATOM     10  C   UNL     1       7.756  17.054  19.743  1.00  0.00     0.004 A 
ENDBRANCH   2   4
ENDBRANCH   1   2
BRANCH   1  11
ATOM     11  C   UNL     1       5.630  14.310  18.556  1.00  0.00     0.028 C 
BRANCH  11  12
ATOM     12  C   UNL     1       5.020  13.628  17.352  1.00  0.00    -0.028 C 
ATOM     13  C   UNL     1       5.183  14.024  16.070  1.00  0.00    -0.080 C 
ATOM     14  C   UNL     1       4.486  13.245  14.986  1.00  0.00     0.039 C 
ATOM     15  C   UNL     1       6.034  15.214  15.698  1.00  0.00     0.039 C 
ENDBRANCH  11  12
ENDBRANCH   1  11
TORSDOF 4
ENDMDL
MODEL 4
REMARK VINA RESULT:    -6.189      1.580      2.546
REMARK INTER + INTRA:          -8.718
REMARK INTER:                  -7.737
REMARK INTRA:                  -0.981
REMARK UNBOUND:                -1.081
REMARK SMILES CC(C)=CCC[C@H](C)c1ccc(C)cc1
REMARK SMILES IDX 6 1 7 2 8 3 9 4 13 5 12 6 11 7 14 8 10 9 15 10 5 11 4 12
REMARK SMILES IDX 2 13 1 14 3 15
REMARK H PARENT
REMARK Flexibility Score: inf
ROOT
ATOM      1  C   UNL     1       6.957  13.600  18.965  1.00  0.00     0.012 C 
ENDROOT
BRANCH   1   2
ATOM      2  C   UNL     1       7.890  14.482  19.831  1.00  0.00     0.016 C 
ATOM      3  C   UNL     1       7.296  14.754  21.222  1.00  0.00     0.013 C 
BRANCH   2   4
ATOM      4  C   UNL     1       8.191  15.792  19.127  1.00  0.00    -0.045 A 
ATOM      5  C   UNL     1       9.034  19.505  17.086  1.00  0.00     0.044 C 
ATOM      6  C   UNL     1       8.769  18.217  17.808  1.00  0.00    -0.051 A 
ATOM      7  C   UNL     1       8.124  18.226  19.053  1.00  0.00     0.004 A 
ATOM      8  C   UNL     1       9.100  16.991  17.213  1.00  0.00     0.004 A 
ATOM      9  C   UNL     1       7.843  17.025  19.711  1.00  0.00     0.004 A 
ATOM     10  C   UNL     1       8.820  15.790  17.870  1.00  0.00     0.004 A 
ENDBRANCH   2   4
ENDBRANCH   1   2
BRANCH   1  11
ATOM     11  C   UNL     1       5.645  14.298  18.568  1.00  0.00     0.028 C 
BRANCH  11  12
ATOM     12  C   UNL     1       5.006  13.627  17.372  1.00  0.00    -0.028 C 
ATOM     13  C   UNL     1       5.153  14.024  16.089  1.00  0.00    -0.080 C 
ATOM     14  C   UNL     1       4.427  13.257  15.015  1.00  0.00     0.039 C 
ATOM     15  C   UNL     1       6.014  15.203  15.706  1.00  0.00     0.039 C 
ENDBRANCH  11  12
ENDBRANCH   1  11
TORSDOF 4
ENDMDL
MODEL 5
REMARK VINA RESULT:    -6.180      1.729      2.528
REMARK INTER + INTRA:          -8.707
REMARK INTER:                  -8.207
REMARK INTRA:                  -0.500
REMARK UNBOUND:                -1.081
REMARK SMILES CC(C)=CCC[C@H](C)c1ccc(C)cc1
REMARK SMILES IDX 6 1 7 2 8 3 9 4 13 5 12 6 11 7 14 8 10 9 15 10 5 11 4 12
REMARK SMILES IDX 2 13 1 14 3 15
REMARK H PARENT
REMARK Flexibility Score: inf
ROOT
ATOM      1  C   UNL     1       6.057  14.601  19.505  1.00  0.00     0.012 C 
ENDROOT
BRANCH   1   2
ATOM      2  C   UNL     1       7.452  15.211  19.220  1.00  0.00     0.016 C 
ATOM      3  C   UNL     1       8.583  14.382  19.849  1.00  0.00     0.013 C 
BRANCH   2   4
ATOM      4  C   UNL     1       7.519  16.644  19.715  1.00  0.00    -0.045 A 
ATOM      5  C   UNL     1       7.688  20.736  21.089  1.00  0.00     0.044 C 
ATOM      6  C   UNL     1       7.659  19.312  20.618  1.00  0.00    -0.051 A 
ATOM      7  C   UNL     1       7.360  18.278  21.515  1.00  0.00     0.004 A 
ATOM      8  C   UNL     1       7.864  19.012  19.263  1.00  0.00     0.004 A 
ATOM      9  C   UNL     1       7.297  16.954  21.070  1.00  0.00     0.004 A 
ATOM     10  C   UNL     1       7.801  17.689  18.817  1.00  0.00     0.004 A 
ENDBRANCH   2   4
ENDBRANCH   1   2
BRANCH   1  11
ATOM     11  C   UNL     1       5.317  14.140  18.238  1.00  0.00     0.028 C 
BRANCH  11  12
ATOM     12  C   UNL     1       5.198  12.633  18.190  1.00  0.00    -0.028 C 
ATOM     13  C   UNL     1       4.945  11.910  17.076  1.00  0.00    -0.080 C 
ATOM     14  C   UNL     1       4.834  10.413  17.205  1.00  0.00     0.039 C 
ATOM     15  C   UNL     1       4.771  12.554  15.722  1.00  0.00     0.039 C 
ENDBRANCH  11  12
ENDBRANCH   1  11
TORSDOF 4
ENDMDL
MODEL 6
REMARK VINA RESULT:    -6.112      2.724      5.022
REMARK INTER + INTRA:          -8.623
REMARK INTER:                  -7.890
REMARK INTRA:                  -0.733
REMARK UNBOUND:                -1.081
REMARK SMILES CC(C)=CCC[C@H](C)c1ccc(C)cc1
REMARK SMILES IDX 6 1 7 2 8 3 9 4 13 5 12 6 11 7 14 8 10 9 15 10 5 11 4 12
REMARK SMILES IDX 2 13 1 14 3 15
REMARK H PARENT
REMARK Flexibility Score: inf
ROOT
ATOM      1  C   UNL     1       3.945  12.903  16.291  1.00  0.00     0.012 C 
ENDROOT
BRANCH   1   2
ATOM      2  C   UNL     1       3.907  14.290  16.980  1.00  0.00     0.016 C 
ATOM      3  C   UNL     1       3.190  15.342  16.118  1.00  0.00     0.013 C 
BRANCH   2   4
ATOM      4  C   UNL     1       5.311  14.759  17.312  1.00  0.00    -0.045 A 
ATOM      5  C   UNL     1       9.304  16.129  18.232  1.00  0.00     0.044 C 
ATOM      6  C   UNL     1       7.928  15.625  17.908  1.00  0.00    -0.051 A 
ATOM      7  C   UNL     1       7.093  15.150  18.928  1.00  0.00     0.004 A 
ATOM      8  C   UNL     1       7.444  15.689  16.593  1.00  0.00     0.004 A 
ATOM      9  C   UNL     1       5.797  14.714  18.633  1.00  0.00     0.004 A 
ATOM     10  C   UNL     1       6.149  15.254  16.297  1.00  0.00     0.004 A 
ENDBRANCH   2   4
ENDBRANCH   1   2
BRANCH   1  11
ATOM     11  C   UNL     1       4.289  11.751  17.248  1.00  0.00     0.028 C 
BRANCH  11  12
ATOM     12  C   UNL     1       5.588  11.082  16.858  1.00  0.00    -0.028 C 
ATOM     13  C   UNL     1       5.862   9.768  17.013  1.00  0.00    -0.080 C 
ATOM     14  C   UNL     1       7.219   9.265  16.592  1.00  0.00     0.039 C 
ATOM     15  C   UNL     1       4.859   8.801  17.593  1.00  0.00     0.039 C 
ENDBRANCH  11  12
ENDBRANCH   1  11
TORSDOF 4
ENDMDL
MODEL 7
REMARK VINA RESULT:    -6.043      1.308      5.393
REMARK INTER + INTRA:          -8.538
REMARK INTER:                  -7.731
REMARK INTRA:                  -0.807
REMARK UNBOUND:                -1.081
REMARK SMILES CC(C)=CCC[C@H](C)c1ccc(C)cc1
REMARK SMILES IDX 6 1 7 2 8 3 9 4 13 5 12 6 11 7 14 8 10 9 15 10 5 11 4 12
REMARK SMILES IDX 2 13 1 14 3 15
REMARK H PARENT
REMARK Flexibility Score: inf
ROOT
ATOM      1  C   UNL     1       6.496  15.152  20.826  1.00  0.00     0.012 C 
ENDROOT
BRANCH   1   2
ATOM      2  C   UNL     1       7.045  13.971  19.988  1.00  0.00     0.016 C 
ATOM      3  C   UNL     1       8.548  14.118  19.702  1.00  0.00     0.013 C 
BRANCH   2   4
ATOM      4  C   UNL     1       6.278  13.839  18.685  1.00  0.00    -0.045 A 
ATOM      5  C   UNL     1       4.057  13.453  15.000  1.00  0.00     0.044 C 
ATOM      6  C   UNL     1       4.850  13.569  16.268  1.00  0.00    -0.051 A 
ATOM      7  C   UNL     1       5.781  14.605  16.427  1.00  0.00     0.004 A 
ATOM      8  C   UNL     1       4.617  12.683  17.330  1.00  0.00     0.004 A 
ATOM      9  C   UNL     1       6.494  14.736  17.622  1.00  0.00     0.004 A 
ATOM     10  C   UNL     1       5.329  12.813  18.526  1.00  0.00     0.004 A 
ENDBRANCH   2   4
ENDBRANCH   1   2
BRANCH   1  11
ATOM     11  C   UNL     1       7.584  15.914  21.601  1.00  0.00     0.028 C 
BRANCH  11  12
ATOM     12  C   UNL     1       7.304  17.400  21.621  1.00  0.00    -0.028 C 
ATOM     13  C   UNL     1       7.549  18.250  20.600  1.00  0.00    -0.080 C 
ATOM     14  C   UNL     1       7.232  19.711  20.792  1.00  0.00     0.039 C 
ATOM     15  C   UNL     1       8.127  17.783  19.286  1.00  0.00     0.039 C 
ENDBRANCH  11  12
ENDBRANCH   1  11
TORSDOF 4
ENDMDL
MODEL 8
REMARK VINA RESULT:    -5.905      1.456      5.499
REMARK INTER + INTRA:          -8.367
REMARK INTER:                  -7.707
REMARK INTRA:                  -0.660
REMARK UNBOUND:                -1.081
REMARK SMILES CC(C)=CCC[C@H](C)c1ccc(C)cc1
REMARK SMILES IDX 6 1 7 2 8 3 9 4 13 5 12 6 11 7 14 8 10 9 15 10 5 11 4 12
REMARK SMILES IDX 2 13 1 14 3 15
REMARK H PARENT
REMARK Flexibility Score: inf
ROOT
ATOM      1  C   UNL     1       9.093  16.205  17.999  1.00  0.00     0.012 C 
ENDROOT
BRANCH   1   2
ATOM      2  C   UNL     1       7.984  15.395  18.715  1.00  0.00     0.016 C 
ATOM      3  C   UNL     1       8.562  14.247  19.557  1.00  0.00     0.013 C 
BRANCH   2   4
ATOM      4  C   UNL     1       6.986  14.852  17.708  1.00  0.00    -0.045 A 
ATOM      5  C   UNL     1       4.120  13.295  14.876  1.00  0.00     0.044 C 
ATOM      6  C   UNL     1       5.138  13.819  15.845  1.00  0.00    -0.051 A 
ATOM      7  C   UNL     1       5.820  15.013  15.575  1.00  0.00     0.004 A 
ATOM      8  C   UNL     1       5.364  13.156  17.060  1.00  0.00     0.004 A 
ATOM      9  C   UNL     1       6.742  15.523  16.495  1.00  0.00     0.004 A 
ATOM     10  C   UNL     1       6.285  13.664  17.980  1.00  0.00     0.004 A 
ENDBRANCH   2   4
ENDBRANCH   1   2
BRANCH   1  11
ATOM     11  C   UNL     1       8.902  17.728  18.097  1.00  0.00     0.028 C 
BRANCH  11  12
ATOM     12  C   UNL     1       8.129  18.105  19.341  1.00  0.00    -0.028 C 
ATOM     13  C   UNL     1       7.838  19.369  19.720  1.00  0.00    -0.080 C 
ATOM     14  C   UNL     1       7.076  19.574  21.004  1.00  0.00     0.039 C 
ATOM     15  C   UNL     1       8.252  20.569  18.903  1.00  0.00     0.039 C 
ENDBRANCH  11  12
ENDBRANCH   1  11
TORSDOF 4
ENDMDL
MODEL 9
REMARK VINA RESULT:    -5.816      2.603      3.716
REMARK INTER + INTRA:          -8.258
REMARK INTER:                  -7.717
REMARK INTRA:                  -0.541
REMARK UNBOUND:                -1.081
REMARK SMILES CC(C)=CCC[C@H](C)c1ccc(C)cc1
REMARK SMILES IDX 6 1 7 2 8 3 9 4 13 5 12 6 11 7 14 8 10 9 15 10 5 11 4 12
REMARK SMILES IDX 2 13 1 14 3 15
REMARK H PARENT
REMARK Flexibility Score: inf
ROOT
ATOM      1  C   UNL     1       5.928  13.644  17.975  1.00  0.00     0.012 C 
ENDROOT
BRANCH   1   2
ATOM      2  C   UNL     1       7.254  13.889  18.737  1.00  0.00     0.016 C 
ATOM      3  C   UNL     1       7.099  13.665  20.250  1.00  0.00     0.013 C 
BRANCH   2   4
ATOM      4  C   UNL     1       7.773  15.290  18.468  1.00  0.00    -0.045 A 
ATOM      5  C   UNL     1       9.231  19.276  17.665  1.00  0.00     0.044 C 
ATOM      6  C   UNL     1       8.753  17.884  17.954  1.00  0.00    -0.051 A 
ATOM      7  C   UNL     1       8.214  17.569  19.209  1.00  0.00     0.004 A 
ATOM      8  C   UNL     1       8.777  16.906  16.949  1.00  0.00     0.004 A 
ATOM      9  C   UNL     1       7.735  16.281  19.468  1.00  0.00     0.004 A 
ATOM     10  C   UNL     1       8.297  15.619  17.206  1.00  0.00     0.004 A 
ENDBRANCH   2   4
ENDBRANCH   1   2
BRANCH   1  11
ATOM     11  C   UNL     1       5.998  12.474  16.981  1.00  0.00     0.028 C 
BRANCH  11  12
ATOM     12  C   UNL     1       5.185  11.294  17.465  1.00  0.00    -0.028 C 
ATOM     13  C   UNL     1       5.474   9.997  17.215  1.00  0.00    -0.080 C 
ATOM     14  C   UNL     1       4.545   8.940  17.752  1.00  0.00     0.039 C 
ATOM     15  C   UNL     1       6.688   9.584  16.418  1.00  0.00     0.039 C 
ENDBRANCH  11  12
ENDBRANCH   1  11
TORSDOF 4
ENDMDL
