MODEL 1
REMARK VINA RESULT:    -6.595      0.000      0.000
REMARK INTER + INTRA:         -11.825
REMARK INTER:                 -10.451
REMARK INTRA:                  -1.374
REMARK UNBOUND:                -1.374
REMARK SMILES C[C@H]1O[C@@H](O[C@@H]2[C@H](Oc3cc(O)c4c(c3)O[C@@H](c3ccc(O)cc3)CC4=O)O[C@@H](CO)[C@H](O)[C@H]2O)[C@H](O)[C@@H](O)[C@H]1O
REMARK SMILES IDX 6 1 34 2 32 3 29 4 28 5 7 6 5 7 4 8 1 9 2 10 40 11 3 12
REMARK SMILES IDX 38 13 36 14 41 15 39 17 37 19 35 21 8 23 9 24 10 25 15 26
REMARK SMILES IDX 11 27 14 28 13 29 16 30 26 31 17 32 27 33 25 34 12 35 18 37
REMARK SMILES IDX 19 38 24 39 20 40 23 41 21 42 22 43 33 45 30 47 31 48
REMARK H PARENT 41 16 39 18 37 20 35 22 12 36 22 44 33 46 31 49
REMARK Flexibility Score: inf
ROOT
ATOM      1  C   UNL     1      47.657  11.791  -5.040  1.00  0.00     0.221 C 
ATOM      2  C   UNL     1      48.822  11.942  -4.039  1.00  0.00     0.181 C 
ATOM      3  C   UNL     1      48.492  11.246  -2.709  1.00  0.00     0.177 C 
ATOM      4  C   UNL     1      47.105  11.713  -2.189  1.00  0.00     0.179 C 
ATOM      5  O   UNL     1      46.036  11.475  -3.175  1.00  0.00    -0.332 OA
ATOM      6  C   UNL     1      46.305  12.153  -4.406  1.00  0.00     0.339 C 
ENDROOT
BRANCH   1   7
ATOM      7  O   UNL     1      47.724  12.303  -6.377  1.00  0.00    -0.337 OA
BRANCH   7   8
ATOM      8  C   UNL     1      48.534  13.363  -6.898  1.00  0.00     0.282 C 
ATOM      9  C   UNL     1      52.305  13.182  -6.523  1.00  0.00     0.041 C 
ATOM     10  C   UNL     1      50.938  13.888  -6.607  1.00  0.00     0.150 C 
ATOM     11  C   UNL     1      50.690  14.722  -5.354  1.00  0.00     0.174 C 
ATOM     12  O   UNL     1      49.905  12.899  -6.686  1.00  0.00    -0.344 OA
ATOM     13  C   UNL     1      49.351  15.458  -5.561  1.00  0.00     0.179 C 
ATOM     14  C   UNL     1      48.188  14.677  -6.120  1.00  0.00     0.202 C 
BRANCH  11  15
ATOM     15  O   UNL     1      50.721  13.947  -4.203  1.00  0.00    -0.388 OA
ATOM     16  H   UNL     1      51.038  14.515  -3.443  1.00  0.00     0.211 HD
ENDBRANCH  11  15
BRANCH  13  17
ATOM     17  O   UNL     1      48.955  15.998  -4.306  1.00  0.00    -0.387 OA
ATOM     18  H   UNL     1      49.737  15.959  -3.706  1.00  0.00     0.211 HD
ENDBRANCH  13  17
BRANCH  14  19
ATOM     19  O   UNL     1      47.481  15.492  -7.004  1.00  0.00    -0.385 OA
ATOM     20  H   UNL     1      46.827  16.015  -6.445  1.00  0.00     0.211 HD
ENDBRANCH  14  19
ENDBRANCH   7   8
ENDBRANCH   1   7
BRANCH   2  21
ATOM     21  O   UNL     1      50.015  11.347  -4.469  1.00  0.00    -0.387 OA
ATOM     22  H   UNL     1      50.814  11.873  -4.044  1.00  0.00     0.211 HD
ENDBRANCH   2  21
BRANCH   6  23
ATOM     23  O   UNL     1      46.056  13.597  -4.256  1.00  0.00    -0.462 OA
BRANCH  23  24
ATOM     24  C   UNL     1      44.771  14.142  -4.608  1.00  0.00     0.130 A 
ATOM     25  C   UNL     1      43.615  13.575  -4.040  1.00  0.00     0.093 A 
ATOM     26  C   UNL     1      44.630  15.365  -5.291  1.00  0.00     0.094 A 
ATOM     27  C   UNL     1      42.570  14.413  -3.704  1.00  0.00     0.133 A 
ATOM     28  C   UNL     1      43.527  16.228  -4.982  1.00  0.00     0.138 A 
ATOM     29  C   UNL     1      42.698  15.781  -3.926  1.00  0.00     0.102 A 
ATOM     30  O   UNL     1      43.678  17.617  -5.152  1.00  0.00    -0.484 OA
ATOM     31  C   UNL     1      43.111  16.538  -2.696  1.00  0.00     0.174 C 
ATOM     32  C   UNL     1      44.077  18.383  -3.990  1.00  0.00     0.211 C 
ATOM     33  O   UNL     1      42.349  16.672  -1.717  1.00  0.00    -0.294 OA
ATOM     34  C   UNL     1      44.361  17.386  -2.810  1.00  0.00     0.131 C 
BRANCH  27  35
ATOM     35  O   UNL     1      41.522  13.915  -2.903  1.00  0.00    -0.507 OA
ATOM     36  H   UNL     1      41.386  12.895  -2.724  1.00  0.00     0.293 HD
ENDBRANCH  27  35
BRANCH  32  37
ATOM     37  C   UNL     1      43.154  19.504  -3.587  1.00  0.00    -0.007 A 
ATOM     38  C   UNL     1      43.241  20.276  -2.376  1.00  0.00     0.011 A 
ATOM     39  C   UNL     1      41.820  19.358  -4.032  1.00  0.00     0.011 A 
ATOM     40  C   UNL     1      42.091  20.520  -1.579  1.00  0.00     0.046 A 
ATOM     41  C   UNL     1      40.844  19.072  -3.063  1.00  0.00     0.046 A 
ATOM     42  C   UNL     1      40.939  19.731  -1.856  1.00  0.00     0.115 A 
BRANCH  42  43
ATOM     43  O   UNL     1      39.876  19.602  -0.971  1.00  0.00    -0.508 OA
ATOM     44  H   UNL     1      39.664  18.668  -0.518  1.00  0.00     0.293 HD
ENDBRANCH  42  43
ENDBRANCH  32  37
ENDBRANCH  23  24
ENDBRANCH   6  23
BRANCH   3  45
ATOM     45  O   UNL     1      49.516  11.403  -1.754  1.00  0.00    -0.387 OA
ATOM     46  H   UNL     1      50.278  10.982  -2.196  1.00  0.00     0.211 HD
ENDBRANCH   3  45
BRANCH   4  47
ATOM     47  C   UNL     1      46.728  10.917  -0.915  1.00  0.00     0.191 C 
BRANCH  47  48
ATOM     48  O   UNL     1      47.344  11.407   0.251  1.00  0.00    -0.394 OA
ATOM     49  H   UNL     1      46.663  11.542   0.941  1.00  0.00     0.210 HD
ENDBRANCH  47  48
ENDBRANCH   4  47
TORSDOF 14
ENDMDL
MODEL 2
REMARK VINA RESULT:    -6.251      1.618      2.166
REMARK INTER + INTRA:         -11.280
REMARK INTER:                 -10.105
REMARK INTRA:                  -1.175
REMARK UNBOUND:                -1.374
REMARK SMILES C[C@H]1O[C@@H](O[C@@H]2[C@H](Oc3cc(O)c4c(c3)O[C@@H](c3ccc(O)cc3)CC4=O)O[C@@H](CO)[C@H](O)[C@H]2O)[C@H](O)[C@@H](O)[C@H]1O
REMARK SMILES IDX 6 1 34 2 32 3 29 4 28 5 7 6 5 7 4 8 1 9 2 10 40 11 3 12
REMARK SMILES IDX 38 13 36 14 41 15 39 17 37 19 35 21 8 23 9 24 10 25 15 26
REMARK SMILES IDX 11 27 14 28 13 29 16 30 26 31 17 32 27 33 25 34 12 35 18 37
REMARK SMILES IDX 19 38 24 39 20 40 23 41 21 42 22 43 33 45 30 47 31 48
REMARK H PARENT 41 16 39 18 37 20 35 22 12 36 22 44 33 46 31 49
REMARK Flexibility Score: inf
ROOT
ATOM      1  C   UNL     1      48.851  12.256  -4.132  1.00  0.00     0.221 C 
ATOM      2  C   UNL     1      48.635  11.961  -2.632  1.00  0.00     0.181 C 
ATOM      3  C   UNL     1      47.361  11.128  -2.419  1.00  0.00     0.177 C 
ATOM      4  C   UNL     1      46.159  11.791  -3.144  1.00  0.00     0.179 C 
ATOM      5  O   UNL     1      46.416  11.979  -4.582  1.00  0.00    -0.332 OA
ATOM      6  C   UNL     1      47.575  12.791  -4.801  1.00  0.00     0.339 C 
ENDROOT
BRANCH   1   7
ATOM      7  O   UNL     1      49.994  12.973  -4.616  1.00  0.00    -0.337 OA
BRANCH   7   8
ATOM      8  C   UNL     1      50.376  13.258  -5.965  1.00  0.00     0.282 C 
ATOM      9  C   UNL     1      54.027  13.001  -6.963  1.00  0.00     0.041 C 
ATOM     10  C   UNL     1      52.599  13.577  -7.012  1.00  0.00     0.150 C 
ATOM     11  C   UNL     1      52.617  15.074  -6.714  1.00  0.00     0.174 C 
ATOM     12  O   UNL     1      51.803  12.941  -6.006  1.00  0.00    -0.344 OA
ATOM     13  C   UNL     1      51.168  15.580  -6.871  1.00  0.00     0.179 C 
ATOM     14  C   UNL     1      50.058  14.762  -6.263  1.00  0.00     0.202 C 
BRANCH  11  15
ATOM     15  O   UNL     1      53.165  15.346  -5.468  1.00  0.00    -0.388 OA
ATOM     16  H   UNL     1      53.659  16.214  -5.520  1.00  0.00     0.211 HD
ENDBRANCH  11  15
BRANCH  13  17
ATOM     17  O   UNL     1      51.106  16.888  -6.315  1.00  0.00    -0.387 OA
ATOM     18  H   UNL     1      50.829  16.798  -5.373  1.00  0.00     0.211 HD
ENDBRANCH  13  17
BRANCH  14  19
ATOM     19  O   UNL     1      48.963  14.778  -7.125  1.00  0.00    -0.385 OA
ATOM     20  H   UNL     1      48.165  14.504  -6.575  1.00  0.00     0.211 HD
ENDBRANCH  14  19
ENDBRANCH   7   8
ENDBRANCH   1   7
BRANCH   2  21
ATOM     21  O   UNL     1      49.661  11.202  -2.054  1.00  0.00    -0.387 OA
ATOM     22  H   UNL     1      50.558  11.442  -2.538  1.00  0.00     0.211 HD
ENDBRANCH   2  21
BRANCH   6  23
ATOM     23  O   UNL     1      47.267  14.203  -4.515  1.00  0.00    -0.462 OA
BRANCH  23  24
ATOM     24  C   UNL     1      46.276  14.892  -5.297  1.00  0.00     0.130 A 
ATOM     25  C   UNL     1      45.313  14.135  -5.991  1.00  0.00     0.093 A 
ATOM     26  C   UNL     1      46.070  16.281  -5.201  1.00  0.00     0.094 A 
ATOM     27  C   UNL     1      44.026  14.629  -6.074  1.00  0.00     0.133 A 
ATOM     28  C   UNL     1      44.743  16.812  -5.325  1.00  0.00     0.138 A 
ATOM     29  C   UNL     1      43.723  15.842  -5.463  1.00  0.00     0.102 A 
ATOM     30  O   UNL     1      44.422  18.009  -4.659  1.00  0.00    -0.484 OA
ATOM     31  C   UNL     1      43.093  15.675  -4.108  1.00  0.00     0.174 C 
ATOM     32  C   UNL     1      43.815  17.892  -3.350  1.00  0.00     0.211 C 
ATOM     33  O   UNL     1      41.945  15.209  -3.968  1.00  0.00    -0.294 OA
ATOM     34  C   UNL     1      43.780  16.373  -2.953  1.00  0.00     0.131 C 
BRANCH  27  35
ATOM     35  O   UNL     1      42.994  13.781  -6.528  1.00  0.00    -0.507 OA
ATOM     36  H   UNL     1      42.466  13.961  -7.410  1.00  0.00     0.293 HD
ENDBRANCH  27  35
BRANCH  32  37
ATOM     37  C   UNL     1      42.478  18.564  -3.178  1.00  0.00    -0.007 A 
ATOM     38  C   UNL     1      42.135  19.890  -3.619  1.00  0.00     0.011 A 
ATOM     39  C   UNL     1      41.779  18.195  -2.005  1.00  0.00     0.011 A 
ATOM     40  C   UNL     1      41.463  20.798  -2.756  1.00  0.00     0.046 A 
ATOM     41  C   UNL     1      41.668  19.158  -0.989  1.00  0.00     0.046 A 
ATOM     42  C   UNL     1      41.421  20.458  -1.375  1.00  0.00     0.115 A 
BRANCH  42  43
ATOM     43  O   UNL     1      41.119  21.375  -0.376  1.00  0.00    -0.508 OA
ATOM     44  H   UNL     1      40.387  22.124  -0.537  1.00  0.00     0.293 HD
ENDBRANCH  42  43
ENDBRANCH  32  37
ENDBRANCH  23  24
ENDBRANCH   6  23
BRANCH   3  45
ATOM     45  O   UNL     1      47.109  10.878  -1.055  1.00  0.00    -0.387 OA
ATOM     46  H   UNL     1      48.010  10.838  -0.681  1.00  0.00     0.211 HD
ENDBRANCH   3  45
BRANCH   4  47
ATOM     47  C   UNL     1      44.910  10.882  -3.024  1.00  0.00     0.191 C 
BRANCH  47  48
ATOM     48  O   UNL     1      43.757  11.571  -2.607  1.00  0.00    -0.394 OA
ATOM     49  H   UNL     1      42.984  10.977  -2.680  1.00  0.00     0.210 HD
ENDBRANCH  47  48
ENDBRANCH   4  47
TORSDOF 14
ENDMDL
MODEL 3
REMARK VINA RESULT:    -5.582      1.664      4.295
REMARK INTER + INTRA:         -10.219
REMARK INTER:                  -7.813
REMARK INTRA:                  -2.406
REMARK UNBOUND:                -1.374
REMARK SMILES C[C@H]1O[C@@H](O[C@@H]2[C@H](Oc3cc(O)c4c(c3)O[C@@H](c3ccc(O)cc3)CC4=O)O[C@@H](CO)[C@H](O)[C@H]2O)[C@H](O)[C@@H](O)[C@H]1O
REMARK SMILES IDX 6 1 34 2 32 3 29 4 28 5 7 6 5 7 4 8 1 9 2 10 40 11 3 12
REMARK SMILES IDX 38 13 36 14 41 15 39 17 37 19 35 21 8 23 9 24 10 25 15 26
REMARK SMILES IDX 11 27 14 28 13 29 16 30 26 31 17 32 27 33 25 34 12 35 18 37
REMARK SMILES IDX 19 38 24 39 20 40 23 41 21 42 22 43 33 45 30 47 31 48
REMARK H PARENT 41 16 39 18 37 20 35 22 12 36 22 44 33 46 31 49
REMARK Flexibility Score: inf
ROOT
ATOM      1  C   UNL     1      49.239  13.181  -5.130  1.00  0.00     0.221 C 
ATOM      2  C   UNL     1      50.352  13.689  -6.072  1.00  0.00     0.181 C 
ATOM      3  C   UNL     1      50.421  15.224  -6.056  1.00  0.00     0.177 C 
ATOM      4  C   UNL     1      49.013  15.828  -6.307  1.00  0.00     0.179 C 
ATOM      5  O   UNL     1      48.022  15.346  -5.329  1.00  0.00    -0.332 OA
ATOM      6  C   UNL     1      47.911  13.920  -5.361  1.00  0.00     0.339 C 
ENDROOT
BRANCH   1   7
ATOM      7  O   UNL     1      48.992  11.785  -4.918  1.00  0.00    -0.337 OA
BRANCH   7   8
ATOM      8  C   UNL     1      48.384  11.137  -3.796  1.00  0.00     0.282 C 
ATOM      9  C   UNL     1      44.604  10.875  -3.620  1.00  0.00     0.041 C 
ATOM     10  C   UNL     1      46.026  11.021  -3.045  1.00  0.00     0.150 C 
ATOM     11  C   UNL     1      46.139  12.298  -2.218  1.00  0.00     0.174 C 
ATOM     12  O   UNL     1      46.960  11.116  -4.126  1.00  0.00    -0.344 OA
ATOM     13  C   UNL     1      47.557  12.319  -1.613  1.00  0.00     0.179 C 
ATOM     14  C   UNL     1      48.718  11.962  -2.507  1.00  0.00     0.202 C 
BRANCH  11  15
ATOM     15  O   UNL     1      45.843  13.428  -2.970  1.00  0.00    -0.388 OA
ATOM     16  H   UNL     1      46.535  13.524  -3.686  1.00  0.00     0.211 HD
ENDBRANCH  11  15
BRANCH  13  17
ATOM     17  O   UNL     1      47.787  13.622  -1.093  1.00  0.00    -0.387 OA
ATOM     18  H   UNL     1      48.288  14.130  -1.775  1.00  0.00     0.211 HD
ENDBRANCH  13  17
BRANCH  14  19
ATOM     19  O   UNL     1      49.635  11.209  -1.776  1.00  0.00    -0.385 OA
ATOM     20  H   UNL     1      50.282  10.824  -2.443  1.00  0.00     0.211 HD
ENDBRANCH  14  19
ENDBRANCH   7   8
ENDBRANCH   1   7
BRANCH   2  21
ATOM     21  O   UNL     1      51.636  13.267  -5.704  1.00  0.00    -0.387 OA
ATOM     22  H   UNL     1      52.332  13.836  -6.240  1.00  0.00     0.211 HD
ENDBRANCH   2  21
BRANCH   6  23
ATOM     23  O   UNL     1      47.163  13.495  -6.557  1.00  0.00    -0.462 OA
BRANCH  23  24
ATOM     24  C   UNL     1      45.826  13.979  -6.774  1.00  0.00     0.130 A 
ATOM     25  C   UNL     1      44.740  13.167  -6.392  1.00  0.00     0.093 A 
ATOM     26  C   UNL     1      45.552  15.316  -7.116  1.00  0.00     0.094 A 
ATOM     27  C   UNL     1      43.619  13.778  -5.866  1.00  0.00     0.133 A 
ATOM     28  C   UNL     1      44.370  15.951  -6.609  1.00  0.00     0.138 A 
ATOM     29  C   UNL     1      43.603  15.161  -5.721  1.00  0.00     0.102 A 
ATOM     30  O   UNL     1      44.375  17.344  -6.408  1.00  0.00    -0.484 OA
ATOM     31  C   UNL     1      43.950  15.609  -4.328  1.00  0.00     0.174 C 
ATOM     32  C   UNL     1      44.707  17.817  -5.081  1.00  0.00     0.211 C 
ATOM     33  O   UNL     1      43.190  15.404  -3.361  1.00  0.00    -0.294 OA
ATOM     34  C   UNL     1      45.106  16.580  -4.198  1.00  0.00     0.131 C 
BRANCH  27  35
ATOM     35  O   UNL     1      42.637  12.983  -5.239  1.00  0.00    -0.507 OA
ATOM     36  H   UNL     1      42.470  11.986  -5.499  1.00  0.00     0.293 HD
ENDBRANCH  27  35
BRANCH  32  37
ATOM     37  C   UNL     1      43.679  18.692  -4.414  1.00  0.00    -0.007 A 
ATOM     38  C   UNL     1      43.575  18.948  -3.001  1.00  0.00     0.011 A 
ATOM     39  C   UNL     1      42.419  18.716  -5.054  1.00  0.00     0.011 A 
ATOM     40  C   UNL     1      42.324  18.861  -2.331  1.00  0.00     0.046 A 
ATOM     41  C   UNL     1      41.351  18.075  -4.403  1.00  0.00     0.046 A 
ATOM     42  C   UNL     1      41.262  18.227  -3.036  1.00  0.00     0.115 A 
BRANCH  42  43
ATOM     43  O   UNL     1      40.109  17.762  -2.415  1.00  0.00    -0.508 OA
ATOM     44  H   UNL     1      39.155  18.087  -2.741  1.00  0.00     0.293 HD
ENDBRANCH  42  43
ENDBRANCH  32  37
ENDBRANCH  23  24
ENDBRANCH   6  23
BRANCH   3  45
ATOM     45  O   UNL     1      51.398  15.725  -6.939  1.00  0.00    -0.387 OA
ATOM     46  H   UNL     1      51.859  16.385  -6.387  1.00  0.00     0.211 HD
ENDBRANCH   3  45
BRANCH   4  47
ATOM     47  C   UNL     1      49.072  17.369  -6.168  1.00  0.00     0.191 C 
BRANCH  47  48
ATOM     48  O   UNL     1      48.048  18.032  -6.868  1.00  0.00    -0.394 OA
ATOM     49  H   UNL     1      47.512  17.374  -7.354  1.00  0.00     0.210 HD
ENDBRANCH  47  48
ENDBRANCH   4  47
TORSDOF 14
ENDMDL
MODEL 4
REMARK VINA RESULT:    -5.258      2.205      8.834
REMARK INTER + INTRA:          -9.706
REMARK INTER:                  -7.752
REMARK INTRA:                  -1.954
REMARK UNBOUND:                -1.374
REMARK SMILES C[C@H]1O[C@@H](O[C@@H]2[C@H](Oc3cc(O)c4c(c3)O[C@@H](c3ccc(O)cc3)CC4=O)O[C@@H](CO)[C@H](O)[C@H]2O)[C@H](O)[C@@H](O)[C@H]1O
REMARK SMILES IDX 6 1 34 2 32 3 29 4 28 5 7 6 5 7 4 8 1 9 2 10 40 11 3 12
REMARK SMILES IDX 38 13 36 14 41 15 39 17 37 19 35 21 8 23 9 24 10 25 15 26
REMARK SMILES IDX 11 27 14 28 13 29 16 30 26 31 17 32 27 33 25 34 12 35 18 37
REMARK SMILES IDX 19 38 24 39 20 40 23 41 21 42 22 43 33 45 30 47 31 48
REMARK H PARENT 41 16 39 18 37 20 35 22 12 36 22 44 33 46 31 49
REMARK Flexibility Score: inf
ROOT
ATOM      1  C   UNL     1      41.748  18.504  -4.317  1.00  0.00     0.221 C 
ATOM      2  C   UNL     1      41.263  18.433  -2.854  1.00  0.00     0.181 C 
ATOM      3  C   UNL     1      41.854  19.586  -2.027  1.00  0.00     0.177 C 
ATOM      4  C   UNL     1      43.394  19.645  -2.213  1.00  0.00     0.179 C 
ATOM      5  O   UNL     1      43.776  19.778  -3.629  1.00  0.00    -0.332 OA
ATOM      6  C   UNL     1      43.272  18.688  -4.408  1.00  0.00     0.339 C 
ENDROOT
BRANCH   1   7
ATOM      7  O   UNL     1      41.307  17.576  -5.317  1.00  0.00    -0.337 OA
BRANCH   7   8
ATOM      8  C   UNL     1      40.485  16.414  -5.169  1.00  0.00     0.282 C 
ATOM      9  C   UNL     1      40.163  14.782  -1.760  1.00  0.00     0.041 C 
ATOM     10  C   UNL     1      40.230  14.809  -3.299  1.00  0.00     0.150 C 
ATOM     11  C   UNL     1      41.363  13.917  -3.799  1.00  0.00     0.174 C 
ATOM     12  O   UNL     1      40.503  16.147  -3.732  1.00  0.00    -0.344 OA
ATOM     13  C   UNL     1      41.301  13.934  -5.340  1.00  0.00     0.179 C 
ATOM     14  C   UNL     1      41.100  15.260  -6.031  1.00  0.00     0.202 C 
BRANCH  11  15
ATOM     15  O   UNL     1      42.593  14.312  -3.292  1.00  0.00    -0.388 OA
ATOM     16  H   UNL     1      42.466  15.154  -2.767  1.00  0.00     0.211 HD
ENDBRANCH  11  15
BRANCH  13  17
ATOM     17  O   UNL     1      42.509  13.363  -5.828  1.00  0.00    -0.387 OA
ATOM     18  H   UNL     1      43.176  13.415  -5.103  1.00  0.00     0.211 HD
ENDBRANCH  13  17
BRANCH  14  19
ATOM     19  O   UNL     1      40.251  15.076  -7.120  1.00  0.00    -0.385 OA
ATOM     20  H   UNL     1      39.720  15.927  -7.213  1.00  0.00     0.211 HD
ENDBRANCH  14  19
ENDBRANCH   7   8
ENDBRANCH   1   7
BRANCH   2  21
ATOM     21  O   UNL     1      39.875  18.566  -2.714  1.00  0.00    -0.387 OA
ATOM     22  H   UNL     1      39.645  18.536  -1.694  1.00  0.00     0.211 HD
ENDBRANCH   2  21
BRANCH   6  23
ATOM     23  O   UNL     1      44.062  17.472  -4.151  1.00  0.00    -0.462 OA
BRANCH  23  24
ATOM     24  C   UNL     1      44.938  16.959  -5.170  1.00  0.00     0.130 A 
ATOM     25  C   UNL     1      46.179  17.591  -5.378  1.00  0.00     0.093 A 
ATOM     26  C   UNL     1      44.727  15.714  -5.792  1.00  0.00     0.094 A 
ATOM     27  C   UNL     1      47.270  16.806  -5.694  1.00  0.00     0.133 A 
ATOM     28  C   UNL     1      45.853  14.906  -6.161  1.00  0.00     0.138 A 
ATOM     29  C   UNL     1      47.112  15.427  -5.782  1.00  0.00     0.102 A 
ATOM     30  O   UNL     1      45.708  13.506  -6.194  1.00  0.00    -0.484 OA
ATOM     31  C   UNL     1      47.523  14.708  -4.527  1.00  0.00     0.174 C 
ATOM     32  C   UNL     1      46.090  12.776  -5.004  1.00  0.00     0.211 C 
ATOM     33  O   UNL     1      48.714  14.644  -4.164  1.00  0.00    -0.294 OA
ATOM     34  C   UNL     1      46.481  13.812  -3.890  1.00  0.00     0.131 C 
BRANCH  27  35
ATOM     35  O   UNL     1      48.560  17.376  -5.649  1.00  0.00    -0.507 OA
ATOM     36  H   UNL     1      48.954  17.808  -4.784  1.00  0.00     0.293 HD
ENDBRANCH  27  35
BRANCH  32  37
ATOM     37  C   UNL     1      47.136  11.708  -5.190  1.00  0.00    -0.007 A 
ATOM     38  C   UNL     1      48.140  11.332  -4.230  1.00  0.00     0.011 A 
ATOM     39  C   UNL     1      47.583  11.546  -6.521  1.00  0.00     0.011 A 
ATOM     40  C   UNL     1      49.500  11.179  -4.614  1.00  0.00     0.046 A 
ATOM     41  C   UNL     1      48.889  11.968  -6.819  1.00  0.00     0.046 A 
ATOM     42  C   UNL     1      49.869  11.700  -5.887  1.00  0.00     0.115 A 
BRANCH  42  43
ATOM     43  O   UNL     1      51.187  11.938  -6.257  1.00  0.00    -0.508 OA
ATOM     44  H   UNL     1      51.982  11.454  -5.753  1.00  0.00     0.293 HD
ENDBRANCH  42  43
ENDBRANCH  32  37
ENDBRANCH  23  24
ENDBRANCH   6  23
BRANCH   3  45
ATOM     45  O   UNL     1      41.467  19.527  -0.674  1.00  0.00    -0.387 OA
ATOM     46  H   UNL     1      41.868  20.338  -0.307  1.00  0.00     0.211 HD
ENDBRANCH   3  45
BRANCH   4  47
ATOM     47  C   UNL     1      43.964  20.882  -1.474  1.00  0.00     0.191 C 
BRANCH  47  48
ATOM     48  O   UNL     1      44.752  20.550  -0.357  1.00  0.00    -0.394 OA
ATOM     49  H   UNL     1      45.070  21.372   0.066  1.00  0.00     0.210 HD
ENDBRANCH  47  48
ENDBRANCH   4  47
TORSDOF 14
ENDMDL
MODEL 5
REMARK VINA RESULT:    -4.774      1.460      1.791
REMARK INTER + INTRA:          -8.939
REMARK INTER:                  -8.614
REMARK INTRA:                  -0.325
REMARK UNBOUND:                -1.374
REMARK SMILES C[C@H]1O[C@@H](O[C@@H]2[C@H](Oc3cc(O)c4c(c3)O[C@@H](c3ccc(O)cc3)CC4=O)O[C@@H](CO)[C@H](O)[C@H]2O)[C@H](O)[C@@H](O)[C@H]1O
REMARK SMILES IDX 6 1 34 2 32 3 29 4 28 5 7 6 5 7 4 8 1 9 2 10 40 11 3 12
REMARK SMILES IDX 38 13 36 14 41 15 39 17 37 19 35 21 8 23 9 24 10 25 15 26
REMARK SMILES IDX 11 27 14 28 13 29 16 30 26 31 17 32 27 33 25 34 12 35 18 37
REMARK SMILES IDX 19 38 24 39 20 40 23 41 21 42 22 43 33 45 30 47 31 48
REMARK H PARENT 41 16 39 18 37 20 35 22 12 36 22 44 33 46 31 49
REMARK Flexibility Score: inf
ROOT
ATOM      1  C   UNL     1      47.209  12.898  -4.371  1.00  0.00     0.221 C 
ATOM      2  C   UNL     1      47.437  13.761  -3.112  1.00  0.00     0.181 C 
ATOM      3  C   UNL     1      47.624  12.874  -1.870  1.00  0.00     0.177 C 
ATOM      4  C   UNL     1      46.466  11.844  -1.768  1.00  0.00     0.179 C 
ATOM      5  O   UNL     1      46.354  11.016  -2.981  1.00  0.00    -0.332 OA
ATOM      6  C   UNL     1      46.135  11.823  -4.142  1.00  0.00     0.339 C 
ENDROOT
BRANCH   1   7
ATOM      7  O   UNL     1      47.056  13.472  -5.676  1.00  0.00    -0.337 OA
BRANCH   7   8
ATOM      8  C   UNL     1      48.064  13.915  -6.591  1.00  0.00     0.282 C 
ATOM      9  C   UNL     1      51.365  12.054  -6.766  1.00  0.00     0.041 C 
ATOM     10  C   UNL     1      50.450  13.291  -6.833  1.00  0.00     0.150 C 
ATOM     11  C   UNL     1      50.915  14.353  -5.841  1.00  0.00     0.174 C 
ATOM     12  O   UNL     1      49.118  12.908  -6.472  1.00  0.00    -0.344 OA
ATOM     13  C   UNL     1      50.003  15.581  -6.037  1.00  0.00     0.179 C 
ATOM     14  C   UNL     1      48.518  15.353  -6.169  1.00  0.00     0.202 C 
BRANCH  11  15
ATOM     15  O   UNL     1      50.923  13.874  -4.538  1.00  0.00    -0.388 OA
ATOM     16  H   UNL     1      50.476  14.547  -3.948  1.00  0.00     0.211 HD
ENDBRANCH  11  15
BRANCH  13  17
ATOM     17  O   UNL     1      50.217  16.459  -4.938  1.00  0.00    -0.387 OA
ATOM     18  H   UNL     1      51.175  16.693  -4.927  1.00  0.00     0.211 HD
ENDBRANCH  13  17
BRANCH  14  19
ATOM     19  O   UNL     1      48.010  16.230  -7.125  1.00  0.00    -0.385 OA
ATOM     20  H   UNL     1      47.302  16.775  -6.662  1.00  0.00     0.211 HD
ENDBRANCH  14  19
ENDBRANCH   7   8
ENDBRANCH   1   7
BRANCH   2  21
ATOM     21  O   UNL     1      48.596  14.546  -3.170  1.00  0.00    -0.387 OA
ATOM     22  H   UNL     1      48.879  14.784  -2.191  1.00  0.00     0.211 HD
ENDBRANCH   2  21
BRANCH   6  23
ATOM     23  O   UNL     1      44.746  12.315  -4.165  1.00  0.00    -0.462 OA
BRANCH  23  24
ATOM     24  C   UNL     1      44.372  13.361  -5.079  1.00  0.00     0.130 A 
ATOM     25  C   UNL     1      43.341  13.114  -6.006  1.00  0.00     0.093 A 
ATOM     26  C   UNL     1      44.810  14.690  -4.927  1.00  0.00     0.094 A 
ATOM     27  C   UNL     1      42.474  14.144  -6.311  1.00  0.00     0.133 A 
ATOM     28  C   UNL     1      43.933  15.770  -5.278  1.00  0.00     0.138 A 
ATOM     29  C   UNL     1      42.637  15.378  -5.688  1.00  0.00     0.102 A 
ATOM     30  O   UNL     1      44.062  17.000  -4.606  1.00  0.00    -0.484 OA
ATOM     31  C   UNL     1      41.730  15.562  -4.504  1.00  0.00     0.174 C 
ATOM     32  C   UNL     1      43.207  17.216  -3.458  1.00  0.00     0.211 C 
ATOM     33  O   UNL     1      40.496  15.684  -4.633  1.00  0.00    -0.294 OA
ATOM     34  C   UNL     1      42.397  15.898  -3.187  1.00  0.00     0.131 C 
BRANCH  27  35
ATOM     35  O   UNL     1      41.291  13.856  -7.024  1.00  0.00    -0.507 OA
ATOM     36  H   UNL     1      41.254  13.836  -8.067  1.00  0.00     0.293 HD
ENDBRANCH  27  35
BRANCH  32  37
ATOM     37  C   UNL     1      42.323  18.435  -3.511  1.00  0.00    -0.007 A 
ATOM     38  C   UNL     1      42.765  19.792  -3.697  1.00  0.00     0.011 A 
ATOM     39  C   UNL     1      41.162  18.357  -2.708  1.00  0.00     0.011 A 
ATOM     40  C   UNL     1      42.284  20.839  -2.865  1.00  0.00     0.046 A 
ATOM     41  C   UNL     1      41.114  19.168  -1.562  1.00  0.00     0.046 A 
ATOM     42  C   UNL     1      41.604  20.452  -1.675  1.00  0.00     0.115 A 
BRANCH  42  43
ATOM     43  O   UNL     1      41.384  21.317  -0.611  1.00  0.00    -0.508 OA
ATOM     44  H   UNL     1      40.475  21.856  -0.536  1.00  0.00     0.293 HD
ENDBRANCH  42  43
ENDBRANCH  32  37
ENDBRANCH  23  24
ENDBRANCH   6  23
BRANCH   3  45
ATOM     45  O   UNL     1      47.791  13.630  -0.694  1.00  0.00    -0.387 OA
ATOM     46  H   UNL     1      48.115  12.961  -0.060  1.00  0.00     0.211 HD
ENDBRANCH   3  45
BRANCH   4  47
ATOM     47  C   UNL     1      46.728  10.879  -0.585  1.00  0.00     0.191 C 
BRANCH  47  48
ATOM     48  O   UNL     1      48.066  10.876  -0.152  1.00  0.00    -0.394 OA
ATOM     49  H   UNL     1      48.500  11.701  -0.446  1.00  0.00     0.210 HD
ENDBRANCH  47  48
ENDBRANCH   4  47
TORSDOF 14
ENDMDL
MODEL 6
REMARK VINA RESULT:    -4.646      2.021      3.169
REMARK INTER + INTRA:          -8.735
REMARK INTER:                  -7.538
REMARK INTRA:                  -1.197
REMARK UNBOUND:                -1.374
REMARK SMILES C[C@H]1O[C@@H](O[C@@H]2[C@H](Oc3cc(O)c4c(c3)O[C@@H](c3ccc(O)cc3)CC4=O)O[C@@H](CO)[C@H](O)[C@H]2O)[C@H](O)[C@@H](O)[C@H]1O
REMARK SMILES IDX 6 1 34 2 32 3 29 4 28 5 7 6 5 7 4 8 1 9 2 10 40 11 3 12
REMARK SMILES IDX 38 13 36 14 41 15 39 17 37 19 35 21 8 23 9 24 10 25 15 26
REMARK SMILES IDX 11 27 14 28 13 29 16 30 26 31 17 32 27 33 25 34 12 35 18 37
REMARK SMILES IDX 19 38 24 39 20 40 23 41 21 42 22 43 33 45 30 47 31 48
REMARK H PARENT 41 16 39 18 37 20 35 22 12 36 22 44 33 46 31 49
REMARK Flexibility Score: inf
ROOT
ATOM      1  C   UNL     1      47.769  13.878  -5.541  1.00  0.00     0.221 C 
ATOM      2  C   UNL     1      47.838  14.308  -4.060  1.00  0.00     0.181 C 
ATOM      3  C   UNL     1      47.332  13.183  -3.142  1.00  0.00     0.177 C 
ATOM      4  C   UNL     1      45.943  12.683  -3.624  1.00  0.00     0.179 C 
ATOM      5  O   UNL     1      45.974  12.229  -5.025  1.00  0.00    -0.332 OA
ATOM      6  C   UNL     1      46.400  13.278  -5.900  1.00  0.00     0.339 C 
ENDROOT
BRANCH   1   7
ATOM      7  O   UNL     1      48.229  14.721  -6.606  1.00  0.00    -0.337 OA
BRANCH   7   8
ATOM      8  C   UNL     1      49.553  14.876  -7.125  1.00  0.00     0.282 C 
ATOM      9  C   UNL     1      51.915  11.908  -7.125  1.00  0.00     0.041 C 
ATOM     10  C   UNL     1      51.540  13.399  -7.029  1.00  0.00     0.150 C 
ATOM     11  C   UNL     1      52.015  13.984  -5.702  1.00  0.00     0.174 C 
ATOM     12  O   UNL     1      50.114  13.527  -7.078  1.00  0.00    -0.344 OA
ATOM     13  C   UNL     1      51.679  15.489  -5.728  1.00  0.00     0.179 C 
ATOM     14  C   UNL     1      50.319  15.907  -6.228  1.00  0.00     0.202 C 
BRANCH  11  15
ATOM     15  O   UNL     1      51.465  13.315  -4.616  1.00  0.00    -0.388 OA
ATOM     16  H   UNL     1      51.655  12.338  -4.715  1.00  0.00     0.211 HD
ENDBRANCH  11  15
BRANCH  13  17
ATOM     17  O   UNL     1      51.835  15.990  -4.406  1.00  0.00    -0.387 OA
ATOM     18  H   UNL     1      51.401  16.876  -4.371  1.00  0.00     0.211 HD
ENDBRANCH  13  17
BRANCH  14  19
ATOM     19  O   UNL     1      50.453  17.072  -6.980  1.00  0.00    -0.385 OA
ATOM     20  H   UNL     1      51.190  16.898  -7.644  1.00  0.00     0.211 HD
ENDBRANCH  14  19
ENDBRANCH   7   8
ENDBRANCH   1   7
BRANCH   2  21
ATOM     21  O   UNL     1      49.138  14.579  -3.612  1.00  0.00    -0.387 OA
ATOM     22  H   UNL     1      49.189  14.342  -2.595  1.00  0.00     0.211 HD
ENDBRANCH   2  21
BRANCH   6  23
ATOM     23  O   UNL     1      45.318  14.261  -6.082  1.00  0.00    -0.462 OA
BRANCH  23  24
ATOM     24  C   UNL     1      45.444  15.577  -5.514  1.00  0.00     0.130 A 
ATOM     25  C   UNL     1      46.099  16.577  -6.259  1.00  0.00     0.093 A 
ATOM     26  C   UNL     1      44.730  15.978  -4.369  1.00  0.00     0.094 A 
ATOM     27  C   UNL     1      45.617  17.869  -6.188  1.00  0.00     0.133 A 
ATOM     28  C   UNL     1      44.258  17.328  -4.264  1.00  0.00     0.138 A 
ATOM     29  C   UNL     1      44.502  18.136  -5.399  1.00  0.00     0.102 A 
ATOM     30  O   UNL     1      43.097  17.589  -3.513  1.00  0.00    -0.484 OA
ATOM     31  C   UNL     1      43.223  18.180  -6.187  1.00  0.00     0.174 C 
ATOM     32  C   UNL     1      41.843  17.637  -4.234  1.00  0.00     0.211 C 
ATOM     33  O   UNL     1      42.983  19.092  -7.003  1.00  0.00    -0.294 OA
ATOM     34  C   UNL     1      42.117  17.251  -5.732  1.00  0.00     0.131 C 
BRANCH  27  35
ATOM     35  O   UNL     1      46.082  18.826  -7.113  1.00  0.00    -0.507 OA
ATOM     36  H   UNL     1      46.761  19.576  -6.854  1.00  0.00     0.293 HD
ENDBRANCH  27  35
BRANCH  32  37
ATOM     37  C   UNL     1      41.052  18.913  -4.103  1.00  0.00    -0.007 A 
ATOM     38  C   UNL     1      40.066  19.395  -5.035  1.00  0.00     0.011 A 
ATOM     39  C   UNL     1      41.737  19.967  -3.458  1.00  0.00     0.011 A 
ATOM     40  C   UNL     1      40.077  20.745  -5.478  1.00  0.00     0.046 A 
ATOM     41  C   UNL     1      42.138  21.057  -4.248  1.00  0.00     0.046 A 
ATOM     42  C   UNL     1      41.254  21.500  -5.210  1.00  0.00     0.115 A 
BRANCH  42  43
ATOM     43  O   UNL     1      41.558  22.690  -5.859  1.00  0.00    -0.508 OA
ATOM     44  H   UNL     1      42.501  23.152  -5.720  1.00  0.00     0.293 HD
ENDBRANCH  42  43
ENDBRANCH  32  37
ENDBRANCH  23  24
ENDBRANCH   6  23
BRANCH   3  45
ATOM     45  O   UNL     1      47.339  13.558  -1.784  1.00  0.00    -0.387 OA
ATOM     46  H   UNL     1      46.992  12.758  -1.345  1.00  0.00     0.211 HD
ENDBRANCH   3  45
BRANCH   4  47
ATOM     47  C   UNL     1      45.498  11.471  -2.767  1.00  0.00     0.191 C 
BRANCH  47  48
ATOM     48  O   UNL     1      46.376  11.186  -1.705  1.00  0.00    -0.394 OA
ATOM     49  H   UNL     1      46.976  10.462  -1.971  1.00  0.00     0.210 HD
ENDBRANCH  47  48
ENDBRANCH   4  47
TORSDOF 14
ENDMDL
MODEL 7
REMARK VINA RESULT:    -4.606      2.078      8.635
REMARK INTER + INTRA:          -8.673
REMARK INTER:                  -8.333
REMARK INTRA:                  -0.340
REMARK UNBOUND:                -1.374
REMARK SMILES C[C@H]1O[C@@H](O[C@@H]2[C@H](Oc3cc(O)c4c(c3)O[C@@H](c3ccc(O)cc3)CC4=O)O[C@@H](CO)[C@H](O)[C@H]2O)[C@H](O)[C@@H](O)[C@H]1O
REMARK SMILES IDX 6 1 34 2 32 3 29 4 28 5 7 6 5 7 4 8 1 9 2 10 40 11 3 12
REMARK SMILES IDX 38 13 36 14 41 15 39 17 37 19 35 21 8 23 9 24 10 25 15 26
REMARK SMILES IDX 11 27 14 28 13 29 16 30 26 31 17 32 27 33 25 34 12 35 18 37
REMARK SMILES IDX 19 38 24 39 20 40 23 41 21 42 22 43 33 45 30 47 31 48
REMARK H PARENT 41 16 39 18 37 20 35 22 12 36 22 44 33 46 31 49
REMARK Flexibility Score: inf
ROOT
ATOM      1  C   UNL     1      41.555  15.821  -3.410  1.00  0.00     0.221 C 
ATOM      2  C   UNL     1      41.175  16.096  -4.881  1.00  0.00     0.181 C 
ATOM      3  C   UNL     1      41.208  14.799  -5.704  1.00  0.00     0.177 C 
ATOM      4  C   UNL     1      42.559  14.064  -5.494  1.00  0.00     0.179 C 
ATOM      5  O   UNL     1      42.819  13.779  -4.073  1.00  0.00    -0.332 OA
ATOM      6  C   UNL     1      42.837  14.981  -3.297  1.00  0.00     0.339 C 
ENDROOT
BRANCH   1   7
ATOM      7  O   UNL     1      41.555  16.851  -2.413  1.00  0.00    -0.337 OA
BRANCH   7   8
ATOM      8  C   UNL     1      41.066  18.193  -2.502  1.00  0.00     0.282 C 
ATOM      9  C   UNL     1      41.913  20.284  -5.552  1.00  0.00     0.041 C 
ATOM     10  C   UNL     1      41.613  20.040  -4.060  1.00  0.00     0.150 C 
ATOM     11  C   UNL     1      42.766  20.541  -3.195  1.00  0.00     0.174 C 
ATOM     12  O   UNL     1      41.476  18.632  -3.835  1.00  0.00    -0.344 OA
ATOM     13  C   UNL     1      42.345  20.339  -1.726  1.00  0.00     0.179 C 
ATOM     14  C   UNL     1      41.703  19.030  -1.342  1.00  0.00     0.202 C 
BRANCH  11  15
ATOM     15  O   UNL     1      43.963  19.915  -3.518  1.00  0.00    -0.388 OA
ATOM     16  H   UNL     1      44.715  20.439  -3.117  1.00  0.00     0.211 HD
ENDBRANCH  11  15
BRANCH  13  17
ATOM     17  O   UNL     1      43.502  20.515  -0.917  1.00  0.00    -0.387 OA
ATOM     18  H   UNL     1      44.242  20.784  -1.511  1.00  0.00     0.211 HD
ENDBRANCH  13  17
BRANCH  14  19
ATOM     19  O   UNL     1      40.686  19.279  -0.422  1.00  0.00    -0.385 OA
ATOM     20  H   UNL     1      41.015  18.937   0.465  1.00  0.00     0.211 HD
ENDBRANCH  14  19
ENDBRANCH   7   8
ENDBRANCH   1   7
BRANCH   2  21
ATOM     21  O   UNL     1      39.876  16.593  -5.043  1.00  0.00    -0.387 OA
ATOM     22  H   UNL     1      39.509  16.255  -5.964  1.00  0.00     0.211 HD
ENDBRANCH   2  21
BRANCH   6  23
ATOM     23  O   UNL     1      44.089  15.721  -3.535  1.00  0.00    -0.462 OA
BRANCH  23  24
ATOM     24  C   UNL     1      45.355  15.063  -3.352  1.00  0.00     0.130 A 
ATOM     25  C   UNL     1      45.390  13.655  -3.321  1.00  0.00     0.093 A 
ATOM     26  C   UNL     1      46.582  15.744  -3.453  1.00  0.00     0.094 A 
ATOM     27  C   UNL     1      46.468  13.014  -3.899  1.00  0.00     0.133 A 
ATOM     28  C   UNL     1      47.721  15.077  -4.014  1.00  0.00     0.138 A 
ATOM     29  C   UNL     1      47.469  13.772  -4.498  1.00  0.00     0.102 A 
ATOM     30  O   UNL     1      48.704  15.839  -4.671  1.00  0.00    -0.484 OA
ATOM     31  C   UNL     1      47.307  13.882  -5.989  1.00  0.00     0.174 C 
ATOM     32  C   UNL     1      48.584  15.972  -6.108  1.00  0.00     0.211 C 
ATOM     33  O   UNL     1      47.466  12.902  -6.743  1.00  0.00    -0.294 OA
ATOM     34  C   UNL     1      47.247  15.284  -6.560  1.00  0.00     0.131 C 
BRANCH  27  35
ATOM     35  O   UNL     1      46.402  11.621  -4.113  1.00  0.00    -0.507 OA
ATOM     36  H   UNL     1      46.732  10.927  -3.406  1.00  0.00     0.293 HD
ENDBRANCH  27  35
BRANCH  32  37
ATOM     37  C   UNL     1      49.770  15.515  -6.917  1.00  0.00    -0.007 A 
ATOM     38  C   UNL     1      50.320  14.185  -6.932  1.00  0.00     0.011 A 
ATOM     39  C   UNL     1      50.758  16.503  -7.125  1.00  0.00     0.011 A 
ATOM     40  C   UNL     1      51.719  13.970  -6.807  1.00  0.00     0.046 A 
ATOM     41  C   UNL     1      51.979  16.349  -6.448  1.00  0.00     0.046 A 
ATOM     42  C   UNL     1      52.502  15.075  -6.368  1.00  0.00     0.115 A 
BRANCH  42  43
ATOM     43  O   UNL     1      53.793  14.943  -5.874  1.00  0.00    -0.508 OA
ATOM     44  H   UNL     1      54.629  15.123  -6.500  1.00  0.00     0.293 HD
ENDBRANCH  42  43
ENDBRANCH  32  37
ENDBRANCH  23  24
ENDBRANCH   6  23
BRANCH   3  45
ATOM     45  O   UNL     1      40.909  15.020  -7.063  1.00  0.00    -0.387 OA
ATOM     46  H   UNL     1      40.487  14.179  -7.323  1.00  0.00     0.211 HD
ENDBRANCH   3  45
BRANCH   4  47
ATOM     47  C   UNL     1      42.534  12.701  -6.231  1.00  0.00     0.191 C 
BRANCH  47  48
ATOM     48  O   UNL     1      41.236  12.189  -6.412  1.00  0.00    -0.394 OA
ATOM     49  H   UNL     1      41.238  11.573  -7.171  1.00  0.00     0.210 HD
ENDBRANCH  47  48
ENDBRANCH   4  47
TORSDOF 14
ENDMDL
MODEL 8
REMARK VINA RESULT:    -4.573      1.619      2.212
REMARK INTER + INTRA:          -8.620
REMARK INTER:                  -8.237
REMARK INTRA:                  -0.382
REMARK UNBOUND:                -1.374
REMARK SMILES C[C@H]1O[C@@H](O[C@@H]2[C@H](Oc3cc(O)c4c(c3)O[C@@H](c3ccc(O)cc3)CC4=O)O[C@@H](CO)[C@H](O)[C@H]2O)[C@H](O)[C@@H](O)[C@H]1O
REMARK SMILES IDX 6 1 34 2 32 3 29 4 28 5 7 6 5 7 4 8 1 9 2 10 40 11 3 12
REMARK SMILES IDX 38 13 36 14 41 15 39 17 37 19 35 21 8 23 9 24 10 25 15 26
REMARK SMILES IDX 11 27 14 28 13 29 16 30 26 31 17 32 27 33 25 34 12 35 18 37
REMARK SMILES IDX 19 38 24 39 20 40 23 41 21 42 22 43 33 45 30 47 31 48
REMARK H PARENT 41 16 39 18 37 20 35 22 12 36 22 44 33 46 31 49
REMARK Flexibility Score: inf
ROOT
ATOM      1  C   UNL     1      47.611  12.314  -5.970  1.00  0.00     0.221 C 
ATOM      2  C   UNL     1      47.948  12.582  -4.488  1.00  0.00     0.181 C 
ATOM      3  C   UNL     1      47.083  11.708  -3.566  1.00  0.00     0.177 C 
ATOM      4  C   UNL     1      45.583  11.852  -3.942  1.00  0.00     0.179 C 
ATOM      5  O   UNL     1      45.332  11.517  -5.354  1.00  0.00    -0.332 OA
ATOM      6  C   UNL     1      46.096  12.352  -6.230  1.00  0.00     0.339 C 
ENDROOT
BRANCH   1   7
ATOM      7  O   UNL     1      48.307  12.961  -7.044  1.00  0.00    -0.337 OA
BRANCH   7   8
ATOM      8  C   UNL     1      48.824  14.294  -7.111  1.00  0.00     0.282 C 
ATOM      9  C   UNL     1      52.561  14.861  -6.779  1.00  0.00     0.041 C 
ATOM     10  C   UNL     1      51.070  15.212  -6.608  1.00  0.00     0.150 C 
ATOM     11  C   UNL     1      50.741  15.437  -5.135  1.00  0.00     0.174 C 
ATOM     12  O   UNL     1      50.275  14.114  -7.071  1.00  0.00    -0.344 OA
ATOM     13  C   UNL     1      49.261  15.866  -5.066  1.00  0.00     0.179 C 
ATOM     14  C   UNL     1      48.259  15.105  -5.897  1.00  0.00     0.202 C 
BRANCH  11  15
ATOM     15  O   UNL     1      51.027  14.317  -4.365  1.00  0.00    -0.388 OA
ATOM     16  H   UNL     1      51.044  14.588  -3.402  1.00  0.00     0.211 HD
ENDBRANCH  11  15
BRANCH  13  17
ATOM     17  O   UNL     1      48.852  15.792  -3.706  1.00  0.00    -0.387 OA
ATOM     18  H   UNL     1      48.643  16.709  -3.408  1.00  0.00     0.211 HD
ENDBRANCH  13  17
BRANCH  14  19
ATOM     19  O   UNL     1      47.327  16.004  -6.414  1.00  0.00    -0.385 OA
ATOM     20  H   UNL     1      47.717  16.923  -6.285  1.00  0.00     0.211 HD
ENDBRANCH  14  19
ENDBRANCH   7   8
ENDBRANCH   1   7
BRANCH   2  21
ATOM     21  O   UNL     1      49.269  12.268  -4.146  1.00  0.00    -0.387 OA
ATOM     22  H   UNL     1      49.748  11.895  -4.998  1.00  0.00     0.211 HD
ENDBRANCH   2  21
BRANCH   6  23
ATOM     23  O   UNL     1      45.508  13.702  -6.287  1.00  0.00    -0.462 OA
BRANCH  23  24
ATOM     24  C   UNL     1      44.626  14.143  -5.239  1.00  0.00     0.130 A 
ATOM     25  C   UNL     1      45.181  14.535  -4.005  1.00  0.00     0.093 A 
ATOM     26  C   UNL     1      43.269  14.439  -5.468  1.00  0.00     0.094 A 
ATOM     27  C   UNL     1      44.603  15.594  -3.334  1.00  0.00     0.133 A 
ATOM     28  C   UNL     1      42.645  15.511  -4.748  1.00  0.00     0.138 A 
ATOM     29  C   UNL     1      43.509  16.242  -3.899  1.00  0.00     0.102 A 
ATOM     30  O   UNL     1      41.576  16.203  -5.345  1.00  0.00    -0.484 OA
ATOM     31  C   UNL     1      43.886  17.496  -4.635  1.00  0.00     0.174 C 
ATOM     32  C   UNL     1      41.897  17.416  -6.066  1.00  0.00     0.211 C 
ATOM     33  O   UNL     1      44.299  18.511  -4.040  1.00  0.00    -0.294 OA
ATOM     34  C   UNL     1      43.459  17.584  -6.086  1.00  0.00     0.131 C 
BRANCH  27  35
ATOM     35  O   UNL     1      45.288  16.169  -2.243  1.00  0.00    -0.507 OA
ATOM     36  H   UNL     1      44.824  16.813  -1.564  1.00  0.00     0.293 HD
ENDBRANCH  27  35
BRANCH  32  37
ATOM     37  C   UNL     1      41.189  18.665  -5.610  1.00  0.00    -0.007 A 
ATOM     38  C   UNL     1      41.653  20.015  -5.795  1.00  0.00     0.011 A 
ATOM     39  C   UNL     1      40.441  18.517  -4.419  1.00  0.00     0.011 A 
ATOM     40  C   UNL     1      41.647  20.946  -4.721  1.00  0.00     0.046 A 
ATOM     41  C   UNL     1      40.931  19.150  -3.265  1.00  0.00     0.046 A 
ATOM     42  C   UNL     1      41.460  20.415  -3.413  1.00  0.00     0.115 A 
BRANCH  42  43
ATOM     43  O   UNL     1      41.766  21.120  -2.256  1.00  0.00    -0.508 OA
ATOM     44  H   UNL     1      42.390  21.975  -2.297  1.00  0.00     0.293 HD
ENDBRANCH  42  43
ENDBRANCH  32  37
ENDBRANCH  23  24
ENDBRANCH   6  23
BRANCH   3  45
ATOM     45  O   UNL     1      47.333  11.959  -2.202  1.00  0.00    -0.387 OA
ATOM     46  H   UNL     1      46.462  12.264  -1.884  1.00  0.00     0.211 HD
ENDBRANCH   3  45
BRANCH   4  47
ATOM     47  C   UNL     1      44.734  10.878  -3.088  1.00  0.00     0.191 C 
BRANCH  47  48
ATOM     48  O   UNL     1      43.504  11.422  -2.678  1.00  0.00    -0.394 OA
ATOM     49  H   UNL     1      43.469  11.438  -1.701  1.00  0.00     0.210 HD
ENDBRANCH  47  48
ENDBRANCH   4  47
TORSDOF 14
ENDMDL
MODEL 9
REMARK VINA RESULT:    -4.150      2.054      4.004
REMARK INTER + INTRA:          -7.949
REMARK INTER:                  -7.025
REMARK INTRA:                  -0.924
REMARK UNBOUND:                -1.374
REMARK SMILES C[C@H]1O[C@@H](O[C@@H]2[C@H](Oc3cc(O)c4c(c3)O[C@@H](c3ccc(O)cc3)CC4=O)O[C@@H](CO)[C@H](O)[C@H]2O)[C@H](O)[C@@H](O)[C@H]1O
REMARK SMILES IDX 6 1 34 2 32 3 29 4 28 5 7 6 5 7 4 8 1 9 2 10 40 11 3 12
REMARK SMILES IDX 38 13 36 14 41 15 39 17 37 19 35 21 8 23 9 24 10 25 15 26
REMARK SMILES IDX 11 27 14 28 13 29 16 30 26 31 17 32 27 33 25 34 12 35 18 37
REMARK SMILES IDX 19 38 24 39 20 40 23 41 21 42 22 43 33 45 30 47 31 48
REMARK H PARENT 41 16 39 18 37 20 35 22 12 36 22 44 33 46 31 49
REMARK Flexibility Score: inf
ROOT
ATOM      1  C   UNL     1      45.108  11.965  -5.917  1.00  0.00     0.221 C 
ATOM      2  C   UNL     1      44.447  11.904  -4.523  1.00  0.00     0.181 C 
ATOM      3  C   UNL     1      43.111  11.145  -4.586  1.00  0.00     0.177 C 
ATOM      4  C   UNL     1      42.220  11.723  -5.718  1.00  0.00     0.179 C 
ATOM      5  O   UNL     1      42.894  11.688  -7.027  1.00  0.00    -0.332 OA
ATOM      6  C   UNL     1      44.120  12.427  -7.000  1.00  0.00     0.339 C 
ENDROOT
BRANCH   1   7
ATOM      7  O   UNL     1      46.389  12.572  -6.132  1.00  0.00    -0.337 OA
BRANCH   7   8
ATOM      8  C   UNL     1      47.596  12.422  -5.378  1.00  0.00     0.282 C 
ATOM      9  C   UNL     1      47.689  13.567  -1.763  1.00  0.00     0.041 C 
ATOM     10  C   UNL     1      48.272  13.308  -3.165  1.00  0.00     0.150 C 
ATOM     11  C   UNL     1      48.829  14.599  -3.759  1.00  0.00     0.174 C 
ATOM     12  O   UNL     1      47.227  12.845  -4.028  1.00  0.00    -0.344 OA
ATOM     13  C   UNL     1      49.467  14.232  -5.114  1.00  0.00     0.179 C 
ATOM     14  C   UNL     1      48.703  13.313  -6.035  1.00  0.00     0.202 C 
BRANCH  11  15
ATOM     15  O   UNL     1      47.856  15.585  -3.855  1.00  0.00    -0.388 OA
ATOM     16  H   UNL     1      47.269  15.378  -4.638  1.00  0.00     0.211 HD
ENDBRANCH  11  15
BRANCH  13  17
ATOM     17  O   UNL     1      49.722  15.443  -5.814  1.00  0.00    -0.387 OA
ATOM     18  H   UNL     1      50.211  16.042  -5.202  1.00  0.00     0.211 HD
ENDBRANCH  13  17
BRANCH  14  19
ATOM     19  O   UNL     1      49.603  12.446  -6.653  1.00  0.00    -0.385 OA
ATOM     20  H   UNL     1      50.498  12.613  -6.225  1.00  0.00     0.211 HD
ENDBRANCH  14  19
ENDBRANCH   7   8
ENDBRANCH   1   7
BRANCH   2  21
ATOM     21  O   UNL     1      45.207  11.213  -3.570  1.00  0.00    -0.387 OA
ATOM     22  H   UNL     1      45.316  10.224  -3.893  1.00  0.00     0.211 HD
ENDBRANCH   2  21
BRANCH   6  23
ATOM     23  O   UNL     1      43.841  13.874  -7.011  1.00  0.00    -0.462 OA
BRANCH  23  24
ATOM     24  C   UNL     1      44.598  14.756  -6.163  1.00  0.00     0.130 A 
ATOM     25  C   UNL     1      45.640  15.513  -6.730  1.00  0.00     0.093 A 
ATOM     26  C   UNL     1      44.188  15.084  -4.857  1.00  0.00     0.094 A 
ATOM     27  C   UNL     1      45.844  16.798  -6.267  1.00  0.00     0.133 A 
ATOM     28  C   UNL     1      44.430  16.402  -4.348  1.00  0.00     0.138 A 
ATOM     29  C   UNL     1      45.013  17.301  -5.272  1.00  0.00     0.102 A 
ATOM     30  O   UNL     1      43.554  16.933  -3.383  1.00  0.00    -0.484 OA
ATOM     31  C   UNL     1      43.900  18.154  -5.813  1.00  0.00     0.174 C 
ATOM     32  C   UNL     1      42.466  17.759  -3.864  1.00  0.00     0.211 C 
ATOM     33  O   UNL     1      44.115  19.268  -6.330  1.00  0.00    -0.294 OA
ATOM     34  C   UNL     1      42.491  17.747  -5.435  1.00  0.00     0.131 C 
BRANCH  27  35
ATOM     35  O   UNL     1      46.697  17.659  -6.988  1.00  0.00    -0.507 OA
ATOM     36  H   UNL     1      46.712  17.691  -8.032  1.00  0.00     0.293 HD
ENDBRANCH  27  35
BRANCH  32  37
ATOM     37  C   UNL     1      42.393  19.153  -3.299  1.00  0.00    -0.007 A 
ATOM     38  C   UNL     1      43.140  19.649  -2.173  1.00  0.00     0.011 A 
ATOM     39  C   UNL     1      41.126  19.770  -3.411  1.00  0.00     0.011 A 
ATOM     40  C   UNL     1      42.502  20.384  -1.138  1.00  0.00     0.046 A 
ATOM     41  C   UNL     1      40.387  19.949  -2.230  1.00  0.00     0.046 A 
ATOM     42  C   UNL     1      41.079  20.345  -1.106  1.00  0.00     0.115 A 
BRANCH  42  43
ATOM     43  O   UNL     1      40.334  20.709   0.009  1.00  0.00    -0.508 OA
ATOM     44  H   UNL     1      40.746  21.350   0.745  1.00  0.00     0.293 HD
ENDBRANCH  42  43
ENDBRANCH  32  37
ENDBRANCH  23  24
ENDBRANCH   6  23
BRANCH   3  45
ATOM     45  O   UNL     1      42.458  11.109  -3.338  1.00  0.00    -0.387 OA
ATOM     46  H   UNL     1      41.837  11.859  -3.407  1.00  0.00     0.211 HD
ENDBRANCH   3  45
BRANCH   4  47
ATOM     47  C   UNL     1      40.930  10.876  -5.852  1.00  0.00     0.191 C 
BRANCH  47  48
ATOM     48  O   UNL     1      40.048  11.026  -4.767  1.00  0.00    -0.394 OA
ATOM     49  H   UNL     1      40.280  11.839  -4.275  1.00  0.00     0.210 HD
ENDBRANCH  47  48
ENDBRANCH   4  47
TORSDOF 14
ENDMDL
