MODEL 1
REMARK VINA RESULT:    -3.520      0.000      0.000
REMARK INTER + INTRA:          -4.472
REMARK INTER:                  -4.343
REMARK INTRA:                  -0.129
REMARK UNBOUND:                -0.129
REMARK SMILES CCCCCC(=O)[O-]
REMARK SMILES IDX 4 1 5 2 6 3 7 4 8 5 3 6 2 7 1 8
REMARK H PARENT
REMARK Flexibility Score: inf
ROOT
ATOM      1  C   UNL     1     -10.367  -3.727 -16.420  1.00  0.00     0.006 C 
ENDROOT
BRANCH   1   2
ATOM      2  C   UNL     1     -11.397  -4.839 -16.200  1.00  0.00     0.053 C 
BRANCH   2   3
ATOM      3  C   UNL     1     -12.482  -4.375 -15.282  1.00  0.00     0.041 C 
ATOM      4  O   UNL     1     -13.400  -3.627 -15.712  1.00  0.00    -0.550 OA
ATOM      5  O   UNL     1     -12.456  -4.729 -13.938  1.00  0.00    -0.550 OA
ENDBRANCH   2   3
ENDBRANCH   1   2
BRANCH   1   6
ATOM      6  C   UNL     1      -9.017  -4.096 -15.789  1.00  0.00     0.000 C 
BRANCH   6   7
ATOM      7  C   UNL     1      -8.892  -3.614 -14.336  1.00  0.00    -0.003 C 
ATOM      8  C   UNL     1      -7.558  -2.923 -14.055  1.00  0.00     0.004 C 
ENDBRANCH   6   7
ENDBRANCH   1   6
TORSDOF 4
ENDMDL
MODEL 2
REMARK VINA RESULT:    -3.493      2.445      3.946
REMARK INTER + INTRA:          -4.439
REMARK INTER:                  -4.249
REMARK INTRA:                  -0.190
REMARK UNBOUND:                -0.129
REMARK SMILES CCCCCC(=O)[O-]
REMARK SMILES IDX 4 1 5 2 6 3 7 4 8 5 3 6 2 7 1 8
REMARK H PARENT
REMARK Flexibility Score: inf
ROOT
ATOM      1  C   UNL     1     -11.230  -4.915 -16.203  1.00  0.00     0.006 C 
ENDROOT
BRANCH   1   2
ATOM      2  C   UNL     1     -10.356  -3.658 -16.163  1.00  0.00     0.053 C 
BRANCH   2   3
ATOM      3  C   UNL     1      -9.054  -3.945 -15.484  1.00  0.00     0.041 C 
ATOM      4  O   UNL     1      -8.241  -4.762 -15.992  1.00  0.00    -0.550 OA
ATOM      5  O   UNL     1      -8.758  -3.349 -14.265  1.00  0.00    -0.550 OA
ENDBRANCH   2   3
ENDBRANCH   1   2
BRANCH   1   6
ATOM      6  C   UNL     1     -11.627  -5.353 -14.786  1.00  0.00     0.000 C 
BRANCH   6   7
ATOM      7  C   UNL     1     -12.563  -4.349 -14.098  1.00  0.00    -0.003 C 
ATOM      8  C   UNL     1     -13.787  -4.003 -14.947  1.00  0.00     0.004 C 
ENDBRANCH   6   7
ENDBRANCH   1   6
TORSDOF 4
ENDMDL
MODEL 3
REMARK VINA RESULT:    -3.455      8.198      9.365
REMARK INTER + INTRA:          -4.391
REMARK INTER:                  -4.317
REMARK INTRA:                  -0.074
REMARK UNBOUND:                -0.129
REMARK SMILES CCCCCC(=O)[O-]
REMARK SMILES IDX 4 1 5 2 6 3 7 4 8 5 3 6 2 7 1 8
REMARK H PARENT
REMARK Flexibility Score: inf
ROOT
ATOM      1  C   UNL     1      -3.316  -1.422 -17.642  1.00  0.00     0.006 C 
ENDROOT
BRANCH   1   2
ATOM      2  C   UNL     1      -2.906  -1.955 -19.018  1.00  0.00     0.053 C 
BRANCH   2   3
ATOM      3  C   UNL     1      -1.450  -1.713 -19.260  1.00  0.00     0.041 C 
ATOM      4  O   UNL     1      -0.861  -2.293 -20.211  1.00  0.00    -0.550 OA
ATOM      5  O   UNL     1      -0.730  -0.885 -18.408  1.00  0.00    -0.550 OA
ENDBRANCH   2   3
ENDBRANCH   1   2
BRANCH   1   6
ATOM      6  C   UNL     1      -3.651  -2.575 -16.684  1.00  0.00     0.000 C 
BRANCH   6   7
ATOM      7  C   UNL     1      -4.433  -2.106 -15.447  1.00  0.00    -0.003 C 
ATOM      8  C   UNL     1      -5.456  -3.137 -14.970  1.00  0.00     0.004 C 
ENDBRANCH   6   7
ENDBRANCH   1   6
TORSDOF 4
ENDMDL
MODEL 4
REMARK VINA RESULT:    -3.423      2.512      4.170
REMARK INTER + INTRA:          -4.352
REMARK INTER:                  -4.221
REMARK INTRA:                  -0.131
REMARK UNBOUND:                -0.129
REMARK SMILES CCCCCC(=O)[O-]
REMARK SMILES IDX 4 1 5 2 6 3 7 4 8 5 3 6 2 7 1 8
REMARK H PARENT
REMARK Flexibility Score: inf
ROOT
ATOM      1  C   UNL     1     -10.497  -3.755 -16.153  1.00  0.00     0.006 C 
ENDROOT
BRANCH   1   2
ATOM      2  C   UNL     1      -9.070  -4.311 -16.111  1.00  0.00     0.053 C 
BRANCH   2   3
ATOM      3  C   UNL     1      -8.321  -3.744 -14.947  1.00  0.00     0.041 C 
ATOM      4  O   UNL     1      -8.945  -3.295 -13.949  1.00  0.00    -0.550 OA
ATOM      5  O   UNL     1      -6.934  -3.665 -14.984  1.00  0.00    -0.550 OA
ENDBRANCH   2   3
ENDBRANCH   1   2
BRANCH   1   6
ATOM      6  C   UNL     1     -11.527  -4.867 -15.907  1.00  0.00     0.000 C 
BRANCH   6   7
ATOM      7  C   UNL     1     -12.337  -4.646 -14.621  1.00  0.00    -0.003 C 
ATOM      8  C   UNL     1     -13.711  -4.029 -14.886  1.00  0.00     0.004 C 
ENDBRANCH   6   7
ENDBRANCH   1   6
TORSDOF 4
ENDMDL
MODEL 5
REMARK VINA RESULT:    -3.364      6.990      8.798
REMARK INTER + INTRA:          -4.280
REMARK INTER:                  -4.194
REMARK INTRA:                  -0.086
REMARK UNBOUND:                -0.129
REMARK SMILES CCCCCC(=O)[O-]
REMARK SMILES IDX 4 1 5 2 6 3 7 4 8 5 3 6 2 7 1 8
REMARK H PARENT
REMARK Flexibility Score: inf
ROOT
ATOM      1  C   UNL     1      -6.555  -0.493  -9.368  1.00  0.00     0.006 C 
ENDROOT
BRANCH   1   2
ATOM      2  C   UNL     1      -7.297   0.647  -8.663  1.00  0.00     0.053 C 
BRANCH   2   3
ATOM      3  C   UNL     1      -6.494   1.908  -8.716  1.00  0.00     0.041 C 
ATOM      4  O   UNL     1      -5.612   2.135  -7.846  1.00  0.00    -0.550 OA
ATOM      5  O   UNL     1      -6.752   2.856  -9.699  1.00  0.00    -0.550 OA
ENDBRANCH   2   3
ENDBRANCH   1   2
BRANCH   1   6
ATOM      6  C   UNL     1      -6.957  -0.577 -10.848  1.00  0.00     0.000 C 
BRANCH   6   7
ATOM      7  C   UNL     1      -7.352  -2.000 -11.272  1.00  0.00    -0.003 C 
ATOM      8  C   UNL     1      -8.125  -2.030 -12.590  1.00  0.00     0.004 C 
ENDBRANCH   6   7
ENDBRANCH   1   6
TORSDOF 4
ENDMDL
MODEL 6
REMARK VINA RESULT:    -3.248      7.480      8.751
REMARK INTER + INTRA:          -4.137
REMARK INTER:                  -3.909
REMARK INTRA:                  -0.228
REMARK UNBOUND:                -0.129
REMARK SMILES CCCCCC(=O)[O-]
REMARK SMILES IDX 4 1 5 2 6 3 7 4 8 5 3 6 2 7 1 8
REMARK H PARENT
REMARK Flexibility Score: inf
ROOT
ATOM      1  C   UNL     1      -6.220   1.465  -8.842  1.00  0.00     0.006 C 
ENDROOT
BRANCH   1   2
ATOM      2  C   UNL     1      -7.142   0.242  -8.838  1.00  0.00     0.053 C 
BRANCH   2   3
ATOM      3  C   UNL     1      -6.678  -0.769  -9.838  1.00  0.00     0.041 C 
ATOM      4  O   UNL     1      -5.747  -1.566  -9.548  1.00  0.00    -0.550 OA
ATOM      5  O   UNL     1      -7.239  -0.800 -11.108  1.00  0.00    -0.550 OA
ENDBRANCH   2   3
ENDBRANCH   1   2
BRANCH   1   6
ATOM      6  C   UNL     1      -6.829   2.610  -9.663  1.00  0.00     0.000 C 
BRANCH   6   7
ATOM      7  C   UNL     1      -6.237   2.702 -11.078  1.00  0.00    -0.003 C 
ATOM      8  C   UNL     1      -4.858   2.052 -11.185  1.00  0.00     0.004 C 
ENDBRANCH   6   7
ENDBRANCH   1   6
TORSDOF 4
ENDMDL
MODEL 7
REMARK VINA RESULT:    -3.204      7.842      9.072
REMARK INTER + INTRA:          -4.082
REMARK INTER:                  -3.840
REMARK INTRA:                  -0.242
REMARK UNBOUND:                -0.129
REMARK SMILES CCCCCC(=O)[O-]
REMARK SMILES IDX 4 1 5 2 6 3 7 4 8 5 3 6 2 7 1 8
REMARK H PARENT
REMARK Flexibility Score: inf
ROOT
ATOM      1  C   UNL     1      -3.239  -1.267 -17.622  1.00  0.00     0.006 C 
ENDROOT
BRANCH   1   2
ATOM      2  C   UNL     1      -3.836  -2.191 -16.556  1.00  0.00     0.053 C 
BRANCH   2   3
ATOM      3  C   UNL     1      -2.783  -2.618 -15.583  1.00  0.00     0.041 C 
ATOM      4  O   UNL     1      -2.776  -2.154 -14.412  1.00  0.00    -0.550 OA
ATOM      5  O   UNL     1      -1.779  -3.492 -15.983  1.00  0.00    -0.550 OA
ENDBRANCH   2   3
ENDBRANCH   1   2
BRANCH   1   6
ATOM      6  C   UNL     1      -3.056  -2.009 -18.953  1.00  0.00     0.000 C 
BRANCH   6   7
ATOM      7  C   UNL     1      -1.603  -1.979 -19.451  1.00  0.00    -0.003 C 
ATOM      8  C   UNL     1      -0.677  -1.192 -18.524  1.00  0.00     0.004 C 
ENDBRANCH   6   7
ENDBRANCH   1   6
TORSDOF 4
ENDMDL
MODEL 8
REMARK VINA RESULT:    -3.181      8.128      9.121
REMARK INTER + INTRA:          -4.053
REMARK INTER:                  -3.818
REMARK INTRA:                  -0.235
REMARK UNBOUND:                -0.129
REMARK SMILES CCCCCC(=O)[O-]
REMARK SMILES IDX 4 1 5 2 6 3 7 4 8 5 3 6 2 7 1 8
REMARK H PARENT
REMARK Flexibility Score: inf
ROOT
ATOM      1  C   UNL     1      -6.468  -0.470  -9.223  1.00  0.00     0.006 C 
ENDROOT
BRANCH   1   2
ATOM      2  C   UNL     1      -7.370   0.663  -8.725  1.00  0.00     0.053 C 
BRANCH   2   3
ATOM      3  C   UNL     1      -6.627   1.960  -8.717  1.00  0.00     0.041 C 
ATOM      4  O   UNL     1      -6.917   2.862  -9.547  1.00  0.00    -0.550 OA
ATOM      5  O   UNL     1      -5.580   2.157  -7.825  1.00  0.00    -0.550 OA
ENDBRANCH   2   3
ENDBRANCH   1   2
BRANCH   1   6
ATOM      6  C   UNL     1      -6.372  -0.463 -10.756  1.00  0.00     0.000 C 
BRANCH   6   7
ATOM      7  C   UNL     1      -4.921  -0.503 -11.257  1.00  0.00    -0.003 C 
ATOM      8  C   UNL     1      -4.248   0.869 -11.229  1.00  0.00     0.004 C 
ENDBRANCH   6   7
ENDBRANCH   1   6
TORSDOF 4
ENDMDL
MODEL 9
REMARK VINA RESULT:    -3.161      7.966      9.221
REMARK INTER + INTRA:          -4.029
REMARK INTER:                  -3.837
REMARK INTRA:                  -0.192
REMARK UNBOUND:                -0.129
REMARK SMILES CCCCCC(=O)[O-]
REMARK SMILES IDX 4 1 5 2 6 3 7 4 8 5 3 6 2 7 1 8
REMARK H PARENT
REMARK Flexibility Score: inf
ROOT
ATOM      1  C   UNL     1      -1.729  -1.477 -18.088  1.00  0.00     0.006 C 
ENDROOT
BRANCH   1   2
ATOM      2  C   UNL     1      -3.238  -1.402 -17.839  1.00  0.00     0.053 C 
BRANCH   2   3
ATOM      3  C   UNL     1      -3.655  -2.424 -16.829  1.00  0.00     0.041 C 
ATOM      4  O   UNL     1      -3.407  -3.644 -17.022  1.00  0.00    -0.550 OA
ATOM      5  O   UNL     1      -4.360  -2.037 -15.696  1.00  0.00    -0.550 OA
ENDBRANCH   2   3
ENDBRANCH   1   2
BRANCH   1   6
ATOM      6  C   UNL     1      -1.432  -1.911 -19.531  1.00  0.00     0.000 C 
BRANCH   6   7
ATOM      7  C   UNL     1      -0.231  -2.863 -19.626  1.00  0.00    -0.003 C 
ATOM      8  C   UNL     1      -0.114  -3.789 -18.415  1.00  0.00     0.004 C 
ENDBRANCH   6   7
ENDBRANCH   1   6
TORSDOF 4
ENDMDL
