MODEL 1
REMARK VINA RESULT:     5.014      0.000      0.000
REMARK INTER + INTRA:           5.421
REMARK INTER:                   5.453
REMARK INTRA:                  -0.032
REMARK UNBOUND:                -0.032
REMARK SMILES O=C([O-])c1ccc(O)cc1
REMARK SMILES IDX 4 1 5 2 10 3 6 4 9 5 7 6 2 7 1 8 3 9 8 10
REMARK H PARENT 8 11
REMARK Flexibility Score: inf
ROOT
ATOM      1  C   UNL     1     -37.244  17.038  17.838  1.00  0.00    -0.003 A 
ATOM      2  C   UNL     1     -37.113  18.440  17.826  1.00  0.00     0.014 A 
ATOM      3  C   UNL     1     -36.083  16.244  17.824  1.00  0.00     0.014 A 
ATOM      4  C   UNL     1     -35.846  19.031  17.799  1.00  0.00     0.047 A 
ATOM      5  C   UNL     1     -34.819  16.841  17.796  1.00  0.00     0.047 A 
ATOM      6  C   UNL     1     -34.697  18.236  17.784  1.00  0.00     0.115 A 
ENDROOT
BRANCH   1   7
ATOM      7  C   UNL     1     -38.581  16.405  17.866  1.00  0.00     0.071 C 
ATOM      8  O   UNL     1     -38.778  15.353  18.531  1.00  0.00    -0.545 OA
ATOM      9  O   UNL     1     -39.639  16.963  17.159  1.00  0.00    -0.545 OA
ENDBRANCH   1   7
BRANCH   6  10
ATOM     10  O   UNL     1     -33.442  18.839  17.757  1.00  0.00    -0.508 OA
ATOM     11  H   UNL     1     -32.870  18.913  18.590  1.00  0.00     0.293 HD
ENDBRANCH   6  10
TORSDOF 2
ENDMDL
MODEL 2
REMARK VINA RESULT:     7.024      1.677      4.366
REMARK INTER + INTRA:           7.607
REMARK INTER:                   7.634
REMARK INTRA:                  -0.027
REMARK UNBOUND:                -0.032
REMARK SMILES O=C([O-])c1ccc(O)cc1
REMARK SMILES IDX 4 1 5 2 10 3 6 4 9 5 7 6 2 7 1 8 3 9 8 10
REMARK H PARENT 8 11
REMARK Flexibility Score: inf
ROOT
ATOM      1  C   UNL     1     -37.143  16.891  17.698  1.00  0.00    -0.003 A 
ATOM      2  C   UNL     1     -38.217  17.638  17.177  1.00  0.00     0.014 A 
ATOM      3  C   UNL     1     -37.419  15.771  18.503  1.00  0.00     0.014 A 
ATOM      4  C   UNL     1     -39.537  17.270  17.457  1.00  0.00     0.047 A 
ATOM      5  C   UNL     1     -38.740  15.407  18.781  1.00  0.00     0.047 A 
ATOM      6  C   UNL     1     -39.802  16.155  18.258  1.00  0.00     0.115 A 
ENDROOT
BRANCH   1   7
ATOM      7  C   UNL     1     -35.745  17.276  17.406  1.00  0.00     0.071 C 
ATOM      8  O   UNL     1     -35.071  16.640  16.551  1.00  0.00    -0.545 OA
ATOM      9  O   UNL     1     -35.154  18.343  18.071  1.00  0.00    -0.545 OA
ENDBRANCH   1   7
BRANCH   6  10
ATOM     10  O   UNL     1     -41.122  15.801  18.529  1.00  0.00    -0.508 OA
ATOM     11  H   UNL     1     -41.493  14.897  18.263  1.00  0.00     0.293 HD
ENDBRANCH   6  10
TORSDOF 2
ENDMDL
