MODEL 1
REMARK VINA RESULT:    -4.685      0.000      0.000
REMARK INTER + INTRA:          -5.904
REMARK INTER:                  -5.781
REMARK INTRA:                  -0.123
REMARK UNBOUND:                -0.123
REMARK SMILES O=c1c(O)c(-c2cc(O)c(O)c(O)c2)oc2cc(O)cc(O)c12
REMARK SMILES IDX 5 1 3 2 2 3 1 4 23 5 21 6 20 7 18 8 17 9 16 10 15 11 6 12
REMARK SMILES IDX 7 13 8 14 14 15 10 16 12 17 9 18 11 20 13 22 4 24 22 26
REMARK SMILES IDX 19 28
REMARK H PARENT 9 19 11 21 13 23 4 25 22 27 19 29
REMARK Flexibility Score: inf
ROOT
ATOM      1  C   UNL     1     119.213 105.593 122.340  1.00  0.00     0.180 A 
ATOM      2  C   UNL     1     119.819 104.767 121.378  1.00  0.00     0.208 A 
ATOM      3  C   UNL     1     121.169 104.977 121.055  1.00  0.00     0.238 A 
ATOM      4  O   UNL     1     121.692 104.270 120.154  1.00  0.00    -0.285 OA
ATOM      5  C   UNL     1     121.900 105.997 121.708  1.00  0.00     0.111 A 
ATOM      6  C   UNL     1     123.284 106.271 121.489  1.00  0.00     0.134 A 
ATOM      7  C   UNL     1     123.871 107.390 122.094  1.00  0.00     0.093 A 
ATOM      8  C   UNL     1     123.144 108.204 122.961  1.00  0.00     0.123 A 
ATOM      9  C   UNL     1     121.806 107.910 123.230  1.00  0.00     0.094 A 
ATOM     10  C   UNL     1     121.183 106.823 122.614  1.00  0.00     0.146 A 
ATOM     11  O   UNL     1     119.906 106.585 122.888  1.00  0.00    -0.452 OA
ENDROOT
BRANCH   1  12
ATOM     12  C   UNL     1     117.801 105.418 122.751  1.00  0.00     0.029 A 
ATOM     13  C   UNL     1     117.329 104.188 123.241  1.00  0.00     0.062 A 
ATOM     14  C   UNL     1     115.995 104.048 123.647  1.00  0.00     0.162 A 
ATOM     15  C   UNL     1     116.927 106.516 122.707  1.00  0.00     0.062 A 
ATOM     16  C   UNL     1     115.121 105.147 123.579  1.00  0.00     0.200 A 
ATOM     17  C   UNL     1     115.595 106.384 123.109  1.00  0.00     0.162 A 
BRANCH  14  18
ATOM     18  O   UNL     1     115.536 102.821 124.125  1.00  0.00    -0.504 OA
ATOM     19  H   UNL     1     114.679 102.747 124.662  1.00  0.00     0.293 HD
ENDBRANCH  14  18
BRANCH  16  20
ATOM     20  O   UNL     1     113.789 105.023 123.975  1.00  0.00    -0.502 OA
ATOM     21  H   UNL     1     113.528 104.739 124.911  1.00  0.00     0.293 HD
ENDBRANCH  16  20
BRANCH  17  22
ATOM     22  O   UNL     1     114.755 107.495 123.036  1.00  0.00    -0.504 OA
ATOM     23  H   UNL     1     113.817 107.488 123.421  1.00  0.00     0.293 HD
ENDBRANCH  17  22
ENDBRANCH   1  12
BRANCH   2  24
ATOM     24  O   UNL     1     119.073 103.779 120.729  1.00  0.00    -0.502 OA
ATOM     25  H   UNL     1     118.441 103.988 119.965  1.00  0.00     0.293 HD
ENDBRANCH   2  24
BRANCH   6  26
ATOM     26  O   UNL     1     124.124 105.469 120.713  1.00  0.00    -0.507 OA
ATOM     27  H   UNL     1     123.899 105.122 119.793  1.00  0.00     0.293 HD
ENDBRANCH   6  26
BRANCH   8  28
ATOM     28  O   UNL     1     123.765 109.298 123.559  1.00  0.00    -0.508 OA
ATOM     29  H   UNL     1     123.850 109.375 124.565  1.00  0.00     0.293 HD
ENDBRANCH   8  28
TORSDOF 7
ENDMDL
MODEL 2
REMARK VINA RESULT:    -4.601      1.852      6.966
REMARK INTER + INTRA:          -5.800
REMARK INTER:                  -5.604
REMARK INTRA:                  -0.196
REMARK UNBOUND:                -0.123
REMARK SMILES O=c1c(O)c(-c2cc(O)c(O)c(O)c2)oc2cc(O)cc(O)c12
REMARK SMILES IDX 5 1 3 2 2 3 1 4 23 5 21 6 20 7 18 8 17 9 16 10 15 11 6 12
REMARK SMILES IDX 7 13 8 14 14 15 10 16 12 17 9 18 11 20 13 22 4 24 22 26
REMARK SMILES IDX 19 28
REMARK H PARENT 9 19 11 21 13 23 4 25 22 27 19 29
REMARK Flexibility Score: inf
ROOT
ATOM      1  C   UNL     1     118.740 106.379 122.345  1.00  0.00     0.180 A 
ATOM      2  C   UNL     1     118.974 105.005 122.165  1.00  0.00     0.208 A 
ATOM      3  C   UNL     1     117.905 104.107 122.315  1.00  0.00     0.238 A 
ATOM      4  O   UNL     1     118.131 102.874 122.207  1.00  0.00    -0.285 OA
ATOM      5  C   UNL     1     116.613 104.596 122.626  1.00  0.00     0.111 A 
ATOM      6  C   UNL     1     115.449 103.780 122.760  1.00  0.00     0.134 A 
ATOM      7  C   UNL     1     114.250 104.356 123.199  1.00  0.00     0.093 A 
ATOM      8  C   UNL     1     114.155 105.725 123.444  1.00  0.00     0.123 A 
ATOM      9  C   UNL     1     115.272 106.541 123.257  1.00  0.00     0.094 A 
ATOM     10  C   UNL     1     116.491 105.991 122.856  1.00  0.00     0.146 A 
ATOM     11  O   UNL     1     117.532 106.801 122.701  1.00  0.00    -0.452 OA
ENDROOT
BRANCH   1  12
ATOM     12  C   UNL     1     119.812 107.388 122.180  1.00  0.00     0.029 A 
ATOM     13  C   UNL     1     119.753 108.356 121.163  1.00  0.00     0.062 A 
ATOM     14  C   UNL     1     120.765 109.318 121.036  1.00  0.00     0.162 A 
ATOM     15  C   UNL     1     120.879 107.418 123.091  1.00  0.00     0.062 A 
ATOM     16  C   UNL     1     121.842 109.326 121.940  1.00  0.00     0.200 A 
ATOM     17  C   UNL     1     121.893 108.373 122.971  1.00  0.00     0.162 A 
BRANCH  14  18
ATOM     18  O   UNL     1     120.701 110.270 120.020  1.00  0.00    -0.504 OA
ATOM     19  H   UNL     1     120.474 110.013 119.065  1.00  0.00     0.293 HD
ENDBRANCH  14  18
BRANCH  16  20
ATOM     20  O   UNL     1     122.859 110.274 121.825  1.00  0.00    -0.502 OA
ATOM     21  H   UNL     1     123.774 110.043 121.458  1.00  0.00     0.293 HD
ENDBRANCH  16  20
BRANCH  17  22
ATOM     22  O   UNL     1     122.944 108.360 123.888  1.00  0.00    -0.504 OA
ATOM     23  H   UNL     1     123.869 108.027 123.642  1.00  0.00     0.293 HD
ENDBRANCH  17  22
ENDBRANCH   1  12
BRANCH   2  24
ATOM     24  O   UNL     1     120.262 104.542 121.880  1.00  0.00    -0.502 OA
ATOM     25  H   UNL     1     120.475 103.557 121.776  1.00  0.00     0.293 HD
ENDBRANCH   2  24
BRANCH   6  26
ATOM     26  O   UNL     1     115.411 102.418 122.453  1.00  0.00    -0.507 OA
ATOM     27  H   UNL     1     114.993 102.027 121.622  1.00  0.00     0.293 HD
ENDBRANCH   6  26
BRANCH   8  28
ATOM     28  O   UNL     1     112.942 106.266 123.863  1.00  0.00    -0.508 OA
ATOM     29  H   UNL     1     112.216 106.515 123.202  1.00  0.00     0.293 HD
ENDBRANCH   8  28
TORSDOF 7
ENDMDL
MODEL 3
REMARK VINA RESULT:    -4.573     12.819     15.471
REMARK INTER + INTRA:          -5.765
REMARK INTER:                  -5.397
REMARK INTRA:                  -0.368
REMARK UNBOUND:                -0.123
REMARK SMILES O=c1c(O)c(-c2cc(O)c(O)c(O)c2)oc2cc(O)cc(O)c12
REMARK SMILES IDX 5 1 3 2 2 3 1 4 23 5 21 6 20 7 18 8 17 9 16 10 15 11 6 12
REMARK SMILES IDX 7 13 8 14 14 15 10 16 12 17 9 18 11 20 13 22 4 24 22 26
REMARK SMILES IDX 19 28
REMARK H PARENT 9 19 11 21 13 23 4 25 22 27 19 29
REMARK Flexibility Score: inf
ROOT
ATOM      1  C   UNL     1     124.590 109.922 109.281  1.00  0.00     0.180 A 
ATOM      2  C   UNL     1     124.709 108.822 108.416  1.00  0.00     0.208 A 
ATOM      3  C   UNL     1     124.681 107.526 108.955  1.00  0.00     0.238 A 
ATOM      4  O   UNL     1     124.844 106.546 108.182  1.00  0.00    -0.285 OA
ATOM      5  C   UNL     1     124.517 107.346 110.349  1.00  0.00     0.111 A 
ATOM      6  C   UNL     1     124.434 106.077 110.999  1.00  0.00     0.134 A 
ATOM      7  C   UNL     1     124.403 106.019 112.398  1.00  0.00     0.093 A 
ATOM      8  C   UNL     1     124.387 107.181 113.167  1.00  0.00     0.123 A 
ATOM      9  C   UNL     1     124.407 108.428 112.540  1.00  0.00     0.094 A 
ATOM     10  C   UNL     1     124.474 108.518 111.148  1.00  0.00     0.146 A 
ATOM     11  O   UNL     1     124.503 109.724 110.591  1.00  0.00    -0.452 OA
ENDROOT
BRANCH   1  12
ATOM     12  C   UNL     1     124.586 111.318 108.785  1.00  0.00     0.029 A 
ATOM     13  C   UNL     1     123.397 111.946 108.379  1.00  0.00     0.062 A 
ATOM     14  C   UNL     1     123.409 113.275 107.933  1.00  0.00     0.162 A 
ATOM     15  C   UNL     1     125.783 112.050 108.773  1.00  0.00     0.062 A 
ATOM     16  C   UNL     1     124.617 113.994 107.904  1.00  0.00     0.200 A 
ATOM     17  C   UNL     1     125.805 113.376 108.330  1.00  0.00     0.162 A 
BRANCH  14  18
ATOM     18  O   UNL     1     122.224 113.886 107.526  1.00  0.00    -0.504 OA
ATOM     19  H   UNL     1     122.201 114.533 106.745  1.00  0.00     0.293 HD
ENDBRANCH  14  18
BRANCH  16  20
ATOM     20  O   UNL     1     124.647 115.316 107.460  1.00  0.00    -0.502 OA
ATOM     21  H   UNL     1     125.154 116.041 107.953  1.00  0.00     0.293 HD
ENDBRANCH  16  20
BRANCH  17  22
ATOM     22  O   UNL     1     127.018 114.064 108.320  1.00  0.00    -0.504 OA
ATOM     23  H   UNL     1     127.821 113.749 108.851  1.00  0.00     0.293 HD
ENDBRANCH  17  22
ENDBRANCH   1  12
BRANCH   2  24
ATOM     24  O   UNL     1     124.893 109.022 107.044  1.00  0.00    -0.502 OA
ATOM     25  H   UNL     1     124.155 109.366 106.441  1.00  0.00     0.293 HD
ENDBRANCH   2  24
BRANCH   6  26
ATOM     26  O   UNL     1     124.352 104.858 110.322  1.00  0.00    -0.507 OA
ATOM     27  H   UNL     1     124.358 104.756 109.318  1.00  0.00     0.293 HD
ENDBRANCH   6  26
BRANCH   8  28
ATOM     28  O   UNL     1     124.339 107.085 114.556  1.00  0.00    -0.508 OA
ATOM     29  H   UNL     1     125.157 107.258 115.128  1.00  0.00     0.293 HD
ENDBRANCH   8  28
TORSDOF 7
ENDMDL
MODEL 4
REMARK VINA RESULT:    -4.543     13.409     16.181
REMARK INTER + INTRA:          -5.728
REMARK INTER:                  -5.479
REMARK INTRA:                  -0.249
REMARK UNBOUND:                -0.123
REMARK SMILES O=c1c(O)c(-c2cc(O)c(O)c(O)c2)oc2cc(O)cc(O)c12
REMARK SMILES IDX 5 1 3 2 2 3 1 4 23 5 21 6 20 7 18 8 17 9 16 10 15 11 6 12
REMARK SMILES IDX 7 13 8 14 14 15 10 16 12 17 9 18 11 20 13 22 4 24 22 26
REMARK SMILES IDX 19 28
REMARK H PARENT 9 19 11 21 13 23 4 25 22 27 19 29
REMARK Flexibility Score: inf
ROOT
ATOM      1  C   UNL     1     124.368 110.063 109.131  1.00  0.00     0.180 A 
ATOM      2  C   UNL     1     124.619 109.631 110.444  1.00  0.00     0.208 A 
ATOM      3  C   UNL     1     124.510 108.263 110.743  1.00  0.00     0.238 A 
ATOM      4  O   UNL     1     124.682 107.889 111.933  1.00  0.00    -0.285 OA
ATOM      5  C   UNL     1     124.169 107.343 109.723  1.00  0.00     0.111 A 
ATOM      6  C   UNL     1     124.072 105.931 109.904  1.00  0.00     0.134 A 
ATOM      7  C   UNL     1     123.599 105.131 108.855  1.00  0.00     0.093 A 
ATOM      8  C   UNL     1     123.284 105.683 107.614  1.00  0.00     0.123 A 
ATOM      9  C   UNL     1     123.433 107.055 107.408  1.00  0.00     0.094 A 
ATOM     10  C   UNL     1     123.868 107.883 108.445  1.00  0.00     0.146 A 
ATOM     11  O   UNL     1     123.986 109.185 108.210  1.00  0.00    -0.452 OA
ENDROOT
BRANCH   1  12
ATOM     12  C   UNL     1     124.486 111.485 108.733  1.00  0.00     0.029 A 
ATOM     13  C   UNL     1     125.729 112.139 108.720  1.00  0.00     0.062 A 
ATOM     14  C   UNL     1     125.825 113.479 108.319  1.00  0.00     0.162 A 
ATOM     15  C   UNL     1     123.344 112.179 108.305  1.00  0.00     0.062 A 
ATOM     16  C   UNL     1     124.672 114.173 107.913  1.00  0.00     0.200 A 
ATOM     17  C   UNL     1     123.430 113.516 107.904  1.00  0.00     0.162 A 
BRANCH  14  18
ATOM     18  O   UNL     1     127.062 114.120 108.316  1.00  0.00    -0.504 OA
ATOM     19  H   UNL     1     127.907 113.648 108.619  1.00  0.00     0.293 HD
ENDBRANCH  14  18
BRANCH  16  20
ATOM     20  O   UNL     1     124.749 115.508 107.515  1.00  0.00    -0.502 OA
ATOM     21  H   UNL     1     123.924 116.081 107.379  1.00  0.00     0.293 HD
ENDBRANCH  16  20
BRANCH  17  22
ATOM     22  O   UNL     1     122.269 114.175 107.500  1.00  0.00    -0.504 OA
ATOM     23  H   UNL     1     122.008 115.082 107.868  1.00  0.00     0.293 HD
ENDBRANCH  17  22
ENDBRANCH   1  12
BRANCH   2  24
ATOM     24  O   UNL     1     124.932 110.558 111.442  1.00  0.00    -0.502 OA
ATOM     25  H   UNL     1     125.714 110.434 112.074  1.00  0.00     0.293 HD
ENDBRANCH   2  24
BRANCH   6  26
ATOM     26  O   UNL     1     124.448 105.267 111.074  1.00  0.00    -0.507 OA
ATOM     27  H   UNL     1     124.446 104.264 111.192  1.00  0.00     0.293 HD
ENDBRANCH   6  26
BRANCH   8  28
ATOM     28  O   UNL     1     122.833 104.855 106.589  1.00  0.00    -0.508 OA
ATOM     29  H   UNL     1     123.424 104.613 105.804  1.00  0.00     0.293 HD
ENDBRANCH   8  28
TORSDOF 7
ENDMDL
MODEL 5
REMARK VINA RESULT:    -4.533      1.810      6.842
REMARK INTER + INTRA:          -5.715
REMARK INTER:                  -5.440
REMARK INTRA:                  -0.275
REMARK UNBOUND:                -0.123
REMARK SMILES O=c1c(O)c(-c2cc(O)c(O)c(O)c2)oc2cc(O)cc(O)c12
REMARK SMILES IDX 5 1 3 2 2 3 1 4 23 5 21 6 20 7 18 8 17 9 16 10 15 11 6 12
REMARK SMILES IDX 7 13 8 14 14 15 10 16 12 17 9 18 11 20 13 22 4 24 22 26
REMARK SMILES IDX 19 28
REMARK H PARENT 9 19 11 21 13 23 4 25 22 27 19 29
REMARK Flexibility Score: inf
ROOT
ATOM      1  C   UNL     1     118.890 106.271 122.252  1.00  0.00     0.180 A 
ATOM      2  C   UNL     1     119.087 104.884 122.132  1.00  0.00     0.208 A 
ATOM      3  C   UNL     1     117.997 104.023 122.336  1.00  0.00     0.238 A 
ATOM      4  O   UNL     1     118.191 102.780 122.281  1.00  0.00    -0.285 OA
ATOM      5  C   UNL     1     116.723 104.558 122.641  1.00  0.00     0.111 A 
ATOM      6  C   UNL     1     115.540 103.780 122.826  1.00  0.00     0.134 A 
ATOM      7  C   UNL     1     114.362 104.406 123.253  1.00  0.00     0.093 A 
ATOM      8  C   UNL     1     114.306 105.786 123.437  1.00  0.00     0.123 A 
ATOM      9  C   UNL     1     115.440 106.564 123.199  1.00  0.00     0.094 A 
ATOM     10  C   UNL     1     116.640 105.965 122.808  1.00  0.00     0.146 A 
ATOM     11  O   UNL     1     117.699 106.740 122.604  1.00  0.00    -0.452 OA
ENDROOT
BRANCH   1  12
ATOM     12  C   UNL     1     119.985 107.244 122.028  1.00  0.00     0.029 A 
ATOM     13  C   UNL     1     121.025 107.400 122.959  1.00  0.00     0.062 A 
ATOM     14  C   UNL     1     122.065 108.309 122.718  1.00  0.00     0.162 A 
ATOM     15  C   UNL     1     120.017 107.984 120.836  1.00  0.00     0.062 A 
ATOM     16  C   UNL     1     122.077 109.063 121.531  1.00  0.00     0.200 A 
ATOM     17  C   UNL     1     121.049 108.893 120.588  1.00  0.00     0.162 A 
BRANCH  14  18
ATOM     18  O   UNL     1     123.089 108.462 123.652  1.00  0.00    -0.504 OA
ATOM     19  H   UNL     1     123.652 107.676 123.958  1.00  0.00     0.293 HD
ENDBRANCH  14  18
BRANCH  16  20
ATOM     20  O   UNL     1     123.102 109.975 121.279  1.00  0.00    -0.502 OA
ATOM     21  H   UNL     1     123.443 110.616 121.986  1.00  0.00     0.293 HD
ENDBRANCH  16  20
BRANCH  17  22
ATOM     22  O   UNL     1     121.038 109.620 119.398  1.00  0.00    -0.504 OA
ATOM     23  H   UNL     1     120.942 110.629 119.384  1.00  0.00     0.293 HD
ENDBRANCH  17  22
ENDBRANCH   1  12
BRANCH   2  24
ATOM     24  O   UNL     1     120.359 104.376 121.852  1.00  0.00    -0.502 OA
ATOM     25  H   UNL     1     120.706 104.269 120.907  1.00  0.00     0.293 HD
ENDBRANCH   2  24
BRANCH   6  26
ATOM     26  O   UNL     1     115.464 102.406 122.582  1.00  0.00    -0.507 OA
ATOM     27  H   UNL     1     115.925 101.698 123.133  1.00  0.00     0.293 HD
ENDBRANCH   6  26
BRANCH   8  28
ATOM     28  O   UNL     1     113.113 106.377 123.846  1.00  0.00    -0.508 OA
ATOM     29  H   UNL     1     112.926 106.573 124.822  1.00  0.00     0.293 HD
ENDBRANCH   8  28
TORSDOF 7
ENDMDL
MODEL 6
REMARK VINA RESULT:    -4.446     13.040     15.854
REMARK INTER + INTRA:          -5.609
REMARK INTER:                  -5.258
REMARK INTRA:                  -0.351
REMARK UNBOUND:                -0.123
REMARK SMILES O=c1c(O)c(-c2cc(O)c(O)c(O)c2)oc2cc(O)cc(O)c12
REMARK SMILES IDX 5 1 3 2 2 3 1 4 23 5 21 6 20 7 18 8 17 9 16 10 15 11 6 12
REMARK SMILES IDX 7 13 8 14 14 15 10 16 12 17 9 18 11 20 13 22 4 24 22 26
REMARK SMILES IDX 19 28
REMARK H PARENT 9 19 11 21 13 23 4 25 22 27 19 29
REMARK Flexibility Score: inf
ROOT
ATOM      1  C   UNL     1     124.761 110.087 109.575  1.00  0.00     0.180 A 
ATOM      2  C   UNL     1     124.519 109.845 110.938  1.00  0.00     0.208 A 
ATOM      3  C   UNL     1     124.611 108.530 111.423  1.00  0.00     0.238 A 
ATOM      4  O   UNL     1     124.340 108.311 112.632  1.00  0.00    -0.285 OA
ATOM      5  C   UNL     1     124.961 107.478 110.543  1.00  0.00     0.111 A 
ATOM      6  C   UNL     1     125.124 106.114 110.934  1.00  0.00     0.134 A 
ATOM      7  C   UNL     1     125.342 105.137 109.955  1.00  0.00     0.093 A 
ATOM      8  C   UNL     1     125.470 105.480 108.610  1.00  0.00     0.123 A 
ATOM      9  C   UNL     1     125.372 106.818 108.224  1.00  0.00     0.094 A 
ATOM     10  C   UNL     1     125.119 107.811 109.172  1.00  0.00     0.146 A 
ATOM     11  O   UNL     1     125.022 109.070 108.761  1.00  0.00    -0.452 OA
ENDROOT
BRANCH   1  12
ATOM     12  C   UNL     1     124.706 111.449 108.995  1.00  0.00     0.029 A 
ATOM     13  C   UNL     1     123.493 112.013 108.568  1.00  0.00     0.062 A 
ATOM     14  C   UNL     1     123.457 113.312 108.043  1.00  0.00     0.162 A 
ATOM     15  C   UNL     1     125.879 112.216 108.922  1.00  0.00     0.062 A 
ATOM     16  C   UNL     1     124.641 114.065 107.954  1.00  0.00     0.200 A 
ATOM     17  C   UNL     1     125.853 113.512 108.399  1.00  0.00     0.162 A 
BRANCH  14  18
ATOM     18  O   UNL     1     122.248 113.860 107.616  1.00  0.00    -0.504 OA
ATOM     19  H   UNL     1     121.776 114.585 108.146  1.00  0.00     0.293 HD
ENDBRANCH  14  18
BRANCH  16  20
ATOM     20  O   UNL     1     124.623 115.358 107.430  1.00  0.00    -0.502 OA
ATOM     21  H   UNL     1     123.825 115.727 106.927  1.00  0.00     0.293 HD
ENDBRANCH  16  20
BRANCH  17  22
ATOM     22  O   UNL     1     127.043 114.236 108.330  1.00  0.00    -0.504 OA
ATOM     23  H   UNL     1     127.290 114.935 109.022  1.00  0.00     0.293 HD
ENDBRANCH  17  22
ENDBRANCH   1  12
BRANCH   2  24
ATOM     24  O   UNL     1     124.154 110.895 111.785  1.00  0.00    -0.502 OA
ATOM     25  H   UNL     1     124.602 111.802 111.752  1.00  0.00     0.293 HD
ENDBRANCH   2  24
BRANCH   6  26
ATOM     26  O   UNL     1     125.106 105.676 112.261  1.00  0.00    -0.507 OA
ATOM     27  H   UNL     1     125.883 105.749 112.901  1.00  0.00     0.293 HD
ENDBRANCH   6  26
BRANCH   8  28
ATOM     28  O   UNL     1     125.703 104.483 107.666  1.00  0.00    -0.508 OA
ATOM     29  H   UNL     1     125.187 103.612 107.675  1.00  0.00     0.293 HD
ENDBRANCH   8  28
TORSDOF 7
ENDMDL
MODEL 7
REMARK VINA RESULT:    -4.404      2.139      2.974
REMARK INTER + INTRA:          -5.557
REMARK INTER:                  -5.674
REMARK INTRA:                   0.117
REMARK UNBOUND:                -0.123
REMARK SMILES O=c1c(O)c(-c2cc(O)c(O)c(O)c2)oc2cc(O)cc(O)c12
REMARK SMILES IDX 5 1 3 2 2 3 1 4 23 5 21 6 20 7 18 8 17 9 16 10 15 11 6 12
REMARK SMILES IDX 7 13 8 14 14 15 10 16 12 17 9 18 11 20 13 22 4 24 22 26
REMARK SMILES IDX 19 28
REMARK H PARENT 9 19 11 21 13 23 4 25 22 27 19 29
REMARK Flexibility Score: inf
ROOT
ATOM      1  C   UNL     1     117.497 106.859 122.078  1.00  0.00     0.180 A 
ATOM      2  C   UNL     1     117.265 107.865 121.125  1.00  0.00     0.208 A 
ATOM      3  C   UNL     1     118.349 108.631 120.667  1.00  0.00     0.238 A 
ATOM      4  O   UNL     1     118.127 109.567 119.854  1.00  0.00    -0.285 OA
ATOM      5  C   UNL     1     119.652 108.372 121.155  1.00  0.00     0.111 A 
ATOM      6  C   UNL     1     120.829 109.059 120.730  1.00  0.00     0.134 A 
ATOM      7  C   UNL     1     122.045 108.809 121.377  1.00  0.00     0.093 A 
ATOM      8  C   UNL     1     122.142 107.851 122.385  1.00  0.00     0.123 A 
ATOM      9  C   UNL     1     121.010 107.130 122.767  1.00  0.00     0.094 A 
ATOM     10  C   UNL     1     119.774 107.383 122.166  1.00  0.00     0.146 A 
ATOM     11  O   UNL     1     118.719 106.683 122.566  1.00  0.00    -0.452 OA
ENDROOT
BRANCH   1  12
ATOM     12  C   UNL     1     116.409 105.993 122.590  1.00  0.00     0.029 A 
ATOM     13  C   UNL     1     116.605 104.617 122.794  1.00  0.00     0.062 A 
ATOM     14  C   UNL     1     115.571 103.818 123.301  1.00  0.00     0.162 A 
ATOM     15  C   UNL     1     115.175 106.566 122.935  1.00  0.00     0.062 A 
ATOM     16  C   UNL     1     114.331 104.396 123.623  1.00  0.00     0.200 A 
ATOM     17  C   UNL     1     114.139 105.777 123.441  1.00  0.00     0.162 A 
BRANCH  14  18
ATOM     18  O   UNL     1     115.774 102.452 123.493  1.00  0.00    -0.504 OA
ATOM     19  H   UNL     1     115.106 101.764 123.163  1.00  0.00     0.293 HD
ENDBRANCH  14  18
BRANCH  16  20
ATOM     20  O   UNL     1     113.290 103.615 124.125  1.00  0.00    -0.502 OA
ATOM     21  H   UNL     1     112.594 103.191 123.524  1.00  0.00     0.293 HD
ENDBRANCH  16  20
BRANCH  17  22
ATOM     22  O   UNL     1     112.922 106.381 123.758  1.00  0.00    -0.504 OA
ATOM     23  H   UNL     1     112.200 106.535 123.065  1.00  0.00     0.293 HD
ENDBRANCH  17  22
ENDBRANCH   1  12
BRANCH   2  24
ATOM     24  O   UNL     1     115.967 108.119 120.672  1.00  0.00    -0.502 OA
ATOM     25  H   UNL     1     115.770 108.774 119.926  1.00  0.00     0.293 HD
ENDBRANCH   2  24
BRANCH   6  26
ATOM     26  O   UNL     1     120.860 109.969 119.670  1.00  0.00    -0.507 OA
ATOM     27  H   UNL     1     121.685 110.462 119.361  1.00  0.00     0.293 HD
ENDBRANCH   6  26
BRANCH   8  28
ATOM     28  O   UNL     1     123.372 107.617 122.994  1.00  0.00    -0.508 OA
ATOM     29  H   UNL     1     124.028 106.940 122.623  1.00  0.00     0.293 HD
ENDBRANCH   8  28
TORSDOF 7
ENDMDL
MODEL 8
REMARK VINA RESULT:    -4.395     15.409     17.954
REMARK INTER + INTRA:          -5.545
REMARK INTER:                  -5.318
REMARK INTRA:                  -0.227
REMARK UNBOUND:                -0.123
REMARK SMILES O=c1c(O)c(-c2cc(O)c(O)c(O)c2)oc2cc(O)cc(O)c12
REMARK SMILES IDX 5 1 3 2 2 3 1 4 23 5 21 6 20 7 18 8 17 9 16 10 15 11 6 12
REMARK SMILES IDX 7 13 8 14 14 15 10 16 12 17 9 18 11 20 13 22 4 24 22 26
REMARK SMILES IDX 19 28
REMARK H PARENT 9 19 11 21 13 23 4 25 22 27 19 29
REMARK Flexibility Score: inf
ROOT
ATOM      1  C   UNL     1     126.848 115.057 109.587  1.00  0.00     0.180 A 
ATOM      2  C   UNL     1     126.712 116.371 110.068  1.00  0.00     0.208 A 
ATOM      3  C   UNL     1     127.868 117.132 110.303  1.00  0.00     0.238 A 
ATOM      4  O   UNL     1     127.742 118.288 110.785  1.00  0.00    -0.285 OA
ATOM      5  C   UNL     1     129.143 116.578 110.038  1.00  0.00     0.111 A 
ATOM      6  C   UNL     1     130.379 117.274 110.200  1.00  0.00     0.134 A 
ATOM      7  C   UNL     1     131.586 116.584 110.034  1.00  0.00     0.093 A 
ATOM      8  C   UNL     1     131.603 115.244 109.648  1.00  0.00     0.123 A 
ATOM      9  C   UNL     1     130.401 114.571 109.428  1.00  0.00     0.094 A 
ATOM     10  C   UNL     1     129.180 115.222 109.621  1.00  0.00     0.146 A 
ATOM     11  O   UNL     1     128.059 114.542 109.411  1.00  0.00    -0.452 OA
ENDROOT
BRANCH   1  12
ATOM     12  C   UNL     1     125.675 114.201 109.293  1.00  0.00     0.029 A 
ATOM     13  C   UNL     1     124.771 114.527 108.269  1.00  0.00     0.062 A 
ATOM     14  C   UNL     1     123.680 113.693 107.989  1.00  0.00     0.162 A 
ATOM     15  C   UNL     1     125.493 113.009 110.011  1.00  0.00     0.062 A 
ATOM     16  C   UNL     1     123.492 112.512 108.729  1.00  0.00     0.200 A 
ATOM     17  C   UNL     1     124.407 112.171 109.740  1.00  0.00     0.162 A 
BRANCH  14  18
ATOM     18  O   UNL     1     122.785 114.029 106.975  1.00  0.00    -0.504 OA
ATOM     19  H   UNL     1     122.962 113.787 106.006  1.00  0.00     0.293 HD
ENDBRANCH  14  18
BRANCH  16  20
ATOM     20  O   UNL     1     122.409 111.673 108.466  1.00  0.00    -0.502 OA
ATOM     21  H   UNL     1     122.410 110.693 108.722  1.00  0.00     0.293 HD
ENDBRANCH  16  20
BRANCH  17  22
ATOM     22  O   UNL     1     124.252 111.003 110.486  1.00  0.00    -0.504 OA
ATOM     23  H   UNL     1     124.542 110.098 110.136  1.00  0.00     0.293 HD
ENDBRANCH  17  22
ENDBRANCH   1  12
BRANCH   2  24
ATOM     24  O   UNL     1     125.444 116.891 110.343  1.00  0.00    -0.502 OA
ATOM     25  H   UNL     1     125.275 117.884 110.452  1.00  0.00     0.293 HD
ENDBRANCH   2  24
BRANCH   6  26
ATOM     26  O   UNL     1     130.474 118.636 110.496  1.00  0.00    -0.507 OA
ATOM     27  H   UNL     1     130.783 119.345 109.847  1.00  0.00     0.293 HD
ENDBRANCH   6  26
BRANCH   8  28
ATOM     28  O   UNL     1     132.823 114.594 109.476  1.00  0.00    -0.508 OA
ATOM     29  H   UNL     1     132.892 113.725 108.961  1.00  0.00     0.293 HD
ENDBRANCH   8  28
TORSDOF 7
ENDMDL
MODEL 9
REMARK VINA RESULT:    -4.302      4.569      6.792
REMARK INTER + INTRA:          -5.431
REMARK INTER:                  -5.073
REMARK INTRA:                  -0.357
REMARK UNBOUND:                -0.123
REMARK SMILES O=c1c(O)c(-c2cc(O)c(O)c(O)c2)oc2cc(O)cc(O)c12
REMARK SMILES IDX 5 1 3 2 2 3 1 4 23 5 21 6 20 7 18 8 17 9 16 10 15 11 6 12
REMARK SMILES IDX 7 13 8 14 14 15 10 16 12 17 9 18 11 20 13 22 4 24 22 26
REMARK SMILES IDX 19 28
REMARK H PARENT 9 19 11 21 13 23 4 25 22 27 19 29
REMARK Flexibility Score: inf
ROOT
ATOM      1  C   UNL     1     123.412 105.001 120.680  1.00  0.00     0.180 A 
ATOM      2  C   UNL     1     122.492 103.947 120.817  1.00  0.00     0.208 A 
ATOM      3  C   UNL     1     122.902 102.641 120.502  1.00  0.00     0.238 A 
ATOM      4  O   UNL     1     122.059 101.709 120.574  1.00  0.00    -0.285 OA
ATOM      5  C   UNL     1     124.229 102.404 120.070  1.00  0.00     0.111 A 
ATOM      6  C   UNL     1     124.763 101.116 119.763  1.00  0.00     0.134 A 
ATOM      7  C   UNL     1     126.050 101.015 119.219  1.00  0.00     0.093 A 
ATOM      8  C   UNL     1     126.845 102.144 119.033  1.00  0.00     0.123 A 
ATOM      9  C   UNL     1     126.354 103.403 119.387  1.00  0.00     0.094 A 
ATOM     10  C   UNL     1     125.062 103.540 119.897  1.00  0.00     0.146 A 
ATOM     11  O   UNL     1     124.629 104.756 120.210  1.00  0.00    -0.452 OA
ENDROOT
BRANCH   1  12
ATOM     12  C   UNL     1     123.061 106.400 121.017  1.00  0.00     0.029 A 
ATOM     13  C   UNL     1     122.482 107.257 120.066  1.00  0.00     0.062 A 
ATOM     14  C   UNL     1     122.136 108.572 120.409  1.00  0.00     0.162 A 
ATOM     15  C   UNL     1     123.257 106.865 122.326  1.00  0.00     0.062 A 
ATOM     16  C   UNL     1     122.356 109.036 121.718  1.00  0.00     0.200 A 
ATOM     17  C   UNL     1     122.915 108.175 122.677  1.00  0.00     0.162 A 
BRANCH  14  18
ATOM     18  O   UNL     1     121.569 109.416 119.456  1.00  0.00    -0.504 OA
ATOM     19  H   UNL     1     122.110 109.782 118.680  1.00  0.00     0.293 HD
ENDBRANCH  14  18
BRANCH  16  20
ATOM     20  O   UNL     1     122.021 110.342 122.074  1.00  0.00    -0.502 OA
ATOM     21  H   UNL     1     121.392 110.910 121.520  1.00  0.00     0.293 HD
ENDBRANCH  16  20
BRANCH  17  22
ATOM     22  O   UNL     1     123.139 108.603 123.985  1.00  0.00    -0.504 OA
ATOM     23  H   UNL     1     123.436 109.548 124.200  1.00  0.00     0.293 HD
ENDBRANCH  17  22
ENDBRANCH   1  12
BRANCH   2  24
ATOM     24  O   UNL     1     121.180 104.206 121.224  1.00  0.00    -0.502 OA
ATOM     25  H   UNL     1     120.565 104.827 120.713  1.00  0.00     0.293 HD
ENDBRANCH   2  24
BRANCH   6  26
ATOM     26  O   UNL     1     124.088  99.915 119.996  1.00  0.00    -0.507 OA
ATOM     27  H   UNL     1     123.292  99.591 119.466  1.00  0.00     0.293 HD
ENDBRANCH   6  26
BRANCH   8  28
ATOM     28  O   UNL     1     128.126 102.004 118.506  1.00  0.00    -0.508 OA
ATOM     29  H   UNL     1     128.550 101.093 118.377  1.00  0.00     0.293 HD
ENDBRANCH   8  28
TORSDOF 7
ENDMDL
