MODEL 1
REMARK VINA RESULT:    -6.784      0.000      0.000
REMARK INTER + INTRA:          -9.947
REMARK INTER:                  -8.568
REMARK INTRA:                  -1.379
REMARK UNBOUND:                -1.379
REMARK SMILES CC(C)[C@H](C)C=C[C@@H](C)[C@@H]1CC[C@H]2C3=CC=C4C[C@H](O)CC[C@]4(C)[C@H]3CC[C@]21C
REMARK SMILES IDX 8 1 9 2 7 3 6 4 4 5 5 6 2 7 1 8 3 9 10 10 11 11 28 12 12 13
REMARK SMILES IDX 13 14 27 15 29 16 14 17 26 18 25 19 15 20 23 21 16 22 17 23
REMARK SMILES IDX 22 24 24 25 18 26 21 27 19 28 20 29
REMARK H PARENT 20 30
REMARK Flexibility Score: inf
ROOT
ATOM      1  C   UNL     1     147.656 134.531 136.944  1.00  0.00     0.012 C 
ATOM      2  C   UNL     1     148.757 133.718 136.237  1.00  0.00     0.012 C 
ENDROOT
BRANCH   1   3
ATOM      3  C   UNL     1     146.698 135.094 135.915  1.00  0.00    -0.028 C 
ATOM      4  C   UNL     1     145.371 134.873 135.959  1.00  0.00    -0.028 C 
BRANCH   4   5
ATOM      5  C   UNL     1     144.431 135.469 134.934  1.00  0.00     0.011 C 
ATOM      6  C   UNL     1     143.514 134.350 134.415  1.00  0.00     0.012 C 
BRANCH   5   7
ATOM      7  C   UNL     1     143.626 136.655 135.544  1.00  0.00    -0.011 C 
ATOM      8  C   UNL     1     143.338 136.430 137.041  1.00  0.00     0.008 C 
ATOM      9  C   UNL     1     144.369 137.995 135.379  1.00  0.00     0.008 C 
ENDBRANCH   5   7
ENDBRANCH   4   5
ENDBRANCH   1   3
BRANCH   1  10
ATOM     10  C   UNL     1     148.245 135.650 137.870  1.00  0.00     0.002 C 
ATOM     11  C   UNL     1     149.413 135.142 138.709  1.00  0.00     0.005 C 
ATOM     12  C   UNL     1     147.276 136.323 138.914  1.00  0.00    -0.023 C 
ATOM     13  C   UNL     1     149.602 136.179 139.791  1.00  0.00     0.009 C 
ATOM     14  C   UNL     1     148.202 136.698 140.131  1.00  0.00     0.021 C 
ATOM     15  C   UNL     1     146.543 137.555 138.310  1.00  0.00     0.008 C 
ATOM     16  C   UNL     1     146.195 135.328 139.412  1.00  0.00     0.012 C 
ATOM     17  C   UNL     1     148.274 138.169 140.535  1.00  0.00    -0.063 C 
ATOM     18  C   UNL     1     147.427 138.798 138.246  1.00  0.00     0.009 C 
ATOM     19  C   UNL     1     147.729 139.290 139.670  1.00  0.00     0.025 C 
ATOM     20  C   UNL     1     148.811 138.488 141.724  1.00  0.00    -0.000 C 
ATOM     21  C   UNL     1     148.641 140.571 139.741  1.00  0.00    -0.005 C 
ATOM     22  C   UNL     1     149.031 139.893 142.110  1.00  0.00    -0.000 C 
ATOM     23  C   UNL     1     148.915 140.891 141.217  1.00  0.00    -0.061 C 
ATOM     24  C   UNL     1     147.900 141.766 139.063  1.00  0.00     0.014 C 
ATOM     25  C   UNL     1     150.002 140.334 139.039  1.00  0.00     0.017 C 
ATOM     26  C   UNL     1     149.352 142.280 141.617  1.00  0.00     0.063 C 
ATOM     27  C   UNL     1     148.495 143.136 139.413  1.00  0.00     0.033 C 
ATOM     28  C   UNL     1     148.516 143.363 140.930  1.00  0.00     0.118 C 
BRANCH  28  29
ATOM     29  O   UNL     1     147.213 143.357 141.455  1.00  0.00    -0.393 OA
ATOM     30  H   UNL     1     147.288 143.092 142.408  1.00  0.00     0.210 HD
ENDBRANCH  28  29
ENDBRANCH   1  10
TORSDOF 5
ENDMDL
MODEL 2
REMARK VINA RESULT:    -6.684      3.441      7.388
REMARK INTER + INTRA:          -9.821
REMARK INTER:                  -8.387
REMARK INTRA:                  -1.434
REMARK UNBOUND:                -1.379
REMARK SMILES CC(C)[C@H](C)C=C[C@@H](C)[C@@H]1CC[C@H]2C3=CC=C4C[C@H](O)CC[C@]4(C)[C@H]3CC[C@]21C
REMARK SMILES IDX 8 1 9 2 7 3 6 4 4 5 5 6 2 7 1 8 3 9 10 10 11 11 28 12 12 13
REMARK SMILES IDX 13 14 27 15 29 16 14 17 26 18 25 19 15 20 23 21 16 22 17 23
REMARK SMILES IDX 22 24 24 25 18 26 21 27 19 28 20 29
REMARK H PARENT 20 30
REMARK Flexibility Score: inf
ROOT
ATOM      1  C   UNL     1     147.358 140.493 141.768  1.00  0.00     0.012 C 
ATOM      2  C   UNL     1     148.356 141.465 142.424  1.00  0.00     0.012 C 
ENDROOT
BRANCH   1   3
ATOM      3  C   UNL     1     146.325 140.057 142.787  1.00  0.00    -0.028 C 
ATOM      4  C   UNL     1     145.714 138.858 142.738  1.00  0.00    -0.028 C 
BRANCH   4   5
ATOM      5  C   UNL     1     144.706 138.436 143.782  1.00  0.00     0.011 C 
ATOM      6  C   UNL     1     143.299 138.742 143.244  1.00  0.00     0.012 C 
BRANCH   5   7
ATOM      7  C   UNL     1     144.883 136.932 144.147  1.00  0.00    -0.011 C 
ATOM      8  C   UNL     1     143.524 136.243 144.373  1.00  0.00     0.008 C 
ATOM      9  C   UNL     1     145.651 136.166 143.053  1.00  0.00     0.008 C 
ENDBRANCH   5   7
ENDBRANCH   4   5
ENDBRANCH   1   3
BRANCH   1  10
ATOM     10  C   UNL     1     148.071 139.270 141.098  1.00  0.00     0.002 C 
ATOM     11  C   UNL     1     149.591 139.368 141.198  1.00  0.00     0.005 C 
ATOM     12  C   UNL     1     147.795 139.005 139.571  1.00  0.00    -0.023 C 
ATOM     13  C   UNL     1     150.118 138.364 140.200  1.00  0.00     0.009 C 
ATOM     14  C   UNL     1     149.131 138.371 139.029  1.00  0.00     0.021 C 
ATOM     15  C   UNL     1     146.560 138.083 139.359  1.00  0.00     0.008 C 
ATOM     16  C   UNL     1     147.536 140.327 138.801  1.00  0.00     0.012 C 
ATOM     17  C   UNL     1     149.049 136.980 138.405  1.00  0.00    -0.063 C 
ATOM     18  C   UNL     1     146.868 136.610 139.614  1.00  0.00     0.009 C 
ATOM     19  C   UNL     1     147.827 136.089 138.532  1.00  0.00     0.025 C 
ATOM     20  C   UNL     1     150.089 136.531 137.683  1.00  0.00    -0.000 C 
ATOM     21  C   UNL     1     148.227 134.574 138.687  1.00  0.00    -0.005 C 
ATOM     22  C   UNL     1     150.125 135.150 137.172  1.00  0.00    -0.000 C 
ATOM     23  C   UNL     1     149.241 134.226 137.589  1.00  0.00    -0.061 C 
ATOM     24  C   UNL     1     146.951 133.689 138.539  1.00  0.00     0.014 C 
ATOM     25  C   UNL     1     148.894 134.305 140.061  1.00  0.00     0.017 C 
ATOM     26  C   UNL     1     149.454 132.784 137.191  1.00  0.00     0.063 C 
ATOM     27  C   UNL     1     147.258 132.210 138.273  1.00  0.00     0.033 C 
ATOM     28  C   UNL     1     148.129 132.036 137.022  1.00  0.00     0.118 C 
BRANCH  28  29
ATOM     29  O   UNL     1     147.463 132.508 135.880  1.00  0.00    -0.393 OA
ATOM     30  H   UNL     1     148.075 132.368 135.112  1.00  0.00     0.210 HD
ENDBRANCH  28  29
ENDBRANCH   1  10
TORSDOF 5
ENDMDL
MODEL 3
REMARK VINA RESULT:    -6.378      3.877      7.168
REMARK INTER + INTRA:          -9.435
REMARK INTER:                  -7.837
REMARK INTRA:                  -1.599
REMARK UNBOUND:                -1.379
REMARK SMILES CC(C)[C@H](C)C=C[C@@H](C)[C@@H]1CC[C@H]2C3=CC=C4C[C@H](O)CC[C@]4(C)[C@H]3CC[C@]21C
REMARK SMILES IDX 8 1 9 2 7 3 6 4 4 5 5 6 2 7 1 8 3 9 10 10 11 11 28 12 12 13
REMARK SMILES IDX 13 14 27 15 29 16 14 17 26 18 25 19 15 20 23 21 16 22 17 23
REMARK SMILES IDX 22 24 24 25 18 26 21 27 19 28 20 29
REMARK H PARENT 20 30
REMARK Flexibility Score: inf
ROOT
ATOM      1  C   UNL     1     148.143 140.212 141.007  1.00  0.00     0.012 C 
ATOM      2  C   UNL     1     148.470 141.523 141.747  1.00  0.00     0.012 C 
ENDROOT
BRANCH   1   3
ATOM      3  C   UNL     1     148.243 140.432 139.512  1.00  0.00    -0.028 C 
ATOM      4  C   UNL     1     147.193 140.815 138.760  1.00  0.00    -0.028 C 
BRANCH   4   5
ATOM      5  C   UNL     1     147.325 141.054 137.273  1.00  0.00     0.011 C 
ATOM      6  C   UNL     1     148.547 140.271 136.767  1.00  0.00     0.012 C 
BRANCH   5   7
ATOM      7  C   UNL     1     146.017 140.651 136.528  1.00  0.00    -0.011 C 
ATOM      8  C   UNL     1     145.847 139.121 136.474  1.00  0.00     0.008 C 
ATOM      9  C   UNL     1     144.769 141.264 137.195  1.00  0.00     0.008 C 
ENDBRANCH   5   7
ENDBRANCH   4   5
ENDBRANCH   1   3
BRANCH   1  10
ATOM     10  C   UNL     1     146.750 139.627 141.420  1.00  0.00     0.002 C 
ATOM     11  C   UNL     1     146.371 140.005 142.849  1.00  0.00     0.005 C 
ATOM     12  C   UNL     1     146.566 138.064 141.368  1.00  0.00    -0.023 C 
ATOM     13  C   UNL     1     145.240 139.074 143.218  1.00  0.00     0.009 C 
ATOM     14  C   UNL     1     145.541 137.745 142.519  1.00  0.00     0.021 C 
ATOM     15  C   UNL     1     146.073 137.587 139.971  1.00  0.00     0.008 C 
ATOM     16  C   UNL     1     147.893 137.323 141.678  1.00  0.00     0.012 C 
ATOM     17  C   UNL     1     144.236 137.052 142.131  1.00  0.00    -0.063 C 
ATOM     18  C   UNL     1     144.580 137.825 139.756  1.00  0.00     0.009 C 
ATOM     19  C   UNL     1     143.773 136.912 140.692  1.00  0.00     0.025 C 
ATOM     20  C   UNL     1     143.477 136.510 143.097  1.00  0.00    -0.000 C 
ATOM     21  C   UNL     1     142.211 137.067 140.569  1.00  0.00    -0.005 C 
ATOM     22  C   UNL     1     142.147 135.951 142.801  1.00  0.00    -0.000 C 
ATOM     23  C   UNL     1     141.550 136.156 141.613  1.00  0.00    -0.061 C 
ATOM     24  C   UNL     1     141.766 136.647 139.134  1.00  0.00     0.014 C 
ATOM     25  C   UNL     1     141.764 138.524 140.850  1.00  0.00     0.017 C 
ATOM     26  C   UNL     1     140.109 135.736 141.442  1.00  0.00     0.063 C 
ATOM     27  C   UNL     1     140.261 136.372 139.013  1.00  0.00     0.033 C 
ATOM     28  C   UNL     1     139.810 135.294 140.007  1.00  0.00     0.118 C 
BRANCH  28  29
ATOM     29  O   UNL     1     140.452 134.073 139.745  1.00  0.00    -0.393 OA
ATOM     30  H   UNL     1     141.413 134.203 139.953  1.00  0.00     0.210 HD
ENDBRANCH  28  29
ENDBRANCH   1  10
TORSDOF 5
ENDMDL
MODEL 4
REMARK VINA RESULT:    -6.348      3.185      6.832
REMARK INTER + INTRA:          -9.397
REMARK INTER:                  -8.040
REMARK INTRA:                  -1.357
REMARK UNBOUND:                -1.379
REMARK SMILES CC(C)[C@H](C)C=C[C@@H](C)[C@@H]1CC[C@H]2C3=CC=C4C[C@H](O)CC[C@]4(C)[C@H]3CC[C@]21C
REMARK SMILES IDX 8 1 9 2 7 3 6 4 4 5 5 6 2 7 1 8 3 9 10 10 11 11 28 12 12 13
REMARK SMILES IDX 13 14 27 15 29 16 14 17 26 18 25 19 15 20 23 21 16 22 17 23
REMARK SMILES IDX 22 24 24 25 18 26 21 27 19 28 20 29
REMARK H PARENT 20 30
REMARK Flexibility Score: inf
ROOT
ATOM      1  C   UNL     1     148.671 137.121 137.373  1.00  0.00     0.012 C 
ATOM      2  C   UNL     1     149.573 135.874 137.304  1.00  0.00     0.012 C 
ENDROOT
BRANCH   1   3
ATOM      3  C   UNL     1     149.289 138.146 138.300  1.00  0.00    -0.028 C 
ATOM      4  C   UNL     1     149.476 137.920 139.615  1.00  0.00    -0.028 C 
BRANCH   4   5
ATOM      5  C   UNL     1     150.120 138.950 140.516  1.00  0.00     0.011 C 
ATOM      6  C   UNL     1     150.125 140.298 139.777  1.00  0.00     0.012 C 
BRANCH   5   7
ATOM      7  C   UNL     1     149.379 139.030 141.884  1.00  0.00    -0.011 C 
ATOM      8  C   UNL     1     148.840 140.448 142.151  1.00  0.00     0.008 C 
ATOM      9  C   UNL     1     148.207 138.032 141.957  1.00  0.00     0.008 C 
ENDBRANCH   5   7
ENDBRANCH   4   5
ENDBRANCH   1   3
BRANCH   1  10
ATOM     10  C   UNL     1     147.201 136.771 137.783  1.00  0.00     0.002 C 
ATOM     11  C   UNL     1     146.654 135.583 136.997  1.00  0.00     0.005 C 
ATOM     12  C   UNL     1     146.106 137.890 137.613  1.00  0.00    -0.023 C 
ATOM     13  C   UNL     1     145.159 135.622 137.212  1.00  0.00     0.009 C 
ATOM     14  C   UNL     1     144.781 137.103 137.289  1.00  0.00     0.021 C 
ATOM     15  C   UNL     1     145.985 138.778 138.885  1.00  0.00     0.008 C 
ATOM     16  C   UNL     1     146.424 138.822 136.414  1.00  0.00     0.012 C 
ATOM     17  C   UNL     1     143.599 137.291 138.238  1.00  0.00    -0.063 C 
ATOM     18  C   UNL     1     145.200 138.104 140.007  1.00  0.00     0.009 C 
ATOM     19  C   UNL     1     143.727 137.963 139.593  1.00  0.00     0.025 C 
ATOM     20  C   UNL     1     142.382 136.877 137.848  1.00  0.00    -0.000 C 
ATOM     21  C   UNL     1     142.808 137.274 140.670  1.00  0.00    -0.005 C 
ATOM     22  C   UNL     1     141.233 136.907 138.770  1.00  0.00    -0.000 C 
ATOM     23  C   UNL     1     141.396 137.135 140.085  1.00  0.00    -0.061 C 
ATOM     24  C   UNL     1     142.771 138.160 141.954  1.00  0.00     0.014 C 
ATOM     25  C   UNL     1     143.323 135.856 141.028  1.00  0.00     0.017 C 
ATOM     26  C   UNL     1     140.214 136.949 141.008  1.00  0.00     0.063 C 
ATOM     27  C   UNL     1     141.619 137.814 142.906  1.00  0.00     0.033 C 
ATOM     28  C   UNL     1     140.262 137.911 142.198  1.00  0.00     0.118 C 
BRANCH  28  29
ATOM     29  O   UNL     1     140.022 139.222 141.755  1.00  0.00    -0.393 OA
ATOM     30  H   UNL     1     139.415 139.643 142.418  1.00  0.00     0.210 HD
ENDBRANCH  28  29
ENDBRANCH   1  10
TORSDOF 5
ENDMDL
MODEL 5
REMARK VINA RESULT:    -6.297      3.825      5.767
REMARK INTER + INTRA:          -9.332
REMARK INTER:                  -8.012
REMARK INTRA:                  -1.320
REMARK UNBOUND:                -1.379
REMARK SMILES CC(C)[C@H](C)C=C[C@@H](C)[C@@H]1CC[C@H]2C3=CC=C4C[C@H](O)CC[C@]4(C)[C@H]3CC[C@]21C
REMARK SMILES IDX 8 1 9 2 7 3 6 4 4 5 5 6 2 7 1 8 3 9 10 10 11 11 28 12 12 13
REMARK SMILES IDX 13 14 27 15 29 16 14 17 26 18 25 19 15 20 23 21 16 22 17 23
REMARK SMILES IDX 22 24 24 25 18 26 21 27 19 28 20 29
REMARK H PARENT 20 30
REMARK Flexibility Score: inf
ROOT
ATOM      1  C   UNL     1     149.084 139.175 138.338  1.00  0.00     0.012 C 
ATOM      2  C   UNL     1     150.088 140.322 138.556  1.00  0.00     0.012 C 
ENDROOT
BRANCH   1   3
ATOM      3  C   UNL     1     148.117 139.547 137.234  1.00  0.00    -0.028 C 
ATOM      4  C   UNL     1     146.968 140.211 137.465  1.00  0.00    -0.028 C 
BRANCH   4   5
ATOM      5  C   UNL     1     146.031 140.595 136.341  1.00  0.00     0.011 C 
ATOM      6  C   UNL     1     145.910 139.396 135.386  1.00  0.00     0.012 C 
BRANCH   5   7
ATOM      7  C   UNL     1     144.649 141.045 136.901  1.00  0.00    -0.011 C 
ATOM      8  C   UNL     1     143.745 141.605 135.787  1.00  0.00     0.008 C 
ATOM      9  C   UNL     1     143.912 139.885 137.601  1.00  0.00     0.008 C 
ENDBRANCH   5   7
ENDBRANCH   4   5
ENDBRANCH   1   3
BRANCH   1  10
ATOM     10  C   UNL     1     148.340 138.776 139.658  1.00  0.00     0.002 C 
ATOM     11  C   UNL     1     149.254 138.857 140.877  1.00  0.00     0.005 C 
ATOM     12  C   UNL     1     147.707 137.336 139.737  1.00  0.00    -0.023 C 
ATOM     13  C   UNL     1     148.533 138.091 141.962  1.00  0.00     0.009 C 
ATOM     14  C   UNL     1     147.806 136.942 141.258  1.00  0.00     0.021 C 
ATOM     15  C   UNL     1     146.247 137.317 139.202  1.00  0.00     0.008 C 
ATOM     16  C   UNL     1     148.526 136.308 138.913  1.00  0.00     0.012 C 
ATOM     17  C   UNL     1     146.505 136.621 141.990  1.00  0.00    -0.063 C 
ATOM     18  C   UNL     1     145.240 137.874 140.206  1.00  0.00     0.009 C 
ATOM     19  C   UNL     1     145.136 136.927 141.411  1.00  0.00     0.025 C 
ATOM     20  C   UNL     1     146.566 136.011 143.185  1.00  0.00    -0.000 C 
ATOM     21  C   UNL     1     144.127 137.395 142.526  1.00  0.00    -0.005 C 
ATOM     22  C   UNL     1     145.357 135.799 143.998  1.00  0.00    -0.000 C 
ATOM     23  C   UNL     1     144.192 136.396 143.689  1.00  0.00    -0.061 C 
ATOM     24  C   UNL     1     142.685 137.431 141.930  1.00  0.00     0.014 C 
ATOM     25  C   UNL     1     144.501 138.796 143.073  1.00  0.00     0.017 C 
ATOM     26  C   UNL     1     143.047 136.308 144.670  1.00  0.00     0.063 C 
ATOM     27  C   UNL     1     141.582 137.479 142.995  1.00  0.00     0.033 C 
ATOM     28  C   UNL     1     141.689 136.295 143.963  1.00  0.00     0.118 C 
BRANCH  28  29
ATOM     29  O   UNL     1     141.522 135.077 143.284  1.00  0.00    -0.393 OA
ATOM     30  H   UNL     1     141.741 134.355 143.929  1.00  0.00     0.210 HD
ENDBRANCH  28  29
ENDBRANCH   1  10
TORSDOF 5
ENDMDL
MODEL 6
REMARK VINA RESULT:    -6.284      3.356      6.931
REMARK INTER + INTRA:          -9.316
REMARK INTER:                  -8.138
REMARK INTRA:                  -1.179
REMARK UNBOUND:                -1.379
REMARK SMILES CC(C)[C@H](C)C=C[C@@H](C)[C@@H]1CC[C@H]2C3=CC=C4C[C@H](O)CC[C@]4(C)[C@H]3CC[C@]21C
REMARK SMILES IDX 8 1 9 2 7 3 6 4 4 5 5 6 2 7 1 8 3 9 10 10 11 11 28 12 12 13
REMARK SMILES IDX 13 14 27 15 29 16 14 17 26 18 25 19 15 20 23 21 16 22 17 23
REMARK SMILES IDX 22 24 24 25 18 26 21 27 19 28 20 29
REMARK H PARENT 20 30
REMARK Flexibility Score: inf
ROOT
ATOM      1  C   UNL     1     147.833 140.192 139.762  1.00  0.00     0.012 C 
ATOM      2  C   UNL     1     147.346 140.904 141.037  1.00  0.00     0.012 C 
ENDROOT
BRANCH   1   3
ATOM      3  C   UNL     1     147.144 140.785 138.551  1.00  0.00    -0.028 C 
ATOM      4  C   UNL     1     146.347 140.063 137.740  1.00  0.00    -0.028 C 
BRANCH   4   5
ATOM      5  C   UNL     1     145.648 140.686 136.552  1.00  0.00     0.011 C 
ATOM      6  C   UNL     1     145.754 139.711 135.368  1.00  0.00     0.012 C 
BRANCH   5   7
ATOM      7  C   UNL     1     144.170 141.034 136.899  1.00  0.00    -0.011 C 
ATOM      8  C   UNL     1     143.365 141.396 135.638  1.00  0.00     0.008 C 
ATOM      9  C   UNL     1     143.463 139.869 137.620  1.00  0.00     0.008 C 
ENDBRANCH   5   7
ENDBRANCH   4   5
ENDBRANCH   1   3
BRANCH   1  10
ATOM     10  C   UNL     1     147.647 138.638 139.839  1.00  0.00     0.002 C 
ATOM     11  C   UNL     1     146.835 138.219 141.061  1.00  0.00     0.005 C 
ATOM     12  C   UNL     1     148.943 137.746 139.904  1.00  0.00    -0.023 C 
ATOM     13  C   UNL     1     147.074 136.734 141.203  1.00  0.00     0.009 C 
ATOM     14  C   UNL     1     148.520 136.493 140.759  1.00  0.00     0.021 C 
ATOM     15  C   UNL     1     149.453 137.364 138.485  1.00  0.00     0.008 C 
ATOM     16  C   UNL     1     150.098 138.472 140.643  1.00  0.00     0.012 C 
ATOM     17  C   UNL     1     148.643 135.118 140.105  1.00  0.00    -0.063 C 
ATOM     18  C   UNL     1     148.644 136.238 137.846  1.00  0.00     0.009 C 
ATOM     19  C   UNL     1     148.882 134.931 138.618  1.00  0.00     0.025 C 
ATOM     20  C   UNL     1     148.571 134.023 140.879  1.00  0.00    -0.000 C 
ATOM     21  C   UNL     1     148.095 133.688 138.057  1.00  0.00    -0.005 C 
ATOM     22  C   UNL     1     148.546 132.673 140.291  1.00  0.00    -0.000 C 
ATOM     23  C   UNL     1     148.371 132.487 138.971  1.00  0.00    -0.061 C 
ATOM     24  C   UNL     1     148.585 133.382 136.608  1.00  0.00     0.014 C 
ATOM     25  C   UNL     1     146.566 133.945 138.048  1.00  0.00     0.017 C 
ATOM     26  C   UNL     1     148.148 131.083 138.458  1.00  0.00     0.063 C 
ATOM     27  C   UNL     1     148.197 131.984 136.110  1.00  0.00     0.033 C 
ATOM     28  C   UNL     1     148.722 130.892 137.051  1.00  0.00     0.118 C 
BRANCH  28  29
ATOM     29  O   UNL     1     150.125 130.911 137.107  1.00  0.00    -0.393 OA
ATOM     30  H   UNL     1     150.437 131.429 136.320  1.00  0.00     0.210 HD
ENDBRANCH  28  29
ENDBRANCH   1  10
TORSDOF 5
ENDMDL
MODEL 7
REMARK VINA RESULT:    -6.222      2.827      7.961
REMARK INTER + INTRA:          -9.237
REMARK INTER:                  -8.076
REMARK INTRA:                  -1.161
REMARK UNBOUND:                -1.379
REMARK SMILES CC(C)[C@H](C)C=C[C@@H](C)[C@@H]1CC[C@H]2C3=CC=C4C[C@H](O)CC[C@]4(C)[C@H]3CC[C@]21C
REMARK SMILES IDX 8 1 9 2 7 3 6 4 4 5 5 6 2 7 1 8 3 9 10 10 11 11 28 12 12 13
REMARK SMILES IDX 13 14 27 15 29 16 14 17 26 18 25 19 15 20 23 21 16 22 17 23
REMARK SMILES IDX 22 24 24 25 18 26 21 27 19 28 20 29
REMARK H PARENT 20 30
REMARK Flexibility Score: inf
ROOT
ATOM      1  C   UNL     1     147.006 140.793 137.740  1.00  0.00     0.012 C 
ATOM      2  C   UNL     1     147.138 141.863 136.641  1.00  0.00     0.012 C 
ENDROOT
BRANCH   1   3
ATOM      3  C   UNL     1     148.113 140.969 138.758  1.00  0.00    -0.028 C 
ATOM      4  C   UNL     1     147.909 141.523 139.969  1.00  0.00    -0.028 C 
BRANCH   4   5
ATOM      5  C   UNL     1     149.026 141.663 140.979  1.00  0.00     0.011 C 
ATOM      6  C   UNL     1     149.172 143.153 141.329  1.00  0.00     0.012 C 
BRANCH   5   7
ATOM      7  C   UNL     1     148.750 140.786 142.236  1.00  0.00    -0.011 C 
ATOM      8  C   UNL     1     147.244 140.711 142.551  1.00  0.00     0.008 C 
ATOM      9  C   UNL     1     149.291 139.353 142.062  1.00  0.00     0.008 C 
ENDBRANCH   5   7
ENDBRANCH   4   5
ENDBRANCH   1   3
BRANCH   1  10
ATOM     10  C   UNL     1     146.973 139.340 137.156  1.00  0.00     0.002 C 
ATOM     11  C   UNL     1     146.251 139.279 135.813  1.00  0.00     0.005 C 
ATOM     12  C   UNL     1     146.286 138.217 138.021  1.00  0.00    -0.023 C 
ATOM     13  C   UNL     1     145.966 137.813 135.585  1.00  0.00     0.009 C 
ATOM     14  C   UNL     1     145.683 137.216 136.966  1.00  0.00     0.021 C 
ATOM     15  C   UNL     1     147.295 137.537 138.991  1.00  0.00     0.008 C 
ATOM     16  C   UNL     1     145.121 138.787 138.873  1.00  0.00     0.012 C 
ATOM     17  C   UNL     1     146.160 135.766 137.016  1.00  0.00    -0.063 C 
ATOM     18  C   UNL     1     148.198 136.524 138.293  1.00  0.00     0.009 C 
ATOM     19  C   UNL     1     147.361 135.321 137.830  1.00  0.00     0.025 C 
ATOM     20  C   UNL     1     145.471 134.833 136.338  1.00  0.00    -0.000 C 
ATOM     21  C   UNL     1     148.181 134.200 137.087  1.00  0.00    -0.005 C 
ATOM     22  C   UNL     1     145.959 133.447 136.237  1.00  0.00    -0.000 C 
ATOM     23  C   UNL     1     147.203 133.113 136.621  1.00  0.00    -0.061 C 
ATOM     24  C   UNL     1     149.228 133.593 138.072  1.00  0.00     0.014 C 
ATOM     25  C   UNL     1     148.904 134.765 135.838  1.00  0.00     0.017 C 
ATOM     26  C   UNL     1     147.715 131.727 136.303  1.00  0.00     0.063 C 
ATOM     27  C   UNL     1     149.802 132.249 137.606  1.00  0.00     0.033 C 
ATOM     28  C   UNL     1     148.690 131.220 137.370  1.00  0.00     0.118 C 
BRANCH  28  29
ATOM     29  O   UNL     1     147.992 130.955 138.560  1.00  0.00    -0.393 OA
ATOM     30  H   UNL     1     148.446 130.187 138.994  1.00  0.00     0.210 HD
ENDBRANCH  28  29
ENDBRANCH   1  10
TORSDOF 5
ENDMDL
MODEL 8
REMARK VINA RESULT:    -6.206      3.392      5.972
REMARK INTER + INTRA:          -9.218
REMARK INTER:                  -7.577
REMARK INTRA:                  -1.641
REMARK UNBOUND:                -1.379
REMARK SMILES CC(C)[C@H](C)C=C[C@@H](C)[C@@H]1CC[C@H]2C3=CC=C4C[C@H](O)CC[C@]4(C)[C@H]3CC[C@]21C
REMARK SMILES IDX 8 1 9 2 7 3 6 4 4 5 5 6 2 7 1 8 3 9 10 10 11 11 28 12 12 13
REMARK SMILES IDX 13 14 27 15 29 16 14 17 26 18 25 19 15 20 23 21 16 22 17 23
REMARK SMILES IDX 22 24 24 25 18 26 21 27 19 28 20 29
REMARK H PARENT 20 30
REMARK Flexibility Score: inf
ROOT
ATOM      1  C   UNL     1     146.875 135.293 142.549  1.00  0.00     0.012 C 
ATOM      2  C   UNL     1     147.110 133.771 142.581  1.00  0.00     0.012 C 
ENDROOT
BRANCH   1   3
ATOM      3  C   UNL     1     145.692 135.645 143.427  1.00  0.00    -0.028 C 
ATOM      4  C   UNL     1     144.436 135.743 142.951  1.00  0.00    -0.028 C 
BRANCH   4   5
ATOM      5  C   UNL     1     143.267 136.069 143.853  1.00  0.00     0.011 C 
ATOM      6  C   UNL     1     143.821 136.604 145.183  1.00  0.00     0.012 C 
BRANCH   5   7
ATOM      7  C   UNL     1     142.303 137.082 143.166  1.00  0.00    -0.011 C 
ATOM      8  C   UNL     1     142.868 138.514 143.205  1.00  0.00     0.008 C 
ATOM      9  C   UNL     1     142.025 136.700 141.698  1.00  0.00     0.008 C 
ENDBRANCH   5   7
ENDBRANCH   4   5
ENDBRANCH   1   3
BRANCH   1  10
ATOM     10  C   UNL     1     146.705 135.839 141.091  1.00  0.00     0.002 C 
ATOM     11  C   UNL     1     147.533 135.046 140.083  1.00  0.00     0.005 C 
ATOM     12  C   UNL     1     147.092 137.341 140.820  1.00  0.00    -0.023 C 
ATOM     13  C   UNL     1     147.573 135.907 138.842  1.00  0.00     0.009 C 
ATOM     14  C   UNL     1     147.608 137.357 139.333  1.00  0.00     0.021 C 
ATOM     15  C   UNL     1     145.888 138.298 141.053  1.00  0.00     0.008 C 
ATOM     16  C   UNL     1     148.251 137.806 141.742  1.00  0.00     0.012 C 
ATOM     17  C   UNL     1     146.876 138.261 138.343  1.00  0.00    -0.063 C 
ATOM     18  C   UNL     1     144.892 138.290 139.897  1.00  0.00     0.009 C 
ATOM     19  C   UNL     1     145.541 138.913 138.652  1.00  0.00     0.025 C 
ATOM     20  C   UNL     1     147.450 138.522 137.157  1.00  0.00    -0.000 C 
ATOM     21  C   UNL     1     144.611 138.959 137.382  1.00  0.00    -0.005 C 
ATOM     22  C   UNL     1     146.735 139.273 136.110  1.00  0.00    -0.000 C 
ATOM     23  C   UNL     1     145.420 139.532 136.210  1.00  0.00    -0.061 C 
ATOM     24  C   UNL     1     143.381 139.871 137.680  1.00  0.00     0.014 C 
ATOM     25  C   UNL     1     144.127 137.541 136.986  1.00  0.00     0.017 C 
ATOM     26  C   UNL     1     144.702 140.120 135.017  1.00  0.00     0.063 C 
ATOM     27  C   UNL     1     142.625 140.314 136.421  1.00  0.00     0.033 C 
ATOM     28  C   UNL     1     143.553 141.040 135.439  1.00  0.00     0.118 C 
BRANCH  28  29
ATOM     29  O   UNL     1     144.072 142.211 136.014  1.00  0.00    -0.393 OA
ATOM     30  H   UNL     1     144.637 141.930 136.780  1.00  0.00     0.210 HD
ENDBRANCH  28  29
ENDBRANCH   1  10
TORSDOF 5
ENDMDL
MODEL 9
REMARK VINA RESULT:    -6.128      3.308      8.218
REMARK INTER + INTRA:          -9.119
REMARK INTER:                  -7.997
REMARK INTRA:                  -1.122
REMARK UNBOUND:                -1.379
REMARK SMILES CC(C)[C@H](C)C=C[C@@H](C)[C@@H]1CC[C@H]2C3=CC=C4C[C@H](O)CC[C@]4(C)[C@H]3CC[C@]21C
REMARK SMILES IDX 8 1 9 2 7 3 6 4 4 5 5 6 2 7 1 8 3 9 10 10 11 11 28 12 12 13
REMARK SMILES IDX 13 14 27 15 29 16 14 17 26 18 25 19 15 20 23 21 16 22 17 23
REMARK SMILES IDX 22 24 24 25 18 26 21 27 19 28 20 29
REMARK H PARENT 20 30
REMARK Flexibility Score: inf
ROOT
ATOM      1  C   UNL     1     146.612 140.866 137.148  1.00  0.00     0.012 C 
ATOM      2  C   UNL     1     147.860 140.741 136.255  1.00  0.00     0.012 C 
ENDROOT
BRANCH   1   3
ATOM      3  C   UNL     1     147.014 141.379 138.516  1.00  0.00    -0.028 C 
ATOM      4  C   UNL     1     148.242 141.187 139.033  1.00  0.00    -0.028 C 
BRANCH   4   5
ATOM      5  C   UNL     1     148.628 141.731 140.391  1.00  0.00     0.011 C 
ATOM      6  C   UNL     1     147.612 142.818 140.778  1.00  0.00     0.012 C 
BRANCH   5   7
ATOM      7  C   UNL     1     148.700 140.588 141.446  1.00  0.00    -0.011 C 
ATOM      8  C   UNL     1     147.379 140.457 142.227  1.00  0.00     0.008 C 
ATOM      9  C   UNL     1     149.027 139.230 140.795  1.00  0.00     0.008 C 
ENDBRANCH   5   7
ENDBRANCH   4   5
ENDBRANCH   1   3
BRANCH   1  10
ATOM     10  C   UNL     1     145.807 139.526 137.239  1.00  0.00     0.002 C 
ATOM     11  C   UNL     1     146.499 138.391 136.489  1.00  0.00     0.005 C 
ATOM     12  C   UNL     1     144.332 139.517 136.687  1.00  0.00    -0.023 C 
ATOM     13  C   UNL     1     145.447 137.317 136.339  1.00  0.00     0.009 C 
ATOM     14  C   UNL     1     144.116 138.051 136.154  1.00  0.00     0.021 C 
ATOM     15  C   UNL     1     143.304 139.919 137.783  1.00  0.00     0.008 C 
ATOM     16  C   UNL     1     144.163 140.498 135.498  1.00  0.00     0.012 C 
ATOM     17  C   UNL     1     142.980 137.237 136.770  1.00  0.00    -0.063 C 
ATOM     18  C   UNL     1     143.004 138.784 138.760  1.00  0.00     0.009 C 
ATOM     19  C   UNL     1     142.249 137.662 138.030  1.00  0.00     0.025 C 
ATOM     20  C   UNL     1     142.583 136.111 136.155  1.00  0.00    -0.000 C 
ATOM     21  C   UNL     1     141.884 136.425 138.933  1.00  0.00    -0.005 C 
ATOM     22  C   UNL     1     141.589 135.214 136.771  1.00  0.00    -0.000 C 
ATOM     23  C   UNL     1     141.209 135.364 138.052  1.00  0.00    -0.061 C 
ATOM     24  C   UNL     1     140.908 136.884 140.060  1.00  0.00     0.014 C 
ATOM     25  C   UNL     1     143.151 135.792 139.563  1.00  0.00     0.017 C 
ATOM     26  C   UNL     1     140.349 134.296 138.685  1.00  0.00     0.063 C 
ATOM     27  C   UNL     1     140.175 135.724 140.748  1.00  0.00     0.033 C 
ATOM     28  C   UNL     1     139.396 134.877 139.734  1.00  0.00     0.118 C 
BRANCH  28  29
ATOM     29  O   UNL     1     138.405 135.643 139.098  1.00  0.00    -0.393 OA
ATOM     30  H   UNL     1     138.731 135.829 138.179  1.00  0.00     0.210 HD
ENDBRANCH  28  29
ENDBRANCH   1  10
TORSDOF 5
ENDMDL
