MODEL 1
REMARK VINA RESULT:    -4.843      0.000      0.000
REMARK INTER + INTRA:          -7.456
REMARK INTER:                  -6.684
REMARK INTRA:                  -0.772
REMARK UNBOUND:                -0.772
REMARK SMILES CCCCc1cccc(O)c1CCCC
REMARK SMILES IDX 5 1 11 2 9 3 8 4 7 5 6 6 4 7 3 8 2 9 1 10 12 11 13 12 14 13
REMARK SMILES IDX 15 14 10 15
REMARK H PARENT 10 16
REMARK Flexibility Score: inf
ROOT
ATOM      1  C   UNL     1     477.822  36.036 461.465  1.00  0.00    -0.041 A 
ATOM      2  C   UNL     1     478.172  37.370 461.094  1.00  0.00    -0.003 A 
ATOM      3  C   UNL     1     479.159  37.567 460.099  1.00  0.00     0.119 A 
ATOM      4  C   UNL     1     479.748  36.471 459.459  1.00  0.00     0.046 A 
ATOM      5  C   UNL     1     479.371  35.175 459.794  1.00  0.00     0.004 A 
ATOM      6  C   UNL     1     478.419  34.958 460.786  1.00  0.00     0.004 A 
ENDROOT
BRANCH   1   7
ATOM      7  C   UNL     1     476.834  35.709 462.568  1.00  0.00     0.036 C 
BRANCH   7   8
ATOM      8  C   UNL     1     477.011  34.273 463.077  1.00  0.00     0.004 C 
BRANCH   8   9
ATOM      9  C   UNL     1     475.738  33.449 462.852  1.00  0.00    -0.003 C 
ATOM     10  C   UNL     1     474.724  33.689 463.966  1.00  0.00     0.004 C 
ENDBRANCH   8   9
ENDBRANCH   7   8
ENDBRANCH   1   7
BRANCH   2  11
ATOM     11  C   UNL     1     477.501  38.593 461.694  1.00  0.00     0.040 C 
BRANCH  11  12
ATOM     12  C   UNL     1     476.187  38.919 460.965  1.00  0.00     0.005 C 
BRANCH  12  13
ATOM     13  C   UNL     1     475.223  39.683 461.878  1.00  0.00    -0.003 C 
ATOM     14  C   UNL     1     475.199  39.083 463.280  1.00  0.00     0.004 C 
ENDBRANCH  12  13
ENDBRANCH  11  12
ENDBRANCH   2  11
BRANCH   3  15
ATOM     15  O   UNL     1     479.555  38.858 459.749  1.00  0.00    -0.508 OA
ATOM     16  H   UNL     1     478.881  39.576 459.506  1.00  0.00     0.293 HD
ENDBRANCH   3  15
TORSDOF 7
ENDMDL
MODEL 2
REMARK VINA RESULT:    -4.336      2.272      4.887
REMARK INTER + INTRA:          -6.755
REMARK INTER:                  -5.481
REMARK INTRA:                  -1.274
REMARK UNBOUND:                -0.772
REMARK SMILES CCCCc1cccc(O)c1CCCC
REMARK SMILES IDX 5 1 11 2 9 3 8 4 7 5 6 6 4 7 3 8 2 9 1 10 12 11 13 12 14 13
REMARK SMILES IDX 15 14 10 15
REMARK H PARENT 10 16
REMARK Flexibility Score: inf
ROOT
ATOM      1  C   UNL     1     478.206  37.737 461.161  1.00  0.00    -0.041 A 
ATOM      2  C   UNL     1     478.953  37.138 460.103  1.00  0.00    -0.003 A 
ATOM      3  C   UNL     1     479.021  35.726 460.025  1.00  0.00     0.119 A 
ATOM      4  C   UNL     1     478.328  34.933 460.947  1.00  0.00     0.046 A 
ATOM      5  C   UNL     1     477.566  35.522 461.950  1.00  0.00     0.004 A 
ATOM      6  C   UNL     1     477.506  36.909 462.058  1.00  0.00     0.004 A 
ENDROOT
BRANCH   1   7
ATOM      7  C   UNL     1     478.127  39.235 461.384  1.00  0.00     0.036 C 
BRANCH   7   8
ATOM      8  C   UNL     1     478.395  39.603 462.849  1.00  0.00     0.004 C 
BRANCH   8   9
ATOM      9  C   UNL     1     479.865  39.984 463.060  1.00  0.00    -0.003 C 
ATOM     10  C   UNL     1     480.638  38.847 463.722  1.00  0.00     0.004 C 
ENDBRANCH   8   9
ENDBRANCH   7   8
ENDBRANCH   1   7
BRANCH   2  11
ATOM     11  C   UNL     1     479.651  37.952 459.026  1.00  0.00     0.040 C 
BRANCH  11  12
ATOM     12  C   UNL     1     481.147  38.118 459.339  1.00  0.00     0.005 C 
BRANCH  12  13
ATOM     13  C   UNL     1     481.469  39.558 459.754  1.00  0.00    -0.003 C 
ATOM     14  C   UNL     1     482.709  39.612 460.640  1.00  0.00     0.004 C 
ENDBRANCH  12  13
ENDBRANCH  11  12
ENDBRANCH   2  11
BRANCH   3  15
ATOM     15  O   UNL     1     479.781  35.113 459.029  1.00  0.00    -0.508 OA
ATOM     16  H   UNL     1     480.683  34.694 459.228  1.00  0.00     0.293 HD
ENDBRANCH   3  15
TORSDOF 7
ENDMDL
MODEL 3
REMARK VINA RESULT:    -4.328      1.783      4.556
REMARK INTER + INTRA:          -6.745
REMARK INTER:                  -5.828
REMARK INTRA:                  -0.917
REMARK UNBOUND:                -0.772
REMARK SMILES CCCCc1cccc(O)c1CCCC
REMARK SMILES IDX 5 1 11 2 9 3 8 4 7 5 6 6 4 7 3 8 2 9 1 10 12 11 13 12 14 13
REMARK SMILES IDX 15 14 10 15
REMARK H PARENT 10 16
REMARK Flexibility Score: inf
ROOT
ATOM      1  C   UNL     1     477.828  37.257 461.667  1.00  0.00    -0.041 A 
ATOM      2  C   UNL     1     478.650  37.065 460.515  1.00  0.00    -0.003 A 
ATOM      3  C   UNL     1     478.973  35.745 460.117  1.00  0.00     0.119 A 
ATOM      4  C   UNL     1     478.457  34.649 460.817  1.00  0.00     0.046 A 
ATOM      5  C   UNL     1     477.622  34.842 461.912  1.00  0.00     0.004 A 
ATOM      6  C   UNL     1     477.311  36.132 462.334  1.00  0.00     0.004 A 
ENDROOT
BRANCH   1   7
ATOM      7  C   UNL     1     477.481  38.624 462.225  1.00  0.00     0.036 C 
BRANCH   7   8
ATOM      8  C   UNL     1     475.970  38.781 462.436  1.00  0.00     0.004 C 
BRANCH   8   9
ATOM      9  C   UNL     1     475.276  39.210 461.138  1.00  0.00    -0.003 C 
ATOM     10  C   UNL     1     476.091  40.271 460.404  1.00  0.00     0.004 C 
ENDBRANCH   8   9
ENDBRANCH   7   8
ENDBRANCH   1   7
BRANCH   2  11
ATOM     11  C   UNL     1     479.163  38.218 459.670  1.00  0.00     0.040 C 
BRANCH  11  12
ATOM     12  C   UNL     1     480.517  38.727 460.190  1.00  0.00     0.005 C 
BRANCH  12  13
ATOM     13  C   UNL     1     481.609  38.584 459.124  1.00  0.00    -0.003 C 
ATOM     14  C   UNL     1     482.999  38.718 459.736  1.00  0.00     0.004 C 
ENDBRANCH  12  13
ENDBRANCH  11  12
ENDBRANCH   2  11
BRANCH   3  15
ATOM     15  O   UNL     1     479.811  35.527 459.024  1.00  0.00    -0.508 OA
ATOM     16  H   UNL     1     479.842  34.634 458.545  1.00  0.00     0.293 HD
ENDBRANCH   3  15
TORSDOF 7
ENDMDL
MODEL 4
REMARK VINA RESULT:    -4.142      1.813      3.859
REMARK INTER + INTRA:          -6.488
REMARK INTER:                  -5.012
REMARK INTRA:                  -1.476
REMARK UNBOUND:                -0.772
REMARK SMILES CCCCc1cccc(O)c1CCCC
REMARK SMILES IDX 5 1 11 2 9 3 8 4 7 5 6 6 4 7 3 8 2 9 1 10 12 11 13 12 14 13
REMARK SMILES IDX 15 14 10 15
REMARK H PARENT 10 16
REMARK Flexibility Score: inf
ROOT
ATOM      1  C   UNL     1     478.217  37.446 461.592  1.00  0.00    -0.041 A 
ATOM      2  C   UNL     1     479.001  37.410 460.399  1.00  0.00    -0.003 A 
ATOM      3  C   UNL     1     479.272  36.158 459.795  1.00  0.00     0.119 A 
ATOM      4  C   UNL     1     478.741  34.982 460.337  1.00  0.00     0.046 A 
ATOM      5  C   UNL     1     477.943  35.028 461.474  1.00  0.00     0.004 A 
ATOM      6  C   UNL     1     477.683  36.246 462.096  1.00  0.00     0.004 A 
ENDROOT
BRANCH   1   7
ATOM      7  C   UNL     1     477.928  38.720 462.362  1.00  0.00     0.036 C 
BRANCH   7   8
ATOM      8  C   UNL     1     476.421  38.934 462.555  1.00  0.00     0.004 C 
BRANCH   8   9
ATOM      9  C   UNL     1     475.913  40.084 461.678  1.00  0.00    -0.003 C 
ATOM     10  C   UNL     1     475.254  39.557 460.407  1.00  0.00     0.004 C 
ENDBRANCH   8   9
ENDBRANCH   7   8
ENDBRANCH   1   7
BRANCH   2  11
ATOM     11  C   UNL     1     479.526  38.664 459.722  1.00  0.00     0.040 C 
BRANCH  11  12
ATOM     12  C   UNL     1     478.508  39.218 458.712  1.00  0.00     0.005 C 
BRANCH  12  13
ATOM     13  C   UNL     1     478.423  40.746 458.794  1.00  0.00    -0.003 C 
ATOM     14  C   UNL     1     479.157  41.274 460.023  1.00  0.00     0.004 C 
ENDBRANCH  12  13
ENDBRANCH  11  12
ENDBRANCH   2  11
BRANCH   3  15
ATOM     15  O   UNL     1     480.073  36.087 458.655  1.00  0.00    -0.508 OA
ATOM     16  H   UNL     1     481.048  36.365 458.671  1.00  0.00     0.293 HD
ENDBRANCH   3  15
TORSDOF 7
ENDMDL
MODEL 5
REMARK VINA RESULT:    -4.098      4.590      7.096
REMARK INTER + INTRA:          -6.427
REMARK INTER:                  -5.302
REMARK INTRA:                  -1.125
REMARK UNBOUND:                -0.772
REMARK SMILES CCCCc1cccc(O)c1CCCC
REMARK SMILES IDX 5 1 11 2 9 3 8 4 7 5 6 6 4 7 3 8 2 9 1 10 12 11 13 12 14 13
REMARK SMILES IDX 15 14 10 15
REMARK H PARENT 10 16
REMARK Flexibility Score: inf
ROOT
ATOM      1  C   UNL     1     482.718  39.484 459.775  1.00  0.00    -0.041 A 
ATOM      2  C   UNL     1     483.736  39.417 458.777  1.00  0.00    -0.003 A 
ATOM      3  C   UNL     1     485.091  39.352 459.184  1.00  0.00     0.119 A 
ATOM      4  C   UNL     1     485.420  39.310 460.544  1.00  0.00     0.046 A 
ATOM      5  C   UNL     1     484.421  39.332 461.511  1.00  0.00     0.004 A 
ATOM      6  C   UNL     1     483.084  39.419 461.132  1.00  0.00     0.004 A 
ENDROOT
BRANCH   1   7
ATOM      7  C   UNL     1     481.243  39.631 459.454  1.00  0.00     0.036 C 
BRANCH   7   8
ATOM      8  C   UNL     1     480.382  38.704 460.320  1.00  0.00     0.004 C 
BRANCH   8   9
ATOM      9  C   UNL     1     479.930  37.473 459.526  1.00  0.00    -0.003 C 
ATOM     10  C   UNL     1     478.943  36.631 460.329  1.00  0.00     0.004 C 
ENDBRANCH   8   9
ENDBRANCH   7   8
ENDBRANCH   1   7
BRANCH   2  11
ATOM     11  C   UNL     1     483.429  39.371 457.290  1.00  0.00     0.040 C 
BRANCH  11  12
ATOM     12  C   UNL     1     483.349  37.921 456.785  1.00  0.00     0.005 C 
BRANCH  12  13
ATOM     13  C   UNL     1     481.912  37.548 456.404  1.00  0.00    -0.003 C 
ATOM     14  C   UNL     1     481.155  38.754 455.859  1.00  0.00     0.004 C 
ENDBRANCH  12  13
ENDBRANCH  11  12
ENDBRANCH   2  11
BRANCH   3  15
ATOM     15  O   UNL     1     486.110  39.332 458.232  1.00  0.00    -0.508 OA
ATOM     16  H   UNL     1     486.725  38.532 458.126  1.00  0.00     0.293 HD
ENDBRANCH   3  15
TORSDOF 7
ENDMDL
MODEL 6
REMARK VINA RESULT:    -4.089      3.820      5.916
REMARK INTER + INTRA:          -6.415
REMARK INTER:                  -5.219
REMARK INTRA:                  -1.196
REMARK UNBOUND:                -0.772
REMARK SMILES CCCCc1cccc(O)c1CCCC
REMARK SMILES IDX 5 1 11 2 9 3 8 4 7 5 6 6 4 7 3 8 2 9 1 10 12 11 13 12 14 13
REMARK SMILES IDX 15 14 10 15
REMARK H PARENT 10 16
REMARK Flexibility Score: inf
ROOT
ATOM      1  C   UNL     1     482.744  39.318 460.552  1.00  0.00    -0.041 A 
ATOM      2  C   UNL     1     482.533  38.679 459.293  1.00  0.00    -0.003 A 
ATOM      3  C   UNL     1     483.637  38.094 458.628  1.00  0.00     0.119 A 
ATOM      4  C   UNL     1     484.905  38.103 459.219  1.00  0.00     0.046 A 
ATOM      5  C   UNL     1     485.096  38.689 460.466  1.00  0.00     0.004 A 
ATOM      6  C   UNL     1     484.028  39.291 461.126  1.00  0.00     0.004 A 
ENDROOT
BRANCH   1   7
ATOM      7  C   UNL     1     481.651  40.041 461.315  1.00  0.00     0.036 C 
BRANCH   7   8
ATOM      8  C   UNL     1     481.651  39.657 462.800  1.00  0.00     0.004 C 
BRANCH   8   9
ATOM      9  C   UNL     1     480.407  38.834 463.155  1.00  0.00    -0.003 C 
ATOM     10  C   UNL     1     479.139  39.673 463.034  1.00  0.00     0.004 C 
ENDBRANCH   8   9
ENDBRANCH   7   8
ENDBRANCH   1   7
BRANCH   2  11
ATOM     11  C   UNL     1     481.161  38.564 458.649  1.00  0.00     0.040 C 
BRANCH  11  12
ATOM     12  C   UNL     1     480.411  37.324 459.161  1.00  0.00     0.005 C 
BRANCH  12  13
ATOM     13  C   UNL     1     479.095  37.717 459.842  1.00  0.00    -0.003 C 
ATOM     14  C   UNL     1     478.576  36.590 460.730  1.00  0.00     0.004 C 
ENDBRANCH  12  13
ENDBRANCH  11  12
ENDBRANCH   2  11
BRANCH   3  15
ATOM     15  O   UNL     1     483.470  37.503 457.375  1.00  0.00    -0.508 OA
ATOM     16  H   UNL     1     483.951  36.648 457.120  1.00  0.00     0.293 HD
ENDBRANCH   3  15
TORSDOF 7
ENDMDL
MODEL 7
REMARK VINA RESULT:    -4.066      4.521      6.540
REMARK INTER + INTRA:          -6.383
REMARK INTER:                  -5.648
REMARK INTRA:                  -0.735
REMARK UNBOUND:                -0.772
REMARK SMILES CCCCc1cccc(O)c1CCCC
REMARK SMILES IDX 5 1 11 2 9 3 8 4 7 5 6 6 4 7 3 8 2 9 1 10 12 11 13 12 14 13
REMARK SMILES IDX 15 14 10 15
REMARK H PARENT 10 16
REMARK Flexibility Score: inf
ROOT
ATOM      1  C   UNL     1     481.987  38.419 458.894  1.00  0.00    -0.041 A 
ATOM      2  C   UNL     1     483.311  38.637 459.381  1.00  0.00    -0.003 A 
ATOM      3  C   UNL     1     484.397  38.543 458.478  1.00  0.00     0.119 A 
ATOM      4  C   UNL     1     484.169  38.285 457.121  1.00  0.00     0.046 A 
ATOM      5  C   UNL     1     482.873  38.117 456.645  1.00  0.00     0.004 A 
ATOM      6  C   UNL     1     481.793  38.183 457.521  1.00  0.00     0.004 A 
ENDROOT
BRANCH   1   7
ATOM      7  C   UNL     1     480.759  38.422 459.784  1.00  0.00     0.036 C 
BRANCH   7   8
ATOM      8  C   UNL     1     479.783  37.302 459.403  1.00  0.00     0.004 C 
BRANCH   8   9
ATOM      9  C   UNL     1     478.902  36.911 460.595  1.00  0.00    -0.003 C 
ATOM     10  C   UNL     1     478.632  35.409 460.611  1.00  0.00     0.004 C 
ENDBRANCH   8   9
ENDBRANCH   7   8
ENDBRANCH   1   7
BRANCH   2  11
ATOM     11  C   UNL     1     483.605  39.006 460.825  1.00  0.00     0.040 C 
BRANCH  11  12
ATOM     12  C   UNL     1     483.384  40.508 461.069  1.00  0.00     0.005 C 
BRANCH  12  13
ATOM     13  C   UNL     1     484.720  41.250 461.192  1.00  0.00    -0.003 C 
ATOM     14  C   UNL     1     485.043  42.019 459.915  1.00  0.00     0.004 C 
ENDBRANCH  12  13
ENDBRANCH  11  12
ENDBRANCH   2  11
BRANCH   3  15
ATOM     15  O   UNL     1     485.705  38.705 458.933  1.00  0.00    -0.508 OA
ATOM     16  H   UNL     1     486.342  39.367 458.503  1.00  0.00     0.293 HD
ENDBRANCH   3  15
TORSDOF 7
ENDMDL
MODEL 8
REMARK VINA RESULT:    -4.037      1.748      4.174
REMARK INTER + INTRA:          -6.343
REMARK INTER:                  -5.196
REMARK INTRA:                  -1.147
REMARK UNBOUND:                -0.772
REMARK SMILES CCCCc1cccc(O)c1CCCC
REMARK SMILES IDX 5 1 11 2 9 3 8 4 7 5 6 6 4 7 3 8 2 9 1 10 12 11 13 12 14 13
REMARK SMILES IDX 15 14 10 15
REMARK H PARENT 10 16
REMARK Flexibility Score: inf
ROOT
ATOM      1  C   UNL     1     479.724  38.525 461.529  1.00  0.00    -0.041 A 
ATOM      2  C   UNL     1     479.403  37.606 460.486  1.00  0.00    -0.003 A 
ATOM      3  C   UNL     1     480.243  37.540 459.348  1.00  0.00     0.119 A 
ATOM      4  C   UNL     1     481.393  38.334 459.271  1.00  0.00     0.046 A 
ATOM      5  C   UNL     1     481.724  39.196 460.311  1.00  0.00     0.004 A 
ATOM      6  C   UNL     1     480.900  39.292 461.428  1.00  0.00     0.004 A 
ENDROOT
BRANCH   1   7
ATOM      7  C   UNL     1     478.857  38.731 462.756  1.00  0.00     0.036 C 
BRANCH   7   8
ATOM      8  C   UNL     1     477.824  39.844 462.537  1.00  0.00     0.004 C 
BRANCH   8   9
ATOM      9  C   UNL     1     476.407  39.347 462.844  1.00  0.00    -0.003 C 
ATOM     10  C   UNL     1     475.625  39.085 461.561  1.00  0.00     0.004 C 
ENDBRANCH   8   9
ENDBRANCH   7   8
ENDBRANCH   1   7
BRANCH   2  11
ATOM     11  C   UNL     1     478.216  36.660 460.559  1.00  0.00     0.040 C 
BRANCH  11  12
ATOM     12  C   UNL     1     478.647  35.265 461.040  1.00  0.00     0.005 C 
BRANCH  12  13
ATOM     13  C   UNL     1     477.518  34.574 461.812  1.00  0.00    -0.003 C 
ATOM     14  C   UNL     1     476.650  35.590 462.546  1.00  0.00     0.004 C 
ENDBRANCH  12  13
ENDBRANCH  11  12
ENDBRANCH   2  11
BRANCH   3  15
ATOM     15  O   UNL     1     479.930  36.685 458.291  1.00  0.00    -0.508 OA
ATOM     16  H   UNL     1     479.180  36.893 457.641  1.00  0.00     0.293 HD
ENDBRANCH   3  15
TORSDOF 7
ENDMDL
MODEL 9
REMARK VINA RESULT:    -3.858      3.940      5.649
REMARK INTER + INTRA:          -6.096
REMARK INTER:                  -4.883
REMARK INTRA:                  -1.212
REMARK UNBOUND:                -0.772
REMARK SMILES CCCCc1cccc(O)c1CCCC
REMARK SMILES IDX 5 1 11 2 9 3 8 4 7 5 6 6 4 7 3 8 2 9 1 10 12 11 13 12 14 13
REMARK SMILES IDX 15 14 10 15
REMARK H PARENT 10 16
REMARK Flexibility Score: inf
ROOT
ATOM      1  C   UNL     1     482.391  38.896 459.675  1.00  0.00    -0.041 A 
ATOM      2  C   UNL     1     482.913  39.324 460.933  1.00  0.00    -0.003 A 
ATOM      3  C   UNL     1     484.287  39.126 461.208  1.00  0.00     0.119 A 
ATOM      4  C   UNL     1     485.128  38.562 460.242  1.00  0.00     0.046 A 
ATOM      5  C   UNL     1     484.623  38.187 459.002  1.00  0.00     0.004 A 
ATOM      6  C   UNL     1     483.269  38.351 458.720  1.00  0.00     0.004 A 
ENDROOT
BRANCH   1   7
ATOM      7  C   UNL     1     480.924  38.990 459.304  1.00  0.00     0.036 C 
BRANCH   7   8
ATOM      8  C   UNL     1     480.249  37.613 459.318  1.00  0.00     0.004 C 
BRANCH   8   9
ATOM      9  C   UNL     1     478.889  37.674 460.022  1.00  0.00    -0.003 C 
ATOM     10  C   UNL     1     478.608  36.385 460.790  1.00  0.00     0.004 C 
ENDBRANCH   8   9
ENDBRANCH   7   8
ENDBRANCH   1   7
BRANCH   2  11
ATOM     11  C   UNL     1     482.062  40.021 461.981  1.00  0.00     0.040 C 
BRANCH  11  12
ATOM     12  C   UNL     1     481.586  39.032 463.057  1.00  0.00     0.005 C 
BRANCH  12  13
ATOM     13  C   UNL     1     480.058  39.046 463.183  1.00  0.00    -0.003 C 
ATOM     14  C   UNL     1     479.467  40.314 462.576  1.00  0.00     0.004 C 
ENDBRANCH  12  13
ENDBRANCH  11  12
ENDBRANCH   2  11
BRANCH   3  15
ATOM     15  O   UNL     1     484.816  39.492 462.446  1.00  0.00    -0.508 OA
ATOM     16  H   UNL     1     485.638  40.081 462.522  1.00  0.00     0.293 HD
ENDBRANCH   3  15
TORSDOF 7
ENDMDL
