MODEL 1
REMARK VINA RESULT:    -3.172      0.000      0.000
REMARK INTER + INTRA:          -5.154
REMARK INTER:                  -4.841
REMARK INTRA:                  -0.313
REMARK UNBOUND:                -0.313
REMARK SMILES CC1=CCC[C@@H](C)C(=O)C[C@H](C(C)C)C(=O)C1
REMARK SMILES IDX 8 1 9 2 6 3 7 4 5 5 4 6 3 7 2 8 1 9 10 11 11 12 15 13 16 14
REMARK SMILES IDX 17 15 12 17 13 18 14 19
REMARK H PARENT
REMARK Flexibility Score: 70.00
ROOT
ATOM      1  C   UNL     1      14.188  16.997  24.600  1.00  0.00     0.136 C 
ATOM      2  O   UNL     1      14.988  16.363  23.928  1.00  0.00    -0.299 OA
ENDROOT
BRANCH   1   3
ATOM      3  C   UNL     1      14.637  18.331  25.215  1.00  0.00     0.053 C 
ATOM      4  C   UNL     1      15.083  19.336  24.148  1.00  0.00     0.016 C 
BRANCH   3   5
ATOM      5  C   UNL     1      15.752  17.938  26.153  1.00  0.00     0.015 C 
BRANCH   5   6
ATOM      6  C   UNL     1      15.673  17.311  27.512  1.00  0.00     0.028 C 
BRANCH   6   7
ATOM      7  C   UNL     1      16.057  15.832  27.368  1.00  0.00    -0.028 C 
ATOM      8  C   UNL     1      15.329  14.698  27.682  1.00  0.00    -0.070 CG0
ATOM      9  C   UNL     1      16.070  13.387  27.561  1.00  0.00     0.039 C 
ATOM     10  G   UNL     1      13.831  14.613  28.091  1.00  0.00     0.000 G0
ENDBRANCH   6   7
ENDBRANCH   5   6
ENDBRANCH   3   5
ENDBRANCH   1   3
BRANCH   1  11
ATOM     11  C   UNL     1      12.773  16.433  24.812  1.00  0.00     0.087 C 
BRANCH  11  12
ATOM     12  C   UNL     1      12.529  15.262  25.856  1.00  0.00     0.066 C 
BRANCH  12  13
ATOM     13  C   UNL     1      12.862  15.507  27.347  1.00  0.00     0.140 C 
ATOM     14  O   UNL     1      12.296  16.404  27.954  1.00  0.00    -0.299 OA
BRANCH  13  15
ATOM     15  C   UNL     1      13.835  14.604  28.122  1.00  0.00     0.106 CG0
ATOM     16  G   UNL     1      15.326  14.684  27.689  1.00  0.00     0.000 G0
ENDBRANCH  13  15
ENDBRANCH  12  13
BRANCH  12  17
ATOM     17  C   UNL     1      11.161  14.539  25.631  1.00  0.00    -0.006 C 
ATOM     18  C   UNL     1      10.999  14.040  24.185  1.00  0.00     0.008 C 
ATOM     19  C   UNL     1      10.878  13.405  26.629  1.00  0.00     0.008 C 
ENDBRANCH  12  17
ENDBRANCH  11  12
ENDBRANCH   1  11
TORSDOF 1
ENDMDL
MODEL 2
REMARK VINA RESULT:    -2.470      1.399      4.393
REMARK INTER + INTRA:          -4.082
REMARK INTER:                  -4.541
REMARK INTRA:                   0.459
REMARK UNBOUND:                -0.313
REMARK SMILES CC1=CCC[C@@H](C)C(=O)C[C@H](C(C)C)C(=O)C1
REMARK SMILES IDX 8 1 9 2 6 3 7 4 5 5 4 6 3 7 2 8 1 9 10 11 11 12 15 13 16 14
REMARK SMILES IDX 17 15 12 17 13 18 14 19
REMARK H PARENT
REMARK Flexibility Score: 70.00
ROOT
ATOM      1  C   UNL     1      12.176  16.083  27.008  1.00  0.00     0.136 C 
ATOM      2  O   UNL     1      11.312  16.002  27.868  1.00  0.00    -0.299 OA
ENDROOT
BRANCH   1   3
ATOM      3  C   UNL     1      12.246  14.992  25.929  1.00  0.00     0.053 C 
ATOM      4  C   UNL     1      10.965  14.928  25.090  1.00  0.00     0.016 C 
BRANCH   3   5
ATOM      5  C   UNL     1      12.498  13.727  26.711  1.00  0.00     0.015 C 
BRANCH   5   6
ATOM      6  C   UNL     1      13.013  13.562  28.110  1.00  0.00     0.028 C 
BRANCH   6   7
ATOM      7  C   UNL     1      14.339  12.793  28.033  1.00  0.00    -0.028 C 
ATOM      8  C   UNL     1      15.623  13.267  27.825  1.00  0.00    -0.070 CG0
ATOM      9  C   UNL     1      16.691  12.214  27.650  1.00  0.00     0.039 C 
ATOM     10  G   UNL     1      16.097  14.747  27.804  1.00  0.00     0.000 G0
ENDBRANCH   6   7
ENDBRANCH   5   6
ENDBRANCH   3   5
ENDBRANCH   1   3
BRANCH   1  11
ATOM     11  C   UNL     1      13.164  17.262  27.045  1.00  0.00     0.087 C 
BRANCH  11  12
ATOM     12  C   UNL     1      14.694  17.010  27.383  1.00  0.00     0.066 C 
BRANCH  12  13
ATOM     13  C   UNL     1      15.372  15.718  26.868  1.00  0.00     0.140 C 
ATOM     14  O   UNL     1      15.380  15.476  25.670  1.00  0.00    -0.299 OA
BRANCH  13  15
ATOM     15  C   UNL     1      16.111  14.755  27.812  1.00  0.00     0.106 CG0
ATOM     16  G   UNL     1      15.620  13.280  27.795  1.00  0.00     0.000 G0
ENDBRANCH  13  15
ENDBRANCH  12  13
BRANCH  12  17
ATOM     17  C   UNL     1      15.565  18.294  27.189  1.00  0.00    -0.006 C 
ATOM     18  C   UNL     1      16.919  18.193  27.912  1.00  0.00     0.008 C 
ATOM     19  C   UNL     1      15.767  18.700  25.720  1.00  0.00     0.008 C 
ENDBRANCH  12  17
ENDBRANCH  11  12
ENDBRANCH   1  11
TORSDOF 1
ENDMDL
MODEL 3
REMARK VINA RESULT:    -2.280      1.819      4.020
REMARK INTER + INTRA:          -3.793
REMARK INTER:                  -4.855
REMARK INTRA:                   1.062
REMARK UNBOUND:                -0.313
REMARK SMILES CC1=CCC[C@@H](C)C(=O)C[C@H](C(C)C)C(=O)C1
REMARK SMILES IDX 8 1 9 2 6 3 7 4 5 5 4 6 3 7 2 8 1 9 10 11 11 12 15 13 16 14
REMARK SMILES IDX 17 15 12 17 13 18 14 19
REMARK H PARENT
REMARK Flexibility Score: 70.00
ROOT
ATOM      1  C   UNL     1      13.209  17.811  25.936  1.00  0.00     0.136 C 
ATOM      2  O   UNL     1      12.763  18.841  25.454  1.00  0.00    -0.299 OA
ENDROOT
BRANCH   1   3
ATOM      3  C   UNL     1      13.955  16.830  25.019  1.00  0.00     0.053 C 
ATOM      4  C   UNL     1      14.781  17.555  23.951  1.00  0.00     0.016 C 
BRANCH   3   5
ATOM      5  C   UNL     1      12.856  15.979  24.432  1.00  0.00     0.015 C 
BRANCH   5   6
ATOM      6  C   UNL     1      11.391  15.965  24.753  1.00  0.00     0.028 C 
BRANCH   6   7
ATOM      7  C   UNL     1      11.019  14.539  25.180  1.00  0.00    -0.028 C 
ATOM      8  C   UNL     1      11.230  13.896  26.387  1.00  0.00    -0.070 CG0
ATOM      9  C   UNL     1      10.875  12.429  26.422  1.00  0.00     0.039 C 
ATOM     10  G   UNL     1      11.738  14.519  27.719  1.00  0.00     0.000 G0
ENDBRANCH   6   7
ENDBRANCH   5   6
ENDBRANCH   3   5
ENDBRANCH   1   3
BRANCH   1  11
ATOM     11  C   UNL     1      12.998  17.531  27.434  1.00  0.00     0.087 C 
BRANCH  11  12
ATOM     12  C   UNL     1      13.714  16.293  28.123  1.00  0.00     0.066 C 
BRANCH  12  13
ATOM     13  C   UNL     1      13.215  14.865  27.800  1.00  0.00     0.140 C 
ATOM     14  O   UNL     1      14.024  13.959  27.660  1.00  0.00    -0.299 OA
BRANCH  13  15
ATOM     15  C   UNL     1      11.718  14.524  27.724  1.00  0.00     0.106 CG0
ATOM     16  G   UNL     1      11.241  13.856  26.404  1.00  0.00     0.000 G0
ENDBRANCH  13  15
ENDBRANCH  12  13
BRANCH  12  17
ATOM     17  C   UNL     1      15.272  16.428  28.117  1.00  0.00    -0.006 C 
ATOM     18  C   UNL     1      15.926  15.571  27.020  1.00  0.00     0.008 C 
ATOM     19  C   UNL     1      15.776  17.879  28.040  1.00  0.00     0.008 C 
ENDBRANCH  12  17
ENDBRANCH  11  12
ENDBRANCH   1  11
TORSDOF 1
ENDMDL
MODEL 4
REMARK VINA RESULT:    -2.059      1.851      4.391
REMARK INTER + INTRA:          -3.455
REMARK INTER:                  -5.131
REMARK INTRA:                   1.676
REMARK UNBOUND:                -0.313
REMARK SMILES CC1=CCC[C@@H](C)C(=O)C[C@H](C(C)C)C(=O)C1
REMARK SMILES IDX 8 1 9 2 6 3 7 4 5 5 4 6 3 7 2 8 1 9 10 11 11 12 15 13 16 14
REMARK SMILES IDX 17 15 12 17 13 18 14 19
REMARK H PARENT
REMARK Flexibility Score: 70.00
ROOT
ATOM      1  C   UNL     1      11.372  14.756  26.452  1.00  0.00     0.136 C 
ATOM      2  O   UNL     1      10.929  13.657  26.749  1.00  0.00    -0.299 OA
ENDROOT
BRANCH   1   3
ATOM      3  C   UNL     1      11.091  15.308  25.046  1.00  0.00     0.053 C 
ATOM      4  C   UNL     1      10.917  14.189  24.012  1.00  0.00     0.016 C 
BRANCH   3   5
ATOM      5  C   UNL     1      12.281  16.190  24.760  1.00  0.00     0.015 C 
BRANCH   5   6
ATOM      6  C   UNL     1      13.680  15.804  24.383  1.00  0.00     0.028 C 
BRANCH   6   7
ATOM      7  C   UNL     1      14.454  17.093  24.075  1.00  0.00    -0.028 C 
ATOM      8  C   UNL     1      15.132  17.941  24.933  1.00  0.00    -0.070 CG0
ATOM      9  C   UNL     1      15.658  19.216  24.318  1.00  0.00     0.039 C 
ATOM     10  G   UNL     1      15.459  17.710  26.436  1.00  0.00     0.000 G0
ENDBRANCH   6   7
ENDBRANCH   5   6
ENDBRANCH   3   5
ENDBRANCH   1   3
BRANCH   1  11
ATOM     11  C   UNL     1      12.199  15.537  27.487  1.00  0.00     0.087 C 
BRANCH  11  12
ATOM     12  C   UNL     1      13.748  15.789  27.245  1.00  0.00     0.066 C 
BRANCH  12  13
ATOM     13  C   UNL     1      14.291  17.235  27.314  1.00  0.00     0.140 C 
ATOM     14  O   UNL     1      13.821  18.020  28.125  1.00  0.00    -0.299 OA
BRANCH  13  15
ATOM     15  C   UNL     1      15.466  17.706  26.442  1.00  0.00     0.106 CG0
ATOM     16  G   UNL     1      15.143  17.946  24.940  1.00  0.00     0.000 G0
ENDBRANCH  13  15
ENDBRANCH  12  13
BRANCH  12  17
ATOM     17  C   UNL     1      14.643  14.747  27.992  1.00  0.00    -0.006 C 
ATOM     18  C   UNL     1      14.009  13.346  28.014  1.00  0.00     0.008 C 
ATOM     19  C   UNL     1      16.089  14.677  27.475  1.00  0.00     0.008 C 
ENDBRANCH  12  17
ENDBRANCH  11  12
ENDBRANCH   1  11
TORSDOF 1
ENDMDL
MODEL 5
REMARK VINA RESULT:    -1.549      1.717      3.434
REMARK INTER + INTRA:          -2.678
REMARK INTER:                  -3.455
REMARK INTRA:                   0.778
REMARK UNBOUND:                -0.313
REMARK SMILES CC1=CCC[C@@H](C)C(=O)C[C@H](C(C)C)C(=O)C1
REMARK SMILES IDX 8 1 9 2 6 3 7 4 5 5 4 6 3 7 2 8 1 9 10 11 11 12 15 13 16 14
REMARK SMILES IDX 17 15 12 17 13 18 14 19
REMARK H PARENT
REMARK Flexibility Score: 70.00
ROOT
ATOM      1  C   UNL     1      12.295  16.555  26.480  1.00  0.00     0.136 C 
ATOM      2  O   UNL     1      12.377  17.593  27.119  1.00  0.00    -0.299 OA
ENDROOT
BRANCH   1   3
ATOM      3  C   UNL     1      12.174  16.640  24.950  1.00  0.00     0.053 C 
ATOM      4  C   UNL     1      11.838  15.282  24.324  1.00  0.00     0.016 C 
BRANCH   3   5
ATOM      5  C   UNL     1      13.516  17.171  24.511  1.00  0.00     0.015 C 
BRANCH   5   6
ATOM      6  C   UNL     1      14.882  16.589  24.720  1.00  0.00     0.028 C 
BRANCH   6   7
ATOM      7  C   UNL     1      15.651  17.523  25.664  1.00  0.00    -0.028 C 
ATOM      8  C   UNL     1      15.647  17.577  27.047  1.00  0.00    -0.070 CG0
ATOM      9  C   UNL     1      16.405  18.730  27.661  1.00  0.00     0.039 C 
ATOM     10  G   UNL     1      15.001  16.566  28.035  1.00  0.00     0.000 G0
ENDBRANCH   6   7
ENDBRANCH   5   6
ENDBRANCH   3   5
ENDBRANCH   1   3
BRANCH   1  11
ATOM     11  C   UNL     1      12.304  15.210  27.227  1.00  0.00     0.087 C 
BRANCH  11  12
ATOM     12  C   UNL     1      13.641  14.360  27.323  1.00  0.00     0.066 C 
BRANCH  12  13
ATOM     13  C   UNL     1      14.969  15.086  27.642  1.00  0.00     0.140 C 
ATOM     14  O   UNL     1      16.030  14.496  27.498  1.00  0.00    -0.299 OA
BRANCH  13  15
ATOM     15  C   UNL     1      15.008  16.563  28.065  1.00  0.00     0.106 CG0
ATOM     16  G   UNL     1      15.642  17.545  27.041  1.00  0.00     0.000 G0
ENDBRANCH  13  15
ENDBRANCH  12  13
BRANCH  12  17
ATOM     17  C   UNL     1      13.444  13.032  28.125  1.00  0.00    -0.006 C 
ATOM     18  C   UNL     1      12.051  12.419  27.902  1.00  0.00     0.008 C 
ATOM     19  C   UNL     1      14.541  11.983  27.879  1.00  0.00     0.008 C 
ENDBRANCH  12  17
ENDBRANCH  11  12
ENDBRANCH   1  11
TORSDOF 1
ENDMDL
MODEL 6
REMARK VINA RESULT:    -1.531      2.000      4.885
REMARK INTER + INTRA:          -2.649
REMARK INTER:                  -2.990
REMARK INTRA:                   0.341
REMARK UNBOUND:                -0.313
REMARK SMILES CC1=CCC[C@@H](C)C(=O)C[C@H](C(C)C)C(=O)C1
REMARK SMILES IDX 8 1 9 2 6 3 7 4 5 5 4 6 3 7 2 8 1 9 10 11 11 12 15 13 16 14
REMARK SMILES IDX 17 15 12 17 13 18 14 19
REMARK H PARENT
REMARK Flexibility Score: 70.00
ROOT
ATOM      1  C   UNL     1      15.970  17.993  27.319  1.00  0.00     0.136 C 
ATOM      2  O   UNL     1      15.601  19.019  27.870  1.00  0.00    -0.299 OA
ENDROOT
BRANCH   1   3
ATOM      3  C   UNL     1      15.908  16.672  28.102  1.00  0.00     0.053 C 
ATOM      4  C   UNL     1      17.101  15.762  27.791  1.00  0.00     0.016 C 
BRANCH   3   5
ATOM      5  C   UNL     1      14.588  16.070  27.688  1.00  0.00     0.015 C 
BRANCH   5   6
ATOM      6  C   UNL     1      13.198  16.595  27.894  1.00  0.00     0.028 C 
BRANCH   6   7
ATOM      7  C   UNL     1      12.273  15.874  26.904  1.00  0.00    -0.028 C 
ATOM      8  C   UNL     1      12.308  15.852  25.521  1.00  0.00    -0.070 CG0
ATOM      9  C   UNL     1      11.145  15.164  24.846  1.00  0.00     0.039 C 
ATOM     10  G   UNL     1      13.424  16.404  24.590  1.00  0.00     0.000 G0
ENDBRANCH   6   7
ENDBRANCH   5   6
ENDBRANCH   3   5
ENDBRANCH   1   3
BRANCH   1  11
ATOM     11  C   UNL     1      16.492  18.063  25.873  1.00  0.00     0.087 C 
BRANCH  11  12
ATOM     12  C   UNL     1      15.472  18.138  24.660  1.00  0.00     0.066 C 
BRANCH  12  13
ATOM     13  C   UNL     1      13.985  17.789  24.908  1.00  0.00     0.140 C 
ATOM     14  O   UNL     1      13.227  18.647  25.337  1.00  0.00    -0.299 OA
BRANCH  13  15
ATOM     15  C   UNL     1      13.404  16.410  24.561  1.00  0.00     0.106 CG0
ATOM     16  G   UNL     1      12.315  15.869  25.530  1.00  0.00     0.000 G0
ENDBRANCH  13  15
ENDBRANCH  12  13
BRANCH  12  17
ATOM     17  C   UNL     1      15.678  19.419  23.788  1.00  0.00    -0.006 C 
ATOM     18  C   UNL     1      17.161  19.808  23.667  1.00  0.00     0.008 C 
ATOM     19  C   UNL     1      15.025  19.344  22.398  1.00  0.00     0.008 C 
ENDBRANCH  12  17
ENDBRANCH  11  12
ENDBRANCH   1  11
TORSDOF 1
ENDMDL
