MODEL 1
REMARK VINA RESULT:    -4.293      0.000      0.000
REMARK INTER + INTRA:          -6.344
REMARK INTER:                  -5.798
REMARK INTRA:                  -0.546
REMARK UNBOUND:                -0.546
REMARK SMILES C=C[C@](C)(CCC=C(C)C)OC(C)=O
REMARK SMILES IDX 3 1 4 2 5 3 6 4 7 5 9 6 8 7 10 8 2 9 1 10 11 11 12 12 14 13
REMARK SMILES IDX 13 14
REMARK H PARENT
REMARK Flexibility Score: inf
ROOT
ATOM      1  C   UNL     1     -15.841 -19.025  13.513  1.00  0.00     0.127 C 
ATOM      2  C   UNL     1     -17.101 -19.732  14.054  1.00  0.00     0.061 C 
ENDROOT
BRANCH   1   3
ATOM      3  C   UNL     1     -14.781 -19.004  14.651  1.00  0.00     0.057 C 
BRANCH   3   4
ATOM      4  C   UNL     1     -13.344 -19.382  14.237  1.00  0.00     0.032 C 
BRANCH   4   5
ATOM      5  C   UNL     1     -12.287 -18.633  15.015  1.00  0.00    -0.028 C 
ATOM      6  C   UNL     1     -10.548 -18.273  16.711  1.00  0.00     0.039 C 
ATOM      7  C   UNL     1     -11.602 -19.136  16.066  1.00  0.00    -0.080 C 
ATOM      8  C   UNL     1     -11.878 -20.513  16.623  1.00  0.00     0.039 C 
ENDBRANCH   4   5
ENDBRANCH   3   4
ENDBRANCH   1   3
BRANCH   1   9
ATOM      9  C   UNL     1     -16.208 -17.601  13.112  1.00  0.00     0.013 C 
ATOM     10  C   UNL     1     -15.660 -16.516  13.672  1.00  0.00     0.008 C 
ENDBRANCH   1   9
BRANCH   1  11
ATOM     11  O   UNL     1     -15.317 -19.777  12.407  1.00  0.00    -0.455 OA
BRANCH  11  12
ATOM     12  C   UNL     1     -15.741 -21.052  12.005  1.00  0.00     0.303 C 
ATOM     13  O   UNL     1     -16.690 -21.196  11.189  1.00  0.00    -0.253 OA
ATOM     14  C   UNL     1     -15.005 -22.249  12.500  1.00  0.00     0.139 C 
ENDBRANCH  11  12
ENDBRANCH   1  11
TORSDOF 6
ENDMDL
MODEL 2
REMARK VINA RESULT:    -4.291     14.002     15.982
REMARK INTER + INTRA:          -6.342
REMARK INTER:                  -5.703
REMARK INTRA:                  -0.638
REMARK UNBOUND:                -0.546
REMARK SMILES C=C[C@](C)(CCC=C(C)C)OC(C)=O
REMARK SMILES IDX 3 1 4 2 5 3 6 4 7 5 9 6 8 7 10 8 2 9 1 10 11 11 12 12 14 13
REMARK SMILES IDX 13 14
REMARK H PARENT
REMARK Flexibility Score: inf
ROOT
ATOM      1  C   UNL     1     -18.654  -8.065   5.346  1.00  0.00     0.127 C 
ATOM      2  C   UNL     1     -18.363  -9.580   5.377  1.00  0.00     0.061 C 
ENDROOT
BRANCH   1   3
ATOM      3  C   UNL     1     -18.786  -7.636   3.858  1.00  0.00     0.057 C 
BRANCH   3   4
ATOM      4  C   UNL     1     -18.291  -8.662   2.817  1.00  0.00     0.032 C 
BRANCH   4   5
ATOM      5  C   UNL     1     -19.221  -8.801   1.634  1.00  0.00    -0.028 C 
ATOM      6  C   UNL     1     -21.057  -9.721   0.288  1.00  0.00     0.039 C 
ATOM      7  C   UNL     1     -20.183  -9.743   1.516  1.00  0.00    -0.080 C 
ATOM      8  C   UNL     1     -20.386 -10.821   2.554  1.00  0.00     0.039 C 
ENDBRANCH   4   5
ENDBRANCH   3   4
ENDBRANCH   1   3
BRANCH   1   9
ATOM      9  C   UNL     1     -17.496  -7.327   6.005  1.00  0.00     0.013 C 
ATOM     10  C   UNL     1     -16.578  -6.636   5.316  1.00  0.00     0.008 C 
ENDBRANCH   1   9
BRANCH   1  11
ATOM     11  O   UNL     1     -19.901  -7.812   6.013  1.00  0.00    -0.455 OA
BRANCH  11  12
ATOM     12  C   UNL     1     -20.509  -8.644   6.965  1.00  0.00     0.303 C 
ATOM     13  O   UNL     1     -20.099  -8.680   8.156  1.00  0.00    -0.253 OA
ATOM     14  C   UNL     1     -21.705  -9.441   6.572  1.00  0.00     0.139 C 
ENDBRANCH  11  12
ENDBRANCH   1  11
TORSDOF 6
ENDMDL
MODEL 3
REMARK VINA RESULT:    -4.264      1.146      1.326
REMARK INTER + INTRA:          -6.305
REMARK INTER:                  -5.681
REMARK INTRA:                  -0.624
REMARK UNBOUND:                -0.546
REMARK SMILES C=C[C@](C)(CCC=C(C)C)OC(C)=O
REMARK SMILES IDX 3 1 4 2 5 3 6 4 7 5 9 6 8 7 10 8 2 9 1 10 11 11 12 12 14 13
REMARK SMILES IDX 13 14
REMARK H PARENT
REMARK Flexibility Score: inf
ROOT
ATOM      1  C   UNL     1     -15.795 -18.867  13.077  1.00  0.00     0.127 C 
ATOM      2  C   UNL     1     -16.420 -19.407  14.380  1.00  0.00     0.061 C 
ENDROOT
BRANCH   1   3
ATOM      3  C   UNL     1     -14.303 -18.540  13.365  1.00  0.00     0.057 C 
BRANCH   3   4
ATOM      4  C   UNL     1     -13.683 -19.249  14.587  1.00  0.00     0.032 C 
BRANCH   4   5
ATOM      5  C   UNL     1     -12.367 -19.923  14.275  1.00  0.00    -0.028 C 
ATOM      6  C   UNL     1     -10.331 -21.229  14.699  1.00  0.00     0.039 C 
ATOM      7  C   UNL     1     -11.600 -20.573  15.179  1.00  0.00    -0.080 C 
ATOM      8  C   UNL     1     -11.960 -20.633  16.645  1.00  0.00     0.039 C 
ENDBRANCH   4   5
ENDBRANCH   3   4
ENDBRANCH   1   3
BRANCH   1   9
ATOM      9  C   UNL     1     -16.538 -17.604  12.660  1.00  0.00     0.013 C 
ATOM     10  C   UNL     1     -16.171 -16.375  13.044  1.00  0.00     0.008 C 
ENDBRANCH   1   9
BRANCH   1  11
ATOM     11  O   UNL     1     -15.859 -19.886  12.067  1.00  0.00    -0.455 OA
BRANCH  11  12
ATOM     12  C   UNL     1     -16.027 -21.260  12.294  1.00  0.00     0.303 C 
ATOM     13  O   UNL     1     -17.171 -21.787  12.286  1.00  0.00    -0.253 OA
ATOM     14  C   UNL     1     -14.821 -22.116  12.474  1.00  0.00     0.139 C 
ENDBRANCH  11  12
ENDBRANCH   1  11
TORSDOF 6
ENDMDL
MODEL 4
REMARK VINA RESULT:    -4.224      2.226      4.517
REMARK INTER + INTRA:          -6.252
REMARK INTER:                  -5.384
REMARK INTRA:                  -0.867
REMARK UNBOUND:                -0.546
REMARK SMILES C=C[C@](C)(CCC=C(C)C)OC(C)=O
REMARK SMILES IDX 3 1 4 2 5 3 6 4 7 5 9 6 8 7 10 8 2 9 1 10 11 11 12 12 14 13
REMARK SMILES IDX 13 14
REMARK H PARENT
REMARK Flexibility Score: inf
ROOT
ATOM      1  C   UNL     1     -16.333 -19.278  13.268  1.00  0.00     0.127 C 
ATOM      2  C   UNL     1     -17.103 -19.838  14.482  1.00  0.00     0.061 C 
ENDROOT
BRANCH   1   3
ATOM      3  C   UNL     1     -16.583 -20.229  12.065  1.00  0.00     0.057 C 
BRANCH   3   4
ATOM      4  C   UNL     1     -16.145 -21.695  12.265  1.00  0.00     0.032 C 
BRANCH   4   5
ATOM      5  C   UNL     1     -15.077 -22.133  11.290  1.00  0.00    -0.028 C 
ATOM      6  C   UNL     1     -12.903 -22.997  10.544  1.00  0.00     0.039 C 
ATOM      7  C   UNL     1     -13.841 -22.555  11.638  1.00  0.00    -0.080 C 
ATOM      8  C   UNL     1     -13.370 -22.570  13.073  1.00  0.00     0.039 C 
ENDBRANCH   4   5
ENDBRANCH   3   4
ENDBRANCH   1   3
BRANCH   1   9
ATOM      9  C   UNL     1     -14.847 -19.235  13.604  1.00  0.00     0.013 C 
ATOM     10  C   UNL     1     -14.379 -19.092  14.850  1.00  0.00     0.008 C 
ENDBRANCH   1   9
BRANCH   1  11
ATOM     11  O   UNL     1     -16.848 -17.977  12.944  1.00  0.00    -0.455 OA
BRANCH  11  12
ATOM     12  C   UNL     1     -16.099 -16.889  12.472  1.00  0.00     0.303 C 
ATOM     13  O   UNL     1     -15.747 -16.815  11.264  1.00  0.00    -0.253 OA
ATOM     14  C   UNL     1     -15.781 -15.771  13.403  1.00  0.00     0.139 C 
ENDBRANCH  11  12
ENDBRANCH   1  11
TORSDOF 6
ENDMDL
MODEL 5
REMARK VINA RESULT:    -4.183      2.890      4.489
REMARK INTER + INTRA:          -6.196
REMARK INTER:                  -5.576
REMARK INTRA:                  -0.620
REMARK UNBOUND:                -0.546
REMARK SMILES C=C[C@](C)(CCC=C(C)C)OC(C)=O
REMARK SMILES IDX 3 1 4 2 5 3 6 4 7 5 9 6 8 7 10 8 2 9 1 10 11 11 12 12 14 13
REMARK SMILES IDX 13 14
REMARK H PARENT
REMARK Flexibility Score: inf
ROOT
ATOM      1  C   UNL     1     -16.374 -20.002  12.569  1.00  0.00     0.127 C 
ATOM      2  C   UNL     1     -17.261 -21.131  12.004  1.00  0.00     0.061 C 
ENDROOT
BRANCH   1   3
ATOM      3  C   UNL     1     -14.908 -20.519  12.600  1.00  0.00     0.057 C 
BRANCH   3   4
ATOM      4  C   UNL     1     -14.737 -22.051  12.655  1.00  0.00     0.032 C 
BRANCH   4   5
ATOM      5  C   UNL     1     -13.322 -22.500  12.372  1.00  0.00    -0.028 C 
ATOM      6  C   UNL     1     -11.413 -23.272  11.036  1.00  0.00     0.039 C 
ATOM      7  C   UNL     1     -12.866 -22.893  11.162  1.00  0.00    -0.080 C 
ATOM      8  C   UNL     1     -13.767 -22.989   9.954  1.00  0.00     0.039 C 
ENDBRANCH   4   5
ENDBRANCH   3   4
ENDBRANCH   1   3
BRANCH   1   9
ATOM      9  C   UNL     1     -16.842 -19.666  13.979  1.00  0.00     0.013 C 
ATOM     10  C   UNL     1     -16.044 -19.127  14.909  1.00  0.00     0.008 C 
ENDBRANCH   1   9
BRANCH   1  11
ATOM     11  O   UNL     1     -16.445 -18.865  11.694  1.00  0.00    -0.455 OA
BRANCH  11  12
ATOM     12  C   UNL     1     -17.323 -17.779  11.825  1.00  0.00     0.303 C 
ATOM     13  O   UNL     1     -18.558 -17.908  11.614  1.00  0.00    -0.253 OA
ATOM     14  C   UNL     1     -16.788 -16.469  12.294  1.00  0.00     0.139 C 
ENDBRANCH  11  12
ENDBRANCH   1  11
TORSDOF 6
ENDMDL
MODEL 6
REMARK VINA RESULT:    -4.182      1.860      2.915
REMARK INTER + INTRA:          -6.194
REMARK INTER:                  -5.531
REMARK INTRA:                  -0.663
REMARK UNBOUND:                -0.546
REMARK SMILES C=C[C@](C)(CCC=C(C)C)OC(C)=O
REMARK SMILES IDX 3 1 4 2 5 3 6 4 7 5 9 6 8 7 10 8 2 9 1 10 11 11 12 12 14 13
REMARK SMILES IDX 13 14
REMARK H PARENT
REMARK Flexibility Score: inf
ROOT
ATOM      1  C   UNL     1     -15.662 -19.728  12.945  1.00  0.00     0.127 C 
ATOM      2  C   UNL     1     -16.227 -21.111  12.561  1.00  0.00     0.061 C 
ENDROOT
BRANCH   1   3
ATOM      3  C   UNL     1     -14.115 -19.851  13.027  1.00  0.00     0.057 C 
BRANCH   3   4
ATOM      4  C   UNL     1     -13.571 -21.249  13.390  1.00  0.00     0.032 C 
BRANCH   4   5
ATOM      5  C   UNL     1     -12.061 -21.307  13.418  1.00  0.00    -0.028 C 
ATOM      6  C   UNL     1      -9.807 -21.234  14.389  1.00  0.00     0.039 C 
ATOM      7  C   UNL     1     -11.302 -21.099  14.518  1.00  0.00    -0.080 C 
ATOM      8  C   UNL     1     -11.903 -20.713  15.849  1.00  0.00     0.039 C 
ENDBRANCH   4   5
ENDBRANCH   3   4
ENDBRANCH   1   3
BRANCH   1   9
ATOM      9  C   UNL     1     -16.229 -19.322  14.300  1.00  0.00     0.013 C 
ATOM     10  C   UNL     1     -15.503 -18.713  15.247  1.00  0.00     0.008 C 
ENDBRANCH   1   9
BRANCH   1  11
ATOM     11  O   UNL     1     -15.998 -18.782  11.918  1.00  0.00    -0.455 OA
BRANCH  11  12
ATOM     12  C   UNL     1     -17.060 -17.866  11.957  1.00  0.00     0.303 C 
ATOM     13  O   UNL     1     -18.250 -18.240  11.782  1.00  0.00    -0.253 OA
ATOM     14  C   UNL     1     -16.774 -16.441  12.283  1.00  0.00     0.139 C 
ENDBRANCH  11  12
ENDBRANCH   1  11
TORSDOF 6
ENDMDL
MODEL 7
REMARK VINA RESULT:    -4.161      2.059      4.652
REMARK INTER + INTRA:          -6.167
REMARK INTER:                  -5.586
REMARK INTRA:                  -0.582
REMARK UNBOUND:                -0.546
REMARK SMILES C=C[C@](C)(CCC=C(C)C)OC(C)=O
REMARK SMILES IDX 3 1 4 2 5 3 6 4 7 5 9 6 8 7 10 8 2 9 1 10 11 11 12 12 14 13
REMARK SMILES IDX 13 14
REMARK H PARENT
REMARK Flexibility Score: inf
ROOT
ATOM      1  C   UNL     1     -15.811 -19.061  13.939  1.00  0.00     0.127 C 
ATOM      2  C   UNL     1     -15.481 -18.675  15.396  1.00  0.00     0.061 C 
ENDROOT
BRANCH   1   3
ATOM      3  C   UNL     1     -16.221 -17.765  13.185  1.00  0.00     0.057 C 
BRANCH   3   4
ATOM      4  C   UNL     1     -15.632 -16.451  13.738  1.00  0.00     0.032 C 
BRANCH   4   5
ATOM      5  C   UNL     1     -15.446 -15.392  12.676  1.00  0.00    -0.028 C 
ATOM      6  C   UNL     1     -14.469 -13.421  11.584  1.00  0.00     0.039 C 
ATOM      7  C   UNL     1     -14.561 -14.373  12.750  1.00  0.00    -0.080 C 
ATOM      8  C   UNL     1     -13.693 -14.147  13.965  1.00  0.00     0.039 C 
ENDBRANCH   4   5
ENDBRANCH   3   4
ENDBRANCH   1   3
BRANCH   1   9
ATOM      9  C   UNL     1     -16.966 -20.055  13.941  1.00  0.00     0.013 C 
ATOM     10  C   UNL     1     -16.984 -21.162  13.188  1.00  0.00     0.008 C 
ENDBRANCH   1   9
BRANCH   1  11
ATOM     11  O   UNL     1     -14.635 -19.605  13.318  1.00  0.00    -0.455 OA
BRANCH  11  12
ATOM     12  C   UNL     1     -13.324 -19.500  13.805  1.00  0.00     0.303 C 
ATOM     13  O   UNL     1     -12.809 -20.419  14.496  1.00  0.00    -0.253 OA
ATOM     14  C   UNL     1     -12.508 -18.309  13.435  1.00  0.00     0.139 C 
ENDBRANCH  11  12
ENDBRANCH   1  11
TORSDOF 6
ENDMDL
MODEL 8
REMARK VINA RESULT:    -4.110      1.811      3.266
REMARK INTER + INTRA:          -6.098
REMARK INTER:                  -5.544
REMARK INTRA:                  -0.554
REMARK UNBOUND:                -0.546
REMARK SMILES C=C[C@](C)(CCC=C(C)C)OC(C)=O
REMARK SMILES IDX 3 1 4 2 5 3 6 4 7 5 9 6 8 7 10 8 2 9 1 10 11 11 12 12 14 13
REMARK SMILES IDX 13 14
REMARK H PARENT
REMARK Flexibility Score: inf
ROOT
ATOM      1  C   UNL     1     -15.652 -18.675  13.554  1.00  0.00     0.127 C 
ATOM      2  C   UNL     1     -15.007 -18.579  12.155  1.00  0.00     0.061 C 
ENDROOT
BRANCH   1   3
ATOM      3  C   UNL     1     -14.658 -19.421  14.487  1.00  0.00     0.057 C 
BRANCH   3   4
ATOM      4  C   UNL     1     -13.183 -19.422  14.034  1.00  0.00     0.032 C 
BRANCH   4   5
ATOM      5  C   UNL     1     -12.286 -18.605  14.934  1.00  0.00    -0.028 C 
ATOM      6  C   UNL     1     -10.745 -18.150  16.791  1.00  0.00     0.039 C 
ATOM      7  C   UNL     1     -11.637 -19.088  16.017  1.00  0.00    -0.080 C 
ATOM      8  C   UNL     1     -11.800 -20.514  16.486  1.00  0.00     0.039 C 
ENDBRANCH   4   5
ENDBRANCH   3   4
ENDBRANCH   1   3
BRANCH   1   9
ATOM      9  C   UNL     1     -16.956 -19.457  13.443  1.00  0.00     0.013 C 
ATOM     10  C   UNL     1     -17.006 -20.790  13.334  1.00  0.00     0.008 C 
ENDBRANCH   1   9
BRANCH   1  11
ATOM     11  O   UNL     1     -15.863 -17.349  14.066  1.00  0.00    -0.455 OA
BRANCH  11  12
ATOM     12  C   UNL     1     -15.886 -16.169  13.309  1.00  0.00     0.303 C 
ATOM     13  O   UNL     1     -16.876 -15.877  12.586  1.00  0.00    -0.253 OA
ATOM     14  C   UNL     1     -14.749 -15.213  13.423  1.00  0.00     0.139 C 
ENDBRANCH  11  12
ENDBRANCH   1  11
TORSDOF 6
ENDMDL
MODEL 9
REMARK VINA RESULT:    -4.047      2.155      5.331
REMARK INTER + INTRA:          -6.012
REMARK INTER:                  -5.109
REMARK INTRA:                  -0.903
REMARK UNBOUND:                -0.546
REMARK SMILES C=C[C@](C)(CCC=C(C)C)OC(C)=O
REMARK SMILES IDX 3 1 4 2 5 3 6 4 7 5 9 6 8 7 10 8 2 9 1 10 11 11 12 12 14 13
REMARK SMILES IDX 13 14
REMARK H PARENT
REMARK Flexibility Score: inf
ROOT
ATOM      1  C   UNL     1     -14.626 -18.898  14.341  1.00  0.00     0.127 C 
ATOM      2  C   UNL     1     -16.061 -19.104  14.867  1.00  0.00     0.061 C 
ENDROOT
BRANCH   1   3
ATOM      3  C   UNL     1     -14.516 -17.440  13.813  1.00  0.00     0.057 C 
BRANCH   3   4
ATOM      4  C   UNL     1     -15.838 -16.647  13.752  1.00  0.00     0.032 C 
BRANCH   4   5
ATOM      5  C   UNL     1     -16.156 -16.133  12.367  1.00  0.00    -0.028 C 
ATOM      6  C   UNL     1     -17.289 -16.031  10.190  1.00  0.00     0.039 C 
ATOM      7  C   UNL     1     -17.057 -16.689  11.526  1.00  0.00    -0.080 C 
ATOM      8  C   UNL     1     -17.807 -17.954  11.872  1.00  0.00     0.039 C 
ENDBRANCH   4   5
ENDBRANCH   3   4
ENDBRANCH   1   3
BRANCH   1   9
ATOM      9  C   UNL     1     -14.368 -19.886  13.211  1.00  0.00     0.013 C 
ATOM     10  C   UNL     1     -15.326 -20.650  12.670  1.00  0.00     0.008 C 
ENDBRANCH   1   9
BRANCH   1  11
ATOM     11  O   UNL     1     -13.699 -19.069  15.426  1.00  0.00    -0.455 OA
BRANCH  11  12
ATOM     12  C   UNL     1     -12.338 -19.387  15.303  1.00  0.00     0.303 C 
ATOM     13  O   UNL     1     -11.517 -18.565  14.816  1.00  0.00    -0.253 OA
ATOM     14  C   UNL     1     -11.851 -20.693  15.827  1.00  0.00     0.139 C 
ENDBRANCH  11  12
ENDBRANCH   1  11
TORSDOF 6
ENDMDL
