MODEL 1
REMARK VINA RESULT:    -3.630      0.000      0.000
REMARK INTER + INTRA:          -5.195
REMARK INTER:                  -5.115
REMARK INTRA:                  -0.080
REMARK UNBOUND:                -0.080
REMARK SMILES CC1=CCC(=C(C)C)C(=O)CC(C)=CCC1
REMARK SMILES IDX 12 1 14 2 13 3 15 4 16 5 2 6 1 7 3 8 11 10 9 11 10 12 5 13
REMARK SMILES IDX 6 14 7 15 8 16 4 17
REMARK H PARENT
REMARK Flexibility Score: 60.00
ROOT
ATOM      1  C   UNL     1      15.894   9.683  25.830  1.00  0.00    -0.070 C 
ATOM      2  C   UNL     1      14.756   8.953  25.774  1.00  0.00    -0.027 C 
ATOM      3  C   UNL     1      17.178   9.032  25.382  1.00  0.00     0.039 C 
ENDROOT
BRANCH   2   4
ATOM      4  C   UNL     1      13.420   9.392  26.315  1.00  0.00     0.032 C 
BRANCH   4   5
ATOM      5  C   UNL     1      12.654  10.171  25.238  1.00  0.00     0.034 C 
BRANCH   5   6
ATOM      6  C   UNL     1      12.020  11.437  25.780  1.00  0.00    -0.077 C 
ATOM      7  C   UNL     1      10.860  11.311  26.737  1.00  0.00     0.039 C 
ATOM      8  C   UNL     1      12.484  12.683  25.511  1.00  0.00    -0.023 CG0
ATOM      9  G   UNL     1      13.589  13.067  24.545  1.00  0.00     0.000 G0
ENDBRANCH   5   6
ENDBRANCH   4   5
ENDBRANCH   2   4
BRANCH   1  10
ATOM     10  C   UNL     1      15.937  11.123  26.299  1.00  0.00     0.111 C 
BRANCH  10  11
ATOM     11  C   UNL     1      15.896  12.093  25.143  1.00  0.00     0.163 C 
ATOM     12  O   UNL     1      16.669  11.864  24.172  1.00  0.00    -0.294 OA
BRANCH  11  13
ATOM     13  C   UNL     1      14.982  13.283  25.084  1.00  0.00    -0.002 C 
ATOM     14  C   UNL     1      15.451  14.536  25.375  1.00  0.00    -0.069 C 
ATOM     15  C   UNL     1      14.634  15.779  25.106  1.00  0.00     0.039 C 
ATOM     16  C   UNL     1      16.796  14.742  26.032  1.00  0.00     0.039 C 
BRANCH  13  17
ATOM     17  C   UNL     1      13.581  13.076  24.518  1.00  0.00     0.066 CG0
ATOM     18  G   UNL     1      12.499  12.702  25.514  1.00  0.00     0.000 G0
ENDBRANCH  13  17
ENDBRANCH  11  13
ENDBRANCH  10  11
ENDBRANCH   1  10
TORSDOF 0
ENDMDL
MODEL 2
REMARK VINA RESULT:    -3.560      2.509      4.610
REMARK INTER + INTRA:          -5.098
REMARK INTER:                  -5.021
REMARK INTRA:                  -0.076
REMARK UNBOUND:                -0.080
REMARK SMILES CC1=CCC(=C(C)C)C(=O)CC(C)=CCC1
REMARK SMILES IDX 12 1 14 2 13 3 15 4 16 5 2 6 1 7 3 8 11 10 9 11 10 12 5 13
REMARK SMILES IDX 6 14 7 15 8 16 4 17
REMARK H PARENT
REMARK Flexibility Score: 60.00
ROOT
ATOM      1  C   UNL     1      16.368  12.076  25.001  1.00  0.00    -0.070 C 
ATOM      2  C   UNL     1      16.753  10.932  24.389  1.00  0.00    -0.027 C 
ATOM      3  C   UNL     1      16.309  13.337  24.176  1.00  0.00     0.039 C 
ENDROOT
BRANCH   2   4
ATOM      4  C   UNL     1      17.006   9.622  25.089  1.00  0.00     0.032 C 
BRANCH   4   5
ATOM      5  C   UNL     1      15.930   8.603  24.691  1.00  0.00     0.034 C 
BRANCH   5   6
ATOM      6  C   UNL     1      15.484   7.748  25.860  1.00  0.00    -0.077 C 
ATOM      7  C   UNL     1      16.198   6.443  26.114  1.00  0.00     0.039 C 
ATOM      8  C   UNL     1      14.522   8.123  26.740  1.00  0.00    -0.023 CG0
ATOM      9  G   UNL     1      13.631   9.349  26.666  1.00  0.00     0.000 G0
ENDBRANCH   5   6
ENDBRANCH   4   5
ENDBRANCH   2   4
BRANCH   1  10
ATOM     10  C   UNL     1      15.975  12.147  26.462  1.00  0.00     0.111 C 
BRANCH  10  11
ATOM     11  C   UNL     1      14.526  11.781  26.674  1.00  0.00     0.163 C 
ATOM     12  O   UNL     1      13.660  12.527  26.138  1.00  0.00    -0.294 OA
BRANCH  11  13
ATOM     13  C   UNL     1      14.073  10.583  27.457  1.00  0.00    -0.002 C 
ATOM     14  C   UNL     1      13.921  10.656  28.816  1.00  0.00    -0.069 C 
ATOM     15  C   UNL     1      13.252   9.555  29.607  1.00  0.00     0.039 C 
ATOM     16  C   UNL     1      14.462  11.824  29.608  1.00  0.00     0.039 C 
BRANCH  13  17
ATOM     17  C   UNL     1      13.618   9.354  26.677  1.00  0.00     0.066 CG0
ATOM     18  G   UNL     1      14.514   8.132  26.758  1.00  0.00     0.000 G0
ENDBRANCH  13  17
ENDBRANCH  11  13
ENDBRANCH  10  11
ENDBRANCH   1  10
TORSDOF 0
ENDMDL
MODEL 3
REMARK VINA RESULT:    -3.552      1.412      4.088
REMARK INTER + INTRA:          -5.086
REMARK INTER:                  -4.937
REMARK INTRA:                  -0.149
REMARK UNBOUND:                -0.080
REMARK SMILES CC1=CCC(=C(C)C)C(=O)CC(C)=CCC1
REMARK SMILES IDX 12 1 14 2 13 3 15 4 16 5 2 6 1 7 3 8 11 10 9 11 10 12 5 13
REMARK SMILES IDX 6 14 7 15 8 16 4 17
REMARK H PARENT
REMARK Flexibility Score: 60.00
ROOT
ATOM      1  C   UNL     1      15.930  14.044  25.155  1.00  0.00    -0.070 C 
ATOM      2  C   UNL     1      14.721  14.520  24.780  1.00  0.00    -0.027 C 
ATOM      3  C   UNL     1      16.926  15.016  25.736  1.00  0.00     0.039 C 
ENDROOT
BRANCH   2   4
ATOM      4  C   UNL     1      13.668  13.726  24.051  1.00  0.00     0.032 C 
BRANCH   4   5
ATOM      5  C   UNL     1      12.553  13.323  25.025  1.00  0.00     0.034 C 
BRANCH   5   6
ATOM      6  C   UNL     1      12.014  11.934  24.746  1.00  0.00    -0.077 C 
ATOM      7  C   UNL     1      10.956  11.770  23.683  1.00  0.00     0.039 C 
ATOM      8  C   UNL     1      12.483  10.813  25.348  1.00  0.00    -0.023 CG0
ATOM      9  G   UNL     1      13.493  10.725  26.478  1.00  0.00     0.000 G0
ENDBRANCH   5   6
ENDBRANCH   4   5
ENDBRANCH   2   4
BRANCH   1  10
ATOM     10  C   UNL     1      16.324  12.586  25.038  1.00  0.00     0.111 C 
BRANCH  10  11
ATOM     11  C   UNL     1      15.845  11.777  26.219  1.00  0.00     0.163 C 
ATOM     12  O   UNL     1      16.194  12.172  27.366  1.00  0.00    -0.294 OA
BRANCH  11  13
ATOM     13  C   UNL     1      14.972  10.562  26.101  1.00  0.00    -0.002 C 
ATOM     14  C   UNL     1      15.517   9.338  25.819  1.00  0.00    -0.069 C 
ATOM     15  C   UNL     1      14.714   8.061  25.919  1.00  0.00     0.039 C 
ATOM     16  C   UNL     1      16.945   9.201  25.342  1.00  0.00     0.039 C 
BRANCH  13  17
ATOM     17  C   UNL     1      13.501  10.702  26.480  1.00  0.00     0.066 CG0
ATOM     18  G   UNL     1      12.515  10.814  25.332  1.00  0.00     0.000 G0
ENDBRANCH  13  17
ENDBRANCH  11  13
ENDBRANCH  10  11
ENDBRANCH   1  10
TORSDOF 0
ENDMDL
MODEL 4
REMARK VINA RESULT:    -3.347     12.550     13.719
REMARK INTER + INTRA:          -4.797
REMARK INTER:                  -4.775
REMARK INTRA:                  -0.022
REMARK UNBOUND:                -0.080
REMARK SMILES CC1=CCC(=C(C)C)C(=O)CC(C)=CCC1
REMARK SMILES IDX 12 1 14 2 13 3 15 4 16 5 2 6 1 7 3 8 11 10 9 11 10 12 5 13
REMARK SMILES IDX 6 14 7 15 8 16 4 17
REMARK H PARENT
REMARK Flexibility Score: 60.00
ROOT
ATOM      1  C   UNL     1      17.699   0.840  21.348  1.00  0.00    -0.070 C 
ATOM      2  C   UNL     1      17.167  -0.172  22.070  1.00  0.00    -0.027 C 
ATOM      3  C   UNL     1      19.124   1.242  21.633  1.00  0.00     0.039 C 
ENDROOT
BRANCH   2   4
ATOM      4  C   UNL     1      15.723  -0.604  22.020  1.00  0.00     0.032 C 
BRANCH   4   5
ATOM      5  C   UNL     1      15.544  -1.699  20.961  1.00  0.00     0.034 C 
BRANCH   5   6
ATOM      6  C   UNL     1      14.378  -1.423  20.034  1.00  0.00    -0.077 C 
ATOM      7  C   UNL     1      12.976  -1.558  20.576  1.00  0.00     0.039 C 
ATOM      8  C   UNL     1      14.522  -0.987  18.757  1.00  0.00    -0.023 CG0
ATOM      9  G   UNL     1      15.813  -0.830  17.975  1.00  0.00     0.000 G0
ENDBRANCH   5   6
ENDBRANCH   4   5
ENDBRANCH   2   4
BRANCH   1  10
ATOM     10  C   UNL     1      16.944   1.572  20.258  1.00  0.00     0.111 C 
BRANCH  10  11
ATOM     11  C   UNL     1      17.330   1.088  18.882  1.00  0.00     0.163 C 
ATOM     12  O   UNL     1      18.562   1.062  18.606  1.00  0.00    -0.294 OA
BRANCH  11  13
ATOM     13  C   UNL     1      16.342   0.623  17.852  1.00  0.00    -0.002 C 
ATOM     14  C   UNL     1      16.058   1.398  16.760  1.00  0.00    -0.069 C 
ATOM     15  C   UNL     1      15.253   0.872  15.592  1.00  0.00     0.039 C 
ATOM     16  C   UNL     1      16.491   2.844  16.685  1.00  0.00     0.039 C 
BRANCH  13  17
ATOM     17  C   UNL     1      15.812  -0.803  17.968  1.00  0.00     0.066 CG0
ATOM     18  G   UNL     1      14.523  -0.983  18.748  1.00  0.00     0.000 G0
ENDBRANCH  13  17
ENDBRANCH  11  13
ENDBRANCH  10  11
ENDBRANCH   1  10
TORSDOF 0
ENDMDL
MODEL 5
REMARK VINA RESULT:    -3.115      2.212      4.700
REMARK INTER + INTRA:          -4.470
REMARK INTER:                  -4.547
REMARK INTRA:                   0.077
REMARK UNBOUND:                -0.080
REMARK SMILES CC1=CCC(=C(C)C)C(=O)CC(C)=CCC1
REMARK SMILES IDX 12 1 14 2 13 3 15 4 16 5 2 6 1 7 3 8 11 10 9 11 10 12 5 13
REMARK SMILES IDX 6 14 7 15 8 16 4 17
REMARK H PARENT
REMARK Flexibility Score: 60.00
ROOT
ATOM      1  C   UNL     1      14.137  12.358  28.655  1.00  0.00    -0.070 C 
ATOM      2  C   UNL     1      14.726  13.542  28.936  1.00  0.00    -0.027 C 
ATOM      3  C   UNL     1      14.545  11.152  29.464  1.00  0.00     0.039 C 
ENDROOT
BRANCH   2   4
ATOM      4  C   UNL     1      14.547  14.807  28.137  1.00  0.00     0.032 C 
BRANCH   4   5
ATOM      5  C   UNL     1      15.760  15.020  27.222  1.00  0.00     0.034 C 
BRANCH   5   6
ATOM      6  C   UNL     1      15.438  14.758  25.764  1.00  0.00    -0.077 C 
ATOM      7  C   UNL     1      14.899  15.893  24.928  1.00  0.00     0.039 C 
ATOM      8  C   UNL     1      15.679  13.576  25.144  1.00  0.00    -0.023 CG0
ATOM      9  G   UNL     1      16.160  12.283  25.776  1.00  0.00     0.000 G0
ENDBRANCH   5   6
ENDBRANCH   4   5
ENDBRANCH   2   4
BRANCH   1  10
ATOM     10  C   UNL     1      13.077  12.187  27.586  1.00  0.00     0.111 C 
BRANCH  10  11
ATOM     11  C   UNL     1      13.668  11.723  26.276  1.00  0.00     0.163 C 
ATOM     12  O   UNL     1      12.920  11.767  25.261  1.00  0.00    -0.294 OA
BRANCH  11  13
ATOM     13  C   UNL     1      15.082  11.243  26.121  1.00  0.00    -0.002 C 
ATOM     14  C   UNL     1      15.368   9.905  26.138  1.00  0.00    -0.069 C 
ATOM     15  C   UNL     1      16.731   9.372  25.757  1.00  0.00     0.039 C 
ATOM     16  C   UNL     1      14.347   8.885  26.590  1.00  0.00     0.039 C 
BRANCH  13  17
ATOM     17  C   UNL     1      16.148  12.275  25.765  1.00  0.00     0.066 CG0
ATOM     18  G   UNL     1      15.657  13.562  25.129  1.00  0.00     0.000 G0
ENDBRANCH  13  17
ENDBRANCH  11  13
ENDBRANCH  10  11
ENDBRANCH   1  10
TORSDOF 0
ENDMDL
MODEL 6
REMARK VINA RESULT:    -3.104     11.342     12.977
REMARK INTER + INTRA:          -4.454
REMARK INTER:                  -4.316
REMARK INTRA:                  -0.138
REMARK UNBOUND:                -0.080
REMARK SMILES CC1=CCC(=C(C)C)C(=O)CC(C)=CCC1
REMARK SMILES IDX 12 1 14 2 13 3 15 4 16 5 2 6 1 7 3 8 11 10 9 11 10 12 5 13
REMARK SMILES IDX 6 14 7 15 8 16 4 17
REMARK H PARENT
REMARK Flexibility Score: 60.00
ROOT
ATOM      1  C   UNL     1      16.191   3.093  18.671  1.00  0.00    -0.070 C 
ATOM      2  C   UNL     1      17.125   2.138  18.884  1.00  0.00    -0.027 C 
ATOM      3  C   UNL     1      16.494   4.168  17.657  1.00  0.00     0.039 C 
ENDROOT
BRANCH   2   4
ATOM      4  C   UNL     1      17.052   1.082  19.956  1.00  0.00     0.032 C 
BRANCH   4   5
ATOM      5  C   UNL     1      16.359  -0.172  19.406  1.00  0.00     0.034 C 
BRANCH   5   6
ATOM      6  C   UNL     1      15.359  -0.756  20.383  1.00  0.00    -0.077 C 
ATOM      7  C   UNL     1      15.877  -1.445  21.622  1.00  0.00     0.039 C 
ATOM      8  C   UNL     1      14.015  -0.632  20.245  1.00  0.00    -0.023 CG0
ATOM      9  G   UNL     1      13.259  -0.039  19.071  1.00  0.00     0.000 G0
ENDBRANCH   5   6
ENDBRANCH   4   5
ENDBRANCH   2   4
BRANCH   1  10
ATOM     10  C   UNL     1      14.855   3.125  19.384  1.00  0.00     0.111 C 
BRANCH  10  11
ATOM     11  C   UNL     1      13.776   2.430  18.590  1.00  0.00     0.163 C 
ATOM     12  O   UNL     1      13.687   2.720  17.365  1.00  0.00    -0.294 OA
BRANCH  11  13
ATOM     13  C   UNL     1      12.837   1.412  19.169  1.00  0.00    -0.002 C 
ATOM     14  C   UNL     1      11.597   1.784  19.616  1.00  0.00    -0.069 C 
ATOM     15  C   UNL     1      10.542   0.767  19.988  1.00  0.00     0.039 C 
ATOM     16  C   UNL     1      11.232   3.238  19.810  1.00  0.00     0.039 C 
BRANCH  13  17
ATOM     17  C   UNL     1      13.235  -0.058  19.075  1.00  0.00     0.066 CG0
ATOM     18  G   UNL     1      14.019  -0.621  20.246  1.00  0.00     0.000 G0
ENDBRANCH  13  17
ENDBRANCH  11  13
ENDBRANCH  10  11
ENDBRANCH   1  10
TORSDOF 0
ENDMDL
MODEL 7
REMARK VINA RESULT:    -3.103     12.409     13.994
REMARK INTER + INTRA:          -4.454
REMARK INTER:                  -4.290
REMARK INTRA:                  -0.163
REMARK UNBOUND:                -0.080
REMARK SMILES CC1=CCC(=C(C)C)C(=O)CC(C)=CCC1
REMARK SMILES IDX 12 1 14 2 13 3 15 4 16 5 2 6 1 7 3 8 11 10 9 11 10 12 5 13
REMARK SMILES IDX 6 14 7 15 8 16 4 17
REMARK H PARENT
REMARK Flexibility Score: 60.00
ROOT
ATOM      1  C   UNL     1      15.121  -0.356  20.923  1.00  0.00    -0.070 C 
ATOM      2  C   UNL     1      14.188  -1.312  20.709  1.00  0.00    -0.027 C 
ATOM      3  C   UNL     1      16.161  -0.605  21.987  1.00  0.00     0.039 C 
ENDROOT
BRANCH   2   4
ATOM      4  C   UNL     1      12.999  -1.168  19.795  1.00  0.00     0.032 C 
BRANCH   4   5
ATOM      5  C   UNL     1      13.262  -1.908  18.477  1.00  0.00     0.034 C 
BRANCH   5   6
ATOM      6  C   UNL     1      12.823  -1.108  17.267  1.00  0.00    -0.077 C 
ATOM      7  C   UNL     1      11.368  -1.141  16.868  1.00  0.00     0.039 C 
ATOM      8  C   UNL     1      13.653  -0.300  16.560  1.00  0.00    -0.023 CG0
ATOM      9  G   UNL     1      15.153  -0.143  16.729  1.00  0.00     0.000 G0
ENDBRANCH   5   6
ENDBRANCH   4   5
ENDBRANCH   2   4
BRANCH   1  10
ATOM     10  C   UNL     1      15.185   0.937  20.137  1.00  0.00     0.111 C 
BRANCH  10  11
ATOM     11  C   UNL     1      16.099   0.825  18.941  1.00  0.00     0.163 C 
ATOM     12  O   UNL     1      17.297   0.493  19.162  1.00  0.00    -0.294 OA
BRANCH  11  13
ATOM     13  C   UNL     1      15.656   1.061  17.526  1.00  0.00    -0.002 C 
ATOM     14  C   UNL     1      15.842   2.281  16.934  1.00  0.00    -0.069 C 
ATOM     15  C   UNL     1      15.626   2.493  15.452  1.00  0.00     0.039 C 
ATOM     16  C   UNL     1      16.226   3.500  17.741  1.00  0.00     0.039 C 
BRANCH  13  17
ATOM     17  C   UNL     1      15.167  -0.140  16.724  1.00  0.00     0.066 CG0
ATOM     18  G   UNL     1      13.665  -0.282  16.569  1.00  0.00     0.000 G0
ENDBRANCH  13  17
ENDBRANCH  11  13
ENDBRANCH  10  11
ENDBRANCH   1  10
TORSDOF 0
ENDMDL
MODEL 8
REMARK VINA RESULT:    -3.092      1.994      3.996
REMARK INTER + INTRA:          -4.437
REMARK INTER:                  -4.386
REMARK INTRA:                  -0.052
REMARK UNBOUND:                -0.080
REMARK SMILES CC1=CCC(=C(C)C)C(=O)CC(C)=CCC1
REMARK SMILES IDX 12 1 14 2 13 3 15 4 16 5 2 6 1 7 3 8 11 10 9 11 10 12 5 13
REMARK SMILES IDX 6 14 7 15 8 16 4 17
REMARK H PARENT
REMARK Flexibility Score: 60.00
ROOT
ATOM      1  C   UNL     1      11.395  10.708  26.441  1.00  0.00    -0.070 C 
ATOM      2  C   UNL     1      11.611   9.430  26.829  1.00  0.00    -0.027 C 
ATOM      3  C   UNL     1      10.187  11.423  26.992  1.00  0.00     0.039 C 
ENDROOT
BRANCH   2   4
ATOM      4  C   UNL     1      12.678   8.526  26.267  1.00  0.00     0.032 C 
BRANCH   4   5
ATOM      5  C   UNL     1      13.995   8.744  27.022  1.00  0.00     0.034 C 
BRANCH   5   6
ATOM      6  C   UNL     1      15.197   8.748  26.099  1.00  0.00    -0.077 C 
ATOM      7  C   UNL     1      15.554   7.476  25.371  1.00  0.00     0.039 C 
ATOM      8  C   UNL     1      15.932   9.857  25.830  1.00  0.00    -0.023 CG0
ATOM      9  G   UNL     1      15.807  11.226  26.472  1.00  0.00     0.000 G0
ENDBRANCH   5   6
ENDBRANCH   4   5
ENDBRANCH   2   4
BRANCH   1  10
ATOM     10  C   UNL     1      12.314  11.460  25.500  1.00  0.00     0.111 C 
BRANCH  10  11
ATOM     11  C   UNL     1      13.407  12.189  26.242  1.00  0.00     0.163 C 
ATOM     12  O   UNL     1      13.079  12.795  27.299  1.00  0.00    -0.294 OA
BRANCH  11  13
ATOM     13  C   UNL     1      14.844  12.209  25.806  1.00  0.00    -0.002 C 
ATOM     14  C   UNL     1      15.299  13.181  24.956  1.00  0.00    -0.069 C 
ATOM     15  C   UNL     1      16.773  13.374  24.678  1.00  0.00     0.039 C 
ATOM     16  C   UNL     1      14.346  14.084  24.207  1.00  0.00     0.039 C 
BRANCH  13  17
ATOM     17  C   UNL     1      15.805  11.233  26.477  1.00  0.00     0.066 CG0
ATOM     18  G   UNL     1      15.935   9.864  25.835  1.00  0.00     0.000 G0
ENDBRANCH  13  17
ENDBRANCH  11  13
ENDBRANCH  10  11
ENDBRANCH   1  10
TORSDOF 0
ENDMDL
MODEL 9
REMARK VINA RESULT:    -3.022     10.833     12.357
REMARK INTER + INTRA:          -4.340
REMARK INTER:                  -4.210
REMARK INTRA:                  -0.130
REMARK UNBOUND:                -0.080
REMARK SMILES CC1=CCC(=C(C)C)C(=O)CC(C)=CCC1
REMARK SMILES IDX 12 1 14 2 13 3 15 4 16 5 2 6 1 7 3 8 11 10 9 11 10 12 5 13
REMARK SMILES IDX 6 14 7 15 8 16 4 17
REMARK H PARENT
REMARK Flexibility Score: 60.00
ROOT
ATOM      1  C   UNL     1      15.689   5.257  17.584  1.00  0.00    -0.070 C 
ATOM      2  C   UNL     1      14.951   6.117  18.323  1.00  0.00    -0.027 C 
ATOM      3  C   UNL     1      17.009   4.792  18.144  1.00  0.00     0.039 C 
ENDROOT
BRANCH   2   4
ATOM      4  C   UNL     1      13.687   6.792  17.857  1.00  0.00     0.032 C 
BRANCH   4   5
ATOM      5  C   UNL     1      12.469   5.950  18.255  1.00  0.00     0.034 C 
BRANCH   5   6
ATOM      6  C   UNL     1      11.454   5.833  17.136  1.00  0.00    -0.077 C 
ATOM      7  C   UNL     1      10.619   7.041  16.789  1.00  0.00     0.039 C 
ATOM      8  C   UNL     1      11.304   4.721  16.373  1.00  0.00    -0.023 CG0
ATOM      9  G   UNL     1      11.979   3.375  16.559  1.00  0.00     0.000 G0
ENDBRANCH   5   6
ENDBRANCH   4   5
ENDBRANCH   2   4
BRANCH   1  10
ATOM     10  C   UNL     1      15.247   4.727  16.236  1.00  0.00     0.111 C 
BRANCH  10  11
ATOM     11  C   UNL     1      14.547   3.395  16.356  1.00  0.00     0.163 C 
ATOM     12  O   UNL     1      15.120   2.504  17.042  1.00  0.00    -0.294 OA
BRANCH  11  13
ATOM     13  C   UNL     1      13.215   3.091  15.732  1.00  0.00    -0.002 C 
ATOM     14  C   UNL     1      13.143   2.446  14.527  1.00  0.00    -0.069 C 
ATOM     15  C   UNL     1      11.837   1.919  13.977  1.00  0.00     0.039 C 
ATOM     16  C   UNL     1      14.363   2.270  13.652  1.00  0.00     0.039 C 
BRANCH  13  17
ATOM     17  C   UNL     1      11.963   3.358  16.561  1.00  0.00     0.066 CG0
ATOM     18  G   UNL     1      11.302   4.710  16.369  1.00  0.00     0.000 G0
ENDBRANCH  13  17
ENDBRANCH  11  13
ENDBRANCH  10  11
ENDBRANCH   1  10
TORSDOF 0
ENDMDL
