MODEL 1
REMARK VINA RESULT:    -3.483      0.000      0.000
REMARK INTER + INTRA:          -4.206
REMARK INTER:                  -4.094
REMARK INTRA:                  -0.112
REMARK UNBOUND:                -0.112
REMARK SMILES O=C([O-])CCC(=O)[O-]
REMARK SMILES IDX 4 1 2 2 1 3 3 4 5 5 6 6 7 7 8 8
REMARK H PARENT
REMARK Flexibility Score: inf
ROOT
ATOM      1  C   UNL     1     -28.217 -12.328  16.666  1.00  0.00     0.059 C 
ENDROOT
BRANCH   1   2
ATOM      2  C   UNL     1     -29.347 -11.696  17.420  1.00  0.00     0.042 C 
ATOM      3  O   UNL     1     -30.348 -12.382  17.754  1.00  0.00    -0.550 OA
ATOM      4  O   UNL     1     -29.310 -10.339  17.718  1.00  0.00    -0.550 OA
ENDBRANCH   1   2
BRANCH   1   5
ATOM      5  C   UNL     1     -27.036 -12.656  17.587  1.00  0.00     0.059 C 
BRANCH   5   6
ATOM      6  C   UNL     1     -25.861 -11.765  17.316  1.00  0.00     0.042 C 
ATOM      7  O   UNL     1     -24.694 -12.235  17.332  1.00  0.00    -0.550 OA
ATOM      8  O   UNL     1     -26.054 -10.408  17.089  1.00  0.00    -0.550 OA
ENDBRANCH   5   6
ENDBRANCH   1   5
TORSDOF 3
ENDMDL
MODEL 2
REMARK VINA RESULT:    -3.439      1.496      4.151
REMARK INTER + INTRA:          -4.154
REMARK INTER:                  -4.042
REMARK INTRA:                  -0.113
REMARK UNBOUND:                -0.112
REMARK SMILES O=C([O-])CCC(=O)[O-]
REMARK SMILES IDX 4 1 2 2 1 3 3 4 5 5 6 6 7 7 8 8
REMARK H PARENT
REMARK Flexibility Score: inf
ROOT
ATOM      1  C   UNL     1     -26.746 -11.706  16.733  1.00  0.00     0.059 C 
ENDROOT
BRANCH   1   2
ATOM      2  C   UNL     1     -25.695 -12.619  17.287  1.00  0.00     0.042 C 
ATOM      3  O   UNL     1     -24.612 -12.147  17.721  1.00  0.00    -0.550 OA
ATOM      4  O   UNL     1     -25.897 -13.994  17.286  1.00  0.00    -0.550 OA
ENDBRANCH   1   2
BRANCH   1   5
ATOM      5  C   UNL     1     -27.973 -11.637  17.648  1.00  0.00     0.059 C 
BRANCH   5   6
ATOM      6  C   UNL     1     -29.077 -12.527  17.163  1.00  0.00     0.042 C 
ATOM      7  O   UNL     1     -29.890 -12.112  16.297  1.00  0.00    -0.550 OA
ATOM      8  O   UNL     1     -29.231 -13.800  17.698  1.00  0.00    -0.550 OA
ENDBRANCH   5   6
ENDBRANCH   1   5
TORSDOF 3
ENDMDL
MODEL 3
REMARK VINA RESULT:    -3.351      1.432      4.107
REMARK INTER + INTRA:          -4.050
REMARK INTER:                  -4.015
REMARK INTRA:                  -0.035
REMARK UNBOUND:                -0.112
REMARK SMILES O=C([O-])CCC(=O)[O-]
REMARK SMILES IDX 4 1 2 2 1 3 3 4 5 5 6 6 7 7 8 8
REMARK H PARENT
REMARK Flexibility Score: inf
ROOT
ATOM      1  C   UNL     1     -28.110 -12.217  17.024  1.00  0.00     0.059 C 
ENDROOT
BRANCH   1   2
ATOM      2  C   UNL     1     -27.260 -10.992  17.175  1.00  0.00     0.042 C 
ATOM      3  O   UNL     1     -27.794  -9.875  17.401  1.00  0.00    -0.550 OA
ATOM      4  O   UNL     1     -25.881 -11.080  17.025  1.00  0.00    -0.550 OA
ENDBRANCH   1   2
BRANCH   1   5
ATOM      5  C   UNL     1     -29.599 -11.896  17.193  1.00  0.00     0.059 C 
BRANCH   5   6
ATOM      6  C   UNL     1     -30.440 -13.136  17.154  1.00  0.00     0.042 C 
ATOM      7  O   UNL     1     -30.284 -13.977  16.230  1.00  0.00    -0.550 OA
ATOM      8  O   UNL     1     -31.422 -13.342  18.114  1.00  0.00    -0.550 OA
ENDBRANCH   5   6
ENDBRANCH   1   5
TORSDOF 3
ENDMDL
MODEL 4
REMARK VINA RESULT:    -3.317      1.487      2.417
REMARK INTER + INTRA:          -4.011
REMARK INTER:                  -3.973
REMARK INTRA:                  -0.039
REMARK UNBOUND:                -0.112
REMARK SMILES O=C([O-])CCC(=O)[O-]
REMARK SMILES IDX 4 1 2 2 1 3 3 4 5 5 6 6 7 7 8 8
REMARK H PARENT
REMARK Flexibility Score: inf
ROOT
ATOM      1  C   UNL     1     -29.587 -11.968  17.286  1.00  0.00     0.059 C 
ENDROOT
BRANCH   1   2
ATOM      2  C   UNL     1     -30.434 -13.136  16.884  1.00  0.00     0.042 C 
ATOM      3  O   UNL     1     -30.170 -13.778  15.834  1.00  0.00    -0.550 OA
ATOM      4  O   UNL     1     -31.538 -13.490  17.650  1.00  0.00    -0.550 OA
ENDBRANCH   1   2
BRANCH   1   5
ATOM      5  C   UNL     1     -28.101 -12.226  17.011  1.00  0.00     0.059 C 
BRANCH   5   6
ATOM      6  C   UNL     1     -27.284 -10.981  17.177  1.00  0.00     0.042 C 
ATOM      7  O   UNL     1     -27.849  -9.876  17.386  1.00  0.00    -0.550 OA
ATOM      8  O   UNL     1     -25.901 -11.035  17.058  1.00  0.00    -0.550 OA
ENDBRANCH   5   6
ENDBRANCH   1   5
TORSDOF 3
ENDMDL
MODEL 5
REMARK VINA RESULT:    -3.312      1.525      2.161
REMARK INTER + INTRA:          -4.005
REMARK INTER:                  -3.975
REMARK INTRA:                  -0.030
REMARK UNBOUND:                -0.112
REMARK SMILES O=C([O-])CCC(=O)[O-]
REMARK SMILES IDX 4 1 2 2 1 3 3 4 5 5 6 6 7 7 8 8
REMARK H PARENT
REMARK Flexibility Score: inf
ROOT
ATOM      1  C   UNL     1     -29.579 -12.078  16.713  1.00  0.00     0.059 C 
ENDROOT
BRANCH   1   2
ATOM      2  C   UNL     1     -30.497 -13.229  16.992  1.00  0.00     0.042 C 
ATOM      3  O   UNL     1     -31.218 -13.227  18.024  1.00  0.00    -0.550 OA
ATOM      4  O   UNL     1     -30.525 -14.320  16.132  1.00  0.00    -0.550 OA
ENDBRANCH   1   2
BRANCH   1   5
ATOM      5  C   UNL     1     -28.133 -12.400  17.107  1.00  0.00     0.059 C 
BRANCH   5   6
ATOM      6  C   UNL     1     -27.260 -11.183  17.048  1.00  0.00     0.042 C 
ATOM      7  O   UNL     1     -26.042 -11.291  16.747  1.00  0.00    -0.550 OA
ATOM      8  O   UNL     1     -27.782  -9.936  17.367  1.00  0.00    -0.550 OA
ENDBRANCH   5   6
ENDBRANCH   1   5
TORSDOF 3
ENDMDL
MODEL 6
REMARK VINA RESULT:    -3.300      1.496      4.113
REMARK INTER + INTRA:          -3.991
REMARK INTER:                  -3.958
REMARK INTRA:                  -0.033
REMARK UNBOUND:                -0.112
REMARK SMILES O=C([O-])CCC(=O)[O-]
REMARK SMILES IDX 4 1 2 2 1 3 3 4 5 5 6 6 7 7 8 8
REMARK H PARENT
REMARK Flexibility Score: inf
ROOT
ATOM      1  C   UNL     1     -28.132 -12.350  17.360  1.00  0.00     0.059 C 
ENDROOT
BRANCH   1   2
ATOM      2  C   UNL     1     -27.243 -11.177  17.075  1.00  0.00     0.042 C 
ATOM      3  O   UNL     1     -26.084 -11.357  16.620  1.00  0.00    -0.550 OA
ATOM      4  O   UNL     1     -27.683  -9.888  17.351  1.00  0.00    -0.550 OA
ENDBRANCH   1   2
BRANCH   1   5
ATOM      5  C   UNL     1     -29.613 -11.962  17.308  1.00  0.00     0.059 C 
BRANCH   5   6
ATOM      6  C   UNL     1     -30.497 -13.168  17.198  1.00  0.00     0.042 C 
ATOM      7  O   UNL     1     -30.348 -13.977  16.246  1.00  0.00    -0.550 OA
ATOM      8  O   UNL     1     -31.512 -13.374  18.124  1.00  0.00    -0.550 OA
ENDBRANCH   5   6
ENDBRANCH   1   5
TORSDOF 3
ENDMDL
MODEL 7
REMARK VINA RESULT:    -3.236      2.178      3.228
REMARK INTER + INTRA:          -3.916
REMARK INTER:                  -3.875
REMARK INTRA:                  -0.041
REMARK UNBOUND:                -0.112
REMARK SMILES O=C([O-])CCC(=O)[O-]
REMARK SMILES IDX 4 1 2 2 1 3 3 4 5 5 6 6 7 7 8 8
REMARK H PARENT
REMARK Flexibility Score: inf
ROOT
ATOM      1  C   UNL     1     -27.611 -12.551  17.686  1.00  0.00     0.059 C 
ENDROOT
BRANCH   1   2
ATOM      2  C   UNL     1     -27.195 -11.147  17.369  1.00  0.00     0.042 C 
ATOM      3  O   UNL     1     -26.000 -10.895  17.063  1.00  0.00    -0.550 OA
ATOM      4  O   UNL     1     -28.118 -10.112  17.451  1.00  0.00    -0.550 OA
ENDBRANCH   1   2
BRANCH   1   5
ATOM      5  C   UNL     1     -26.400 -13.475  17.853  1.00  0.00     0.059 C 
BRANCH   5   6
ATOM      6  C   UNL     1     -26.757 -14.907  17.589  1.00  0.00     0.042 C 
ATOM      7  O   UNL     1     -25.852 -15.758  17.389  1.00  0.00    -0.550 OA
ATOM      8  O   UNL     1     -28.090 -15.291  17.522  1.00  0.00    -0.550 OA
ENDBRANCH   5   6
ENDBRANCH   1   5
TORSDOF 3
ENDMDL
MODEL 8
REMARK VINA RESULT:    -3.036      2.539      3.560
REMARK INTER + INTRA:          -3.680
REMARK INTER:                  -3.628
REMARK INTRA:                  -0.052
REMARK UNBOUND:                -0.112
REMARK SMILES O=C([O-])CCC(=O)[O-]
REMARK SMILES IDX 4 1 2 2 1 3 3 4 5 5 6 6 7 7 8 8
REMARK H PARENT
REMARK Flexibility Score: inf
ROOT
ATOM      1  C   UNL     1     -27.415 -14.006  17.760  1.00  0.00     0.059 C 
ENDROOT
BRANCH   1   2
ATOM      2  C   UNL     1     -27.070 -15.416  17.389  1.00  0.00     0.042 C 
ATOM      3  O   UNL     1     -25.874 -15.805  17.424  1.00  0.00    -0.550 OA
ATOM      4  O   UNL     1     -28.067 -16.287  16.966  1.00  0.00    -0.550 OA
ENDBRANCH   1   2
BRANCH   1   5
ATOM      5  C   UNL     1     -26.185 -13.093  17.715  1.00  0.00     0.059 C 
BRANCH   5   6
ATOM      6  C   UNL     1     -26.459 -11.834  16.950  1.00  0.00     0.042 C 
ATOM      7  O   UNL     1     -25.521 -11.038  16.684  1.00  0.00    -0.550 OA
ATOM      8  O   UNL     1     -27.757 -11.520  16.567  1.00  0.00    -0.550 OA
ENDBRANCH   5   6
ENDBRANCH   1   5
TORSDOF 3
ENDMDL
