MODEL 1
REMARK VINA RESULT:    -4.753      0.000      0.000
REMARK INTER + INTRA:          -6.402
REMARK INTER:                  -6.698
REMARK INTRA:                   0.297
REMARK UNBOUND:                 0.297
REMARK SMILES CC1=CCC(=C(C)C)C(=O)CC(C)=CCC1
REMARK SMILES IDX 12 1 14 2 13 3 15 4 16 5 2 6 1 7 3 8 11 10 9 11 10 12 5 13
REMARK SMILES IDX 6 14 7 15 8 16 4 17
REMARK H PARENT
REMARK Flexibility Score: 60.00
ROOT
ATOM      1  C   UNL     1     257.578 261.250 245.509  1.00  0.00    -0.070 C 
ATOM      2  C   UNL     1     256.479 260.871 244.815  1.00  0.00    -0.027 C 
ATOM      3  C   UNL     1     258.931 260.963 244.908  1.00  0.00     0.039 C 
ENDROOT
BRANCH   2   4
ATOM      4  C   UNL     1     255.051 261.131 245.235  1.00  0.00     0.032 C 
BRANCH   4   5
ATOM      5  C   UNL     1     254.522 260.024 246.157  1.00  0.00     0.034 C 
BRANCH   5   6
ATOM      6  C   UNL     1     253.823 260.549 247.402  1.00  0.00    -0.077 C 
ATOM      7  C   UNL     1     252.499 261.255 247.250  1.00  0.00     0.039 C 
ATOM      8  C   UNL     1     254.319 260.403 248.652  1.00  0.00    -0.023 CG0
ATOM      9  G   UNL     1     255.656 259.790 248.998  1.00  0.00     0.000 G0
ENDBRANCH   5   6
ENDBRANCH   4   5
ENDBRANCH   2   4
BRANCH   1  10
ATOM     10  C   UNL     1     257.505 261.940 246.857  1.00  0.00     0.111 C 
BRANCH  10  11
ATOM     11  C   UNL     1     257.742 260.966 247.977  1.00  0.00     0.163 C 
ATOM     12  O   UNL     1     258.786 260.259 247.970  1.00  0.00    -0.294 OA
BRANCH  11  13
ATOM     13  C   UNL     1     256.783 260.838 249.104  1.00  0.00    -0.002 C 
ATOM     14  C   UNL     1     256.905 261.633 250.202  1.00  0.00    -0.069 C 
ATOM     15  C   UNL     1     255.970 261.481 251.381  1.00  0.00     0.039 C 
ATOM     16  C   UNL     1     257.950 262.724 250.267  1.00  0.00     0.039 C 
BRANCH  13  17
ATOM     17  C   UNL     1     255.663 259.806 249.013  1.00  0.00     0.066 CG0
ATOM     18  G   UNL     1     254.323 260.397 248.639  1.00  0.00     0.000 G0
ENDBRANCH  13  17
ENDBRANCH  11  13
ENDBRANCH  10  11
ENDBRANCH   1  10
TORSDOF 0
ENDMDL
MODEL 2
REMARK VINA RESULT:    -4.612      1.957      2.371
REMARK INTER + INTRA:          -6.203
REMARK INTER:                  -6.471
REMARK INTRA:                   0.269
REMARK UNBOUND:                 0.297
REMARK SMILES CC1=CCC(=C(C)C)C(=O)CC(C)=CCC1
REMARK SMILES IDX 12 1 14 2 13 3 15 4 16 5 2 6 1 7 3 8 11 10 9 11 10 12 5 13
REMARK SMILES IDX 6 14 7 15 8 16 4 17
REMARK H PARENT
REMARK Flexibility Score: 60.00
ROOT
ATOM      1  C   UNL     1     255.663 260.712 245.941  1.00  0.00    -0.070 C 
ATOM      2  C   UNL     1     254.892 259.925 245.155  1.00  0.00    -0.027 C 
ATOM      3  C   UNL     1     256.903 261.321 245.339  1.00  0.00     0.039 C 
ENDROOT
BRANCH   2   4
ATOM      4  C   UNL     1     253.588 259.285 245.573  1.00  0.00     0.032 C 
BRANCH   4   5
ATOM      5  C   UNL     1     253.818 257.940 246.276  1.00  0.00     0.034 C 
BRANCH   5   6
ATOM      6  C   UNL     1     253.074 257.808 247.597  1.00  0.00    -0.077 C 
ATOM      7  C   UNL     1     251.570 257.702 247.578  1.00  0.00     0.039 C 
ATOM      8  C   UNL     1     253.693 257.763 248.799  1.00  0.00    -0.023 CG0
ATOM      9  G   UNL     1     255.179 257.923 249.026  1.00  0.00     0.000 G0
ENDBRANCH   5   6
ENDBRANCH   4   5
ENDBRANCH   2   4
BRANCH   1  10
ATOM     10  C   UNL     1     255.335 261.000 247.394  1.00  0.00     0.111 C 
BRANCH  10  11
ATOM     11  C   UNL     1     256.210 260.198 248.315  1.00  0.00     0.163 C 
ATOM     12  O   UNL     1     257.463 260.270 248.196  1.00  0.00    -0.294 OA
BRANCH  11  13
ATOM     13  C   UNL     1     255.629 259.340 249.380  1.00  0.00    -0.002 C 
ATOM     14  C   UNL     1     255.483 259.821 250.645  1.00  0.00    -0.069 C 
ATOM     15  C   UNL     1     254.942 258.946 251.753  1.00  0.00     0.039 C 
ATOM     16  C   UNL     1     255.817 261.257 250.979  1.00  0.00     0.039 C 
BRANCH  13  17
ATOM     17  C   UNL     1     255.196 257.919 249.035  1.00  0.00     0.066 CG0
ATOM     18  G   UNL     1     253.710 257.775 248.802  1.00  0.00     0.000 G0
ENDBRANCH  13  17
ENDBRANCH  11  13
ENDBRANCH  10  11
ENDBRANCH   1  10
TORSDOF 0
ENDMDL
MODEL 3
REMARK VINA RESULT:    -4.602      5.965      8.420
REMARK INTER + INTRA:          -6.189
REMARK INTER:                  -6.439
REMARK INTRA:                   0.251
REMARK UNBOUND:                 0.297
REMARK SMILES CC1=CCC(=C(C)C)C(=O)CC(C)=CCC1
REMARK SMILES IDX 12 1 14 2 13 3 15 4 16 5 2 6 1 7 3 8 11 10 9 11 10 12 5 13
REMARK SMILES IDX 6 14 7 15 8 16 4 17
REMARK H PARENT
REMARK Flexibility Score: 60.00
ROOT
ATOM      1  C   UNL     1     250.123 259.035 247.008  1.00  0.00    -0.070 C 
ATOM      2  C   UNL     1     251.427 259.398 247.043  1.00  0.00    -0.027 C 
ATOM      3  C   UNL     1     249.117 260.047 246.521  1.00  0.00     0.039 C 
ENDROOT
BRANCH   2   4
ATOM      4  C   UNL     1     252.572 258.496 247.443  1.00  0.00     0.032 C 
BRANCH   4   5
ATOM      5  C   UNL     1     253.004 257.583 246.287  1.00  0.00     0.034 C 
BRANCH   5   6
ATOM      6  C   UNL     1     253.218 256.135 246.700  1.00  0.00    -0.077 C 
ATOM      7  C   UNL     1     254.400 255.795 247.572  1.00  0.00     0.039 C 
ATOM      8  C   UNL     1     252.390 255.128 246.341  1.00  0.00    -0.023 CG0
ATOM      9  G   UNL     1     251.198 255.260 245.420  1.00  0.00     0.000 G0
ENDBRANCH   5   6
ENDBRANCH   4   5
ENDBRANCH   2   4
BRANCH   1  10
ATOM     10  C   UNL     1     249.637 257.665 247.440  1.00  0.00     0.111 C 
BRANCH  10  11
ATOM     11  C   UNL     1     249.298 256.811 246.250  1.00  0.00     0.163 C 
ATOM     12  O   UNL     1     248.555 257.279 245.346  1.00  0.00    -0.294 OA
BRANCH  11  13
ATOM     13  C   UNL     1     249.841 255.436 246.108  1.00  0.00    -0.002 C 
ATOM     14  C   UNL     1     249.147 254.371 246.593  1.00  0.00    -0.069 C 
ATOM     15  C   UNL     1     249.708 252.970 246.504  1.00  0.00     0.039 C 
ATOM     16  C   UNL     1     247.773 254.543 247.201  1.00  0.00     0.039 C 
BRANCH  13  17
ATOM     17  C   UNL     1     251.182 255.235 245.410  1.00  0.00     0.066 CG0
ATOM     18  G   UNL     1     252.353 255.131 246.361  1.00  0.00     0.000 G0
ENDBRANCH  13  17
ENDBRANCH  11  13
ENDBRANCH  10  11
ENDBRANCH   1  10
TORSDOF 0
ENDMDL
MODEL 4
REMARK VINA RESULT:    -4.390      4.189      6.038
REMARK INTER + INTRA:          -5.890
REMARK INTER:                  -6.121
REMARK INTRA:                   0.231
REMARK UNBOUND:                 0.297
REMARK SMILES CC1=CCC(=C(C)C)C(=O)CC(C)=CCC1
REMARK SMILES IDX 12 1 14 2 13 3 15 4 16 5 2 6 1 7 3 8 11 10 9 11 10 12 5 13
REMARK SMILES IDX 6 14 7 15 8 16 4 17
REMARK H PARENT
REMARK Flexibility Score: 60.00
ROOT
ATOM      1  C   UNL     1     252.298 255.544 246.091  1.00  0.00    -0.070 C 
ATOM      2  C   UNL     1     252.925 254.413 246.491  1.00  0.00    -0.027 C 
ATOM      3  C   UNL     1     250.851 255.447 245.682  1.00  0.00     0.039 C 
ENDROOT
BRANCH   2   4
ATOM      4  C   UNL     1     254.350 254.336 246.991  1.00  0.00     0.032 C 
BRANCH   4   5
ATOM      5  C   UNL     1     254.449 254.709 248.477  1.00  0.00     0.034 C 
BRANCH   5   6
ATOM      6  C   UNL     1     255.608 255.641 248.795  1.00  0.00    -0.077 C 
ATOM      7  C   UNL     1     257.014 255.100 248.735  1.00  0.00     0.039 C 
ATOM      8  C   UNL     1     255.448 256.946 249.116  1.00  0.00    -0.023 CG0
ATOM      9  G   UNL     1     254.121 257.648 249.293  1.00  0.00     0.000 G0
ENDBRANCH   5   6
ENDBRANCH   4   5
ENDBRANCH   2   4
BRANCH   1  10
ATOM     10  C   UNL     1     252.989 256.893 246.032  1.00  0.00     0.111 C 
BRANCH  10  11
ATOM     11  C   UNL     1     252.599 257.752 247.202  1.00  0.00     0.163 C 
ATOM     12  O   UNL     1     251.378 257.900 247.480  1.00  0.00    -0.294 OA
BRANCH  11  13
ATOM     13  C   UNL     1     253.624 258.411 248.052  1.00  0.00    -0.002 C 
ATOM     14  C   UNL     1     254.106 259.639 247.717  1.00  0.00    -0.069 C 
ATOM     15  C   UNL     1     255.187 260.302 248.540  1.00  0.00     0.039 C 
ATOM     16  C   UNL     1     253.549 260.403 246.537  1.00  0.00     0.039 C 
BRANCH  13  17
ATOM     17  C   UNL     1     254.126 257.694 249.301  1.00  0.00     0.066 CG0
ATOM     18  G   UNL     1     255.431 256.959 249.097  1.00  0.00     0.000 G0
ENDBRANCH  13  17
ENDBRANCH  11  13
ENDBRANCH  10  11
ENDBRANCH   1  10
TORSDOF 0
ENDMDL
MODEL 5
REMARK VINA RESULT:    -4.383      4.841      6.584
REMARK INTER + INTRA:          -5.880
REMARK INTER:                  -6.437
REMARK INTRA:                   0.557
REMARK UNBOUND:                 0.297
REMARK SMILES CC1=CCC(=C(C)C)C(=O)CC(C)=CCC1
REMARK SMILES IDX 12 1 14 2 13 3 15 4 16 5 2 6 1 7 3 8 11 10 9 11 10 12 5 13
REMARK SMILES IDX 6 14 7 15 8 16 4 17
REMARK H PARENT
REMARK Flexibility Score: 60.00
ROOT
ATOM      1  C   UNL     1     253.398 255.817 246.573  1.00  0.00    -0.070 C 
ATOM      2  C   UNL     1     252.481 254.968 246.053  1.00  0.00    -0.027 C 
ATOM      3  C   UNL     1     254.482 255.243 247.448  1.00  0.00     0.039 C 
ENDROOT
BRANCH   2   4
ATOM      4  C   UNL     1     251.366 255.359 245.110  1.00  0.00     0.032 C 
BRANCH   4   5
ATOM      5  C   UNL     1     249.985 255.129 245.740  1.00  0.00     0.034 C 
BRANCH   5   6
ATOM      6  C   UNL     1     249.942 255.412 247.235  1.00  0.00    -0.077 C 
ATOM      7  C   UNL     1     249.808 254.254 248.191  1.00  0.00     0.039 C 
ATOM      8  C   UNL     1     250.036 256.655 247.760  1.00  0.00    -0.023 CG0
ATOM      9  G   UNL     1     250.106 257.939 246.965  1.00  0.00     0.000 G0
ENDBRANCH   5   6
ENDBRANCH   4   5
ENDBRANCH   2   4
BRANCH   1  10
ATOM     10  C   UNL     1     253.376 257.312 246.316  1.00  0.00     0.111 C 
BRANCH  10  11
ATOM     11  C   UNL     1     252.650 258.038 247.415  1.00  0.00     0.163 C 
ATOM     12  O   UNL     1     253.145 258.058 248.574  1.00  0.00    -0.294 OA
BRANCH  11  13
ATOM     13  C   UNL     1     251.375 258.753 247.155  1.00  0.00    -0.002 C 
ATOM     14  C   UNL     1     251.350 260.113 247.095  1.00  0.00    -0.069 C 
ATOM     15  C   UNL     1     250.053 260.860 246.884  1.00  0.00     0.039 C 
ATOM     16  C   UNL     1     252.623 260.924 247.195  1.00  0.00     0.039 C 
BRANCH  13  17
ATOM     17  C   UNL     1     250.097 257.945 246.956  1.00  0.00     0.066 CG0
ATOM     18  G   UNL     1     250.059 256.662 247.754  1.00  0.00     0.000 G0
ENDBRANCH  13  17
ENDBRANCH  11  13
ENDBRANCH  10  11
ENDBRANCH   1  10
TORSDOF 0
ENDMDL
MODEL 6
REMARK VINA RESULT:    -4.361      4.088      6.383
REMARK INTER + INTRA:          -5.849
REMARK INTER:                  -6.107
REMARK INTRA:                   0.258
REMARK UNBOUND:                 0.297
REMARK SMILES CC1=CCC(=C(C)C)C(=O)CC(C)=CCC1
REMARK SMILES IDX 12 1 14 2 13 3 15 4 16 5 2 6 1 7 3 8 11 10 9 11 10 12 5 13
REMARK SMILES IDX 6 14 7 15 8 16 4 17
REMARK H PARENT
REMARK Flexibility Score: 60.00
ROOT
ATOM      1  C   UNL     1     253.369 260.275 247.318  1.00  0.00    -0.070 C 
ATOM      2  C   UNL     1     252.536 261.342 247.287  1.00  0.00    -0.027 C 
ATOM      3  C   UNL     1     254.585 260.350 248.206  1.00  0.00     0.039 C 
ENDROOT
BRANCH   2   4
ATOM      4  C   UNL     1     251.245 261.416 246.504  1.00  0.00     0.032 C 
BRANCH   4   5
ATOM      5  C   UNL     1     250.076 260.793 247.281  1.00  0.00     0.034 C 
BRANCH   5   6
ATOM      6  C   UNL     1     249.186 259.900 246.430  1.00  0.00    -0.077 C 
ATOM      7  C   UNL     1     248.255 260.541 245.432  1.00  0.00     0.039 C 
ATOM      8  C   UNL     1     249.194 258.550 246.507  1.00  0.00    -0.023 CG0
ATOM      9  G   UNL     1     250.003 257.733 247.489  1.00  0.00     0.000 G0
ENDBRANCH   5   6
ENDBRANCH   4   5
ENDBRANCH   2   4
BRANCH   1  10
ATOM     10  C   UNL     1     253.133 259.020 246.500  1.00  0.00     0.111 C 
BRANCH  10  11
ATOM     11  C   UNL     1     252.571 257.916 247.353  1.00  0.00     0.163 C 
ATOM     12  O   UNL     1     253.155 257.606 248.426  1.00  0.00    -0.294 OA
BRANCH  11  13
ATOM     13  C   UNL     1     251.328 257.201 246.967  1.00  0.00    -0.002 C 
ATOM     14  C   UNL     1     251.389 256.106 246.161  1.00  0.00    -0.069 C 
ATOM     15  C   UNL     1     250.131 255.396 245.716  1.00  0.00     0.039 C 
ATOM     16  C   UNL     1     252.716 255.535 245.715  1.00  0.00     0.039 C 
BRANCH  13  17
ATOM     17  C   UNL     1     249.987 257.707 247.489  1.00  0.00     0.066 CG0
ATOM     18  G   UNL     1     249.220 258.538 246.486  1.00  0.00     0.000 G0
ENDBRANCH  13  17
ENDBRANCH  11  13
ENDBRANCH  10  11
ENDBRANCH   1  10
TORSDOF 0
ENDMDL
MODEL 7
REMARK VINA RESULT:    -4.312      5.600      7.375
REMARK INTER + INTRA:          -5.780
REMARK INTER:                  -6.057
REMARK INTRA:                   0.277
REMARK UNBOUND:                 0.297
REMARK SMILES CC1=CCC(=C(C)C)C(=O)CC(C)=CCC1
REMARK SMILES IDX 12 1 14 2 13 3 15 4 16 5 2 6 1 7 3 8 11 10 9 11 10 12 5 13
REMARK SMILES IDX 6 14 7 15 8 16 4 17
REMARK H PARENT
REMARK Flexibility Score: 60.00
ROOT
ATOM      1  C   UNL     1     250.734 258.666 247.233  1.00  0.00    -0.070 C 
ATOM      2  C   UNL     1     249.474 258.339 246.861  1.00  0.00    -0.027 C 
ATOM      3  C   UNL     1     251.193 260.085 247.013  1.00  0.00     0.039 C 
ENDROOT
BRANCH   2   4
ATOM      4  C   UNL     1     248.829 256.987 247.062  1.00  0.00     0.032 C 
BRANCH   4   5
ATOM      5  C   UNL     1     249.304 255.972 246.013  1.00  0.00     0.034 C 
BRANCH   5   6
ATOM      6  C   UNL     1     249.776 254.655 246.609  1.00  0.00    -0.077 C 
ATOM      7  C   UNL     1     248.799 253.824 247.403  1.00  0.00     0.039 C 
ATOM      8  C   UNL     1     251.030 254.173 246.452  1.00  0.00    -0.023 CG0
ATOM      9  G   UNL     1     252.163 254.889 245.753  1.00  0.00     0.000 G0
ENDBRANCH   5   6
ENDBRANCH   4   5
ENDBRANCH   2   4
BRANCH   1  10
ATOM     10  C   UNL     1     251.695 257.671 247.852  1.00  0.00     0.111 C 
BRANCH  10  11
ATOM     11  C   UNL     1     252.708 257.199 246.846  1.00  0.00     0.163 C 
ATOM     12  O   UNL     1     253.308 258.045 246.130  1.00  0.00    -0.294 OA
BRANCH  11  13
ATOM     13  C   UNL     1     253.032 255.757 246.696  1.00  0.00    -0.002 C 
ATOM     14  C   UNL     1     254.073 255.213 247.383  1.00  0.00    -0.069 C 
ATOM     15  C   UNL     1     254.451 253.760 247.204  1.00  0.00     0.039 C 
ATOM     16  C   UNL     1     254.863 256.028 248.383  1.00  0.00     0.039 C 
BRANCH  13  17
ATOM     17  C   UNL     1     252.184 254.897 245.764  1.00  0.00     0.066 CG0
ATOM     18  G   UNL     1     251.049 254.182 246.462  1.00  0.00     0.000 G0
ENDBRANCH  13  17
ENDBRANCH  11  13
ENDBRANCH  10  11
ENDBRANCH   1  10
TORSDOF 0
ENDMDL
MODEL 8
REMARK VINA RESULT:    -3.955      5.108      7.154
REMARK INTER + INTRA:          -5.277
REMARK INTER:                  -5.599
REMARK INTRA:                   0.323
REMARK UNBOUND:                 0.297
REMARK SMILES CC1=CCC(=C(C)C)C(=O)CC(C)=CCC1
REMARK SMILES IDX 12 1 14 2 13 3 15 4 16 5 2 6 1 7 3 8 11 10 9 11 10 12 5 13
REMARK SMILES IDX 6 14 7 15 8 16 4 17
REMARK H PARENT
REMARK Flexibility Score: 60.00
ROOT
ATOM      1  C   UNL     1     254.811 257.846 248.832  1.00  0.00    -0.070 C 
ATOM      2  C   UNL     1     255.665 256.933 249.351  1.00  0.00    -0.027 C 
ATOM      3  C   UNL     1     255.343 259.224 248.529  1.00  0.00     0.039 C 
ENDROOT
BRANCH   2   4
ATOM      4  C   UNL     1     255.321 255.493 249.658  1.00  0.00     0.032 C 
BRANCH   4   5
ATOM      5  C   UNL     1     255.426 254.608 248.408  1.00  0.00     0.034 C 
BRANCH   5   6
ATOM      6  C   UNL     1     254.241 253.672 248.223  1.00  0.00    -0.077 C 
ATOM      7  C   UNL     1     254.098 252.489 249.145  1.00  0.00     0.039 C 
ATOM      8  C   UNL     1     253.289 253.853 247.278  1.00  0.00    -0.023 CG0
ATOM      9  G   UNL     1     253.298 254.936 246.223  1.00  0.00     0.000 G0
ENDBRANCH   5   6
ENDBRANCH   4   5
ENDBRANCH   2   4
BRANCH   1  10
ATOM     10  C   UNL     1     253.352 257.544 248.549  1.00  0.00     0.111 C 
BRANCH  10  11
ATOM     11  C   UNL     1     253.113 257.365 247.076  1.00  0.00     0.163 C 
ATOM     12  O   UNL     1     253.504 258.256 246.274  1.00  0.00    -0.294 OA
BRANCH  11  13
ATOM     13  C   UNL     1     252.445 256.150 246.544  1.00  0.00    -0.002 C 
ATOM     14  C   UNL     1     251.097 256.133 246.358  1.00  0.00    -0.069 C 
ATOM     15  C   UNL     1     250.394 254.889 245.867  1.00  0.00     0.039 C 
ATOM     16  C   UNL     1     250.259 257.370 246.595  1.00  0.00     0.039 C 
BRANCH  13  17
ATOM     17  C   UNL     1     253.290 254.925 246.208  1.00  0.00     0.066 CG0
ATOM     18  G   UNL     1     253.275 253.863 247.283  1.00  0.00     0.000 G0
ENDBRANCH  13  17
ENDBRANCH  11  13
ENDBRANCH  10  11
ENDBRANCH   1  10
TORSDOF 0
ENDMDL
MODEL 9
REMARK VINA RESULT:    -3.885      5.784      7.799
REMARK INTER + INTRA:          -5.178
REMARK INTER:                  -5.501
REMARK INTRA:                   0.323
REMARK UNBOUND:                 0.297
REMARK SMILES CC1=CCC(=C(C)C)C(=O)CC(C)=CCC1
REMARK SMILES IDX 12 1 14 2 13 3 15 4 16 5 2 6 1 7 3 8 11 10 9 11 10 12 5 13
REMARK SMILES IDX 6 14 7 15 8 16 4 17
REMARK H PARENT
REMARK Flexibility Score: 60.00
ROOT
ATOM      1  C   UNL     1     253.194 257.893 246.924  1.00  0.00    -0.070 C 
ATOM      2  C   UNL     1     254.165 257.290 247.648  1.00  0.00    -0.027 C 
ATOM      3  C   UNL     1     253.344 259.362 246.619  1.00  0.00     0.039 C 
ENDROOT
BRANCH   2   4
ATOM      4  C   UNL     1     254.208 255.818 247.993  1.00  0.00     0.032 C 
BRANCH   4   5
ATOM      5  C   UNL     1     253.269 255.483 249.160  1.00  0.00     0.034 C 
BRANCH   5   6
ATOM      6  C   UNL     1     252.321 254.331 248.868  1.00  0.00    -0.077 C 
ATOM      7  C   UNL     1     252.898 252.964 248.597  1.00  0.00     0.039 C 
ATOM      8  C   UNL     1     250.974 254.460 248.854  1.00  0.00    -0.023 CG0
ATOM      9  G   UNL     1     250.216 255.756 249.032  1.00  0.00     0.000 G0
ENDBRANCH   5   6
ENDBRANCH   4   5
ENDBRANCH   2   4
BRANCH   1  10
ATOM     10  C   UNL     1     251.968 257.160 246.414  1.00  0.00     0.111 C 
BRANCH  10  11
ATOM     11  C   UNL     1     250.751 257.515 247.221  1.00  0.00     0.163 C 
ATOM     12  O   UNL     1     250.485 258.728 247.437  1.00  0.00    -0.294 OA
BRANCH  11  13
ATOM     13  C   UNL     1     249.841 256.466 247.749  1.00  0.00    -0.002 C 
ATOM     14  C   UNL     1     248.700 256.147 247.079  1.00  0.00    -0.069 C 
ATOM     15  C   UNL     1     247.736 255.120 247.628  1.00  0.00     0.039 C 
ATOM     16  C   UNL     1     248.374 256.778 245.744  1.00  0.00     0.039 C 
BRANCH  13  17
ATOM     17  C   UNL     1     250.205 255.751 249.046  1.00  0.00     0.066 CG0
ATOM     18  G   UNL     1     250.966 254.462 248.837  1.00  0.00     0.000 G0
ENDBRANCH  13  17
ENDBRANCH  11  13
ENDBRANCH  10  11
ENDBRANCH   1  10
TORSDOF 0
ENDMDL
