MODEL 1
REMARK VINA RESULT:    -2.920      0.000      0.000
REMARK INTER + INTRA:          -7.741
REMARK INTER:                  -4.968
REMARK INTRA:                  -2.773
REMARK UNBOUND:                -2.773
REMARK SMILES CC(=O)CCC[C@H](C)CCC[C@@H](C)CCCC(C)C
REMARK SMILES IDX 10 1 11 2 12 3 13 4 14 5 15 6 16 7 17 8 18 9 19 10 9 11 7 12
REMARK SMILES IDX 8 13 6 14 5 15 4 16 2 17 3 18 1 19
REMARK H PARENT
REMARK Flexibility Score: inf
ROOT
ATOM      1  C   UNL     1     147.756 141.757 138.675  1.00  0.00     0.001 C 
ENDROOT
BRANCH   1   2
ATOM      2  C   UNL     1     146.229 141.719 138.886  1.00  0.00     0.003 C 
BRANCH   2   3
ATOM      3  C   UNL     1     145.396 142.632 137.947  1.00  0.00    -0.014 C 
ATOM      4  C   UNL     1     144.424 141.810 137.081  1.00  0.00     0.007 C 
BRANCH   3   5
ATOM      5  C   UNL     1     144.637 143.677 138.801  1.00  0.00     0.003 C 
BRANCH   5   6
ATOM      6  C   UNL     1     144.989 143.608 140.299  1.00  0.00     0.001 C 
BRANCH   6   7
ATOM      7  C   UNL     1     145.433 144.964 140.876  1.00  0.00     0.003 C 
BRANCH   7   8
ATOM      8  C   UNL     1     146.898 144.968 141.395  1.00  0.00    -0.017 C 
ATOM      9  C   UNL     1     147.290 143.586 141.935  1.00  0.00     0.007 C 
ATOM     10  C   UNL     1     147.101 146.024 142.493  1.00  0.00     0.007 C 
ENDBRANCH   7   8
ENDBRANCH   6   7
ENDBRANCH   5   6
ENDBRANCH   3   5
ENDBRANCH   2   3
ENDBRANCH   1   2
BRANCH   1  11
ATOM     11  C   UNL     1     148.199 142.832 137.665  1.00  0.00     0.003 C 
BRANCH  11  12
ATOM     12  C   UNL     1     148.777 144.097 138.350  1.00  0.00    -0.014 C 
ATOM     13  C   UNL     1     150.244 144.289 137.926  1.00  0.00     0.007 C 
BRANCH  12  14
ATOM     14  C   UNL     1     147.934 145.353 138.011  1.00  0.00     0.004 C 
BRANCH  14  15
ATOM     15  C   UNL     1     148.761 146.650 138.016  1.00  0.00     0.008 C 
BRANCH  15  16
ATOM     16  C   UNL     1     148.375 147.547 139.196  1.00  0.00     0.075 C 
BRANCH  16  17
ATOM     17  C   UNL     1     149.584 147.891 140.025  1.00  0.00     0.129 C 
ATOM     18  O   UNL     1     149.971 149.049 140.075  1.00  0.00    -0.300 OA
ATOM     19  C   UNL     1     150.338 146.837 140.784  1.00  0.00     0.087 C 
ENDBRANCH  16  17
ENDBRANCH  15  16
ENDBRANCH  14  15
ENDBRANCH  12  14
ENDBRANCH  11  12
ENDBRANCH   1  11
TORSDOF 12
ENDMDL
MODEL 2
REMARK VINA RESULT:    -2.870      1.844      3.893
REMARK INTER + INTRA:          -7.656
REMARK INTER:                  -4.763
REMARK INTRA:                  -2.893
REMARK UNBOUND:                -2.773
REMARK SMILES CC(=O)CCC[C@H](C)CCC[C@@H](C)CCCC(C)C
REMARK SMILES IDX 10 1 11 2 12 3 13 4 14 5 15 6 16 7 17 8 18 9 19 10 9 11 7 12
REMARK SMILES IDX 8 13 6 14 5 15 4 16 2 17 3 18 1 19
REMARK H PARENT
REMARK Flexibility Score: inf
ROOT
ATOM      1  C   UNL     1     143.629 143.335 138.271  1.00  0.00     0.001 C 
ENDROOT
BRANCH   1   2
ATOM      2  C   UNL     1     144.335 144.464 139.047  1.00  0.00     0.003 C 
BRANCH   2   3
ATOM      3  C   UNL     1     143.850 144.686 140.505  1.00  0.00    -0.014 C 
ATOM      4  C   UNL     1     143.052 143.476 141.023  1.00  0.00     0.007 C 
BRANCH   3   5
ATOM      5  C   UNL     1     145.076 144.974 141.407  1.00  0.00     0.003 C 
BRANCH   5   6
ATOM      6  C   UNL     1     146.421 144.706 140.708  1.00  0.00     0.001 C 
BRANCH   6   7
ATOM      7  C   UNL     1     147.215 143.554 141.351  1.00  0.00     0.003 C 
BRANCH   7   8
ATOM      8  C   UNL     1     146.479 142.884 142.546  1.00  0.00    -0.017 C 
ATOM      9  C   UNL     1     147.273 143.063 143.847  1.00  0.00     0.007 C 
ATOM     10  C   UNL     1     146.244 141.387 142.290  1.00  0.00     0.007 C 
ENDBRANCH   7   8
ENDBRANCH   6   7
ENDBRANCH   5   6
ENDBRANCH   3   5
ENDBRANCH   2   3
ENDBRANCH   1   2
BRANCH   1  11
ATOM     11  C   UNL     1     144.613 142.345 137.620  1.00  0.00     0.003 C 
BRANCH  11  12
ATOM     12  C   UNL     1     145.543 141.657 138.652  1.00  0.00    -0.014 C 
ATOM     13  C   UNL     1     144.993 140.260 138.990  1.00  0.00     0.007 C 
BRANCH  12  14
ATOM     14  C   UNL     1     146.997 141.566 138.122  1.00  0.00     0.004 C 
BRANCH  14  15
ATOM     15  C   UNL     1     147.539 142.917 137.625  1.00  0.00     0.008 C 
BRANCH  15  16
ATOM     16  C   UNL     1     149.021 143.082 137.979  1.00  0.00     0.075 C 
BRANCH  16  17
ATOM     17  C   UNL     1     149.319 144.503 138.381  1.00  0.00     0.129 C 
ATOM     18  O   UNL     1     150.249 144.731 139.142  1.00  0.00    -0.300 OA
ATOM     19  C   UNL     1     148.490 145.648 137.879  1.00  0.00     0.087 C 
ENDBRANCH  16  17
ENDBRANCH  15  16
ENDBRANCH  14  15
ENDBRANCH  12  14
ENDBRANCH  11  12
ENDBRANCH   1  11
TORSDOF 12
ENDMDL
MODEL 3
REMARK VINA RESULT:    -2.852      8.402     10.917
REMARK INTER + INTRA:          -7.626
REMARK INTER:                  -4.787
REMARK INTRA:                  -2.839
REMARK UNBOUND:                -2.773
REMARK SMILES CC(=O)CCC[C@H](C)CCC[C@@H](C)CCCC(C)C
REMARK SMILES IDX 10 1 11 2 12 3 13 4 14 5 15 6 16 7 17 8 18 9 19 10 9 11 7 12
REMARK SMILES IDX 8 13 6 14 5 15 4 16 2 17 3 18 1 19
REMARK H PARENT
REMARK Flexibility Score: inf
ROOT
ATOM      1  C   UNL     1     138.765 147.817 137.363  1.00  0.00     0.001 C 
ENDROOT
BRANCH   1   2
ATOM      2  C   UNL     1     138.266 149.153 137.949  1.00  0.00     0.003 C 
BRANCH   2   3
ATOM      3  C   UNL     1     136.785 149.175 138.411  1.00  0.00    -0.014 C 
ATOM      4  C   UNL     1     135.955 150.181 137.592  1.00  0.00     0.007 C 
BRANCH   3   5
ATOM      5  C   UNL     1     136.199 147.746 138.300  1.00  0.00     0.003 C 
BRANCH   5   6
ATOM      6  C   UNL     1     135.747 147.168 139.654  1.00  0.00     0.001 C 
BRANCH   6   7
ATOM      7  C   UNL     1     136.561 147.712 140.843  1.00  0.00     0.003 C 
BRANCH   7   8
ATOM      8  C   UNL     1     137.887 146.940 141.092  1.00  0.00    -0.017 C 
ATOM      9  C   UNL     1     137.688 145.835 142.138  1.00  0.00     0.007 C 
ATOM     10  C   UNL     1     139.008 147.885 141.552  1.00  0.00     0.007 C 
ENDBRANCH   7   8
ENDBRANCH   6   7
ENDBRANCH   5   6
ENDBRANCH   3   5
ENDBRANCH   2   3
ENDBRANCH   1   2
BRANCH   1  11
ATOM     11  C   UNL     1     140.035 147.291 138.058  1.00  0.00     0.003 C 
BRANCH  11  12
ATOM     12  C   UNL     1     140.097 145.743 138.105  1.00  0.00    -0.014 C 
ATOM     13  C   UNL     1     140.742 145.292 139.427  1.00  0.00     0.007 C 
BRANCH  12  14
ATOM     14  C   UNL     1     138.688 145.120 137.935  1.00  0.00     0.004 C 
BRANCH  14  15
ATOM     15  C   UNL     1     138.482 143.860 138.792  1.00  0.00     0.008 C 
BRANCH  15  16
ATOM     16  C   UNL     1     137.015 143.708 139.208  1.00  0.00     0.075 C 
BRANCH  16  17
ATOM     17  C   UNL     1     136.776 142.362 139.841  1.00  0.00     0.129 C 
ATOM     18  O   UNL     1     136.488 142.297 141.027  1.00  0.00    -0.300 OA
ATOM     19  C   UNL     1     136.896 141.093 139.049  1.00  0.00     0.087 C 
ENDBRANCH  16  17
ENDBRANCH  15  16
ENDBRANCH  14  15
ENDBRANCH  12  14
ENDBRANCH  11  12
ENDBRANCH   1  11
TORSDOF 12
ENDMDL
MODEL 4
REMARK VINA RESULT:    -2.836      1.794      4.414
REMARK INTER + INTRA:          -7.598
REMARK INTER:                  -5.125
REMARK INTRA:                  -2.473
REMARK UNBOUND:                -2.773
REMARK SMILES CC(=O)CCC[C@H](C)CCC[C@@H](C)CCCC(C)C
REMARK SMILES IDX 10 1 11 2 12 3 13 4 14 5 15 6 16 7 17 8 18 9 19 10 9 11 7 12
REMARK SMILES IDX 8 13 6 14 5 15 4 16 2 17 3 18 1 19
REMARK H PARENT
REMARK Flexibility Score: inf
ROOT
ATOM      1  C   UNL     1     145.462 141.169 139.147  1.00  0.00     0.001 C 
ENDROOT
BRANCH   1   2
ATOM      2  C   UNL     1     146.178 141.641 137.865  1.00  0.00     0.003 C 
BRANCH   2   3
ATOM      3  C   UNL     1     147.642 142.123 138.048  1.00  0.00    -0.014 C 
ATOM      4  C   UNL     1     148.584 141.462 137.027  1.00  0.00     0.007 C 
BRANCH   3   5
ATOM      5  C   UNL     1     147.684 143.667 137.929  1.00  0.00     0.003 C 
BRANCH   5   6
ATOM      6  C   UNL     1     149.010 144.278 138.418  1.00  0.00     0.001 C 
BRANCH   6   7
ATOM      7  C   UNL     1     149.218 145.726 137.940  1.00  0.00     0.003 C 
BRANCH   7   8
ATOM      8  C   UNL     1     149.463 146.734 139.099  1.00  0.00    -0.017 C 
ATOM      9  C   UNL     1     149.793 145.995 140.403  1.00  0.00     0.007 C 
ATOM     10  C   UNL     1     148.243 147.642 139.319  1.00  0.00     0.007 C 
ENDBRANCH   7   8
ENDBRANCH   6   7
ENDBRANCH   5   6
ENDBRANCH   3   5
ENDBRANCH   2   3
ENDBRANCH   1   2
BRANCH   1  11
ATOM     11  C   UNL     1     144.385 142.156 139.633  1.00  0.00     0.003 C 
BRANCH  11  12
ATOM     12  C   UNL     1     144.081 143.271 138.599  1.00  0.00    -0.014 C 
ATOM     13  C   UNL     1     142.619 143.158 138.133  1.00  0.00     0.007 C 
BRANCH  12  14
ATOM     14  C   UNL     1     144.367 144.675 139.191  1.00  0.00     0.004 C 
BRANCH  14  15
ATOM     15  C   UNL     1     144.721 144.635 140.687  1.00  0.00     0.008 C 
BRANCH  15  16
ATOM     16  C   UNL     1     146.154 145.120 140.929  1.00  0.00     0.075 C 
BRANCH  16  17
ATOM     17  C   UNL     1     146.827 144.290 141.990  1.00  0.00     0.129 C 
ATOM     18  O   UNL     1     146.836 144.685 143.148  1.00  0.00    -0.300 OA
ATOM     19  C   UNL     1     147.502 142.992 141.657  1.00  0.00     0.087 C 
ENDBRANCH  16  17
ENDBRANCH  15  16
ENDBRANCH  14  15
ENDBRANCH  12  14
ENDBRANCH  11  12
ENDBRANCH   1  11
TORSDOF 12
ENDMDL
MODEL 5
REMARK VINA RESULT:    -2.824      2.362      4.994
REMARK INTER + INTRA:          -7.578
REMARK INTER:                  -4.732
REMARK INTRA:                  -2.846
REMARK UNBOUND:                -2.773
REMARK SMILES CC(=O)CCC[C@H](C)CCC[C@@H](C)CCCC(C)C
REMARK SMILES IDX 10 1 11 2 12 3 13 4 14 5 15 6 16 7 17 8 18 9 19 10 9 11 7 12
REMARK SMILES IDX 8 13 6 14 5 15 4 16 2 17 3 18 1 19
REMARK H PARENT
REMARK Flexibility Score: inf
ROOT
ATOM      1  C   UNL     1     147.505 142.843 137.564  1.00  0.00     0.001 C 
ENDROOT
BRANCH   1   2
ATOM      2  C   UNL     1     148.838 143.407 138.094  1.00  0.00     0.003 C 
BRANCH   2   3
ATOM      3  C   UNL     1     148.769 144.824 138.724  1.00  0.00    -0.014 C 
ATOM      4  C   UNL     1     149.669 145.819 137.970  1.00  0.00     0.007 C 
BRANCH   3   5
ATOM      5  C   UNL     1     147.295 145.301 138.733  1.00  0.00     0.003 C 
BRANCH   5   6
ATOM      6  C   UNL     1     146.738 145.524 140.152  1.00  0.00     0.001 C 
BRANCH   6   7
ATOM      7  C   UNL     1     147.493 144.722 141.228  1.00  0.00     0.003 C 
BRANCH   7   8
ATOM      8  C   UNL     1     146.881 143.319 141.501  1.00  0.00    -0.017 C 
ATOM      9  C   UNL     1     145.984 143.347 142.746  1.00  0.00     0.007 C 
ATOM     10  C   UNL     1     147.976 142.256 141.681  1.00  0.00     0.007 C 
ENDBRANCH   7   8
ENDBRANCH   6   7
ENDBRANCH   5   6
ENDBRANCH   3   5
ENDBRANCH   2   3
ENDBRANCH   1   2
BRANCH   1  11
ATOM     11  C   UNL     1     147.130 141.489 138.195  1.00  0.00     0.003 C 
BRANCH  11  12
ATOM     12  C   UNL     1     145.599 141.250 138.237  1.00  0.00    -0.014 C 
ATOM     13  C   UNL     1     145.217 140.594 139.576  1.00  0.00     0.007 C 
BRANCH  12  14
ATOM     14  C   UNL     1     144.820 142.572 138.026  1.00  0.00     0.004 C 
BRANCH  14  15
ATOM     15  C   UNL     1     144.075 143.038 139.290  1.00  0.00     0.008 C 
BRANCH  15  16
ATOM     16  C   UNL     1     143.447 144.420 139.083  1.00  0.00     0.075 C 
BRANCH  16  17
ATOM     17  C   UNL     1     142.673 144.843 140.304  1.00  0.00     0.129 C 
ATOM     18  O   UNL     1     143.273 145.097 141.339  1.00  0.00    -0.300 OA
ATOM     19  C   UNL     1     141.176 144.948 140.285  1.00  0.00     0.087 C 
ENDBRANCH  16  17
ENDBRANCH  15  16
ENDBRANCH  14  15
ENDBRANCH  12  14
ENDBRANCH  11  12
ENDBRANCH   1  11
TORSDOF 12
ENDMDL
MODEL 6
REMARK VINA RESULT:    -2.820      5.790      8.474
REMARK INTER + INTRA:          -7.570
REMARK INTER:                  -5.788
REMARK INTRA:                  -1.782
REMARK UNBOUND:                -2.773
REMARK SMILES CC(=O)CCC[C@H](C)CCC[C@@H](C)CCCC(C)C
REMARK SMILES IDX 10 1 11 2 12 3 13 4 14 5 15 6 16 7 17 8 18 9 19 10 9 11 7 12
REMARK SMILES IDX 8 13 6 14 5 15 4 16 2 17 3 18 1 19
REMARK H PARENT
REMARK Flexibility Score: inf
ROOT
ATOM      1  C   UNL     1     144.925 136.404 140.017  1.00  0.00     0.001 C 
ENDROOT
BRANCH   1   2
ATOM      2  C   UNL     1     145.696 135.213 139.414  1.00  0.00     0.003 C 
BRANCH   2   3
ATOM      3  C   UNL     1     145.114 133.807 139.720  1.00  0.00    -0.014 C 
ATOM      4  C   UNL     1     144.214 133.831 140.968  1.00  0.00     0.007 C 
BRANCH   3   5
ATOM      5  C   UNL     1     144.336 133.302 138.480  1.00  0.00     0.003 C 
BRANCH   5   6
ATOM      6  C   UNL     1     142.832 133.624 138.534  1.00  0.00     0.001 C 
BRANCH   6   7
ATOM      7  C   UNL     1     142.385 134.603 137.432  1.00  0.00     0.003 C 
BRANCH   7   8
ATOM      8  C   UNL     1     141.417 135.709 137.939  1.00  0.00    -0.017 C 
ATOM      9  C   UNL     1     141.801 137.078 137.361  1.00  0.00     0.007 C 
ATOM     10  C   UNL     1     141.409 135.785 139.474  1.00  0.00     0.007 C 
ENDBRANCH   7   8
ENDBRANCH   6   7
ENDBRANCH   5   6
ENDBRANCH   3   5
ENDBRANCH   2   3
ENDBRANCH   1   2
BRANCH   1  11
ATOM     11  C   UNL     1     144.828 137.606 139.060  1.00  0.00     0.003 C 
BRANCH  11  12
ATOM     12  C   UNL     1     144.192 138.854 139.725  1.00  0.00    -0.014 C 
ATOM     13  C   UNL     1     144.854 139.103 141.092  1.00  0.00     0.007 C 
BRANCH  12  14
ATOM     14  C   UNL     1     144.320 140.101 138.813  1.00  0.00     0.004 C 
BRANCH  14  15
ATOM     15  C   UNL     1     145.754 140.655 138.752  1.00  0.00     0.008 C 
BRANCH  15  16
ATOM     16  C   UNL     1     145.771 142.081 138.190  1.00  0.00     0.075 C 
BRANCH  16  17
ATOM     17  C   UNL     1     147.147 142.443 137.695  1.00  0.00     0.129 C 
ATOM     18  O   UNL     1     147.526 143.603 137.766  1.00  0.00    -0.300 OA
ATOM     19  C   UNL     1     148.062 141.412 137.102  1.00  0.00     0.087 C 
ENDBRANCH  16  17
ENDBRANCH  15  16
ENDBRANCH  14  15
ENDBRANCH  12  14
ENDBRANCH  11  12
ENDBRANCH   1  11
TORSDOF 12
ENDMDL
MODEL 7
REMARK VINA RESULT:    -2.810      1.454      2.436
REMARK INTER + INTRA:          -7.555
REMARK INTER:                  -5.164
REMARK INTRA:                  -2.391
REMARK UNBOUND:                -2.773
REMARK SMILES CC(=O)CCC[C@H](C)CCC[C@@H](C)CCCC(C)C
REMARK SMILES IDX 10 1 11 2 12 3 13 4 14 5 15 6 16 7 17 8 18 9 19 10 9 11 7 12
REMARK SMILES IDX 8 13 6 14 5 15 4 16 2 17 3 18 1 19
REMARK H PARENT
REMARK Flexibility Score: inf
ROOT
ATOM      1  C   UNL     1     145.159 141.831 138.262  1.00  0.00     0.001 C 
ENDROOT
BRANCH   1   2
ATOM      2  C   UNL     1     144.007 142.694 137.711  1.00  0.00     0.003 C 
BRANCH   2   3
ATOM      3  C   UNL     1     143.393 143.716 138.706  1.00  0.00    -0.014 C 
ATOM      4  C   UNL     1     142.780 143.011 139.929  1.00  0.00     0.007 C 
BRANCH   3   5
ATOM      5  C   UNL     1     144.487 144.725 139.133  1.00  0.00     0.003 C 
BRANCH   5   6
ATOM      6  C   UNL     1     144.453 145.057 140.636  1.00  0.00     0.001 C 
BRANCH   6   7
ATOM      7  C   UNL     1     145.812 144.851 141.329  1.00  0.00     0.003 C 
BRANCH   7   8
ATOM      8  C   UNL     1     145.778 143.781 142.457  1.00  0.00    -0.017 C 
ATOM      9  C   UNL     1     145.902 142.367 141.873  1.00  0.00     0.007 C 
ATOM     10  C   UNL     1     144.487 143.882 143.285  1.00  0.00     0.007 C 
ENDBRANCH   7   8
ENDBRANCH   6   7
ENDBRANCH   5   6
ENDBRANCH   3   5
ENDBRANCH   2   3
ENDBRANCH   1   2
BRANCH   1  11
ATOM     11  C   UNL     1     146.383 141.792 137.328  1.00  0.00     0.003 C 
BRANCH  11  12
ATOM     12  C   UNL     1     147.728 141.836 138.098  1.00  0.00    -0.014 C 
ATOM     13  C   UNL     1     148.895 141.714 137.103  1.00  0.00     0.007 C 
BRANCH  12  14
ATOM     14  C   UNL     1     147.849 143.133 138.938  1.00  0.00     0.004 C 
BRANCH  14  15
ATOM     15  C   UNL     1     148.729 144.202 138.266  1.00  0.00     0.008 C 
BRANCH  15  16
ATOM     16  C   UNL     1     147.950 145.504 138.052  1.00  0.00     0.075 C 
BRANCH  16  17
ATOM     17  C   UNL     1     148.697 146.675 138.635  1.00  0.00     0.129 C 
ATOM     18  O   UNL     1     149.887 146.811 138.392  1.00  0.00    -0.300 OA
ATOM     19  C   UNL     1     148.014 147.676 139.521  1.00  0.00     0.087 C 
ENDBRANCH  16  17
ENDBRANCH  15  16
ENDBRANCH  14  15
ENDBRANCH  12  14
ENDBRANCH  11  12
ENDBRANCH   1  11
TORSDOF 12
ENDMDL
MODEL 8
REMARK VINA RESULT:    -2.809     10.946     13.601
REMARK INTER + INTRA:          -7.553
REMARK INTER:                  -5.642
REMARK INTRA:                  -1.911
REMARK UNBOUND:                -2.773
REMARK SMILES CC(=O)CCC[C@H](C)CCC[C@@H](C)CCCC(C)C
REMARK SMILES IDX 10 1 11 2 12 3 13 4 14 5 15 6 16 7 17 8 18 9 19 10 9 11 7 12
REMARK SMILES IDX 8 13 6 14 5 15 4 16 2 17 3 18 1 19
REMARK H PARENT
REMARK Flexibility Score: inf
ROOT
ATOM      1  C   UNL     1     136.647 136.539 140.432  1.00  0.00     0.001 C 
ENDROOT
BRANCH   1   2
ATOM      2  C   UNL     1     135.953 136.080 139.134  1.00  0.00     0.003 C 
BRANCH   2   3
ATOM      3  C   UNL     1     134.512 135.527 139.299  1.00  0.00    -0.014 C 
ATOM      4  C   UNL     1     133.976 135.770 140.722  1.00  0.00     0.007 C 
BRANCH   3   5
ATOM      5  C   UNL     1     133.595 136.183 138.238  1.00  0.00     0.003 C 
BRANCH   5   6
ATOM      6  C   UNL     1     132.856 137.429 138.760  1.00  0.00     0.001 C 
BRANCH   6   7
ATOM      7  C   UNL     1     133.047 138.665 137.861  1.00  0.00     0.003 C 
BRANCH   7   8
ATOM      8  C   UNL     1     134.147 139.638 138.371  1.00  0.00    -0.017 C 
ATOM      9  C   UNL     1     135.453 139.445 137.587  1.00  0.00     0.007 C 
ATOM     10  C   UNL     1     134.417 139.443 139.871  1.00  0.00     0.007 C 
ENDBRANCH   7   8
ENDBRANCH   6   7
ENDBRANCH   5   6
ENDBRANCH   3   5
ENDBRANCH   2   3
ENDBRANCH   1   2
BRANCH   1  11
ATOM     11  C   UNL     1     137.708 137.630 140.194  1.00  0.00     0.003 C 
BRANCH  11  12
ATOM     12  C   UNL     1     138.629 137.318 138.986  1.00  0.00    -0.014 C 
ATOM     13  C   UNL     1     139.034 138.632 138.294  1.00  0.00     0.007 C 
BRANCH  12  14
ATOM     14  C   UNL     1     139.880 136.517 139.429  1.00  0.00     0.004 C 
BRANCH  14  15
ATOM     15  C   UNL     1     140.978 136.476 138.351  1.00  0.00     0.008 C 
BRANCH  15  16
ATOM     16  C   UNL     1     142.181 135.651 138.821  1.00  0.00     0.075 C 
BRANCH  16  17
ATOM     17  C   UNL     1     142.120 134.252 138.266  1.00  0.00     0.129 C 
ATOM     18  O   UNL     1     141.277 133.975 137.425  1.00  0.00    -0.300 OA
ATOM     19  C   UNL     1     143.063 133.183 138.733  1.00  0.00     0.087 C 
ENDBRANCH  16  17
ENDBRANCH  15  16
ENDBRANCH  14  15
ENDBRANCH  12  14
ENDBRANCH  11  12
ENDBRANCH   1  11
TORSDOF 12
ENDMDL
MODEL 9
REMARK VINA RESULT:    -2.788      7.977     11.080
REMARK INTER + INTRA:          -7.517
REMARK INTER:                  -5.316
REMARK INTRA:                  -2.201
REMARK UNBOUND:                -2.773
REMARK SMILES CC(=O)CCC[C@H](C)CCC[C@@H](C)CCCC(C)C
REMARK SMILES IDX 10 1 11 2 12 3 13 4 14 5 15 6 16 7 17 8 18 9 19 10 9 11 7 12
REMARK SMILES IDX 8 13 6 14 5 15 4 16 2 17 3 18 1 19
REMARK H PARENT
REMARK Flexibility Score: inf
ROOT
ATOM      1  C   UNL     1     140.919 135.818 138.487  1.00  0.00     0.001 C 
ENDROOT
BRANCH   1   2
ATOM      2  C   UNL     1     141.184 137.272 138.926  1.00  0.00     0.003 C 
BRANCH   2   3
ATOM      3  C   UNL     1     142.253 138.041 138.104  1.00  0.00    -0.014 C 
ATOM      4  C   UNL     1     141.632 138.728 136.875  1.00  0.00     0.007 C 
BRANCH   3   5
ATOM      5  C   UNL     1     142.954 139.070 139.025  1.00  0.00     0.003 C 
BRANCH   5   6
ATOM      6  C   UNL     1     144.460 138.798 139.204  1.00  0.00     0.001 C 
BRANCH   6   7
ATOM      7  C   UNL     1     144.787 137.302 139.363  1.00  0.00     0.003 C 
BRANCH   7   8
ATOM      8  C   UNL     1     144.972 136.861 140.842  1.00  0.00    -0.017 C 
ATOM      9  C   UNL     1     143.783 136.011 141.311  1.00  0.00     0.007 C 
ATOM     10  C   UNL     1     145.134 138.073 141.772  1.00  0.00     0.007 C 
ENDBRANCH   7   8
ENDBRANCH   6   7
ENDBRANCH   5   6
ENDBRANCH   3   5
ENDBRANCH   2   3
ENDBRANCH   1   2
BRANCH   1  11
ATOM     11  C   UNL     1     142.201 135.071 138.073  1.00  0.00     0.003 C 
BRANCH  11  12
ATOM     12  C   UNL     1     142.183 133.575 138.480  1.00  0.00    -0.014 C 
ATOM     13  C   UNL     1     141.727 132.721 137.283  1.00  0.00     0.007 C 
BRANCH  12  14
ATOM     14  C   UNL     1     143.572 133.117 138.990  1.00  0.00     0.004 C 
BRANCH  14  15
ATOM     15  C   UNL     1     144.735 133.879 138.331  1.00  0.00     0.008 C 
BRANCH  15  16
ATOM     16  C   UNL     1     146.074 133.511 138.978  1.00  0.00     0.075 C 
BRANCH  16  17
ATOM     17  C   UNL     1     146.561 132.177 138.476  1.00  0.00     0.129 C 
ATOM     18  O   UNL     1     146.593 131.961 137.273  1.00  0.00    -0.300 OA
ATOM     19  C   UNL     1     146.998 131.097 139.422  1.00  0.00     0.087 C 
ENDBRANCH  16  17
ENDBRANCH  15  16
ENDBRANCH  14  15
ENDBRANCH  12  14
ENDBRANCH  11  12
ENDBRANCH   1  11
TORSDOF 12
ENDMDL
