MODEL 1
REMARK VINA RESULT:    -5.478      0.000      0.000
REMARK INTER + INTRA:          -5.833
REMARK INTER:                  -5.798
REMARK INTRA:                  -0.035
REMARK UNBOUND:                -0.035
REMARK SMILES COc1ccc2ccc(=O)oc2c1
REMARK SMILES IDX 3 1 13 2 12 3 6 4 5 5 4 6 7 7 8 8 9 9 10 10 11 11 2 12 1 13
REMARK H PARENT
REMARK Flexibility Score: inf
ROOT
ATOM      1  C   UNL     1       8.563 -30.848 -20.444  1.00  0.00     0.122 A 
ATOM      2  C   UNL     1       9.919 -31.152 -20.260  1.00  0.00     0.094 A 
ATOM      3  C   UNL     1      10.307 -32.401 -19.764  1.00  0.00     0.142 A 
ATOM      4  C   UNL     1       9.326 -33.364 -19.445  1.00  0.00     0.018 A 
ATOM      5  C   UNL     1       7.970 -33.066 -19.628  1.00  0.00     0.016 A 
ATOM      6  C   UNL     1       7.589 -31.816 -20.124  1.00  0.00     0.047 A 
ATOM      7  C   UNL     1       9.744 -34.604 -18.951  1.00  0.00     0.019 A 
ATOM      8  C   UNL     1      11.107 -34.850 -18.789  1.00  0.00     0.094 A 
ATOM      9  C   UNL     1      12.023 -33.848 -19.126  1.00  0.00     0.336 A 
ATOM     10  O   UNL     1      13.257 -34.051 -18.985  1.00  0.00    -0.246 OA
ATOM     11  O   UNL     1      11.598 -32.677 -19.594  1.00  0.00    -0.423 OA
ENDROOT
BRANCH   1  12
ATOM     12  O   UNL     1       8.228 -29.581 -20.944  1.00  0.00    -0.497 OA
ATOM     13  C   UNL     1       6.970 -28.945 -20.744  1.00  0.00     0.278 C 
ENDBRANCH   1  12
TORSDOF 1
ENDMDL
MODEL 2
REMARK VINA RESULT:    -5.344      1.840      2.915
REMARK INTER + INTRA:          -5.691
REMARK INTER:                  -5.656
REMARK INTRA:                  -0.035
REMARK UNBOUND:                -0.035
REMARK SMILES COc1ccc2ccc(=O)oc2c1
REMARK SMILES IDX 3 1 13 2 12 3 6 4 5 5 4 6 7 7 8 8 9 9 10 10 11 11 2 12 1 13
REMARK H PARENT
REMARK Flexibility Score: inf
ROOT
ATOM      1  C   UNL     1       9.116 -28.532 -21.208  1.00  0.00     0.122 A 
ATOM      2  C   UNL     1       9.934 -29.654 -21.014  1.00  0.00     0.094 A 
ATOM      3  C   UNL     1       9.398 -30.846 -20.515  1.00  0.00     0.142 A 
ATOM      4  C   UNL     1       8.024 -30.921 -20.204  1.00  0.00     0.018 A 
ATOM      5  C   UNL     1       7.202 -29.803 -20.396  1.00  0.00     0.016 A 
ATOM      6  C   UNL     1       7.745 -28.615 -20.895  1.00  0.00     0.047 A 
ATOM      7  C   UNL     1       7.517 -32.127 -19.708  1.00  0.00     0.019 A 
ATOM      8  C   UNL     1       8.378 -33.210 -19.536  1.00  0.00     0.094 A 
ATOM      9  C   UNL     1       9.730 -33.063 -19.866  1.00  0.00     0.336 A 
ATOM     10  O   UNL     1      10.522 -34.030 -19.716  1.00  0.00    -0.246 OA
ATOM     11  O   UNL     1      10.185 -31.904 -20.336  1.00  0.00    -0.423 OA
ENDROOT
BRANCH   1  12
ATOM     12  O   UNL     1       9.704 -27.361 -21.709  1.00  0.00    -0.497 OA
ATOM     13  C   UNL     1      10.301 -27.250 -22.998  1.00  0.00     0.278 C 
ENDBRANCH   1  12
TORSDOF 1
ENDMDL
MODEL 3
REMARK VINA RESULT:    -5.319      1.729      5.205
REMARK INTER + INTRA:          -5.664
REMARK INTER:                  -5.631
REMARK INTRA:                  -0.034
REMARK UNBOUND:                -0.035
REMARK SMILES COc1ccc2ccc(=O)oc2c1
REMARK SMILES IDX 3 1 13 2 12 3 6 4 5 5 4 6 7 7 8 8 9 9 10 10 11 11 2 12 1 13
REMARK H PARENT
REMARK Flexibility Score: inf
ROOT
ATOM      1  C   UNL     1       9.151 -32.767 -18.820  1.00  0.00     0.122 A 
ATOM      2  C   UNL     1       9.242 -31.447 -18.356  1.00  0.00     0.094 A 
ATOM      3  C   UNL     1       8.582 -30.412 -19.026  1.00  0.00     0.142 A 
ATOM      4  C   UNL     1       7.819 -30.696 -20.179  1.00  0.00     0.018 A 
ATOM      5  C   UNL     1       7.724 -32.013 -20.646  1.00  0.00     0.016 A 
ATOM      6  C   UNL     1       8.387 -33.043 -19.971  1.00  0.00     0.047 A 
ATOM      7  C   UNL     1       7.170 -29.640 -20.827  1.00  0.00     0.019 A 
ATOM      8  C   UNL     1       7.296 -28.347 -20.320  1.00  0.00     0.094 A 
ATOM      9  C   UNL     1       8.069 -28.140 -19.173  1.00  0.00     0.336 A 
ATOM     10  O   UNL     1       8.195 -26.979 -18.701  1.00  0.00    -0.246 OA
ATOM     11  O   UNL     1       8.676 -29.163 -18.575  1.00  0.00    -0.423 OA
ENDROOT
BRANCH   1  12
ATOM     12  O   UNL     1       9.832 -33.768 -18.111  1.00  0.00    -0.497 OA
ATOM     13  C   UNL     1      10.413 -34.922 -18.710  1.00  0.00     0.278 C 
ENDBRANCH   1  12
TORSDOF 1
ENDMDL
MODEL 4
REMARK VINA RESULT:    -5.250      1.035      4.729
REMARK INTER + INTRA:          -5.591
REMARK INTER:                  -5.548
REMARK INTRA:                  -0.043
REMARK UNBOUND:                -0.035
REMARK SMILES COc1ccc2ccc(=O)oc2c1
REMARK SMILES IDX 3 1 13 2 12 3 6 4 5 5 4 6 7 7 8 8 9 9 10 10 11 11 2 12 1 13
REMARK H PARENT
REMARK Flexibility Score: inf
ROOT
ATOM      1  C   UNL     1      11.981 -33.880 -18.976  1.00  0.00     0.122 A 
ATOM      2  C   UNL     1      11.635 -32.615 -19.472  1.00  0.00     0.094 A 
ATOM      3  C   UNL     1      10.299 -32.299 -19.743  1.00  0.00     0.142 A 
ATOM      4  C   UNL     1       9.291 -33.260 -19.518  1.00  0.00     0.018 A 
ATOM      5  C   UNL     1       9.631 -34.525 -19.023  1.00  0.00     0.016 A 
ATOM      6  C   UNL     1      10.968 -34.834 -18.753  1.00  0.00     0.047 A 
ATOM      7  C   UNL     1       7.966 -32.915 -19.799  1.00  0.00     0.019 A 
ATOM      8  C   UNL     1       7.681 -31.641 -20.290  1.00  0.00     0.094 A 
ATOM      9  C   UNL     1       8.732 -30.739 -20.489  1.00  0.00     0.336 A 
ATOM     10  O   UNL     1       8.494 -29.585 -20.932  1.00  0.00    -0.246 OA
ATOM     11  O   UNL     1       9.985 -31.094 -20.213  1.00  0.00    -0.423 OA
ENDROOT
BRANCH   1  12
ATOM     12  O   UNL     1      13.334 -34.146 -18.721  1.00  0.00    -0.497 OA
ATOM     13  C   UNL     1      14.412 -33.334 -19.177  1.00  0.00     0.278 C 
ENDBRANCH   1  12
TORSDOF 1
ENDMDL
MODEL 5
REMARK VINA RESULT:    -5.131      2.213      5.038
REMARK INTER + INTRA:          -5.465
REMARK INTER:                  -5.432
REMARK INTRA:                  -0.034
REMARK UNBOUND:                -0.035
REMARK SMILES COc1ccc2ccc(=O)oc2c1
REMARK SMILES IDX 3 1 13 2 12 3 6 4 5 5 4 6 7 7 8 8 9 9 10 10 11 11 2 12 1 13
REMARK H PARENT
REMARK Flexibility Score: inf
ROOT
ATOM      1  C   UNL     1      10.392 -33.659 -16.990  1.00  0.00     0.122 A 
ATOM      2  C   UNL     1       9.738 -32.426 -17.127  1.00  0.00     0.094 A 
ATOM      3  C   UNL     1       9.099 -32.090 -18.325  1.00  0.00     0.142 A 
ATOM      4  C   UNL     1       9.112 -32.998 -19.406  1.00  0.00     0.018 A 
ATOM      5  C   UNL     1       9.764 -34.230 -19.274  1.00  0.00     0.016 A 
ATOM      6  C   UNL     1      10.401 -34.559 -18.074  1.00  0.00     0.047 A 
ATOM      7  C   UNL     1       8.465 -32.633 -20.591  1.00  0.00     0.019 A 
ATOM      8  C   UNL     1       7.830 -31.394 -20.669  1.00  0.00     0.094 A 
ATOM      9  C   UNL     1       7.857 -30.546 -19.557  1.00  0.00     0.336 A 
ATOM     10  O   UNL     1       7.290 -29.423 -19.610  1.00  0.00    -0.246 OA
ATOM     11  O   UNL     1       8.481 -30.917 -18.442  1.00  0.00    -0.423 OA
ENDROOT
BRANCH   1  12
ATOM     12  O   UNL     1      11.017 -33.946 -15.768  1.00  0.00    -0.497 OA
ATOM     13  C   UNL     1      10.340 -34.434 -14.614  1.00  0.00     0.278 C 
ENDBRANCH   1  12
TORSDOF 1
ENDMDL
MODEL 6
REMARK VINA RESULT:    -5.108      2.639      3.863
REMARK INTER + INTRA:          -5.441
REMARK INTER:                  -5.405
REMARK INTRA:                  -0.036
REMARK UNBOUND:                -0.035
REMARK SMILES COc1ccc2ccc(=O)oc2c1
REMARK SMILES IDX 3 1 13 2 12 3 6 4 5 5 4 6 7 7 8 8 9 9 10 10 11 11 2 12 1 13
REMARK H PARENT
REMARK Flexibility Score: inf
ROOT
ATOM      1  C   UNL     1       7.970 -28.276 -18.143  1.00  0.00     0.122 A 
ATOM      2  C   UNL     1       8.442 -29.558 -17.827  1.00  0.00     0.094 A 
ATOM      3  C   UNL     1       8.342 -30.601 -18.754  1.00  0.00     0.142 A 
ATOM      4  C   UNL     1       7.759 -30.363 -20.017  1.00  0.00     0.018 A 
ATOM      5  C   UNL     1       7.286 -29.084 -20.338  1.00  0.00     0.016 A 
ATOM      6  C   UNL     1       7.390 -28.047 -19.407  1.00  0.00     0.047 A 
ATOM      7  C   UNL     1       7.672 -31.425 -20.922  1.00  0.00     0.019 A 
ATOM      8  C   UNL     1       8.160 -32.679 -20.553  1.00  0.00     0.094 A 
ATOM      9  C   UNL     1       8.724 -32.841 -19.283  1.00  0.00     0.336 A 
ATOM     10  O   UNL     1       9.169 -33.965 -18.932  1.00  0.00    -0.246 OA
ATOM     11  O   UNL     1       8.794 -31.813 -18.441  1.00  0.00    -0.423 OA
ENDROOT
BRANCH   1  12
ATOM     12  O   UNL     1       8.095 -27.266 -17.178  1.00  0.00    -0.497 OA
ATOM     13  C   UNL     1       7.540 -27.333 -15.868  1.00  0.00     0.278 C 
ENDBRANCH   1  12
TORSDOF 1
ENDMDL
MODEL 7
REMARK VINA RESULT:    -5.043     10.756     11.179
REMARK INTER + INTRA:          -5.373
REMARK INTER:                  -5.342
REMARK INTRA:                  -0.031
REMARK UNBOUND:                -0.035
REMARK SMILES COc1ccc2ccc(=O)oc2c1
REMARK SMILES IDX 3 1 13 2 12 3 6 4 5 5 4 6 7 7 8 8 9 9 10 10 11 11 2 12 1 13
REMARK H PARENT
REMARK Flexibility Score: inf
ROOT
ATOM      1  C   UNL     1       8.338 -23.633 -13.994  1.00  0.00     0.122 A 
ATOM      2  C   UNL     1       9.607 -23.909 -13.464  1.00  0.00     0.094 A 
ATOM      3  C   UNL     1       9.740 -24.432 -12.174  1.00  0.00     0.142 A 
ATOM      4  C   UNL     1       8.589 -24.684 -11.397  1.00  0.00     0.018 A 
ATOM      5  C   UNL     1       7.320 -24.411 -11.921  1.00  0.00     0.016 A 
ATOM      6  C   UNL     1       7.194 -23.888 -13.212  1.00  0.00     0.047 A 
ATOM      7  C   UNL     1       8.755 -25.207 -10.110  1.00  0.00     0.019 A 
ATOM      8  C   UNL     1      10.041 -25.461  -9.636  1.00  0.00     0.094 A 
ATOM      9  C   UNL     1      11.136 -25.186 -10.463  1.00  0.00     0.336 A 
ATOM     10  O   UNL     1      12.305 -25.409 -10.051  1.00  0.00    -0.246 OA
ATOM     11  O   UNL     1      10.950 -24.689 -11.683  1.00  0.00    -0.423 OA
ENDROOT
BRANCH   1  12
ATOM     12  O   UNL     1       8.261 -23.110 -15.293  1.00  0.00    -0.497 OA
ATOM     13  C   UNL     1       7.692 -21.845 -15.616  1.00  0.00     0.278 C 
ENDBRANCH   1  12
TORSDOF 1
ENDMDL
MODEL 8
REMARK VINA RESULT:    -5.006     12.322     14.396
REMARK INTER + INTRA:          -5.334
REMARK INTER:                  -5.292
REMARK INTRA:                  -0.041
REMARK UNBOUND:                -0.035
REMARK SMILES COc1ccc2ccc(=O)oc2c1
REMARK SMILES IDX 3 1 13 2 12 3 6 4 5 5 4 6 7 7 8 8 9 9 10 10 11 11 2 12 1 13
REMARK H PARENT
REMARK Flexibility Score: inf
ROOT
ATOM      1  C   UNL     1      14.723 -36.610  -6.020  1.00  0.00     0.122 A 
ATOM      2  C   UNL     1      14.413 -36.626  -7.387  1.00  0.00     0.094 A 
ATOM      3  C   UNL     1      13.947 -37.796  -7.996  1.00  0.00     0.142 A 
ATOM      4  C   UNL     1      13.790 -38.971  -7.230  1.00  0.00     0.018 A 
ATOM      5  C   UNL     1      14.098 -38.961  -5.865  1.00  0.00     0.016 A 
ATOM      6  C   UNL     1      14.563 -37.788  -5.262  1.00  0.00     0.047 A 
ATOM      7  C   UNL     1      13.323 -40.125  -7.868  1.00  0.00     0.019 A 
ATOM      8  C   UNL     1      13.029 -40.082  -9.231  1.00  0.00     0.094 A 
ATOM      9  C   UNL     1      13.209 -38.881  -9.926  1.00  0.00     0.336 A 
ATOM     10  O   UNL     1      12.950 -38.823 -11.157  1.00  0.00    -0.246 OA
ATOM     11  O   UNL     1      13.655 -37.797  -9.295  1.00  0.00    -0.423 OA
ENDROOT
BRANCH   1  12
ATOM     12  O   UNL     1      15.186 -35.411  -5.458  1.00  0.00    -0.497 OA
ATOM     13  C   UNL     1      14.875 -34.116  -5.961  1.00  0.00     0.278 C 
ENDBRANCH   1  12
TORSDOF 1
ENDMDL
MODEL 9
REMARK VINA RESULT:    -4.986      1.978      2.125
REMARK INTER + INTRA:          -5.312
REMARK INTER:                  -5.279
REMARK INTRA:                  -0.033
REMARK UNBOUND:                -0.035
REMARK SMILES COc1ccc2ccc(=O)oc2c1
REMARK SMILES IDX 3 1 13 2 12 3 6 4 5 5 4 6 7 7 8 8 9 9 10 10 11 11 2 12 1 13
REMARK H PARENT
REMARK Flexibility Score: inf
ROOT
ATOM      1  C   UNL     1       7.725 -30.645 -19.909  1.00  0.00     0.122 A 
ATOM      2  C   UNL     1       8.213 -30.889 -18.618  1.00  0.00     0.094 A 
ATOM      3  C   UNL     1       8.934 -32.055 -18.339  1.00  0.00     0.142 A 
ATOM      4  C   UNL     1       9.172 -32.994 -19.364  1.00  0.00     0.018 A 
ATOM      5  C   UNL     1       8.687 -32.756 -20.656  1.00  0.00     0.016 A 
ATOM      6  C   UNL     1       7.967 -31.589 -20.928  1.00  0.00     0.047 A 
ATOM      7  C   UNL     1       9.896 -34.150 -19.055  1.00  0.00     0.019 A 
ATOM      8  C   UNL     1      10.358 -34.339 -17.753  1.00  0.00     0.094 A 
ATOM      9  C   UNL     1      10.084 -33.364 -16.787  1.00  0.00     0.336 A 
ATOM     10  O   UNL     1      10.492 -33.518 -15.606  1.00  0.00    -0.246 OA
ATOM     11  O   UNL     1       9.393 -32.274 -17.109  1.00  0.00    -0.423 OA
ENDROOT
BRANCH   1  12
ATOM     12  O   UNL     1       7.008 -29.461 -20.135  1.00  0.00    -0.497 OA
ATOM     13  C   UNL     1       7.599 -28.224 -20.520  1.00  0.00     0.278 C 
ENDBRANCH   1  12
TORSDOF 1
ENDMDL
