MODEL 1
REMARK VINA RESULT:    -3.717      0.000      0.000
REMARK INTER + INTRA:          -4.617
REMARK INTER:                  -4.586
REMARK INTRA:                  -0.031
REMARK UNBOUND:                -0.031
REMARK SMILES CCCCCC=O
REMARK SMILES IDX 4 1 3 2 2 3 1 4 5 5 6 6 7 7
REMARK H PARENT
REMARK Flexibility Score: inf
ROOT
ATOM      1  C   UNL     1      25.833  57.001  -9.017  1.00  0.00     0.008 C 
ENDROOT
BRANCH   1   2
ATOM      2  C   UNL     1      24.395  56.648  -8.599  1.00  0.00     0.000 C 
BRANCH   2   3
ATOM      3  C   UNL     1      24.253  55.181  -8.164  1.00  0.00    -0.003 C 
ATOM      4  C   UNL     1      23.096  54.962  -7.190  1.00  0.00     0.004 C 
ENDBRANCH   2   3
ENDBRANCH   1   2
BRANCH   1   5
ATOM      5  C   UNL     1      25.986  58.493  -9.350  1.00  0.00     0.072 C 
BRANCH   5   6
ATOM      6  C   UNL     1      27.200  58.763 -10.189  1.00  0.00     0.224 C 
ATOM      7  O   UNL     1      27.536  59.909 -10.444  1.00  0.00    -0.303 OA
ENDBRANCH   5   6
ENDBRANCH   1   5
TORSDOF 4
ENDMDL
MODEL 2
REMARK VINA RESULT:    -3.690      2.845      4.702
REMARK INTER + INTRA:          -4.583
REMARK INTER:                  -4.495
REMARK INTRA:                  -0.088
REMARK UNBOUND:                -0.031
REMARK SMILES CCCCCC=O
REMARK SMILES IDX 4 1 3 2 2 3 1 4 5 5 6 6 7 7
REMARK H PARENT
REMARK Flexibility Score: inf
ROOT
ATOM      1  C   UNL     1      25.740  56.618  -9.151  1.00  0.00     0.008 C 
ENDROOT
BRANCH   1   2
ATOM      2  C   UNL     1      25.210  58.053  -8.991  1.00  0.00     0.000 C 
BRANCH   2   3
ATOM      3  C   UNL     1      26.237  59.112  -9.424  1.00  0.00    -0.003 C 
ATOM      4  C   UNL     1      27.201  58.599 -10.492  1.00  0.00     0.004 C 
ENDBRANCH   2   3
ENDBRANCH   1   2
BRANCH   1   5
ATOM      5  C   UNL     1      25.400  55.740  -7.938  1.00  0.00     0.072 C 
BRANCH   5   6
ATOM      6  C   UNL     1      24.018  55.162  -8.029  1.00  0.00     0.224 C 
ATOM      7  O   UNL     1      23.281  55.159  -7.055  1.00  0.00    -0.303 OA
ENDBRANCH   5   6
ENDBRANCH   1   5
TORSDOF 4
ENDMDL
MODEL 3
REMARK VINA RESULT:    -3.210     16.863     18.105
REMARK INTER + INTRA:          -3.991
REMARK INTER:                  -3.812
REMARK INTRA:                  -0.180
REMARK UNBOUND:                -0.031
REMARK SMILES CCCCCC=O
REMARK SMILES IDX 4 1 3 2 2 3 1 4 5 5 6 6 7 7
REMARK H PARENT
REMARK Flexibility Score: inf
ROOT
ATOM      1  C   UNL     1      18.649  43.765   2.405  1.00  0.00     0.008 C 
ENDROOT
BRANCH   1   2
ATOM      2  C   UNL     1      17.410  43.357   1.590  1.00  0.00     0.000 C 
BRANCH   2   3
ATOM      3  C   UNL     1      16.186  44.234   1.899  1.00  0.00    -0.003 C 
ATOM      4  C   UNL     1      15.700  45.021   0.684  1.00  0.00     0.004 C 
ENDBRANCH   2   3
ENDBRANCH   1   2
BRANCH   1   5
ATOM      5  C   UNL     1      19.837  44.131   1.503  1.00  0.00     0.072 C 
BRANCH   5   6
ATOM      6  C   UNL     1      19.405  44.445   0.101  1.00  0.00     0.224 C 
ATOM      7  O   UNL     1      19.453  45.590  -0.321  1.00  0.00    -0.303 OA
ENDBRANCH   5   6
ENDBRANCH   1   5
TORSDOF 4
ENDMDL
MODEL 4
REMARK VINA RESULT:    -3.143      1.556      2.600
REMARK INTER + INTRA:          -3.909
REMARK INTER:                  -3.879
REMARK INTRA:                  -0.030
REMARK UNBOUND:                -0.031
REMARK SMILES CCCCCC=O
REMARK SMILES IDX 4 1 3 2 2 3 1 4 5 5 6 6 7 7
REMARK H PARENT
REMARK Flexibility Score: inf
ROOT
ATOM      1  C   UNL     1      27.274  58.502 -10.455  1.00  0.00     0.008 C 
ENDROOT
BRANCH   1   2
ATOM      2  C   UNL     1      26.171  58.390  -9.388  1.00  0.00     0.000 C 
BRANCH   2   3
ATOM      3  C   UNL     1      25.875  56.932  -8.999  1.00  0.00    -0.003 C 
ATOM      4  C   UNL     1      24.411  56.706  -8.623  1.00  0.00     0.004 C 
ENDBRANCH   2   3
ENDBRANCH   1   2
BRANCH   1   5
ATOM      5  C   UNL     1      28.130  59.764 -10.268  1.00  0.00     0.072 C 
BRANCH   5   6
ATOM      6  C   UNL     1      29.489  59.621 -10.889  1.00  0.00     0.224 C 
ATOM      7  O   UNL     1      29.616  59.115 -11.993  1.00  0.00    -0.303 OA
ENDBRANCH   5   6
ENDBRANCH   1   5
TORSDOF 4
ENDMDL
MODEL 5
REMARK VINA RESULT:    -3.139     17.235     18.171
REMARK INTER + INTRA:          -3.903
REMARK INTER:                  -3.765
REMARK INTRA:                  -0.138
REMARK UNBOUND:                -0.031
REMARK SMILES CCCCCC=O
REMARK SMILES IDX 4 1 3 2 2 3 1 4 5 5 6 6 7 7
REMARK H PARENT
REMARK Flexibility Score: inf
ROOT
ATOM      1  C   UNL     1      19.125  44.596   0.149  1.00  0.00     0.008 C 
ENDROOT
BRANCH   1   2
ATOM      2  C   UNL     1      17.587  44.570   0.137  1.00  0.00     0.000 C 
BRANCH   2   3
ATOM      3  C   UNL     1      17.000  43.875   1.376  1.00  0.00    -0.003 C 
ATOM      4  C   UNL     1      15.716  44.536   1.873  1.00  0.00     0.004 C 
ENDBRANCH   2   3
ENDBRANCH   1   2
BRANCH   1   5
ATOM      5  C   UNL     1      19.696  44.260   1.535  1.00  0.00     0.072 C 
BRANCH   5   6
ATOM      6  C   UNL     1      20.678  43.126   1.481  1.00  0.00     0.224 C 
ATOM      7  O   UNL     1      20.994  42.630   0.411  1.00  0.00    -0.303 OA
ENDBRANCH   5   6
ENDBRANCH   1   5
TORSDOF 4
ENDMDL
MODEL 6
REMARK VINA RESULT:    -3.132     15.140     16.439
REMARK INTER + INTRA:          -3.895
REMARK INTER:                  -3.846
REMARK INTRA:                  -0.050
REMARK UNBOUND:                -0.031
REMARK SMILES CCCCCC=O
REMARK SMILES IDX 4 1 3 2 2 3 1 4 5 5 6 6 7 7
REMARK H PARENT
REMARK Flexibility Score: inf
ROOT
ATOM      1  C   UNL     1      30.307  45.326   1.197  1.00  0.00     0.008 C 
ENDROOT
BRANCH   1   2
ATOM      2  C   UNL     1      31.738  44.769   1.290  1.00  0.00     0.000 C 
BRANCH   2   3
ATOM      3  C   UNL     1      32.773  45.858   1.612  1.00  0.00    -0.003 C 
ATOM      4  C   UNL     1      32.552  46.500   2.980  1.00  0.00     0.004 C 
ENDBRANCH   2   3
ENDBRANCH   1   2
BRANCH   1   5
ATOM      5  C   UNL     1      29.655  45.015  -0.159  1.00  0.00     0.072 C 
BRANCH   5   6
ATOM      6  C   UNL     1      28.291  45.628  -0.284  1.00  0.00     0.224 C 
ATOM      7  O   UNL     1      28.077  46.498  -1.113  1.00  0.00    -0.303 OA
ENDBRANCH   5   6
ENDBRANCH   1   5
TORSDOF 4
ENDMDL
MODEL 7
REMARK VINA RESULT:    -3.071      6.086      7.874
REMARK INTER + INTRA:          -3.819
REMARK INTER:                  -3.708
REMARK INTRA:                  -0.111
REMARK UNBOUND:                -0.031
REMARK SMILES CCCCCC=O
REMARK SMILES IDX 4 1 3 2 2 3 1 4 5 5 6 6 7 7
REMARK H PARENT
REMARK Flexibility Score: inf
ROOT
ATOM      1  C   UNL     1      30.261  57.284 -13.171  1.00  0.00     0.008 C 
ENDROOT
BRANCH   1   2
ATOM      2  C   UNL     1      31.498  56.678 -13.856  1.00  0.00     0.000 C 
BRANCH   2   3
ATOM      3  C   UNL     1      32.684  57.655 -13.899  1.00  0.00    -0.003 C 
ATOM      4  C   UNL     1      34.006  57.000 -13.500  1.00  0.00     0.004 C 
ENDBRANCH   2   3
ENDBRANCH   1   2
BRANCH   1   5
ATOM      5  C   UNL     1      30.384  58.806 -13.000  1.00  0.00     0.072 C 
BRANCH   5   6
ATOM      6  C   UNL     1      30.014  59.250 -11.615  1.00  0.00     0.224 C 
ATOM      7  O   UNL     1      28.868  59.128 -11.210  1.00  0.00    -0.303 OA
ENDBRANCH   5   6
ENDBRANCH   1   5
TORSDOF 4
ENDMDL
MODEL 8
REMARK VINA RESULT:    -3.070     15.716     16.813
REMARK INTER + INTRA:          -3.819
REMARK INTER:                  -3.753
REMARK INTRA:                  -0.066
REMARK UNBOUND:                -0.031
REMARK SMILES CCCCCC=O
REMARK SMILES IDX 4 1 3 2 2 3 1 4 5 5 6 6 7 7
REMARK H PARENT
REMARK Flexibility Score: inf
ROOT
ATOM      1  C   UNL     1      31.738  44.888   1.556  1.00  0.00     0.008 C 
ENDROOT
BRANCH   1   2
ATOM      2  C   UNL     1      30.306  45.384   1.290  1.00  0.00     0.000 C 
BRANCH   2   3
ATOM      3  C   UNL     1      29.770  44.927  -0.076  1.00  0.00    -0.003 C 
ATOM      4  C   UNL     1      28.393  45.508  -0.396  1.00  0.00     0.004 C 
ENDBRANCH   2   3
ENDBRANCH   1   2
BRANCH   1   5
ATOM      5  C   UNL     1      32.712  46.049   1.804  1.00  0.00     0.072 C 
BRANCH   5   6
ATOM      6  C   UNL     1      32.735  46.470   3.245  1.00  0.00     0.224 C 
ATOM      7  O   UNL     1      32.063  47.415   3.625  1.00  0.00    -0.303 OA
ENDBRANCH   5   6
ENDBRANCH   1   5
TORSDOF 4
ENDMDL
MODEL 9
REMARK VINA RESULT:    -3.031      5.251      7.044
REMARK INTER + INTRA:          -3.771
REMARK INTER:                  -3.651
REMARK INTRA:                  -0.119
REMARK UNBOUND:                -0.031
REMARK SMILES CCCCCC=O
REMARK SMILES IDX 4 1 3 2 2 3 1 4 5 5 6 6 7 7
REMARK H PARENT
REMARK Flexibility Score: inf
ROOT
ATOM      1  C   UNL     1      30.377  58.855 -12.931  1.00  0.00     0.008 C 
ENDROOT
BRANCH   1   2
ATOM      2  C   UNL     1      30.106  57.360 -13.171  1.00  0.00     0.000 C 
BRANCH   2   3
ATOM      3  C   UNL     1      31.292  56.647 -13.840  1.00  0.00    -0.003 C 
ATOM      4  C   UNL     1      32.542  57.523 -13.920  1.00  0.00     0.004 C 
ENDBRANCH   2   3
ENDBRANCH   1   2
BRANCH   1   5
ATOM      5  C   UNL     1      30.251  59.233 -11.448  1.00  0.00     0.072 C 
BRANCH   5   6
ATOM      6  C   UNL     1      28.850  59.632 -11.084  1.00  0.00     0.224 C 
ATOM      7  O   UNL     1      28.124  58.862 -10.475  1.00  0.00    -0.303 OA
ENDBRANCH   5   6
ENDBRANCH   1   5
TORSDOF 4
ENDMDL
