MODEL 1
REMARK VINA RESULT:    -7.297      0.000      0.000
REMARK INTER + INTRA:         -12.463
REMARK INTER:                 -10.709
REMARK INTRA:                  -1.753
REMARK UNBOUND:                -1.753
REMARK SMILES O=c1c(O[C@H]2O[C@H](CO)[C@@H](O)[C@@H](O)[C@@H]2O)c(-c2ccc(O)c(O)c2)oc2cc(O)cc(O)c12
REMARK SMILES IDX 4 1 3 2 16 3 25 4 2 5 26 6 1 7 33 8 27 9 31 10 28 11 30 12
REMARK SMILES IDX 17 13 18 14 19 15 20 16 24 17 22 18 21 19 23 21 32 23 29 25
REMARK SMILES IDX 5 27 14 28 6 29 12 30 7 31 10 32 15 33 13 35 8 37 9 38 11 40
REMARK H PARENT 21 20 23 22 32 24 29 26 15 34 13 36 9 39 11 41
REMARK Flexibility Score: inf
ROOT
ATOM      1  O   UNL     1      54.673   4.125  78.464  1.00  0.00    -0.454 OA
ENDROOT
BRANCH   1   2
ATOM      2  C   UNL     1      55.529   5.237  78.351  1.00  0.00     0.214 A 
ATOM      3  C   UNL     1      55.127   6.515  77.859  1.00  0.00     0.180 A 
ATOM      4  O   UNL     1      55.683   7.601  78.370  1.00  0.00    -0.452 OA
ATOM      5  C   UNL     1      56.831   5.231  78.958  1.00  0.00     0.239 A 
ATOM      6  C   UNL     1      56.775   7.560  79.017  1.00  0.00     0.146 A 
ATOM      7  O   UNL     1      57.116   4.265  79.744  1.00  0.00    -0.285 OA
ATOM      8  C   UNL     1      57.594   6.418  78.937  1.00  0.00     0.111 A 
ATOM      9  C   UNL     1      56.971   8.474  80.090  1.00  0.00     0.094 A 
ATOM     10  C   UNL     1      58.878   6.731  79.411  1.00  0.00     0.134 A 
ATOM     11  C   UNL     1      57.787   8.095  81.108  1.00  0.00     0.123 A 
ATOM     12  C   UNL     1      58.894   7.238  80.747  1.00  0.00     0.093 A 
BRANCH   3  13
ATOM     13  C   UNL     1      53.927   6.948  77.073  1.00  0.00     0.025 A 
ATOM     14  C   UNL     1      54.061   7.837  75.986  1.00  0.00     0.016 A 
ATOM     15  C   UNL     1      53.152   8.864  75.779  1.00  0.00     0.051 A 
ATOM     16  C   UNL     1      52.321   9.244  76.802  1.00  0.00     0.157 A 
ATOM     17  C   UNL     1      52.721   7.080  77.841  1.00  0.00     0.062 A 
ATOM     18  C   UNL     1      52.010   8.310  77.816  1.00  0.00     0.158 A 
BRANCH  16  19
ATOM     19  O   UNL     1      51.710  10.516  76.767  1.00  0.00    -0.504 OA
ATOM     20  H   UNL     1      50.681  10.634  76.696  1.00  0.00     0.293 HD
ENDBRANCH  16  19
BRANCH  18  21
ATOM     21  O   UNL     1      51.009   8.504  78.798  1.00  0.00    -0.504 OA
ATOM     22  H   UNL     1      50.810   7.882  79.580  1.00  0.00     0.293 HD
ENDBRANCH  18  21
ENDBRANCH   3  13
BRANCH  10  23
ATOM     23  O   UNL     1      59.675   7.502  78.476  1.00  0.00    -0.507 OA
ATOM     24  H   UNL     1      60.550   7.926  78.830  1.00  0.00     0.293 HD
ENDBRANCH  10  23
BRANCH  11  25
ATOM     25  O   UNL     1      57.314   8.132  82.392  1.00  0.00    -0.508 OA
ATOM     26  H   UNL     1      57.310   9.090  82.848  1.00  0.00     0.293 HD
ENDBRANCH  11  25
ENDBRANCH   1   2
BRANCH   1  27
ATOM     27  C   UNL     1      53.465   4.115  79.316  1.00  0.00     0.339 C 
ATOM     28  C   UNL     1      53.470   3.613  80.873  1.00  0.00     0.214 C 
ATOM     29  O   UNL     1      52.370   3.518  78.548  1.00  0.00    -0.332 OA
ATOM     30  C   UNL     1      52.141   4.039  81.619  1.00  0.00     0.180 C 
ATOM     31  C   UNL     1      51.210   3.394  79.334  1.00  0.00     0.179 C 
ATOM     32  C   UNL     1      51.030   4.404  80.576  1.00  0.00     0.177 C 
BRANCH  28  33
ATOM     33  O   UNL     1      54.544   4.041  81.636  1.00  0.00    -0.384 OA
ATOM     34  H   UNL     1      55.309   3.408  81.595  1.00  0.00     0.211 HD
ENDBRANCH  28  33
BRANCH  30  35
ATOM     35  O   UNL     1      51.696   2.906  82.387  1.00  0.00    -0.387 OA
ATOM     36  H   UNL     1      51.313   2.304  81.691  1.00  0.00     0.211 HD
ENDBRANCH  30  35
BRANCH  31  37
ATOM     37  C   UNL     1      49.926   3.044  78.447  1.00  0.00     0.191 C 
BRANCH  37  38
ATOM     38  O   UNL     1      49.268   4.278  78.212  1.00  0.00    -0.394 OA
ATOM     39  H   UNL     1      49.502   4.779  79.055  1.00  0.00     0.210 HD
ENDBRANCH  37  38
ENDBRANCH  31  37
BRANCH  32  40
ATOM     40  O   UNL     1      49.705   4.335  81.111  1.00  0.00    -0.387 OA
ATOM     41  H   UNL     1      49.113   5.181  81.064  1.00  0.00     0.211 HD
ENDBRANCH  32  40
ENDBRANCH   1  27
TORSDOF 12
ENDMDL
MODEL 2
REMARK VINA RESULT:    -7.215      2.942      5.770
REMARK INTER + INTRA:         -12.343
REMARK INTER:                 -10.908
REMARK INTRA:                  -1.436
REMARK UNBOUND:                -1.753
REMARK SMILES O=c1c(O[C@H]2O[C@H](CO)[C@@H](O)[C@@H](O)[C@@H]2O)c(-c2ccc(O)c(O)c2)oc2cc(O)cc(O)c12
REMARK SMILES IDX 4 1 3 2 16 3 25 4 2 5 26 6 1 7 33 8 27 9 31 10 28 11 30 12
REMARK SMILES IDX 17 13 18 14 19 15 20 16 24 17 22 18 21 19 23 21 32 23 29 25
REMARK SMILES IDX 5 27 14 28 6 29 12 30 7 31 10 32 15 33 13 35 8 37 9 38 11 40
REMARK H PARENT 21 20 23 22 32 24 29 26 15 34 13 36 9 39 11 41
REMARK Flexibility Score: inf
ROOT
ATOM      1  O   UNL     1      52.565   5.735  81.855  1.00  0.00    -0.454 OA
ENDROOT
BRANCH   1   2
ATOM      2  C   UNL     1      53.884   5.770  82.346  1.00  0.00     0.214 A 
ATOM      3  C   UNL     1      54.447   4.784  83.209  1.00  0.00     0.180 A 
ATOM      4  O   UNL     1      55.732   4.489  83.092  1.00  0.00    -0.452 OA
ATOM      5  C   UNL     1      54.846   6.693  81.811  1.00  0.00     0.239 A 
ATOM      6  C   UNL     1      56.549   5.260  82.501  1.00  0.00     0.146 A 
ATOM      7  O   UNL     1      54.521   7.352  80.766  1.00  0.00    -0.285 OA
ATOM      8  C   UNL     1      56.188   6.595  82.236  1.00  0.00     0.111 A 
ATOM      9  C   UNL     1      57.638   4.687  81.785  1.00  0.00     0.094 A 
ATOM     10  C   UNL     1      57.340   7.337  81.929  1.00  0.00     0.134 A 
ATOM     11  C   UNL     1      58.137   5.376  80.726  1.00  0.00     0.123 A 
ATOM     12  C   UNL     1      58.087   6.817  80.828  1.00  0.00     0.093 A 
BRANCH   3  13
ATOM     13  C   UNL     1      53.814   3.720  84.055  1.00  0.00     0.025 A 
ATOM     14  C   UNL     1      54.376   2.428  84.125  1.00  0.00     0.016 A 
ATOM     15  C   UNL     1      53.578   1.293  84.110  1.00  0.00     0.051 A 
ATOM     16  C   UNL     1      52.278   1.391  83.683  1.00  0.00     0.157 A 
ATOM     17  C   UNL     1      52.381   3.782  84.125  1.00  0.00     0.062 A 
ATOM     18  C   UNL     1      51.617   2.637  83.775  1.00  0.00     0.158 A 
BRANCH  16  19
ATOM     19  O   UNL     1      51.594   0.230  83.262  1.00  0.00    -0.504 OA
ATOM     20  H   UNL     1      52.090  -0.586  82.852  1.00  0.00     0.293 HD
ENDBRANCH  16  19
BRANCH  18  21
ATOM     21  O   UNL     1      50.227   2.819  83.571  1.00  0.00    -0.504 OA
ATOM     22  H   UNL     1      49.728   2.679  82.694  1.00  0.00     0.293 HD
ENDBRANCH  18  21
ENDBRANCH   3  13
BRANCH  10  23
ATOM     23  O   UNL     1      58.146   7.672  83.087  1.00  0.00    -0.507 OA
ATOM     24  H   UNL     1      58.968   7.076  83.286  1.00  0.00     0.293 HD
ENDBRANCH  10  23
BRANCH  11  25
ATOM     25  O   UNL     1      58.221   4.757  79.508  1.00  0.00    -0.508 OA
ATOM     26  H   UNL     1      58.973   4.013  79.427  1.00  0.00     0.293 HD
ENDBRANCH  11  25
ENDBRANCH   1   2
BRANCH   1  27
ATOM     27  C   UNL     1      52.164   4.957  80.663  1.00  0.00     0.339 C 
ATOM     28  C   UNL     1      50.817   4.030  80.609  1.00  0.00     0.214 C 
ATOM     29  O   UNL     1      53.343   4.245  80.165  1.00  0.00    -0.332 OA
ATOM     30  C   UNL     1      50.468   3.610  79.123  1.00  0.00     0.180 C 
ATOM     31  C   UNL     1      53.010   3.412  79.082  1.00  0.00     0.179 C 
ATOM     32  C   UNL     1      51.720   3.801  78.200  1.00  0.00     0.177 C 
BRANCH  28  33
ATOM     33  O   UNL     1      49.682   4.591  81.171  1.00  0.00    -0.384 OA
ATOM     34  H   UNL     1      49.697   4.553  82.165  1.00  0.00     0.211 HD
ENDBRANCH  28  33
BRANCH  30  35
ATOM     35  O   UNL     1      50.119   2.214  79.142  1.00  0.00    -0.387 OA
ATOM     36  H   UNL     1      50.675   1.857  79.889  1.00  0.00     0.211 HD
ENDBRANCH  30  35
BRANCH  31  37
ATOM     37  C   UNL     1      54.312   2.871  78.326  1.00  0.00     0.191 C 
BRANCH  37  38
ATOM     38  O   UNL     1      53.942   1.624  77.762  1.00  0.00    -0.394 OA
ATOM     39  H   UNL     1      53.230   1.327  78.411  1.00  0.00     0.210 HD
ENDBRANCH  37  38
ENDBRANCH  31  37
BRANCH  32  40
ATOM     40  O   UNL     1      51.661   3.027  76.999  1.00  0.00    -0.387 OA
ATOM     41  H   UNL     1      51.257   3.464  76.154  1.00  0.00     0.211 HD
ENDBRANCH  32  40
ENDBRANCH   1  27
TORSDOF 12
ENDMDL
MODEL 3
REMARK VINA RESULT:    -6.888      1.963      5.383
REMARK INTER + INTRA:         -11.863
REMARK INTER:                 -10.292
REMARK INTRA:                  -1.571
REMARK UNBOUND:                -1.753
REMARK SMILES O=c1c(O[C@H]2O[C@H](CO)[C@@H](O)[C@@H](O)[C@@H]2O)c(-c2ccc(O)c(O)c2)oc2cc(O)cc(O)c12
REMARK SMILES IDX 4 1 3 2 16 3 25 4 2 5 26 6 1 7 33 8 27 9 31 10 28 11 30 12
REMARK SMILES IDX 17 13 18 14 19 15 20 16 24 17 22 18 21 19 23 21 32 23 29 25
REMARK SMILES IDX 5 27 14 28 6 29 12 30 7 31 10 32 15 33 13 35 8 37 9 38 11 40
REMARK H PARENT 21 20 23 22 32 24 29 26 15 34 13 36 9 39 11 41
REMARK Flexibility Score: inf
ROOT
ATOM      1  O   UNL     1      55.833   4.857  78.581  1.00  0.00    -0.454 OA
ENDROOT
BRANCH   1   2
ATOM      2  C   UNL     1      54.810   5.676  78.066  1.00  0.00     0.214 A 
ATOM      3  C   UNL     1      53.416   5.410  78.216  1.00  0.00     0.180 A 
ATOM      4  O   UNL     1      52.580   6.428  78.337  1.00  0.00    -0.452 OA
ATOM      5  C   UNL     1      55.100   6.984  77.550  1.00  0.00     0.239 A 
ATOM      6  C   UNL     1      52.899   7.608  77.993  1.00  0.00     0.146 A 
ATOM      7  O   UNL     1      56.277   7.448  77.733  1.00  0.00    -0.285 OA
ATOM      8  C   UNL     1      54.026   7.820  77.176  1.00  0.00     0.111 A 
ATOM      9  C   UNL     1      52.367   8.705  78.728  1.00  0.00     0.094 A 
ATOM     10  C   UNL     1      53.972   9.113  76.633  1.00  0.00     0.134 A 
ATOM     11  C   UNL     1      53.097   9.850  78.783  1.00  0.00     0.123 A 
ATOM     12  C   UNL     1      53.891  10.150  77.612  1.00  0.00     0.093 A 
BRANCH   3  13
ATOM     13  C   UNL     1      52.674   4.167  78.602  1.00  0.00     0.025 A 
ATOM     14  C   UNL     1      51.875   3.484  77.662  1.00  0.00     0.016 A 
ATOM     15  C   UNL     1      50.636   2.965  78.010  1.00  0.00     0.051 A 
ATOM     16  C   UNL     1      50.022   3.401  79.156  1.00  0.00     0.157 A 
ATOM     17  C   UNL     1      52.195   4.149  79.956  1.00  0.00     0.062 A 
ATOM     18  C   UNL     1      50.815   3.920  80.205  1.00  0.00     0.158 A 
BRANCH  16  19
ATOM     19  O   UNL     1      48.630   3.226  79.311  1.00  0.00    -0.504 OA
ATOM     20  H   UNL     1      48.229   2.590  80.028  1.00  0.00     0.293 HD
ENDBRANCH  16  19
BRANCH  18  21
ATOM     21  O   UNL     1      50.332   4.201  81.506  1.00  0.00    -0.504 OA
ATOM     22  H   UNL     1      49.357   4.180  81.799  1.00  0.00     0.293 HD
ENDBRANCH  18  21
ENDBRANCH   3  13
BRANCH  10  23
ATOM     23  O   UNL     1      53.023   9.251  75.545  1.00  0.00    -0.507 OA
ATOM     24  H   UNL     1      52.665   8.384  75.109  1.00  0.00     0.293 HD
ENDBRANCH  10  23
BRANCH  11  25
ATOM     25  O   UNL     1      53.408  10.385  80.003  1.00  0.00    -0.508 OA
ATOM     26  H   UNL     1      54.182  11.111  79.997  1.00  0.00     0.293 HD
ENDBRANCH  11  25
ENDBRANCH   1   2
BRANCH   1  27
ATOM     27  C   UNL     1      56.275   4.901  79.991  1.00  0.00     0.339 C 
ATOM     28  C   UNL     1      57.835   4.722  80.448  1.00  0.00     0.214 C 
ATOM     29  O   UNL     1      55.370   4.061  80.779  1.00  0.00    -0.332 OA
ATOM     30  C   UNL     1      58.047   5.159  81.955  1.00  0.00     0.180 C 
ATOM     31  C   UNL     1      55.789   3.986  82.119  1.00  0.00     0.179 C 
ATOM     32  C   UNL     1      56.671   5.200  82.703  1.00  0.00     0.177 C 
BRANCH  28  33
ATOM     33  O   UNL     1      58.767   5.394  79.674  1.00  0.00    -0.384 OA
ATOM     34  H   UNL     1      58.904   6.330  79.980  1.00  0.00     0.211 HD
ENDBRANCH  28  33
BRANCH  30  35
ATOM     35  O   UNL     1      58.879   4.164  82.579  1.00  0.00    -0.387 OA
ATOM     36  H   UNL     1      58.518   4.125  83.508  1.00  0.00     0.211 HD
ENDBRANCH  30  35
BRANCH  31  37
ATOM     37  C   UNL     1      54.663   3.344  83.059  1.00  0.00     0.191 C 
BRANCH  37  38
ATOM     38  O   UNL     1      55.361   2.661  84.087  1.00  0.00    -0.394 OA
ATOM     39  H   UNL     1      55.639   3.434  84.671  1.00  0.00     0.210 HD
ENDBRANCH  37  38
ENDBRANCH  31  37
BRANCH  32  40
ATOM     40  O   UNL     1      56.796   5.113  84.125  1.00  0.00    -0.387 OA
ATOM     41  H   UNL     1      56.674   5.975  84.682  1.00  0.00     0.211 HD
ENDBRANCH  32  40
ENDBRANCH   1  27
TORSDOF 12
ENDMDL
MODEL 4
REMARK VINA RESULT:    -6.789      1.630      2.073
REMARK INTER + INTRA:         -11.717
REMARK INTER:                 -10.368
REMARK INTRA:                  -1.350
REMARK UNBOUND:                -1.753
REMARK SMILES O=c1c(O[C@H]2O[C@H](CO)[C@@H](O)[C@@H](O)[C@@H]2O)c(-c2ccc(O)c(O)c2)oc2cc(O)cc(O)c12
REMARK SMILES IDX 4 1 3 2 16 3 25 4 2 5 26 6 1 7 33 8 27 9 31 10 28 11 30 12
REMARK SMILES IDX 17 13 18 14 19 15 20 16 24 17 22 18 21 19 23 21 32 23 29 25
REMARK SMILES IDX 5 27 14 28 6 29 12 30 7 31 10 32 15 33 13 35 8 37 9 38 11 40
REMARK H PARENT 21 20 23 22 32 24 29 26 15 34 13 36 9 39 11 41
REMARK Flexibility Score: inf
ROOT
ATOM      1  O   UNL     1      53.923   5.565  77.578  1.00  0.00    -0.454 OA
ENDROOT
BRANCH   1   2
ATOM      2  C   UNL     1      55.055   6.117  78.207  1.00  0.00     0.214 A 
ATOM      3  C   UNL     1      55.118   7.445  78.725  1.00  0.00     0.180 A 
ATOM      4  O   UNL     1      55.841   7.675  79.810  1.00  0.00    -0.452 OA
ATOM      5  C   UNL     1      56.164   5.290  78.590  1.00  0.00     0.239 A 
ATOM      6  C   UNL     1      56.735   6.866  80.209  1.00  0.00     0.146 A 
ATOM      7  O   UNL     1      56.019   4.023  78.504  1.00  0.00    -0.285 OA
ATOM      8  C   UNL     1      57.211   5.864  79.342  1.00  0.00     0.111 A 
ATOM      9  C   UNL     1      56.963   6.731  81.608  1.00  0.00     0.094 A 
ATOM     10  C   UNL     1      58.416   5.348  79.845  1.00  0.00     0.134 A 
ATOM     11  C   UNL     1      57.434   5.541  82.064  1.00  0.00     0.123 A 
ATOM     12  C   UNL     1      58.313   4.823  81.169  1.00  0.00     0.093 A 
BRANCH   3  13
ATOM     13  C   UNL     1      54.256   8.649  78.493  1.00  0.00     0.025 A 
ATOM     14  C   UNL     1      52.865   8.590  78.714  1.00  0.00     0.016 A 
ATOM     15  C   UNL     1      51.971   9.194  77.841  1.00  0.00     0.051 A 
ATOM     16  C   UNL     1      52.393   9.551  76.586  1.00  0.00     0.157 A 
ATOM     17  C   UNL     1      54.681   9.493  77.412  1.00  0.00     0.062 A 
ATOM     18  C   UNL     1      53.766   9.804  76.370  1.00  0.00     0.158 A 
BRANCH  16  19
ATOM     19  O   UNL     1      51.441   9.762  75.564  1.00  0.00    -0.504 OA
ATOM     20  H   UNL     1      50.520  10.205  75.749  1.00  0.00     0.293 HD
ENDBRANCH  16  19
BRANCH  18  21
ATOM     21  O   UNL     1      54.295  10.381  75.190  1.00  0.00    -0.504 OA
ATOM     22  H   UNL     1      54.410  11.377  75.010  1.00  0.00     0.293 HD
ENDBRANCH  18  21
ENDBRANCH   3  13
BRANCH  10  23
ATOM     23  O   UNL     1      59.557   6.219  79.640  1.00  0.00    -0.507 OA
ATOM     24  H   UNL     1      60.276   6.249  80.384  1.00  0.00     0.293 HD
ENDBRANCH  10  23
BRANCH  11  25
ATOM     25  O   UNL     1      56.751   4.890  83.055  1.00  0.00    -0.508 OA
ATOM     26  H   UNL     1      56.360   5.512  83.822  1.00  0.00     0.293 HD
ENDBRANCH  11  25
ENDBRANCH   1   2
BRANCH   1  27
ATOM     27  C   UNL     1      52.765   5.025  78.321  1.00  0.00     0.339 C 
ATOM     28  C   UNL     1      52.819   4.644  79.911  1.00  0.00     0.214 C 
ATOM     29  O   UNL     1      52.165   3.956  77.519  1.00  0.00    -0.332 OA
ATOM     30  C   UNL     1      51.366   4.429  80.501  1.00  0.00     0.180 C 
ATOM     31  C   UNL     1      51.110   3.337  78.211  1.00  0.00     0.179 C 
ATOM     32  C   UNL     1      50.342   4.192  79.339  1.00  0.00     0.177 C 
BRANCH  28  33
ATOM     33  O   UNL     1      53.479   5.553  80.722  1.00  0.00    -0.384 OA
ATOM     34  H   UNL     1      53.894   6.290  80.200  1.00  0.00     0.211 HD
ENDBRANCH  28  33
BRANCH  30  35
ATOM     35  O   UNL     1      51.406   3.250  81.326  1.00  0.00    -0.387 OA
ATOM     36  H   UNL     1      51.095   3.589  82.210  1.00  0.00     0.211 HD
ENDBRANCH  30  35
BRANCH  31  37
ATOM     37  C   UNL     1      50.244   2.392  77.253  1.00  0.00     0.191 C 
BRANCH  37  38
ATOM     38  O   UNL     1      49.175   3.196  76.780  1.00  0.00    -0.394 OA
ATOM     39  H   UNL     1      49.069   2.837  75.845  1.00  0.00     0.210 HD
ENDBRANCH  37  38
ENDBRANCH  31  37
BRANCH  32  40
ATOM     40  O   UNL     1      49.146   3.534  79.764  1.00  0.00    -0.387 OA
ATOM     41  H   UNL     1      48.264   4.073  79.764  1.00  0.00     0.211 HD
ENDBRANCH  32  40
ENDBRANCH   1  27
TORSDOF 12
ENDMDL
MODEL 5
REMARK VINA RESULT:    -6.684      2.275      3.918
REMARK INTER + INTRA:         -11.563
REMARK INTER:                  -9.490
REMARK INTRA:                  -2.074
REMARK UNBOUND:                -1.753
REMARK SMILES O=c1c(O[C@H]2O[C@H](CO)[C@@H](O)[C@@H](O)[C@@H]2O)c(-c2ccc(O)c(O)c2)oc2cc(O)cc(O)c12
REMARK SMILES IDX 4 1 3 2 16 3 25 4 2 5 26 6 1 7 33 8 27 9 31 10 28 11 30 12
REMARK SMILES IDX 17 13 18 14 19 15 20 16 24 17 22 18 21 19 23 21 32 23 29 25
REMARK SMILES IDX 5 27 14 28 6 29 12 30 7 31 10 32 15 33 13 35 8 37 9 38 11 40
REMARK H PARENT 21 20 23 22 32 24 29 26 15 34 13 36 9 39 11 41
REMARK Flexibility Score: inf
ROOT
ATOM      1  O   UNL     1      56.455   5.617  78.402  1.00  0.00    -0.454 OA
ENDROOT
BRANCH   1   2
ATOM      2  C   UNL     1      56.516   6.936  77.914  1.00  0.00     0.214 A 
ATOM      3  C   UNL     1      55.380   7.780  77.735  1.00  0.00     0.180 A 
ATOM      4  O   UNL     1      55.512   9.082  77.935  1.00  0.00    -0.452 OA
ATOM      5  C   UNL     1      57.774   7.617  77.784  1.00  0.00     0.239 A 
ATOM      6  C   UNL     1      56.647   9.651  77.944  1.00  0.00     0.146 A 
ATOM      7  O   UNL     1      58.807   7.059  78.287  1.00  0.00    -0.285 OA
ATOM      8  C   UNL     1      57.772   8.982  77.424  1.00  0.00     0.111 A 
ATOM      9  C   UNL     1      56.848  10.767  78.805  1.00  0.00     0.094 A 
ATOM     10  C   UNL     1      58.803   9.908  77.201  1.00  0.00     0.134 A 
ATOM     11  C   UNL     1      58.106  11.001  79.262  1.00  0.00     0.123 A 
ATOM     12  C   UNL     1      59.182  10.645  78.364  1.00  0.00     0.093 A 
BRANCH   3  13
ATOM     13  C   UNL     1      53.913   7.479  77.672  1.00  0.00     0.025 A 
ATOM     14  C   UNL     1      53.015   8.090  78.572  1.00  0.00     0.016 A 
ATOM     15  C   UNL     1      51.978   7.373  79.153  1.00  0.00     0.051 A 
ATOM     16  C   UNL     1      52.017   6.002  79.137  1.00  0.00     0.157 A 
ATOM     17  C   UNL     1      53.592   6.134  77.287  1.00  0.00     0.062 A 
ATOM     18  C   UNL     1      52.759   5.348  78.128  1.00  0.00     0.158 A 
BRANCH  16  19
ATOM     19  O   UNL     1      51.233   5.272  80.058  1.00  0.00    -0.504 OA
ATOM     20  H   UNL     1      50.527   5.730  80.667  1.00  0.00     0.293 HD
ENDBRANCH  16  19
BRANCH  18  21
ATOM     21  O   UNL     1      52.707   3.956  77.875  1.00  0.00    -0.504 OA
ATOM     22  H   UNL     1      53.260   3.241  78.345  1.00  0.00     0.293 HD
ENDBRANCH  18  21
ENDBRANCH   3  13
BRANCH  10  23
ATOM     23  O   UNL     1      58.609  10.726  76.019  1.00  0.00    -0.507 OA
ATOM     24  H   UNL     1      57.658  10.760  75.611  1.00  0.00     0.293 HD
ENDBRANCH  10  23
BRANCH  11  25
ATOM     25  O   UNL     1      58.317  11.104  80.610  1.00  0.00    -0.508 OA
ATOM     26  H   UNL     1      58.523  10.191  81.110  1.00  0.00     0.293 HD
ENDBRANCH  11  25
ENDBRANCH   1   2
BRANCH   1  27
ATOM     27  C   UNL     1      56.368   5.289  79.841  1.00  0.00     0.339 C 
ATOM     28  C   UNL     1      57.653   4.802  80.729  1.00  0.00     0.214 C 
ATOM     29  O   UNL     1      55.201   4.426  80.043  1.00  0.00    -0.332 OA
ATOM     30  C   UNL     1      57.338   4.863  82.279  1.00  0.00     0.180 C 
ATOM     31  C   UNL     1      55.113   4.001  81.380  1.00  0.00     0.179 C 
ATOM     32  C   UNL     1      55.789   4.925  82.512  1.00  0.00     0.177 C 
BRANCH  28  33
ATOM     33  O   UNL     1      58.831   5.496  80.505  1.00  0.00    -0.384 OA
ATOM     34  H   UNL     1      58.911   6.298  81.087  1.00  0.00     0.211 HD
ENDBRANCH  28  33
BRANCH  30  35
ATOM     35  O   UNL     1      57.843   3.652  82.869  1.00  0.00    -0.387 OA
ATOM     36  H   UNL     1      57.246   2.952  82.483  1.00  0.00     0.211 HD
ENDBRANCH  30  35
BRANCH  31  37
ATOM     37  C   UNL     1      53.696   3.327  81.697  1.00  0.00     0.191 C 
BRANCH  37  38
ATOM     38  O   UNL     1      53.207   2.852  80.454  1.00  0.00    -0.394 OA
ATOM     39  H   UNL     1      52.375   2.366  80.752  1.00  0.00     0.210 HD
ENDBRANCH  37  38
ENDBRANCH  31  37
BRANCH  32  40
ATOM     40  O   UNL     1      55.397   4.510  83.823  1.00  0.00    -0.387 OA
ATOM     41  H   UNL     1      56.138   4.278  84.506  1.00  0.00     0.211 HD
ENDBRANCH  32  40
ENDBRANCH   1  27
TORSDOF 12
ENDMDL
MODEL 6
REMARK VINA RESULT:    -6.667      1.638      2.052
REMARK INTER + INTRA:         -11.538
REMARK INTER:                  -9.742
REMARK INTRA:                  -1.796
REMARK UNBOUND:                -1.753
REMARK SMILES O=c1c(O[C@H]2O[C@H](CO)[C@@H](O)[C@@H](O)[C@@H]2O)c(-c2ccc(O)c(O)c2)oc2cc(O)cc(O)c12
REMARK SMILES IDX 4 1 3 2 16 3 25 4 2 5 26 6 1 7 33 8 27 9 31 10 28 11 30 12
REMARK SMILES IDX 17 13 18 14 19 15 20 16 24 17 22 18 21 19 23 21 32 23 29 25
REMARK SMILES IDX 5 27 14 28 6 29 12 30 7 31 10 32 15 33 13 35 8 37 9 38 11 40
REMARK H PARENT 21 20 23 22 32 24 29 26 15 34 13 36 9 39 11 41
REMARK Flexibility Score: inf
ROOT
ATOM      1  O   UNL     1      54.204   6.879  81.257  1.00  0.00    -0.454 OA
ENDROOT
BRANCH   1   2
ATOM      2  C   UNL     1      55.242   6.906  80.306  1.00  0.00     0.214 A 
ATOM      3  C   UNL     1      55.062   7.240  78.930  1.00  0.00     0.180 A 
ATOM      4  O   UNL     1      56.032   7.879  78.295  1.00  0.00    -0.452 OA
ATOM      5  C   UNL     1      56.617   6.828  80.711  1.00  0.00     0.239 A 
ATOM      6  C   UNL     1      57.222   7.907  78.736  1.00  0.00     0.146 A 
ATOM      7  O   UNL     1      56.875   6.911  81.959  1.00  0.00    -0.285 OA
ATOM      8  C   UNL     1      57.622   6.999  79.735  1.00  0.00     0.111 A 
ATOM      9  C   UNL     1      58.010   9.071  78.509  1.00  0.00     0.094 A 
ATOM     10  C   UNL     1      59.025   6.962  79.797  1.00  0.00     0.134 A 
ATOM     11  C   UNL     1      58.985   9.366  79.409  1.00  0.00     0.123 A 
ATOM     12  C   UNL     1      59.627   8.235  80.040  1.00  0.00     0.093 A 
BRANCH   3  13
ATOM     13  C   UNL     1      53.834   7.317  78.074  1.00  0.00     0.025 A 
ATOM     14  C   UNL     1      53.929   7.224  76.670  1.00  0.00     0.016 A 
ATOM     15  C   UNL     1      53.174   8.041  75.841  1.00  0.00     0.051 A 
ATOM     16  C   UNL     1      52.593   9.171  76.358  1.00  0.00     0.157 A 
ATOM     17  C   UNL     1      52.807   8.187  78.574  1.00  0.00     0.062 A 
ATOM     18  C   UNL     1      52.307   9.225  77.741  1.00  0.00     0.158 A 
BRANCH  16  19
ATOM     19  O   UNL     1      52.196  10.210  75.488  1.00  0.00    -0.504 OA
ATOM     20  H   UNL     1      52.809  10.557  74.725  1.00  0.00     0.293 HD
ENDBRANCH  16  19
BRANCH  18  21
ATOM     21  O   UNL     1      51.525  10.233  78.355  1.00  0.00    -0.504 OA
ATOM     22  H   UNL     1      51.553  10.495  79.339  1.00  0.00     0.293 HD
ENDBRANCH  18  21
ENDBRANCH   3  13
BRANCH  10  23
ATOM     23  O   UNL     1      59.639   6.213  78.718  1.00  0.00    -0.507 OA
ATOM     24  H   UNL     1      60.522   5.716  78.923  1.00  0.00     0.293 HD
ENDBRANCH  10  23
BRANCH  11  25
ATOM     25  O   UNL     1      59.000  10.603  79.994  1.00  0.00    -0.508 OA
ATOM     26  H   UNL     1      59.567  11.340  79.484  1.00  0.00     0.293 HD
ENDBRANCH  11  25
ENDBRANCH   1   2
BRANCH   1  27
ATOM     27  C   UNL     1      53.507   5.640  81.663  1.00  0.00     0.339 C 
ATOM     28  C   UNL     1      54.292   4.279  82.118  1.00  0.00     0.214 C 
ATOM     29  O   UNL     1      52.454   5.367  80.682  1.00  0.00    -0.332 OA
ATOM     30  C   UNL     1      53.308   3.255  82.819  1.00  0.00     0.180 C 
ATOM     31  C   UNL     1      51.810   4.149  80.959  1.00  0.00     0.179 C 
ATOM     32  C   UNL     1      51.822   3.617  82.479  1.00  0.00     0.177 C 
BRANCH  28  33
ATOM     33  O   UNL     1      55.380   4.466  82.955  1.00  0.00    -0.384 OA
ATOM     34  H   UNL     1      55.157   4.285  83.906  1.00  0.00     0.211 HD
ENDBRANCH  28  33
BRANCH  30  35
ATOM     35  O   UNL     1      53.596   1.949  82.288  1.00  0.00    -0.387 OA
ATOM     36  H   UNL     1      53.993   2.155  81.397  1.00  0.00     0.211 HD
ENDBRANCH  30  35
BRANCH  31  37
ATOM     37  C   UNL     1      50.466   3.979  80.106  1.00  0.00     0.191 C 
BRANCH  37  38
ATOM     38  O   UNL     1      49.412   4.396  80.958  1.00  0.00    -0.394 OA
ATOM     39  H   UNL     1      49.067   3.505  81.279  1.00  0.00     0.210 HD
ENDBRANCH  37  38
ENDBRANCH  31  37
BRANCH  32  40
ATOM     40  O   UNL     1      50.919   2.522  82.653  1.00  0.00    -0.387 OA
ATOM     41  H   UNL     1      51.305   1.564  82.654  1.00  0.00     0.211 HD
ENDBRANCH  32  40
ENDBRANCH   1  27
TORSDOF 12
ENDMDL
MODEL 7
REMARK VINA RESULT:    -6.665      1.702      6.406
REMARK INTER + INTRA:         -11.535
REMARK INTER:                  -9.852
REMARK INTRA:                  -1.683
REMARK UNBOUND:                -1.753
REMARK SMILES O=c1c(O[C@H]2O[C@H](CO)[C@@H](O)[C@@H](O)[C@@H]2O)c(-c2ccc(O)c(O)c2)oc2cc(O)cc(O)c12
REMARK SMILES IDX 4 1 3 2 16 3 25 4 2 5 26 6 1 7 33 8 27 9 31 10 28 11 30 12
REMARK SMILES IDX 17 13 18 14 19 15 20 16 24 17 22 18 21 19 23 21 32 23 29 25
REMARK SMILES IDX 5 27 14 28 6 29 12 30 7 31 10 32 15 33 13 35 8 37 9 38 11 40
REMARK H PARENT 21 20 23 22 32 24 29 26 15 34 13 36 9 39 11 41
REMARK Flexibility Score: inf
ROOT
ATOM      1  O   UNL     1      55.457   6.158  77.460  1.00  0.00    -0.454 OA
ENDROOT
BRANCH   1   2
ATOM      2  C   UNL     1      54.176   6.739  77.395  1.00  0.00     0.214 A 
ATOM      3  C   UNL     1      53.017   6.202  78.031  1.00  0.00     0.180 A 
ATOM      4  O   UNL     1      52.100   7.035  78.497  1.00  0.00    -0.452 OA
ATOM      5  C   UNL     1      53.991   8.063  76.871  1.00  0.00     0.239 A 
ATOM      6  C   UNL     1      52.031   8.244  78.117  1.00  0.00     0.146 A 
ATOM      7  O   UNL     1      55.036   8.759  76.632  1.00  0.00    -0.285 OA
ATOM      8  C   UNL     1      52.713   8.654  76.955  1.00  0.00     0.111 A 
ATOM      9  C   UNL     1      51.600   9.233  79.047  1.00  0.00     0.094 A 
ATOM     10  C   UNL     1      52.207   9.893  76.531  1.00  0.00     0.134 A 
ATOM     11  C   UNL     1      52.057  10.502  78.884  1.00  0.00     0.123 A 
ATOM     12  C   UNL     1      52.289  10.921  77.519  1.00  0.00     0.093 A 
BRANCH   3  13
ATOM     13  C   UNL     1      52.730   4.847  78.604  1.00  0.00     0.025 A 
ATOM     14  C   UNL     1      53.067   3.679  77.890  1.00  0.00     0.016 A 
ATOM     15  C   UNL     1      52.211   2.588  77.847  1.00  0.00     0.051 A 
ATOM     16  C   UNL     1      50.895   2.751  78.199  1.00  0.00     0.157 A 
ATOM     17  C   UNL     1      51.535   4.771  79.396  1.00  0.00     0.062 A 
ATOM     18  C   UNL     1      50.544   3.806  79.071  1.00  0.00     0.158 A 
BRANCH  16  19
ATOM     19  O   UNL     1      49.937   1.806  77.772  1.00  0.00    -0.504 OA
ATOM     20  H   UNL     1      50.157   1.076  77.066  1.00  0.00     0.293 HD
ENDBRANCH  16  19
BRANCH  18  21
ATOM     21  O   UNL     1      49.271   3.952  79.674  1.00  0.00    -0.504 OA
ATOM     22  H   UNL     1      48.611   3.201  79.866  1.00  0.00     0.293 HD
ENDBRANCH  18  21
ENDBRANCH   3  13
BRANCH  10  23
ATOM     23  O   UNL     1      50.918   9.806  75.873  1.00  0.00    -0.507 OA
ATOM     24  H   UNL     1      50.077   9.761  76.474  1.00  0.00     0.293 HD
ENDBRANCH  10  23
BRANCH  11  25
ATOM     25  O   UNL     1      52.683  11.124  79.929  1.00  0.00    -0.508 OA
ATOM     26  H   UNL     1      52.039  11.577  80.641  1.00  0.00     0.293 HD
ENDBRANCH  11  25
ENDBRANCH   1   2
BRANCH   1  27
ATOM     27  C   UNL     1      56.428   6.456  78.534  1.00  0.00     0.339 C 
ATOM     28  C   UNL     1      57.927   7.046  78.249  1.00  0.00     0.214 C 
ATOM     29  O   UNL     1      56.451   5.318  79.457  1.00  0.00    -0.332 OA
ATOM     30  C   UNL     1      58.594   7.587  79.579  1.00  0.00     0.180 C 
ATOM     31  C   UNL     1      57.424   5.498  80.456  1.00  0.00     0.179 C 
ATOM     32  C   UNL     1      57.852   7.005  80.830  1.00  0.00     0.177 C 
BRANCH  28  33
ATOM     33  O   UNL     1      58.004   8.048  77.295  1.00  0.00    -0.384 OA
ATOM     34  H   UNL     1      57.116   8.454  77.104  1.00  0.00     0.211 HD
ENDBRANCH  28  33
BRANCH  30  35
ATOM     35  O   UNL     1      59.956   7.123  79.596  1.00  0.00    -0.387 OA
ATOM     36  H   UNL     1      59.863   6.175  79.889  1.00  0.00     0.211 HD
ENDBRANCH  30  35
BRANCH  31  37
ATOM     37  C   UNL     1      57.259   4.439  81.644  1.00  0.00     0.191 C 
BRANCH  37  38
ATOM     38  O   UNL     1      58.576   4.111  82.056  1.00  0.00    -0.394 OA
ATOM     39  H   UNL     1      59.042   4.048  81.165  1.00  0.00     0.210 HD
ENDBRANCH  37  38
ENDBRANCH  31  37
BRANCH  32  40
ATOM     40  O   UNL     1      58.640   7.039  82.023  1.00  0.00    -0.387 OA
ATOM     41  H   UNL     1      58.151   7.108  82.931  1.00  0.00     0.211 HD
ENDBRANCH  32  40
ENDBRANCH   1  27
TORSDOF 12
ENDMDL
MODEL 8
REMARK VINA RESULT:    -6.639      0.933      2.267
REMARK INTER + INTRA:         -11.498
REMARK INTER:                 -10.036
REMARK INTRA:                  -1.462
REMARK UNBOUND:                -1.753
REMARK SMILES O=c1c(O[C@H]2O[C@H](CO)[C@@H](O)[C@@H](O)[C@@H]2O)c(-c2ccc(O)c(O)c2)oc2cc(O)cc(O)c12
REMARK SMILES IDX 4 1 3 2 16 3 25 4 2 5 26 6 1 7 33 8 27 9 31 10 28 11 30 12
REMARK SMILES IDX 17 13 18 14 19 15 20 16 24 17 22 18 21 19 23 21 32 23 29 25
REMARK SMILES IDX 5 27 14 28 6 29 12 30 7 31 10 32 15 33 13 35 8 37 9 38 11 40
REMARK H PARENT 21 20 23 22 32 24 29 26 15 34 13 36 9 39 11 41
REMARK Flexibility Score: inf
ROOT
ATOM      1  O   UNL     1      54.594   4.064  78.953  1.00  0.00    -0.454 OA
ENDROOT
BRANCH   1   2
ATOM      2  C   UNL     1      55.465   5.142  78.701  1.00  0.00     0.214 A 
ATOM      3  C   UNL     1      55.068   6.373  78.099  1.00  0.00     0.180 A 
ATOM      4  O   UNL     1      55.662   7.492  78.480  1.00  0.00    -0.452 OA
ATOM      5  C   UNL     1      56.788   5.168  79.260  1.00  0.00     0.239 A 
ATOM      6  C   UNL     1      56.775   7.491  79.090  1.00  0.00     0.146 A 
ATOM      7  O   UNL     1      57.084   4.278  80.128  1.00  0.00    -0.285 OA
ATOM      8  C   UNL     1      57.571   6.330  79.096  1.00  0.00     0.111 A 
ATOM      9  C   UNL     1      57.026   8.503  80.061  1.00  0.00     0.094 A 
ATOM     10  C   UNL     1      58.876   6.662  79.493  1.00  0.00     0.134 A 
ATOM     11  C   UNL     1      57.872   8.208  81.083  1.00  0.00     0.123 A 
ATOM     12  C   UNL     1      58.949   7.297  80.770  1.00  0.00     0.093 A 
BRANCH   3  13
ATOM     13  C   UNL     1      53.848   6.752  77.315  1.00  0.00     0.025 A 
ATOM     14  C   UNL     1      53.962   7.504  76.127  1.00  0.00     0.016 A 
ATOM     15  C   UNL     1      53.074   8.530  75.836  1.00  0.00     0.051 A 
ATOM     16  C   UNL     1      52.299   9.053  76.839  1.00  0.00     0.157 A 
ATOM     17  C   UNL     1      52.681   7.013  78.109  1.00  0.00     0.062 A 
ATOM     18  C   UNL     1      52.005   8.254  77.968  1.00  0.00     0.158 A 
BRANCH  16  19
ATOM     19  O   UNL     1      51.724  10.333  76.680  1.00  0.00    -0.504 OA
ATOM     20  H   UNL     1      50.784  10.567  77.053  1.00  0.00     0.293 HD
ENDBRANCH  16  19
BRANCH  18  21
ATOM     21  O   UNL     1      51.054   8.595  78.959  1.00  0.00    -0.504 OA
ATOM     22  H   UNL     1      51.193   9.259  79.719  1.00  0.00     0.293 HD
ENDBRANCH  18  21
ENDBRANCH   3  13
BRANCH  10  23
ATOM     23  O   UNL     1      59.653   7.319  78.459  1.00  0.00    -0.507 OA
ATOM     24  H   UNL     1      60.129   8.203  78.708  1.00  0.00     0.293 HD
ENDBRANCH  10  23
BRANCH  11  25
ATOM     25  O   UNL     1      57.445   8.381  82.371  1.00  0.00    -0.508 OA
ATOM     26  H   UNL     1      57.804   9.255  82.856  1.00  0.00     0.293 HD
ENDBRANCH  11  25
ENDBRANCH   1   2
BRANCH   1  27
ATOM     27  C   UNL     1      53.560   4.088  80.008  1.00  0.00     0.339 C 
ATOM     28  C   UNL     1      51.960   3.940  79.700  1.00  0.00     0.214 C 
ATOM     29  O   UNL     1      53.846   5.211  80.903  1.00  0.00    -0.332 OA
ATOM     30  C   UNL     1      51.143   3.652  81.024  1.00  0.00     0.180 C 
ATOM     31  C   UNL     1      52.845   5.346  81.881  1.00  0.00     0.179 C 
ATOM     32  C   UNL     1      51.998   4.035  82.280  1.00  0.00     0.177 C 
BRANCH  28  33
ATOM     33  O   UNL     1      51.617   2.973  78.768  1.00  0.00    -0.384 OA
ATOM     34  H   UNL     1      51.212   2.171  79.192  1.00  0.00     0.211 HD
ENDBRANCH  28  33
BRANCH  30  35
ATOM     35  O   UNL     1      49.970   4.485  80.996  1.00  0.00    -0.387 OA
ATOM     36  H   UNL     1      50.181   5.140  80.275  1.00  0.00     0.211 HD
ENDBRANCH  30  35
BRANCH  31  37
ATOM     37  C   UNL     1      53.284   6.350  83.047  1.00  0.00     0.191 C 
BRANCH  37  38
ATOM     38  O   UNL     1      54.611   5.986  83.392  1.00  0.00    -0.394 OA
ATOM     39  H   UNL     1      55.046   5.978  82.483  1.00  0.00     0.210 HD
ENDBRANCH  37  38
ENDBRANCH  31  37
BRANCH  32  40
ATOM     40  O   UNL     1      51.212   4.263  83.452  1.00  0.00    -0.387 OA
ATOM     41  H   UNL     1      50.406   4.906  83.385  1.00  0.00     0.211 HD
ENDBRANCH  32  40
ENDBRANCH   1  27
TORSDOF 12
ENDMDL
MODEL 9
REMARK VINA RESULT:    -6.524      2.312      6.591
REMARK INTER + INTRA:         -11.329
REMARK INTER:                  -9.311
REMARK INTRA:                  -2.018
REMARK UNBOUND:                -1.753
REMARK SMILES O=c1c(O[C@H]2O[C@H](CO)[C@@H](O)[C@@H](O)[C@@H]2O)c(-c2ccc(O)c(O)c2)oc2cc(O)cc(O)c12
REMARK SMILES IDX 4 1 3 2 16 3 25 4 2 5 26 6 1 7 33 8 27 9 31 10 28 11 30 12
REMARK SMILES IDX 17 13 18 14 19 15 20 16 24 17 22 18 21 19 23 21 32 23 29 25
REMARK SMILES IDX 5 27 14 28 6 29 12 30 7 31 10 32 15 33 13 35 8 37 9 38 11 40
REMARK H PARENT 21 20 23 22 32 24 29 26 15 34 13 36 9 39 11 41
REMARK Flexibility Score: inf
ROOT
ATOM      1  O   UNL     1      55.959   4.963  78.880  1.00  0.00    -0.454 OA
ENDROOT
BRANCH   1   2
ATOM      2  C   UNL     1      55.864   4.428  80.179  1.00  0.00     0.214 A 
ATOM      3  C   UNL     1      56.717   4.794  81.263  1.00  0.00     0.180 A 
ATOM      4  O   UNL     1      56.219   4.818  82.489  1.00  0.00    -0.452 OA
ATOM      5  C   UNL     1      54.731   3.639  80.572  1.00  0.00     0.239 A 
ATOM      6  C   UNL     1      55.143   4.217  82.791  1.00  0.00     0.146 A 
ATOM      7  O   UNL     1      53.737   3.585  79.771  1.00  0.00    -0.285 OA
ATOM      8  C   UNL     1      54.614   3.244  81.922  1.00  0.00     0.111 A 
ATOM      9  C   UNL     1      54.295   4.787  83.783  1.00  0.00     0.094 A 
ATOM     10  C   UNL     1      53.663   2.473  82.609  1.00  0.00     0.134 A 
ATOM     11  C   UNL     1      52.962   4.530  83.706  1.00  0.00     0.123 A 
ATOM     12  C   UNL     1      52.597   3.237  83.174  1.00  0.00     0.093 A 
BRANCH   3  13
ATOM     13  C   UNL     1      58.039   5.500  81.298  1.00  0.00     0.025 A 
ATOM     14  C   UNL     1      58.234   6.621  82.131  1.00  0.00     0.016 A 
ATOM     15  C   UNL     1      58.938   7.733  81.691  1.00  0.00     0.051 A 
ATOM     16  C   UNL     1      59.152   7.904  80.347  1.00  0.00     0.157 A 
ATOM     17  C   UNL     1      58.740   5.525  80.045  1.00  0.00     0.062 A 
ATOM     18  C   UNL     1      59.152   6.771  79.502  1.00  0.00     0.158 A 
BRANCH  16  19
ATOM     19  O   UNL     1      59.473   9.187  79.851  1.00  0.00    -0.504 OA
ATOM     20  H   UNL     1      58.751   9.827  79.465  1.00  0.00     0.293 HD
ENDBRANCH  16  19
BRANCH  18  21
ATOM     21  O   UNL     1      59.567   6.787  78.148  1.00  0.00    -0.504 OA
ATOM     22  H   UNL     1      59.414   6.045  77.467  1.00  0.00     0.293 HD
ENDBRANCH  18  21
ENDBRANCH   3  13
BRANCH  10  23
ATOM     23  O   UNL     1      54.242   1.502  83.517  1.00  0.00    -0.507 OA
ATOM     24  H   UNL     1      54.082   0.500  83.312  1.00  0.00     0.293 HD
ENDBRANCH  10  23
BRANCH  11  25
ATOM     25  O   UNL     1      52.083   5.578  83.682  1.00  0.00    -0.508 OA
ATOM     26  H   UNL     1      51.962   6.092  84.602  1.00  0.00     0.293 HD
ENDBRANCH  11  25
ENDBRANCH   1   2
BRANCH   1  27
ATOM     27  C   UNL     1      55.304   6.225  78.473  1.00  0.00     0.339 C 
ATOM     28  C   UNL     1      54.009   6.280  77.474  1.00  0.00     0.214 C 
ATOM     29  O   UNL     1      56.347   7.173  78.076  1.00  0.00    -0.332 OA
ATOM     30  C   UNL     1      53.324   7.707  77.501  1.00  0.00     0.180 C 
ATOM     31  C   UNL     1      55.785   8.367  77.590  1.00  0.00     0.179 C 
ATOM     32  C   UNL     1      54.310   8.768  78.097  1.00  0.00     0.177 C 
BRANCH  28  33
ATOM     33  O   UNL     1      53.028   5.331  77.712  1.00  0.00    -0.384 OA
ATOM     34  H   UNL     1      53.275   4.438  77.352  1.00  0.00     0.211 HD
ENDBRANCH  28  33
BRANCH  30  35
ATOM     35  O   UNL     1      53.028   8.068  76.139  1.00  0.00    -0.387 OA
ATOM     36  H   UNL     1      52.302   7.430  75.894  1.00  0.00     0.211 HD
ENDBRANCH  30  35
BRANCH  31  37
ATOM     37  C   UNL     1      56.881   9.524  77.447  1.00  0.00     0.191 C 
BRANCH  37  38
ATOM     38  O   UNL     1      58.084   8.875  77.072  1.00  0.00    -0.394 OA
ATOM     39  H   UNL     1      57.912   8.711  76.093  1.00  0.00     0.210 HD
ENDBRANCH  37  38
ENDBRANCH  31  37
BRANCH  32  40
ATOM     40  O   UNL     1      53.985  10.112  77.732  1.00  0.00    -0.387 OA
ATOM     41  H   UNL     1      53.800  10.318  76.736  1.00  0.00     0.211 HD
ENDBRANCH  32  40
ENDBRANCH   1  27
TORSDOF 12
ENDMDL
