MODEL 1
REMARK VINA RESULT:    -5.214      0.000      0.000
REMARK INTER + INTRA:          -9.124
REMARK INTER:                  -8.567
REMARK INTRA:                  -0.557
REMARK UNBOUND:                -0.557
REMARK SMILES C[C@@H]1O[C@H](OC[C@H]2O[C@H](Oc3c(-c4ccc(O)c(O)c4)oc4cc(O)cc(O)c4c3=O)[C@@H](O)[C@H](O)[C@@H]2O)[C@H](O)[C@@H](O)[C@H]1O
REMARK SMILES IDX 7 1 36 2 34 3 32 4 9 5 8 6 6 7 5 8 4 9 1 10 2 11 42 12 3 13
REMARK SMILES IDX 40 14 38 15 43 16 41 18 39 20 37 22 35 24 10 26 11 27 12 28
REMARK SMILES IDX 30 29 21 30 29 31 31 32 22 33 27 34 23 35 26 36 24 37 13 38
REMARK SMILES IDX 20 39 14 40 18 41 15 42 16 43 19 44 17 46 28 48 25 50 33 52
REMARK H PARENT 43 17 41 19 39 21 37 23 35 25 19 45 17 47 28 49 25 51 33 53
REMARK Flexibility Score: inf
ROOT
ATOM      1  C   UNL     1      -5.968   6.836   6.651  1.00  0.00     0.180 C 
ATOM      2  C   UNL     1      -6.821   8.094   6.997  1.00  0.00     0.177 C 
ATOM      3  C   UNL     1      -6.827   8.361   8.523  1.00  0.00     0.180 C 
ATOM      4  C   UNL     1      -5.368   8.409   9.011  1.00  0.00     0.214 C 
ATOM      5  C   UNL     1      -4.605   7.101   8.672  1.00  0.00     0.339 C 
ATOM      6  O   UNL     1      -4.676   6.759   7.272  1.00  0.00    -0.332 OA
ENDROOT
BRANCH   1   7
ATOM      7  C   UNL     1      -5.717   6.822   5.118  1.00  0.00     0.198 C 
BRANCH   7   8
ATOM      8  O   UNL     1      -5.794   8.153   4.629  1.00  0.00    -0.347 OA
BRANCH   8   9
ATOM      9  C   UNL     1      -4.542   8.860   4.703  1.00  0.00     0.281 C 
ATOM     10  C   UNL     1      -2.314   6.364   4.518  1.00  0.00     0.041 C 
ATOM     11  C   UNL     1      -2.338   7.831   5.021  1.00  0.00     0.150 C 
ATOM     12  C   UNL     1      -1.761   8.788   3.999  1.00  0.00     0.174 C 
ATOM     13  O   UNL     1      -3.604   8.182   5.569  1.00  0.00    -0.344 OA
ATOM     14  C   UNL     1      -2.764   9.005   2.862  1.00  0.00     0.179 C 
ATOM     15  C   UNL     1      -4.054   9.596   3.402  1.00  0.00     0.202 C 
BRANCH  12  16
ATOM     16  O   UNL     1      -1.427  10.032   4.624  1.00  0.00    -0.388 OA
ATOM     17  H   UNL     1      -0.503  10.267   4.326  1.00  0.00     0.211 HD
ENDBRANCH  12  16
BRANCH  14  18
ATOM     18  O   UNL     1      -2.214   9.855   1.898  1.00  0.00    -0.387 OA
ATOM     19  H   UNL     1      -1.964  10.686   2.335  1.00  0.00     0.211 HD
ENDBRANCH  14  18
BRANCH  15  20
ATOM     20  O   UNL     1      -5.018   9.478   2.405  1.00  0.00    -0.385 OA
ATOM     21  H   UNL     1      -5.885   9.772   2.765  1.00  0.00     0.211 HD
ENDBRANCH  15  20
ENDBRANCH   8   9
ENDBRANCH   7   8
ENDBRANCH   1   7
BRANCH   2  22
ATOM     22  O   UNL     1      -8.156   7.879   6.602  1.00  0.00    -0.387 OA
ATOM     23  H   UNL     1      -8.582   8.759   6.507  1.00  0.00     0.211 HD
ENDBRANCH   2  22
BRANCH   3  24
ATOM     24  O   UNL     1      -7.570   7.384   9.155  1.00  0.00    -0.387 OA
ATOM     25  H   UNL     1      -7.277   7.333  10.102  1.00  0.00     0.211 HD
ENDBRANCH   3  24
BRANCH   5  26
ATOM     26  O   UNL     1      -5.095   6.094   9.568  1.00  0.00    -0.454 OA
BRANCH  26  27
ATOM     27  C   UNL     1      -5.005   4.684   9.648  1.00  0.00     0.214 A 
ATOM     28  C   UNL     1      -3.707   4.130   9.655  1.00  0.00     0.180 A 
ATOM     29  C   UNL     1      -6.116   3.758   9.634  1.00  0.00     0.239 A 
ATOM     30  O   UNL     1      -3.512   2.844   9.849  1.00  0.00    -0.452 OA
ATOM     31  C   UNL     1      -5.849   2.392   9.785  1.00  0.00     0.111 A 
ATOM     32  O   UNL     1      -7.273   4.149   9.330  1.00  0.00    -0.285 OA
ATOM     33  C   UNL     1      -4.503   1.991   9.921  1.00  0.00     0.146 A 
ATOM     34  C   UNL     1      -6.799   1.374   9.663  1.00  0.00     0.134 A 
ATOM     35  C   UNL     1      -4.168   0.645  10.056  1.00  0.00     0.094 A 
ATOM     36  C   UNL     1      -6.388   0.073   9.366  1.00  0.00     0.093 A 
ATOM     37  C   UNL     1      -5.094  -0.341   9.712  1.00  0.00     0.123 A 
BRANCH  28  38
ATOM     38  C   UNL     1      -2.524   4.945   9.289  1.00  0.00     0.025 A 
ATOM     39  C   UNL     1      -1.813   4.694   8.097  1.00  0.00     0.062 A 
ATOM     40  C   UNL     1      -2.066   5.954  10.122  1.00  0.00     0.016 A 
ATOM     41  C   UNL     1      -0.702   5.442   7.760  1.00  0.00     0.158 A 
ATOM     42  C   UNL     1      -0.992   6.783   9.765  1.00  0.00     0.051 A 
ATOM     43  C   UNL     1      -0.275   6.508   8.597  1.00  0.00     0.157 A 
BRANCH  41  44
ATOM     44  O   UNL     1      -0.021   5.119   6.587  1.00  0.00    -0.504 OA
ATOM     45  H   UNL     1      -0.200   4.264   6.058  1.00  0.00     0.293 HD
ENDBRANCH  41  44
BRANCH  43  46
ATOM     46  O   UNL     1       0.831   7.320   8.338  1.00  0.00    -0.504 OA
ATOM     47  H   UNL     1       1.697   7.231   8.814  1.00  0.00     0.293 HD
ENDBRANCH  43  46
ENDBRANCH  28  38
BRANCH  34  48
ATOM     48  O   UNL     1      -8.104   1.596  10.105  1.00  0.00    -0.507 OA
ATOM     49  H   UNL     1      -8.762   0.794  10.211  1.00  0.00     0.293 HD
ENDBRANCH  34  48
BRANCH  37  50
ATOM     50  O   UNL     1      -4.716  -1.678   9.572  1.00  0.00    -0.508 OA
ATOM     51  H   UNL     1      -5.337  -2.432   9.824  1.00  0.00     0.293 HD
ENDBRANCH  37  50
ENDBRANCH  26  27
ENDBRANCH   5  26
BRANCH   4  52
ATOM     52  O   UNL     1      -4.694   9.493   8.449  1.00  0.00    -0.384 OA
ATOM     53  H   UNL     1      -4.550  10.156   9.207  1.00  0.00     0.211 HD
ENDBRANCH   4  52
TORSDOF 16
ENDMDL
MODEL 2
REMARK VINA RESULT:    -3.815      1.929      5.300
REMARK INTER + INTRA:          -6.825
REMARK INTER:                  -8.597
REMARK INTRA:                   1.772
REMARK UNBOUND:                -0.557
REMARK SMILES C[C@@H]1O[C@H](OC[C@H]2O[C@H](Oc3c(-c4ccc(O)c(O)c4)oc4cc(O)cc(O)c4c3=O)[C@@H](O)[C@H](O)[C@@H]2O)[C@H](O)[C@@H](O)[C@H]1O
REMARK SMILES IDX 7 1 36 2 34 3 32 4 9 5 8 6 6 7 5 8 4 9 1 10 2 11 42 12 3 13
REMARK SMILES IDX 40 14 38 15 43 16 41 18 39 20 37 22 35 24 10 26 11 27 12 28
REMARK SMILES IDX 30 29 21 30 29 31 31 32 22 33 27 34 23 35 26 36 24 37 13 38
REMARK SMILES IDX 20 39 14 40 18 41 15 42 16 43 19 44 17 46 28 48 25 50 33 52
REMARK H PARENT 43 17 41 19 39 21 37 23 35 25 19 45 17 47 28 49 25 51 33 53
REMARK Flexibility Score: inf
ROOT
ATOM      1  C   UNL     1      -4.251   6.345   5.261  1.00  0.00     0.180 C 
ATOM      2  C   UNL     1      -5.741   5.966   5.006  1.00  0.00     0.177 C 
ATOM      3  C   UNL     1      -6.483   5.696   6.339  1.00  0.00     0.180 C 
ATOM      4  C   UNL     1      -6.267   6.905   7.267  1.00  0.00     0.214 C 
ATOM      5  C   UNL     1      -4.759   7.182   7.508  1.00  0.00     0.339 C 
ATOM      6  O   UNL     1      -4.013   7.325   6.281  1.00  0.00    -0.332 OA
ENDROOT
BRANCH   1   7
ATOM      7  C   UNL     1      -3.665   6.931   3.947  1.00  0.00     0.198 C 
BRANCH   7   8
ATOM      8  O   UNL     1      -3.445   8.323   4.123  1.00  0.00    -0.347 OA
BRANCH   8   9
ATOM      9  C   UNL     1      -2.050   8.681   4.137  1.00  0.00     0.281 C 
ATOM     10  C   UNL     1      -1.724  10.116   7.148  1.00  0.00     0.041 C 
ATOM     11  C   UNL     1      -0.963  10.125   5.795  1.00  0.00     0.150 C 
ATOM     12  C   UNL     1       0.226   9.187   5.811  1.00  0.00     0.174 C 
ATOM     13  O   UNL     1      -1.850  10.001   4.689  1.00  0.00    -0.344 OA
ATOM     14  C   UNL     1      -0.252   7.735   5.702  1.00  0.00     0.179 C 
ATOM     15  C   UNL     1      -1.015   7.527   4.406  1.00  0.00     0.202 C 
BRANCH  12  16
ATOM     16  O   UNL     1       1.118   9.507   4.738  1.00  0.00    -0.388 OA
ATOM     17  H   UNL     1       2.047   9.401   5.092  1.00  0.00     0.211 HD
ENDBRANCH  12  16
BRANCH  14  18
ATOM     18  O   UNL     1       0.843   6.868   5.758  1.00  0.00    -0.387 OA
ATOM     19  H   UNL     1       0.583   6.026   5.351  1.00  0.00     0.211 HD
ENDBRANCH  14  18
BRANCH  15  20
ATOM     20  O   UNL     1      -1.683   6.309   4.505  1.00  0.00    -0.385 OA
ATOM     21  H   UNL     1      -2.237   6.317   5.318  1.00  0.00     0.211 HD
ENDBRANCH  15  20
ENDBRANCH   8   9
ENDBRANCH   7   8
ENDBRANCH   1   7
BRANCH   2  22
ATOM     22  O   UNL     1      -5.802   4.784   4.243  1.00  0.00    -0.387 OA
ATOM     23  H   UNL     1      -5.832   5.044   3.296  1.00  0.00     0.211 HD
ENDBRANCH   2  22
BRANCH   3  24
ATOM     24  O   UNL     1      -6.024   4.514   6.886  1.00  0.00    -0.387 OA
ATOM     25  H   UNL     1      -6.675   3.796   6.670  1.00  0.00     0.211 HD
ENDBRANCH   3  24
BRANCH   5  26
ATOM     26  O   UNL     1      -4.286   6.153   8.388  1.00  0.00    -0.454 OA
BRANCH  26  27
ATOM     27  C   UNL     1      -3.042   5.522   8.628  1.00  0.00     0.214 A 
ATOM     28  C   UNL     1      -3.075   4.137   8.900  1.00  0.00     0.180 A 
ATOM     29  C   UNL     1      -1.756   6.178   8.708  1.00  0.00     0.239 A 
ATOM     30  O   UNL     1      -1.969   3.436   9.016  1.00  0.00    -0.452 OA
ATOM     31  C   UNL     1      -0.614   5.390   8.891  1.00  0.00     0.111 A 
ATOM     32  O   UNL     1      -1.679   7.433   8.776  1.00  0.00    -0.285 OA
ATOM     33  C   UNL     1      -0.784   3.994   9.011  1.00  0.00     0.146 A 
ATOM     34  C   UNL     1       0.672   5.887   9.116  1.00  0.00     0.134 A 
ATOM     35  C   UNL     1       0.309   3.155   9.213  1.00  0.00     0.094 A 
ATOM     36  C   UNL     1       1.630   5.082   9.736  1.00  0.00     0.093 A 
ATOM     37  C   UNL     1       1.524   3.687   9.648  1.00  0.00     0.123 A 
BRANCH  28  38
ATOM     38  C   UNL     1      -4.348   3.449   9.220  1.00  0.00     0.025 A 
ATOM     39  C   UNL     1      -5.523   4.186   9.479  1.00  0.00     0.062 A 
ATOM     40  C   UNL     1      -4.413   2.067   9.305  1.00  0.00     0.016 A 
ATOM     41  C   UNL     1      -6.709   3.548   9.790  1.00  0.00     0.158 A 
ATOM     42  C   UNL     1      -5.620   1.391   9.538  1.00  0.00     0.051 A 
ATOM     43  C   UNL     1      -6.773   2.129   9.822  1.00  0.00     0.157 A 
BRANCH  41  44
ATOM     44  O   UNL     1      -7.824   4.335  10.073  1.00  0.00    -0.504 OA
ATOM     45  H   UNL     1      -7.772   5.345  10.214  1.00  0.00     0.293 HD
ENDBRANCH  41  44
BRANCH  43  46
ATOM     46  O   UNL     1      -7.922   1.398  10.123  1.00  0.00    -0.504 OA
ATOM     47  H   UNL     1      -8.014   0.426   9.945  1.00  0.00     0.293 HD
ENDBRANCH  43  46
ENDBRANCH  28  38
BRANCH  34  48
ATOM     48  O   UNL     1       1.075   7.064   8.480  1.00  0.00    -0.507 OA
ATOM     49  H   UNL     1       0.977   7.157   7.446  1.00  0.00     0.293 HD
ENDBRANCH  34  48
BRANCH  37  50
ATOM     50  O   UNL     1       2.550   2.867  10.121  1.00  0.00    -0.508 OA
ATOM     51  H   UNL     1       2.445   2.319  10.962  1.00  0.00     0.293 HD
ENDBRANCH  37  50
ENDBRANCH  26  27
ENDBRANCH   5  26
BRANCH   4  52
ATOM     52  O   UNL     1      -6.865   8.047   6.737  1.00  0.00    -0.384 OA
ATOM     53  H   UNL     1      -6.860   8.737   7.484  1.00  0.00     0.211 HD
ENDBRANCH   4  52
TORSDOF 16
ENDMDL
MODEL 3
REMARK VINA RESULT:    -3.751      2.038      5.951
REMARK INTER + INTRA:          -6.720
REMARK INTER:                  -4.517
REMARK INTRA:                  -2.203
REMARK UNBOUND:                -0.557
REMARK SMILES C[C@@H]1O[C@H](OC[C@H]2O[C@H](Oc3c(-c4ccc(O)c(O)c4)oc4cc(O)cc(O)c4c3=O)[C@@H](O)[C@H](O)[C@@H]2O)[C@H](O)[C@@H](O)[C@H]1O
REMARK SMILES IDX 7 1 36 2 34 3 32 4 9 5 8 6 6 7 5 8 4 9 1 10 2 11 42 12 3 13
REMARK SMILES IDX 40 14 38 15 43 16 41 18 39 20 37 22 35 24 10 26 11 27 12 28
REMARK SMILES IDX 30 29 21 30 29 31 31 32 22 33 27 34 23 35 26 36 24 37 13 38
REMARK SMILES IDX 20 39 14 40 18 41 15 42 16 43 19 44 17 46 28 48 25 50 33 52
REMARK H PARENT 43 17 41 19 39 21 37 23 35 25 19 45 17 47 28 49 25 51 33 53
REMARK Flexibility Score: inf
ROOT
ATOM      1  C   UNL     1      -5.823   4.412   7.494  1.00  0.00     0.180 C 
ATOM      2  C   UNL     1      -6.347   3.101   8.154  1.00  0.00     0.177 C 
ATOM      3  C   UNL     1      -6.306   3.201   9.700  1.00  0.00     0.180 C 
ATOM      4  C   UNL     1      -7.044   4.484  10.122  1.00  0.00     0.214 C 
ATOM      5  C   UNL     1      -6.428   5.746   9.459  1.00  0.00     0.339 C 
ATOM      6  O   UNL     1      -6.345   5.639   8.023  1.00  0.00    -0.332 OA
ENDROOT
BRANCH   1   7
ATOM      7  C   UNL     1      -6.205   4.387   5.988  1.00  0.00     0.198 C 
BRANCH   7   8
ATOM      8  O   UNL     1      -5.056   4.703   5.217  1.00  0.00    -0.347 OA
BRANCH   8   9
ATOM      9  C   UNL     1      -4.462   5.965   5.572  1.00  0.00     0.281 C 
ATOM     10  C   UNL     1      -1.187   5.295   5.336  1.00  0.00     0.041 C 
ATOM     11  C   UNL     1      -2.085   6.345   6.043  1.00  0.00     0.150 C 
ATOM     12  C   UNL     1      -2.154   7.643   5.266  1.00  0.00     0.174 C 
ATOM     13  O   UNL     1      -3.329   5.788   6.452  1.00  0.00    -0.344 OA
ATOM     14  C   UNL     1      -3.061   7.472   4.043  1.00  0.00     0.179 C 
ATOM     15  C   UNL     1      -4.466   7.094   4.476  1.00  0.00     0.202 C 
BRANCH  12  16
ATOM     16  O   UNL     1      -2.634   8.695   6.109  1.00  0.00    -0.388 OA
ATOM     17  H   UNL     1      -3.597   8.500   6.295  1.00  0.00     0.211 HD
ENDBRANCH  12  16
BRANCH  14  18
ATOM     18  O   UNL     1      -3.090   8.658   3.303  1.00  0.00    -0.387 OA
ATOM     19  H   UNL     1      -2.968   8.434   2.367  1.00  0.00     0.211 HD
ENDBRANCH  14  18
BRANCH  15  20
ATOM     20  O   UNL     1      -5.147   6.651   3.346  1.00  0.00    -0.385 OA
ATOM     21  H   UNL     1      -4.539   6.095   2.808  1.00  0.00     0.211 HD
ENDBRANCH  15  20
ENDBRANCH   8   9
ENDBRANCH   7   8
ENDBRANCH   1   7
BRANCH   2  22
ATOM     22  O   UNL     1      -5.521   2.023   7.780  1.00  0.00    -0.387 OA
ATOM     23  H   UNL     1      -5.984   1.529   7.069  1.00  0.00     0.211 HD
ENDBRANCH   2  22
BRANCH   3  24
ATOM     24  O   UNL     1      -4.992   3.177  10.125  1.00  0.00    -0.387 OA
ATOM     25  H   UNL     1      -4.602   2.296   9.884  1.00  0.00     0.211 HD
ENDBRANCH   3  24
BRANCH   5  26
ATOM     26  O   UNL     1      -5.181   5.992  10.122  1.00  0.00    -0.454 OA
BRANCH  26  27
ATOM     27  C   UNL     1      -3.990   6.688   9.807  1.00  0.00     0.214 A 
ATOM     28  C   UNL     1      -4.132   8.025   9.375  1.00  0.00     0.180 A 
ATOM     29  C   UNL     1      -2.655   6.133   9.800  1.00  0.00     0.239 A 
ATOM     30  O   UNL     1      -3.084   8.794   9.175  1.00  0.00    -0.452 OA
ATOM     31  C   UNL     1      -1.578   6.983   9.522  1.00  0.00     0.111 A 
ATOM     32  O   UNL     1      -2.478   4.888   9.878  1.00  0.00    -0.285 OA
ATOM     33  C   UNL     1      -1.859   8.337   9.241  1.00  0.00     0.146 A 
ATOM     34  C   UNL     1      -0.255   6.568   9.354  1.00  0.00     0.134 A 
ATOM     35  C   UNL     1      -0.835   9.232   8.939  1.00  0.00     0.094 A 
ATOM     36  C   UNL     1       0.639   7.369   8.641  1.00  0.00     0.093 A 
ATOM     37  C   UNL     1       0.422   8.752   8.566  1.00  0.00     0.123 A 
BRANCH  28  38
ATOM     38  C   UNL     1      -5.454   8.567   8.980  1.00  0.00     0.025 A 
ATOM     39  C   UNL     1      -5.824   8.652   7.622  1.00  0.00     0.062 A 
ATOM     40  C   UNL     1      -6.349   9.033   9.931  1.00  0.00     0.016 A 
ATOM     41  C   UNL     1      -7.050   9.169   7.250  1.00  0.00     0.158 A 
ATOM     42  C   UNL     1      -7.631   9.485   9.587  1.00  0.00     0.051 A 
ATOM     43  C   UNL     1      -7.979   9.594   8.238  1.00  0.00     0.157 A 
BRANCH  41  44
ATOM     44  O   UNL     1      -7.339   9.261   5.889  1.00  0.00    -0.504 OA
ATOM     45  H   UNL     1      -7.949   9.980   5.497  1.00  0.00     0.293 HD
ENDBRANCH  41  44
BRANCH  43  46
ATOM     46  O   UNL     1      -9.239  10.125   7.959  1.00  0.00    -0.504 OA
ATOM     47  H   UNL     1      -9.410  10.769   7.223  1.00  0.00     0.293 HD
ENDBRANCH  43  46
ENDBRANCH  28  38
BRANCH  34  48
ATOM     48  O   UNL     1       0.236   5.509  10.121  1.00  0.00    -0.507 OA
ATOM     49  H   UNL     1       0.716   5.701  11.027  1.00  0.00     0.293 HD
ENDBRANCH  34  48
BRANCH  37  50
ATOM     50  O   UNL     1       1.382   9.591   7.997  1.00  0.00    -0.508 OA
ATOM     51  H   UNL     1       1.277   9.959   7.064  1.00  0.00     0.293 HD
ENDBRANCH  37  50
ENDBRANCH  26  27
ENDBRANCH   5  26
BRANCH   4  52
ATOM     52  O   UNL     1      -8.397   4.406   9.793  1.00  0.00    -0.384 OA
ATOM     53  H   UNL     1      -8.901   4.776  10.594  1.00  0.00     0.211 HD
ENDBRANCH   4  52
TORSDOF 16
ENDMDL
MODEL 4
REMARK VINA RESULT:    -3.527      1.857      5.608
REMARK INTER + INTRA:          -6.353
REMARK INTER:                  -7.275
REMARK INTRA:                   0.922
REMARK UNBOUND:                -0.557
REMARK SMILES C[C@@H]1O[C@H](OC[C@H]2O[C@H](Oc3c(-c4ccc(O)c(O)c4)oc4cc(O)cc(O)c4c3=O)[C@@H](O)[C@H](O)[C@@H]2O)[C@H](O)[C@@H](O)[C@H]1O
REMARK SMILES IDX 7 1 36 2 34 3 32 4 9 5 8 6 6 7 5 8 4 9 1 10 2 11 42 12 3 13
REMARK SMILES IDX 40 14 38 15 43 16 41 18 39 20 37 22 35 24 10 26 11 27 12 28
REMARK SMILES IDX 30 29 21 30 29 31 31 32 22 33 27 34 23 35 26 36 24 37 13 38
REMARK SMILES IDX 20 39 14 40 18 41 15 42 16 43 19 44 17 46 28 48 25 50 33 52
REMARK H PARENT 43 17 41 19 39 21 37 23 35 25 19 45 17 47 28 49 25 51 33 53
REMARK Flexibility Score: inf
ROOT
ATOM      1  C   UNL     1      -2.564   6.849   6.163  1.00  0.00     0.180 C 
ATOM      2  C   UNL     1      -3.081   8.024   5.278  1.00  0.00     0.177 C 
ATOM      3  C   UNL     1      -4.191   8.823   6.006  1.00  0.00     0.180 C 
ATOM      4  C   UNL     1      -3.661   9.235   7.391  1.00  0.00     0.214 C 
ATOM      5  C   UNL     1      -3.215   8.004   8.225  1.00  0.00     0.339 C 
ATOM      6  O   UNL     1      -2.264   7.172   7.529  1.00  0.00    -0.332 OA
ENDROOT
BRANCH   1   7
ATOM      7  C   UNL     1      -1.245   6.313   5.540  1.00  0.00     0.198 C 
BRANCH   7   8
ATOM      8  O   UNL     1      -0.153   7.042   6.081  1.00  0.00    -0.347 OA
BRANCH   8   9
ATOM      9  C   UNL     1       0.858   6.202   6.666  1.00  0.00     0.281 C 
ATOM     10  C   UNL     1      -0.150   6.002   9.855  1.00  0.00     0.041 C 
ATOM     11  C   UNL     1       1.170   5.799   9.065  1.00  0.00     0.150 C 
ATOM     12  C   UNL     1       1.432   4.337   8.771  1.00  0.00     0.174 C 
ATOM     13  O   UNL     1       1.269   6.692   7.961  1.00  0.00    -0.344 OA
ATOM     14  C   UNL     1       0.510   3.857   7.644  1.00  0.00     0.179 C 
ATOM     15  C   UNL     1       0.763   4.658   6.379  1.00  0.00     0.202 C 
BRANCH  12  16
ATOM     16  O   UNL     1       2.805   4.145   8.416  1.00  0.00    -0.388 OA
ATOM     17  H   UNL     1       3.085   4.952   7.897  1.00  0.00     0.211 HD
ENDBRANCH  12  16
BRANCH  14  18
ATOM     18  O   UNL     1       0.723   2.497   7.402  1.00  0.00    -0.387 OA
ATOM     19  H   UNL     1       1.628   2.388   7.068  1.00  0.00     0.211 HD
ENDBRANCH  14  18
BRANCH  15  20
ATOM     20  O   UNL     1      -0.292   4.405   5.507  1.00  0.00    -0.385 OA
ATOM     21  H   UNL     1      -0.614   3.488   5.657  1.00  0.00     0.211 HD
ENDBRANCH  15  20
ENDBRANCH   8   9
ENDBRANCH   7   8
ENDBRANCH   1   7
BRANCH   2  22
ATOM     22  O   UNL     1      -3.643   7.508   4.093  1.00  0.00    -0.387 OA
ATOM     23  H   UNL     1      -4.275   8.177   3.750  1.00  0.00     0.211 HD
ENDBRANCH   2  22
BRANCH   3  24
ATOM     24  O   UNL     1      -5.335   8.054   6.079  1.00  0.00    -0.387 OA
ATOM     25  H   UNL     1      -5.357   7.451   5.291  1.00  0.00     0.211 HD
ENDBRANCH   3  24
BRANCH   5  26
ATOM     26  O   UNL     1      -4.411   7.336   8.647  1.00  0.00    -0.454 OA
BRANCH  26  27
ATOM     27  C   UNL     1      -4.807   5.989   8.822  1.00  0.00     0.214 A 
ATOM     28  C   UNL     1      -6.192   5.722   8.766  1.00  0.00     0.180 A 
ATOM     29  C   UNL     1      -3.936   4.879   9.140  1.00  0.00     0.239 A 
ATOM     30  O   UNL     1      -6.654   4.491   8.794  1.00  0.00    -0.452 OA
ATOM     31  C   UNL     1      -4.489   3.596   9.217  1.00  0.00     0.111 A 
ATOM     32  O   UNL     1      -2.746   5.081   9.501  1.00  0.00    -0.285 OA
ATOM     33  C   UNL     1      -5.876   3.458   9.001  1.00  0.00     0.146 A 
ATOM     34  C   UNL     1      -3.803   2.454   9.639  1.00  0.00     0.134 A 
ATOM     35  C   UNL     1      -6.493   2.211   9.081  1.00  0.00     0.094 A 
ATOM     36  C   UNL     1      -4.515   1.355  10.124  1.00  0.00     0.093 A 
ATOM     37  C   UNL     1      -5.839   1.151   9.711  1.00  0.00     0.123 A 
BRANCH  28  38
ATOM     38  C   UNL     1      -7.187   6.819   8.829  1.00  0.00     0.025 A 
ATOM     39  C   UNL     1      -7.541   7.542   7.671  1.00  0.00     0.062 A 
ATOM     40  C   UNL     1      -7.772   7.185  10.032  1.00  0.00     0.016 A 
ATOM     41  C   UNL     1      -8.458   8.574   7.729  1.00  0.00     0.158 A 
ATOM     42  C   UNL     1      -8.766   8.172  10.105  1.00  0.00     0.051 A 
ATOM     43  C   UNL     1      -9.090   8.904   8.959  1.00  0.00     0.157 A 
BRANCH  41  44
ATOM     44  O   UNL     1      -8.736   9.274   6.556  1.00  0.00    -0.504 OA
ATOM     45  H   UNL     1      -9.484   9.965   6.484  1.00  0.00     0.293 HD
ENDBRANCH  41  44
BRANCH  43  46
ATOM     46  O   UNL     1     -10.028   9.924   9.114  1.00  0.00    -0.504 OA
ATOM     47  H   UNL     1     -10.802  10.053   8.506  1.00  0.00     0.293 HD
ENDBRANCH  43  46
ENDBRANCH  28  38
BRANCH  34  48
ATOM     48  O   UNL     1      -2.451   2.308   9.321  1.00  0.00    -0.507 OA
ATOM     49  H   UNL     1      -1.755   2.126  10.076  1.00  0.00     0.293 HD
ENDBRANCH  34  48
BRANCH  37  50
ATOM     50  O   UNL     1      -6.516  -0.022  10.053  1.00  0.00    -0.508 OA
ATOM     51  H   UNL     1      -7.513  -0.031  10.204  1.00  0.00     0.293 HD
ENDBRANCH  37  50
ENDBRANCH  26  27
ENDBRANCH   5  26
BRANCH   4  52
ATOM     52  O   UNL     1      -2.590  10.119   7.267  1.00  0.00    -0.384 OA
ATOM     53  H   UNL     1      -1.929   9.671   6.637  1.00  0.00     0.211 HD
ENDBRANCH   4  52
TORSDOF 16
ENDMDL
MODEL 5
REMARK VINA RESULT:    -3.496      1.504      2.426
REMARK INTER + INTRA:          -6.302
REMARK INTER:                  -8.390
REMARK INTRA:                   2.088
REMARK UNBOUND:                -0.557
REMARK SMILES C[C@@H]1O[C@H](OC[C@H]2O[C@H](Oc3c(-c4ccc(O)c(O)c4)oc4cc(O)cc(O)c4c3=O)[C@@H](O)[C@H](O)[C@@H]2O)[C@H](O)[C@@H](O)[C@H]1O
REMARK SMILES IDX 7 1 36 2 34 3 32 4 9 5 8 6 6 7 5 8 4 9 1 10 2 11 42 12 3 13
REMARK SMILES IDX 40 14 38 15 43 16 41 18 39 20 37 22 35 24 10 26 11 27 12 28
REMARK SMILES IDX 30 29 21 30 29 31 31 32 22 33 27 34 23 35 26 36 24 37 13 38
REMARK SMILES IDX 20 39 14 40 18 41 15 42 16 43 19 44 17 46 28 48 25 50 33 52
REMARK H PARENT 43 17 41 19 39 21 37 23 35 25 19 45 17 47 28 49 25 51 33 53
REMARK Flexibility Score: inf
ROOT
ATOM      1  C   UNL     1      -4.896   6.180   7.125  1.00  0.00     0.180 C 
ATOM      2  C   UNL     1      -5.821   7.411   7.361  1.00  0.00     0.177 C 
ATOM      3  C   UNL     1      -5.967   7.717   8.873  1.00  0.00     0.180 C 
ATOM      4  C   UNL     1      -4.558   7.834   9.481  1.00  0.00     0.214 C 
ATOM      5  C   UNL     1      -3.721   6.548   9.245  1.00  0.00     0.339 C 
ATOM      6  O   UNL     1      -3.660   6.168   7.854  1.00  0.00    -0.332 OA
ENDROOT
BRANCH   1   7
ATOM      7  C   UNL     1      -4.515   6.137   5.619  1.00  0.00     0.198 C 
BRANCH   7   8
ATOM      8  O   UNL     1      -4.017   7.410   5.235  1.00  0.00    -0.347 OA
BRANCH   8   9
ATOM      9  C   UNL     1      -2.628   7.388   4.858  1.00  0.00     0.281 C 
ATOM     10  C   UNL     1      -1.139   8.650   7.582  1.00  0.00     0.041 C 
ATOM     11  C   UNL     1      -0.799   8.474   6.078  1.00  0.00     0.150 C 
ATOM     12  C   UNL     1       0.067   7.256   5.835  1.00  0.00     0.174 C 
ATOM     13  O   UNL     1      -1.953   8.602   5.256  1.00  0.00    -0.344 OA
ATOM     14  C   UNL     1      -0.778   5.983   5.945  1.00  0.00     0.179 C 
ATOM     15  C   UNL     1      -1.892   5.999   4.912  1.00  0.00     0.202 C 
BRANCH  12  16
ATOM     16  O   UNL     1       0.686   7.342   4.547  1.00  0.00    -0.388 OA
ATOM     17  H   UNL     1       1.433   8.001   4.627  1.00  0.00     0.211 HD
ENDBRANCH  12  16
BRANCH  14  18
ATOM     18  O   UNL     1       0.030   4.858   5.761  1.00  0.00    -0.387 OA
ATOM     19  H   UNL     1       0.416   4.904   4.872  1.00  0.00     0.211 HD
ENDBRANCH  14  18
BRANCH  15  20
ATOM     20  O   UNL     1      -2.797   4.999   5.258  1.00  0.00    -0.385 OA
ATOM     21  H   UNL     1      -3.411   5.351   5.942  1.00  0.00     0.211 HD
ENDBRANCH  15  20
ENDBRANCH   8   9
ENDBRANCH   7   8
ENDBRANCH   1   7
BRANCH   2  22
ATOM     22  O   UNL     1      -7.109   7.135   6.861  1.00  0.00    -0.387 OA
ATOM     23  H   UNL     1      -7.515   7.990   6.602  1.00  0.00     0.211 HD
ENDBRANCH   2  22
BRANCH   3  24
ATOM     24  O   UNL     1      -6.725   6.728   9.468  1.00  0.00    -0.387 OA
ATOM     25  H   UNL     1      -7.618   6.717   9.035  1.00  0.00     0.211 HD
ENDBRANCH   3  24
BRANCH   5  26
ATOM     26  O   UNL     1      -4.248   5.546  10.124  1.00  0.00    -0.454 OA
BRANCH  26  27
ATOM     27  C   UNL     1      -4.428   4.143  10.065  1.00  0.00     0.214 A 
ATOM     28  C   UNL     1      -3.258   3.354  10.054  1.00  0.00     0.180 A 
ATOM     29  C   UNL     1      -5.690   3.452   9.925  1.00  0.00     0.239 A 
ATOM     30  O   UNL     1      -3.317   2.042  10.123  1.00  0.00    -0.452 OA
ATOM     31  C   UNL     1      -5.691   2.052   9.945  1.00  0.00     0.111 A 
ATOM     32  O   UNL     1      -6.738   4.083   9.628  1.00  0.00    -0.285 OA
ATOM     33  C   UNL     1      -4.452   1.391  10.080  1.00  0.00     0.146 A 
ATOM     34  C   UNL     1      -6.807   1.250   9.693  1.00  0.00     0.134 A 
ATOM     35  C   UNL     1      -4.381  -0.001  10.089  1.00  0.00     0.094 A 
ATOM     36  C   UNL     1      -6.633  -0.072   9.279  1.00  0.00     0.093 A 
ATOM     37  C   UNL     1      -5.458  -0.756   9.620  1.00  0.00     0.123 A 
BRANCH  28  38
ATOM     38  C   UNL     1      -1.927   3.959   9.808  1.00  0.00     0.025 A 
ATOM     39  C   UNL     1      -1.686   5.318  10.095  1.00  0.00     0.062 A 
ATOM     40  C   UNL     1      -0.893   3.214   9.260  1.00  0.00     0.016 A 
ATOM     41  C   UNL     1      -0.451   5.889   9.855  1.00  0.00     0.158 A 
ATOM     42  C   UNL     1       0.393   3.745   9.083  1.00  0.00     0.051 A 
ATOM     43  C   UNL     1       0.615   5.101   9.342  1.00  0.00     0.157 A 
BRANCH  41  44
ATOM     44  O   UNL     1      -0.290   7.247  10.125  1.00  0.00    -0.504 OA
ATOM     45  H   UNL     1       0.516   7.623  10.627  1.00  0.00     0.293 HD
ENDBRANCH  41  44
BRANCH  43  46
ATOM     46  O   UNL     1       1.894   5.587   9.071  1.00  0.00    -0.504 OA
ATOM     47  H   UNL     1       2.550   5.110   8.499  1.00  0.00     0.293 HD
ENDBRANCH  43  46
ENDBRANCH  28  38
BRANCH  34  48
ATOM     48  O   UNL     1      -8.068   1.675  10.117  1.00  0.00    -0.507 OA
ATOM     49  H   UNL     1      -8.767   2.009   9.418  1.00  0.00     0.293 HD
ENDBRANCH  34  48
BRANCH  37  50
ATOM     50  O   UNL     1      -5.330  -2.121   9.357  1.00  0.00    -0.508 OA
ATOM     51  H   UNL     1      -4.905  -2.458   8.507  1.00  0.00     0.293 HD
ENDBRANCH  37  50
ENDBRANCH  26  27
ENDBRANCH   5  26
BRANCH   4  52
ATOM     52  O   UNL     1      -3.879   8.929   8.947  1.00  0.00    -0.384 OA
ATOM     53  H   UNL     1      -4.449   9.743   9.161  1.00  0.00     0.211 HD
ENDBRANCH   4  52
TORSDOF 16
ENDMDL
