MODEL 1
REMARK VINA RESULT:    86.361      0.000      0.000
REMARK INTER + INTRA:         184.436
REMARK INTER:                 182.286
REMARK INTRA:                   2.151
REMARK UNBOUND:                 2.151
REMARK SMILES CCC(=O)CCCCC[C@@H]1NC(=O)[C@H]2CCCCN2C(=O)[C@H]([C@@H](C)CC)NC(=O)[C@@H](Cc2cn(OC)c3ccccc23)NC1=O
REMARK SMILES IDX 9 1 10 2 44 3 43 4 45 6 30 7 28 8 27 9 29 11 22 12 23 14
REMARK SMILES IDX 24 15 25 16 26 17 31 18 32 19 33 20 42 21 34 22 37 23 41 24
REMARK SMILES IDX 38 25 40 26 39 27 35 28 36 29 11 30 12 31 13 33 14 34 19 35
REMARK SMILES IDX 15 36 18 37 16 38 17 39 20 40 21 41 8 43 7 44 6 45 5 46 3 47
REMARK SMILES IDX 4 48 2 49 1 50
REMARK H PARENT 43 5 27 10 11 32
REMARK Flexibility Score: 80.00
ROOT
ATOM      1  C   UNL     1     -10.720  18.847 -11.335  1.00  0.00     0.035 C 
ENDROOT
BRANCH   1   2
ATOM      2  C   UNL     1      -9.407  18.069 -11.589  1.00  0.00     0.171 C 
BRANCH   2   3
ATOM      3  C   UNL     1      -9.634  16.723 -12.242  1.00  0.00     0.243 C 
ATOM      4  N   UNL     1      -8.505  15.935 -12.647  1.00  0.00    -0.342 N 
ATOM      5  H   UNL     1      -7.551  16.246 -12.351  1.00  0.00     0.164 HD
ATOM      6  O   UNL     1     -10.805  16.295 -12.436  1.00  0.00    -0.273 OA
BRANCH   4   7
ATOM      7  C   UNL     1      -8.621  14.792 -13.553  1.00  0.00     0.175 C 
BRANCH   7   8
ATOM      8  C   UNL     1      -7.893  15.083 -14.847  1.00  0.00     0.243 C 
ATOM      9  N   UNL     1      -7.715  16.432 -15.317  1.00  0.00    -0.342 N 
ATOM     10  H   UNL     1      -7.556  17.162 -14.586  1.00  0.00     0.164 HD
ATOM     11  O   UNL     1      -7.333  14.128 -15.446  1.00  0.00    -0.273 OA
BRANCH   9  12
ATOM     12  C   UNL     1      -8.127  16.948 -16.638  1.00  0.00     0.174 CG0
ATOM     13  G   UNL     1      -8.382  18.440 -16.567  1.00  0.00     0.000 G0
BRANCH  12  14
ATOM     14  C   UNL     1      -9.208  16.092 -17.378  1.00  0.00     0.018 C 
ATOM     15  C   UNL     1     -10.103  16.979 -18.259  1.00  0.00     0.010 C 
BRANCH  14  16
ATOM     16  C   UNL     1      -8.665  14.878 -18.180  1.00  0.00     0.002 C 
ATOM     17  C   UNL     1      -9.317  13.566 -17.749  1.00  0.00     0.004 C 
ENDBRANCH  14  16
ENDBRANCH  12  14
ENDBRANCH   9  12
ENDBRANCH   7   8
BRANCH   7  18
ATOM     18  C   UNL     1      -8.107  13.518 -12.855  1.00  0.00     0.073 C 
BRANCH  18  19
ATOM     19  C   UNL     1      -9.223  12.738 -12.220  1.00  0.00    -0.016 A 
ATOM     20  C   UNL     1      -9.943  13.098 -11.086  1.00  0.00     0.134 A 
ATOM     21  C   UNL     1      -9.708  11.501 -12.603  1.00  0.00     0.006 A 
ATOM     22  N   UNL     1     -10.851  12.142 -10.798  1.00  0.00    -0.191 N 
ATOM     23  C   UNL     1     -10.698  11.160 -11.713  1.00  0.00     0.087 A 
ATOM     24  C   UNL     1      -9.321  10.650 -13.640  1.00  0.00     0.011 A 
ATOM     25  C   UNL     1     -11.327   9.914 -11.772  1.00  0.00     0.030 A 
ATOM     26  C   UNL     1      -9.965   9.406 -13.742  1.00  0.00     0.001 A 
ATOM     27  C   UNL     1     -10.958   9.036 -12.810  1.00  0.00     0.002 A 
BRANCH  22  28
ATOM     28  O   UNL     1     -11.754  12.216  -9.756  1.00  0.00    -0.417 OA
ATOM     29  C   UNL     1     -11.577  11.485  -8.550  1.00  0.00     0.313 C 
ENDBRANCH  22  28
ENDBRANCH  18  19
ENDBRANCH   7  18
ENDBRANCH   4   7
ENDBRANCH   2   3
BRANCH   2  30
ATOM     30  N   UNL     1      -8.466  18.866 -12.385  1.00  0.00    -0.343 N 
ATOM     31  C   UNL     1      -8.686  19.223 -13.761  1.00  0.00     0.243 C 
ATOM     32  H   UNL     1      -7.570  19.143 -11.927  1.00  0.00     0.164 HD
ATOM     33  O   UNL     1      -9.793  18.969 -14.310  1.00  0.00    -0.273 OA
BRANCH  31  34
ATOM     34  C   UNL     1      -7.615  19.918 -14.575  1.00  0.00     0.174 C 
ATOM     35  N   UNL     1      -7.520  19.448 -15.978  1.00  0.00    -0.329 N 
ATOM     36  C   UNL     1      -6.243  19.798 -13.893  1.00  0.00     0.035 C 
ATOM     37  C   UNL     1      -6.289  19.713 -16.739  1.00  0.00     0.120 C 
ATOM     38  C   UNL     1      -5.164  20.615 -14.630  1.00  0.00     0.004 C 
ATOM     39  C   UNL     1      -5.475  20.857 -16.119  1.00  0.00     0.022 C 
BRANCH  35  40
ATOM     40  C   UNL     1      -8.420  18.467 -16.529  1.00  0.00     0.246 CG0
ATOM     41  O   UNL     1      -9.608  18.811 -16.763  1.00  0.00    -0.272 OA
ATOM     42  G   UNL     1      -8.080  16.993 -16.598  1.00  0.00     0.000 G0
ENDBRANCH  35  40
ENDBRANCH  31  34
ENDBRANCH   2  30
ENDBRANCH   1   2
BRANCH   1  43
ATOM     43  C   UNL     1     -10.943  19.231  -9.861  1.00  0.00     0.003 C 
BRANCH  43  44
ATOM     44  C   UNL     1     -11.735  20.536  -9.697  1.00  0.00     0.001 C 
BRANCH  44  45
ATOM     45  C   UNL     1     -10.809  21.699  -9.314  1.00  0.00     0.008 C 
BRANCH  45  46
ATOM     46  C   UNL     1     -11.052  22.944 -10.177  1.00  0.00     0.075 C 
BRANCH  46  47
ATOM     47  C   UNL     1      -9.851  23.858 -10.236  1.00  0.00     0.132 C 
ATOM     48  O   UNL     1      -8.746  23.374 -10.435  1.00  0.00    -0.300 OA
BRANCH  47  49
ATOM     49  C   UNL     1      -9.977  25.346 -10.024  1.00  0.00     0.072 C 
ATOM     50  C   UNL     1      -9.668  26.131 -11.295  1.00  0.00     0.012 C 
ENDBRANCH  47  49
ENDBRANCH  46  47
ENDBRANCH  45  46
ENDBRANCH  44  45
ENDBRANCH  43  44
ENDBRANCH   1  43
TORSDOF 12
ENDMDL
MODEL 2
REMARK VINA RESULT:    86.432      1.171      1.899
REMARK INTER + INTRA:         184.585
REMARK INTER:                 182.152
REMARK INTRA:                   2.434
REMARK UNBOUND:                 2.151
REMARK SMILES CCC(=O)CCCCC[C@@H]1NC(=O)[C@H]2CCCCN2C(=O)[C@H]([C@@H](C)CC)NC(=O)[C@@H](Cc2cn(OC)c3ccccc23)NC1=O
REMARK SMILES IDX 9 1 10 2 44 3 43 4 45 6 30 7 28 8 27 9 29 11 22 12 23 14
REMARK SMILES IDX 24 15 25 16 26 17 31 18 32 19 33 20 42 21 34 22 37 23 41 24
REMARK SMILES IDX 38 25 40 26 39 27 35 28 36 29 11 30 12 31 13 33 14 34 19 35
REMARK SMILES IDX 15 36 18 37 16 38 17 39 20 40 21 41 8 43 7 44 6 45 5 46 3 47
REMARK SMILES IDX 4 48 2 49 1 50
REMARK H PARENT 43 5 27 10 11 32
REMARK Flexibility Score: 80.00
ROOT
ATOM      1  C   UNL     1     -10.818  18.817 -11.505  1.00  0.00     0.035 C 
ENDROOT
BRANCH   1   2
ATOM      2  C   UNL     1      -9.463  18.082 -11.635  1.00  0.00     0.171 C 
BRANCH   2   3
ATOM      3  C   UNL     1      -9.604  16.672 -12.165  1.00  0.00     0.243 C 
ATOM      4  N   UNL     1      -8.460  16.011 -12.726  1.00  0.00    -0.342 N 
ATOM      5  H   UNL     1      -7.524  16.466 -12.625  1.00  0.00     0.164 HD
ATOM      6  O   UNL     1     -10.718  16.080 -12.122  1.00  0.00    -0.273 OA
BRANCH   4   7
ATOM      7  C   UNL     1      -8.566  14.797 -13.537  1.00  0.00     0.175 C 
BRANCH   7   8
ATOM      8  C   UNL     1      -8.020  15.053 -14.924  1.00  0.00     0.243 C 
ATOM      9  N   UNL     1      -7.814  16.392 -15.411  1.00  0.00    -0.342 N 
ATOM     10  H   UNL     1      -7.494  17.098 -14.709  1.00  0.00     0.164 HD
ATOM     11  O   UNL     1      -7.627  14.068 -15.603  1.00  0.00    -0.273 OA
BRANCH   9  12
ATOM     12  C   UNL     1      -8.379  16.957 -16.654  1.00  0.00     0.174 CG0
ATOM     13  G   UNL     1      -8.631  18.442 -16.493  1.00  0.00     0.000 G0
BRANCH  12  14
ATOM     14  C   UNL     1      -9.534  16.120 -17.298  1.00  0.00     0.018 C 
ATOM     15  C   UNL     1     -10.015  16.765 -18.607  1.00  0.00     0.010 C 
BRANCH  14  16
ATOM     16  C   UNL     1      -9.234  14.610 -17.498  1.00  0.00     0.002 C 
ATOM     17  C   UNL     1      -8.371  14.353 -18.731  1.00  0.00     0.004 C 
ENDBRANCH  14  16
ENDBRANCH  12  14
ENDBRANCH   9  12
ENDBRANCH   7   8
BRANCH   7  18
ATOM     18  C   UNL     1      -7.856  13.630 -12.823  1.00  0.00     0.073 C 
BRANCH  18  19
ATOM     19  C   UNL     1      -8.754  12.436 -12.672  1.00  0.00    -0.016 A 
ATOM     20  C   UNL     1      -8.642  11.227 -13.351  1.00  0.00     0.134 A 
ATOM     21  C   UNL     1      -9.882  12.327 -11.881  1.00  0.00     0.006 A 
ATOM     22  N   UNL     1      -9.639  10.397 -12.973  1.00  0.00    -0.191 N 
ATOM     23  C   UNL     1     -10.405  11.073 -12.090  1.00  0.00     0.087 A 
ATOM     24  C   UNL     1     -10.494  13.251 -11.031  1.00  0.00     0.011 A 
ATOM     25  C   UNL     1     -11.611  10.683 -11.501  1.00  0.00     0.030 A 
ATOM     26  C   UNL     1     -11.689  12.869 -10.400  1.00  0.00     0.001 A 
ATOM     27  C   UNL     1     -12.249  11.596 -10.637  1.00  0.00     0.002 A 
BRANCH  22  28
ATOM     28  O   UNL     1      -9.787   9.103 -13.430  1.00  0.00    -0.417 OA
ATOM     29  C   UNL     1     -11.001   8.641 -14.007  1.00  0.00     0.313 C 
ENDBRANCH  22  28
ENDBRANCH  18  19
ENDBRANCH   7  18
ENDBRANCH   4   7
ENDBRANCH   2   3
BRANCH   2  30
ATOM     30  N   UNL     1      -8.525  18.846 -12.466  1.00  0.00    -0.343 N 
ATOM     31  C   UNL     1      -8.854  19.371 -13.765  1.00  0.00     0.243 C 
ATOM     32  H   UNL     1      -7.554  18.965 -12.104  1.00  0.00     0.164 HD
ATOM     33  O   UNL     1     -10.041  19.308 -14.189  1.00  0.00    -0.273 OA
BRANCH  31  34
ATOM     34  C   UNL     1      -7.804  20.021 -14.640  1.00  0.00     0.174 C 
ATOM     35  N   UNL     1      -7.761  19.494 -16.025  1.00  0.00    -0.329 N 
ATOM     36  C   UNL     1      -6.412  19.912 -13.999  1.00  0.00     0.035 C 
ATOM     37  C   UNL     1      -6.554  19.714 -16.837  1.00  0.00     0.120 C 
ATOM     38  C   UNL     1      -5.349  20.686 -14.804  1.00  0.00     0.004 C 
ATOM     39  C   UNL     1      -5.707  20.872 -16.290  1.00  0.00     0.022 C 
BRANCH  35  40
ATOM     40  C   UNL     1      -8.689  18.503 -16.507  1.00  0.00     0.246 CG0
ATOM     41  O   UNL     1      -9.892  18.837 -16.664  1.00  0.00    -0.272 OA
ATOM     42  G   UNL     1      -8.344  17.030 -16.587  1.00  0.00     0.000 G0
ENDBRANCH  35  40
ENDBRANCH  31  34
ENDBRANCH   2  30
ENDBRANCH   1   2
BRANCH   1  43
ATOM     43  C   UNL     1     -11.377  18.847 -10.070  1.00  0.00     0.003 C 
BRANCH  43  44
ATOM     44  C   UNL     1     -10.357  19.356  -9.042  1.00  0.00     0.001 C 
BRANCH  44  45
ATOM     45  C   UNL     1     -10.860  20.633  -8.353  1.00  0.00     0.008 C 
BRANCH  45  46
ATOM     46  C   UNL     1     -10.882  21.837  -9.304  1.00  0.00     0.075 C 
BRANCH  46  47
ATOM     47  C   UNL     1      -9.681  22.736  -9.137  1.00  0.00     0.132 C 
ATOM     48  O   UNL     1      -9.067  22.718  -8.080  1.00  0.00    -0.300 OA
BRANCH  47  49
ATOM     49  C   UNL     1      -9.240  23.680 -10.228  1.00  0.00     0.072 C 
ATOM     50  C   UNL     1      -9.899  25.050 -10.097  1.00  0.00     0.012 C 
ENDBRANCH  47  49
ENDBRANCH  46  47
ENDBRANCH  45  46
ENDBRANCH  44  45
ENDBRANCH  43  44
ENDBRANCH   1  43
TORSDOF 12
ENDMDL
