MODEL 1
REMARK VINA RESULT:     0.294      0.000      0.000
REMARK INTER + INTRA:           0.678
REMARK INTER:                   0.449
REMARK INTRA:                   0.230
REMARK UNBOUND:                 0.230
REMARK SMILES CC1=CCC[C@@H](C)C(=O)C[C@H](C(C)C)C(=O)C1
REMARK SMILES IDX 8 1 9 2 6 3 7 4 5 5 4 6 3 7 2 8 1 9 10 11 11 12 15 13 16 14
REMARK SMILES IDX 17 15 12 17 13 18 14 19
REMARK H PARENT
REMARK Flexibility Score: 70.00
ROOT
ATOM      1  C   UNL     1      85.843  28.681  64.642  1.00  0.00     0.136 C 
ATOM      2  O   UNL     1      85.221  27.744  65.119  1.00  0.00    -0.299 OA
ENDROOT
BRANCH   1   3
ATOM      3  C   UNL     1      87.346  28.583  64.468  1.00  0.00     0.053 C 
ATOM      4  C   UNL     1      87.843  27.289  65.122  1.00  0.00     0.016 C 
BRANCH   3   5
ATOM      5  C   UNL     1      88.099  29.801  65.053  1.00  0.00     0.015 C 
BRANCH   5   6
ATOM      6  C   UNL     1      87.764  30.089  66.527  1.00  0.00     0.028 C 
BRANCH   6   7
ATOM      7  C   UNL     1      88.125  31.505  66.911  1.00  0.00    -0.028 C 
ATOM      8  C   UNL     1      87.248  32.516  67.100  1.00  0.00    -0.070 CG0
ATOM      9  C   UNL     1      87.797  33.869  67.476  1.00  0.00     0.039 C 
ATOM     10  G   UNL     1      85.747  32.347  66.958  1.00  0.00     0.000 G0
ENDBRANCH   6   7
ENDBRANCH   5   6
ENDBRANCH   3   5
ENDBRANCH   1   3
BRANCH   1  11
ATOM     11  C   UNL     1      85.091  29.902  64.170  1.00  0.00     0.087 C 
BRANCH  11  12
ATOM     12  C   UNL     1      84.499  30.707  65.349  1.00  0.00     0.066 C 
BRANCH  12  13
ATOM     13  C   UNL     1      85.301  31.977  65.590  1.00  0.00     0.140 C 
ATOM     14  O   UNL     1      85.590  32.701  64.647  1.00  0.00    -0.299 OA
BRANCH  13  15
ATOM     15  C   UNL     1      85.736  32.382  66.976  1.00  0.00     0.106 CG0
ATOM     16  G   UNL     1      87.245  32.485  67.101  1.00  0.00     0.000 G0
ENDBRANCH  13  15
ENDBRANCH  12  13
BRANCH  12  17
ATOM     17  C   UNL     1      82.974  30.976  65.170  1.00  0.00    -0.006 C 
ATOM     18  C   UNL     1      82.215  31.223  66.485  1.00  0.00     0.008 C 
ATOM     19  C   UNL     1      82.297  29.846  64.379  1.00  0.00     0.008 C 
ENDBRANCH  12  17
ENDBRANCH  11  12
ENDBRANCH   1  11
TORSDOF 1
ENDMDL
MODEL 2
REMARK VINA RESULT:     0.311      1.635      3.936
REMARK INTER + INTRA:           0.704
REMARK INTER:                  -0.114
REMARK INTRA:                   0.818
REMARK UNBOUND:                 0.230
REMARK SMILES CC1=CCC[C@@H](C)C(=O)C[C@H](C(C)C)C(=O)C1
REMARK SMILES IDX 8 1 9 2 6 3 7 4 5 5 4 6 3 7 2 8 1 9 10 11 11 12 15 13 16 14
REMARK SMILES IDX 17 15 12 17 13 18 14 19
REMARK H PARENT
REMARK Flexibility Score: 70.00
ROOT
ATOM      1  C   UNL     1      87.698  29.664  64.730  1.00  0.00     0.136 C 
ATOM      2  O   UNL     1      88.052  29.851  63.575  1.00  0.00    -0.299 OA
ENDROOT
BRANCH   1   3
ATOM      3  C   UNL     1      86.912  28.419  65.089  1.00  0.00     0.053 C 
ATOM      4  C   UNL     1      87.587  27.198  64.454  1.00  0.00     0.016 C 
BRANCH   3   5
ATOM      5  C   UNL     1      85.430  28.498  64.653  1.00  0.00     0.015 C 
BRANCH   5   6
ATOM      6  C   UNL     1      84.938  29.931  64.382  1.00  0.00     0.028 C 
BRANCH   6   7
ATOM      7  C   UNL     1      83.734  30.272  65.228  1.00  0.00    -0.028 C 
ATOM      8  C   UNL     1      83.623  31.346  66.041  1.00  0.00    -0.070 CG0
ATOM      9  C   UNL     1      82.341  31.520  66.816  1.00  0.00     0.039 C 
ATOM     10  G   UNL     1      84.724  32.378  66.203  1.00  0.00     0.000 G0
ENDBRANCH   6   7
ENDBRANCH   5   6
ENDBRANCH   3   5
ENDBRANCH   1   3
BRANCH   1  11
ATOM     11  C   UNL     1      88.112  30.649  65.797  1.00  0.00     0.087 C 
BRANCH  11  12
ATOM     12  C   UNL     1      87.258  31.936  65.755  1.00  0.00     0.066 C 
BRANCH  12  13
ATOM     13  C   UNL     1      86.015  31.786  66.620  1.00  0.00     0.140 C 
ATOM     14  O   UNL     1      86.079  31.171  67.674  1.00  0.00    -0.299 OA
BRANCH  13  15
ATOM     15  C   UNL     1      84.697  32.398  66.216  1.00  0.00     0.106 CG0
ATOM     16  G   UNL     1      83.606  31.357  66.039  1.00  0.00     0.000 G0
ENDBRANCH  13  15
ENDBRANCH  12  13
BRANCH  12  17
ATOM     17  C   UNL     1      88.092  33.206  66.105  1.00  0.00    -0.006 C 
ATOM     18  C   UNL     1      88.068  33.589  67.595  1.00  0.00     0.008 C 
ATOM     19  C   UNL     1      87.666  34.407  65.248  1.00  0.00     0.008 C 
ENDBRANCH  12  17
ENDBRANCH  11  12
ENDBRANCH   1  11
TORSDOF 1
ENDMDL
MODEL 3
REMARK VINA RESULT:     0.582     14.900     16.529
REMARK INTER + INTRA:           1.117
REMARK INTER:                   0.928
REMARK INTRA:                   0.190
REMARK UNBOUND:                 0.230
REMARK SMILES CC1=CCC[C@@H](C)C(=O)C[C@H](C(C)C)C(=O)C1
REMARK SMILES IDX 8 1 9 2 6 3 7 4 5 5 4 6 3 7 2 8 1 9 10 11 11 12 15 13 16 14
REMARK SMILES IDX 17 15 12 17 13 18 14 19
REMARK H PARENT
REMARK Flexibility Score: 70.00
ROOT
ATOM      1  C   UNL     1      77.715  32.275  52.309  1.00  0.00     0.136 C 
ATOM      2  O   UNL     1      77.551  31.476  53.219  1.00  0.00    -0.299 OA
ENDROOT
BRANCH   1   3
ATOM      3  C   UNL     1      79.103  32.502  51.742  1.00  0.00     0.053 C 
ATOM      4  C   UNL     1      79.576  31.222  51.044  1.00  0.00     0.016 C 
BRANCH   3   5
ATOM      5  C   UNL     1      80.128  32.935  52.817  1.00  0.00     0.015 C 
BRANCH   5   6
ATOM      6  C   UNL     1      80.601  34.392  52.671  1.00  0.00     0.028 C 
BRANCH   6   7
ATOM      7  C   UNL     1      80.338  34.924  51.282  1.00  0.00    -0.028 C 
ATOM      8  C   UNL     1      79.273  35.671  50.915  1.00  0.00    -0.070 CG0
ATOM      9  C   UNL     1      79.176  36.108  49.474  1.00  0.00     0.039 C 
ATOM     10  G   UNL     1      78.182  36.089  51.884  1.00  0.00     0.000 G0
ENDBRANCH   6   7
ENDBRANCH   5   6
ENDBRANCH   3   5
ENDBRANCH   1   3
BRANCH   1  11
ATOM     11  C   UNL     1      76.517  32.976  51.717  1.00  0.00     0.087 C 
BRANCH  11  12
ATOM     12  C   UNL     1      76.265  34.349  52.381  1.00  0.00     0.066 C 
BRANCH  12  13
ATOM     13  C   UNL     1      76.851  35.471  51.536  1.00  0.00     0.140 C 
ATOM     14  O   UNL     1      76.237  35.881  50.561  1.00  0.00    -0.299 OA
BRANCH  13  15
ATOM     15  C   UNL     1      78.172  36.111  51.883  1.00  0.00     0.106 CG0
ATOM     16  G   UNL     1      79.287  35.677  50.950  1.00  0.00     0.000 G0
ENDBRANCH  13  15
ENDBRANCH  12  13
BRANCH  12  17
ATOM     17  C   UNL     1      74.761  34.569  52.726  1.00  0.00    -0.006 C 
ATOM     18  C   UNL     1      74.482  35.825  53.570  1.00  0.00     0.008 C 
ATOM     19  C   UNL     1      74.158  33.333  53.409  1.00  0.00     0.008 C 
ENDBRANCH  12  17
ENDBRANCH  11  12
ENDBRANCH   1  11
TORSDOF 1
ENDMDL
MODEL 4
REMARK VINA RESULT:     0.776      2.043      2.880
REMARK INTER + INTRA:           1.415
REMARK INTER:                   0.336
REMARK INTRA:                   1.079
REMARK UNBOUND:                 0.230
REMARK SMILES CC1=CCC[C@@H](C)C(=O)C[C@H](C(C)C)C(=O)C1
REMARK SMILES IDX 8 1 9 2 6 3 7 4 5 5 4 6 3 7 2 8 1 9 10 11 11 12 15 13 16 14
REMARK SMILES IDX 17 15 12 17 13 18 14 19
REMARK H PARENT
REMARK Flexibility Score: 70.00
ROOT
ATOM      1  C   UNL     1      87.218  29.251  65.067  1.00  0.00     0.136 C 
ATOM      2  O   UNL     1      87.537  28.075  65.164  1.00  0.00    -0.299 OA
ENDROOT
BRANCH   1   3
ATOM      3  C   UNL     1      88.096  30.327  65.675  1.00  0.00     0.053 C 
ATOM      4  C   UNL     1      87.713  30.516  67.146  1.00  0.00     0.016 C 
BRANCH   3   5
ATOM      5  C   UNL     1      88.005  31.674  64.920  1.00  0.00     0.015 C 
BRANCH   5   6
ATOM      6  C   UNL     1      87.255  32.771  65.698  1.00  0.00     0.028 C 
BRANCH   6   7
ATOM      7  C   UNL     1      86.676  33.811  64.768  1.00  0.00    -0.028 C 
ATOM      8  C   UNL     1      85.697  33.597  63.861  1.00  0.00    -0.070 CG0
ATOM      9  C   UNL     1      85.250  34.761  63.013  1.00  0.00     0.039 C 
ATOM     10  G   UNL     1      85.032  32.247  63.666  1.00  0.00     0.000 G0
ENDBRANCH   6   7
ENDBRANCH   5   6
ENDBRANCH   3   5
ENDBRANCH   1   3
BRANCH   1  11
ATOM     11  C   UNL     1      85.984  29.618  64.279  1.00  0.00     0.087 C 
BRANCH  11  12
ATOM     12  C   UNL     1      84.846  30.125  65.194  1.00  0.00     0.066 C 
BRANCH  12  13
ATOM     13  C   UNL     1      84.535  31.587  64.907  1.00  0.00     0.140 C 
ATOM     14  O   UNL     1      83.902  32.244  65.720  1.00  0.00    -0.299 OA
BRANCH  13  15
ATOM     15  C   UNL     1      85.009  32.258  63.642  1.00  0.00     0.106 CG0
ATOM     16  G   UNL     1      85.672  33.596  63.911  1.00  0.00     0.000 G0
ENDBRANCH  13  15
ENDBRANCH  12  13
BRANCH  12  17
ATOM     17  C   UNL     1      83.584  29.211  65.125  1.00  0.00    -0.006 C 
ATOM     18  C   UNL     1      83.865  27.779  64.638  1.00  0.00     0.008 C 
ATOM     19  C   UNL     1      82.479  29.849  64.270  1.00  0.00     0.008 C 
ENDBRANCH  12  17
ENDBRANCH  11  12
ENDBRANCH   1  11
TORSDOF 1
ENDMDL
MODEL 5
REMARK VINA RESULT:     2.300      1.977      4.867
REMARK INTER + INTRA:           3.740
REMARK INTER:                  -0.233
REMARK INTRA:                   3.973
REMARK UNBOUND:                 0.230
REMARK SMILES CC1=CCC[C@@H](C)C(=O)C[C@H](C(C)C)C(=O)C1
REMARK SMILES IDX 8 1 9 2 6 3 7 4 5 5 4 6 3 7 2 8 1 9 10 11 11 12 15 13 16 14
REMARK SMILES IDX 17 15 12 17 13 18 14 19
REMARK H PARENT
REMARK Flexibility Score: 70.00
ROOT
ATOM      1  C   UNL     1      87.306  32.911  66.050  1.00  0.00     0.136 C 
ATOM      2  O   UNL     1      86.672  33.515  66.903  1.00  0.00    -0.299 OA
ENDROOT
BRANCH   1   3
ATOM      3  C   UNL     1      87.318  33.410  64.619  1.00  0.00     0.053 C 
ATOM      4  C   UNL     1      87.211  34.939  64.620  1.00  0.00     0.016 C 
BRANCH   3   5
ATOM      5  C   UNL     1      86.188  32.795  63.759  1.00  0.00     0.015 C 
BRANCH   5   6
ATOM      6  C   UNL     1      84.834  33.510  63.911  1.00  0.00     0.028 C 
BRANCH   6   7
ATOM      7  C   UNL     1      83.722  32.532  64.209  1.00  0.00    -0.028 C 
ATOM      8  C   UNL     1      83.886  31.228  64.527  1.00  0.00    -0.070 CG0
ATOM      9  C   UNL     1      82.652  30.401  64.787  1.00  0.00     0.039 C 
ATOM     10  G   UNL     1      85.249  30.569  64.637  1.00  0.00     0.000 G0
ENDBRANCH   6   7
ENDBRANCH   5   6
ENDBRANCH   3   5
ENDBRANCH   1   3
BRANCH   1  11
ATOM     11  C   UNL     1      88.125  31.709  66.454  1.00  0.00     0.087 C 
BRANCH  11  12
ATOM     12  C   UNL     1      87.339  30.389  66.278  1.00  0.00     0.066 C 
BRANCH  12  13
ATOM     13  C   UNL     1      85.865  30.671  66.023  1.00  0.00     0.140 C 
ATOM     14  O   UNL     1      85.140  30.998  66.951  1.00  0.00    -0.299 OA
BRANCH  13  15
ATOM     15  C   UNL     1      85.274  30.575  64.639  1.00  0.00     0.106 CG0
ATOM     16  G   UNL     1      83.916  31.246  64.543  1.00  0.00     0.000 G0
ENDBRANCH  13  15
ENDBRANCH  12  13
BRANCH  12  17
ATOM     17  C   UNL     1      87.977  29.465  65.197  1.00  0.00    -0.006 C 
ATOM     18  C   UNL     1      88.121  30.117  63.810  1.00  0.00     0.008 C 
ATOM     19  C   UNL     1      87.213  28.138  65.076  1.00  0.00     0.008 C 
ENDBRANCH  12  17
ENDBRANCH  11  12
ENDBRANCH   1  11
TORSDOF 1
ENDMDL
MODEL 6
REMARK VINA RESULT:     2.980      2.149      4.742
REMARK INTER + INTRA:           4.778
REMARK INTER:                   1.018
REMARK INTRA:                   3.760
REMARK UNBOUND:                 0.230
REMARK SMILES CC1=CCC[C@@H](C)C(=O)C[C@H](C(C)C)C(=O)C1
REMARK SMILES IDX 8 1 9 2 6 3 7 4 5 5 4 6 3 7 2 8 1 9 10 11 11 12 15 13 16 14
REMARK SMILES IDX 17 15 12 17 13 18 14 19
REMARK H PARENT
REMARK Flexibility Score: 70.00
ROOT
ATOM      1  C   UNL     1      86.766  33.588  64.373  1.00  0.00     0.136 C 
ATOM      2  O   UNL     1      86.723  34.634  65.003  1.00  0.00    -0.299 OA
ENDROOT
BRANCH   1   3
ATOM      3  C   UNL     1      85.669  33.255  63.382  1.00  0.00     0.053 C 
ATOM      4  C   UNL     1      84.807  34.501  63.149  1.00  0.00     0.016 C 
BRANCH   3   5
ATOM      5  C   UNL     1      84.784  32.071  63.841  1.00  0.00     0.015 C 
BRANCH   5   6
ATOM      6  C   UNL     1      83.350  32.479  64.221  1.00  0.00     0.028 C 
BRANCH   6   7
ATOM      7  C   UNL     1      83.123  32.381  65.711  1.00  0.00    -0.028 C 
ATOM      8  C   UNL     1      83.978  31.832  66.602  1.00  0.00    -0.070 CG0
ATOM      9  C   UNL     1      83.576  31.819  68.056  1.00  0.00     0.039 C 
ATOM     10  G   UNL     1      85.317  31.238  66.205  1.00  0.00     0.000 G0
ENDBRANCH   6   7
ENDBRANCH   5   6
ENDBRANCH   3   5
ENDBRANCH   1   3
BRANCH   1  11
ATOM     11  C   UNL     1      87.954  32.671  64.545  1.00  0.00     0.087 C 
BRANCH  11  12
ATOM     12  C   UNL     1      87.840  31.814  65.826  1.00  0.00     0.066 C 
BRANCH  12  13
ATOM     13  C   UNL     1      86.502  32.049  66.514  1.00  0.00     0.140 C 
ATOM     14  O   UNL     1      86.388  32.957  67.324  1.00  0.00    -0.299 OA
BRANCH  13  15
ATOM     15  C   UNL     1      85.298  31.195  66.205  1.00  0.00     0.106 CG0
ATOM     16  G   UNL     1      83.996  31.866  66.604  1.00  0.00     0.000 G0
ENDBRANCH  13  15
ENDBRANCH  12  13
BRANCH  12  17
ATOM     17  C   UNL     1      88.125  30.306  65.551  1.00  0.00    -0.006 C 
ATOM     18  C   UNL     1      87.188  29.662  64.515  1.00  0.00     0.008 C 
ATOM     19  C   UNL     1      88.108  29.489  66.852  1.00  0.00     0.008 C 
ENDBRANCH  12  17
ENDBRANCH  11  12
ENDBRANCH   1  11
TORSDOF 1
ENDMDL
