MODEL 1
REMARK VINA RESULT:    12.427      0.000      0.000
REMARK INTER + INTRA:          23.740
REMARK INTER:                  18.966
REMARK INTRA:                   4.774
REMARK UNBOUND:                 4.774
REMARK SMILES CC1=CCC[C@H](C)C(=O)C[C@@H](C(C)C)C(=O)C1
REMARK SMILES IDX 8 1 9 2 6 3 7 4 5 5 4 6 3 7 2 8 1 9 10 11 11 12 15 13 16 14
REMARK SMILES IDX 17 15 12 17 13 18 14 19
REMARK H PARENT
REMARK Flexibility Score: 70.00
ROOT
ATOM      1  C   UNL     1      12.012  14.182  -0.637  1.00  0.00     0.136 C 
ATOM      2  O   UNL     1      12.893  13.877  -1.427  1.00  0.00    -0.299 OA
ENDROOT
BRANCH   1   3
ATOM      3  C   UNL     1      11.815  13.314   0.598  1.00  0.00     0.053 C 
ATOM      4  C   UNL     1      13.140  12.883   1.246  1.00  0.00     0.016 C 
BRANCH   3   5
ATOM      5  C   UNL     1      10.798  13.915   1.600  1.00  0.00     0.015 C 
BRANCH   5   6
ATOM      6  C   UNL     1       9.376  13.318   1.546  1.00  0.00     0.028 C 
BRANCH   6   7
ATOM      7  C   UNL     1       8.365  14.278   2.120  1.00  0.00    -0.028 C 
ATOM      8  C   UNL     1       7.459  14.968   1.389  1.00  0.00    -0.070 CG0
ATOM      9  C   UNL     1       6.469  15.836   2.125  1.00  0.00     0.039 C 
ATOM     10  G   UNL     1       7.408  14.916  -0.132  1.00  0.00     0.000 G0
ENDBRANCH   6   7
ENDBRANCH   5   6
ENDBRANCH   3   5
ENDBRANCH   1   3
BRANCH   1  11
ATOM     11  C   UNL     1      11.184  15.419  -0.920  1.00  0.00     0.087 C 
BRANCH  11  12
ATOM     12  C   UNL     1      10.019  15.652   0.082  1.00  0.00     0.066 C 
BRANCH  12  13
ATOM     13  C   UNL     1       8.687  15.688  -0.654  1.00  0.00     0.140 C 
ATOM     14  O   UNL     1       8.569  16.362  -1.667  1.00  0.00    -0.299 OA
BRANCH  13  15
ATOM     15  C   UNL     1       7.488  14.955  -0.106  1.00  0.00     0.106 CG0
ATOM     16  G   UNL     1       7.473  14.917   1.416  1.00  0.00     0.000 G0
ENDBRANCH  13  15
ENDBRANCH  12  13
BRANCH  12  17
ATOM     17  C   UNL     1      10.194  16.896   1.016  1.00  0.00    -0.006 C 
ATOM     18  C   UNL     1      10.404  18.204   0.231  1.00  0.00     0.008 C 
ATOM     19  C   UNL     1      11.386  16.696   1.972  1.00  0.00     0.008 C 
ENDBRANCH  12  17
ENDBRANCH  11  12
ENDBRANCH   1  11
TORSDOF 1
ENDMDL
MODEL 2
REMARK VINA RESULT:    14.760     15.151     16.784
REMARK INTER + INTRA:          27.300
REMARK INTER:                  26.756
REMARK INTRA:                   0.544
REMARK UNBOUND:                 4.774
REMARK SMILES CC1=CCC[C@H](C)C(=O)C[C@@H](C(C)C)C(=O)C1
REMARK SMILES IDX 8 1 9 2 6 3 7 4 5 5 4 6 3 7 2 8 1 9 10 11 11 12 15 13 16 14
REMARK SMILES IDX 17 15 12 17 13 18 14 19
REMARK H PARENT
REMARK Flexibility Score: 70.00
ROOT
ATOM      1  C   UNL     1      20.652  16.701 -11.729  1.00  0.00     0.136 C 
ATOM      2  O   UNL     1      21.064  15.566 -11.913  1.00  0.00    -0.299 OA
ENDROOT
BRANCH   1   3
ATOM      3  C   UNL     1      21.668  17.829 -11.610  1.00  0.00     0.053 C 
ATOM      4  C   UNL     1      23.120  17.346 -11.752  1.00  0.00     0.016 C 
BRANCH   3   5
ATOM      5  C   UNL     1      21.325  19.044 -12.506  1.00  0.00     0.015 C 
BRANCH   5   6
ATOM      6  C   UNL     1      20.976  20.348 -11.758  1.00  0.00     0.028 C 
BRANCH   6   7
ATOM      7  C   UNL     1      19.930  21.136 -12.504  1.00  0.00    -0.028 C 
ATOM      8  C   UNL     1      18.623  20.792 -12.588  1.00  0.00    -0.070 CG0
ATOM      9  C   UNL     1      17.690  21.727 -13.315  1.00  0.00     0.039 C 
ATOM     10  G   UNL     1      18.066  19.504 -11.996  1.00  0.00     0.000 G0
ENDBRANCH   6   7
ENDBRANCH   5   6
ENDBRANCH   3   5
ENDBRANCH   1   3
BRANCH   1  11
ATOM     11  C   UNL     1      19.156  16.924 -11.656  1.00  0.00     0.087 C 
BRANCH  11  12
ATOM     12  C   UNL     1      18.473  17.138 -13.036  1.00  0.00     0.066 C 
BRANCH  12  13
ATOM     13  C   UNL     1      17.784  18.494 -13.082  1.00  0.00     0.140 C 
ATOM     14  O   UNL     1      17.051  18.774 -14.020  1.00  0.00    -0.299 OA
BRANCH  13  15
ATOM     15  C   UNL     1      18.052  19.527 -12.016  1.00  0.00     0.106 CG0
ATOM     16  G   UNL     1      18.613  20.823 -12.586  1.00  0.00     0.000 G0
ENDBRANCH  13  15
ENDBRANCH  12  13
BRANCH  12  17
ATOM     17  C   UNL     1      17.506  15.987 -13.476  1.00  0.00    -0.006 C 
ATOM     18  C   UNL     1      16.343  15.777 -12.490  1.00  0.00     0.008 C 
ATOM     19  C   UNL     1      18.273  14.659 -13.625  1.00  0.00     0.008 C 
ENDBRANCH  12  17
ENDBRANCH  11  12
ENDBRANCH   1  11
TORSDOF 1
ENDMDL
MODEL 3
REMARK VINA RESULT:    14.847     13.049     14.776
REMARK INTER + INTRA:          27.433
REMARK INTER:                  26.139
REMARK INTRA:                   1.294
REMARK UNBOUND:                 4.774
REMARK SMILES CC1=CCC[C@H](C)C(=O)C[C@@H](C(C)C)C(=O)C1
REMARK SMILES IDX 8 1 9 2 6 3 7 4 5 5 4 6 3 7 2 8 1 9 10 11 11 12 15 13 16 14
REMARK SMILES IDX 17 15 12 17 13 18 14 19
REMARK H PARENT
REMARK Flexibility Score: 70.00
ROOT
ATOM      1  C   UNL     1      18.716  16.002 -12.960  1.00  0.00     0.136 C 
ATOM      2  O   UNL     1      19.802  15.878 -12.414  1.00  0.00    -0.299 OA
ENDROOT
BRANCH   1   3
ATOM      3  C   UNL     1      18.018  14.752 -13.477  1.00  0.00     0.053 C 
ATOM      4  C   UNL     1      18.840  13.472 -13.257  1.00  0.00     0.016 C 
BRANCH   3   5
ATOM      5  C   UNL     1      16.550  14.640 -12.998  1.00  0.00     0.015 C 
BRANCH   5   6
ATOM      6  C   UNL     1      15.884  15.965 -12.574  1.00  0.00     0.028 C 
BRANCH   6   7
ATOM      7  C   UNL     1      15.310  15.861 -11.183  1.00  0.00    -0.028 C 
ATOM      8  C   UNL     1      15.928  16.302 -10.062  1.00  0.00    -0.070 CG0
ATOM      9  C   UNL     1      15.187  16.186  -8.753  1.00  0.00     0.039 C 
ATOM     10  G   UNL     1      17.332  16.890 -10.067  1.00  0.00     0.000 G0
ENDBRANCH   6   7
ENDBRANCH   5   6
ENDBRANCH   3   5
ENDBRANCH   1   3
BRANCH   1  11
ATOM     11  C   UNL     1      18.116  17.389 -13.067  1.00  0.00     0.087 C 
BRANCH  11  12
ATOM     12  C   UNL     1      18.486  18.339 -11.894  1.00  0.00     0.066 C 
BRANCH  12  13
ATOM     13  C   UNL     1      17.487  18.189 -10.755  1.00  0.00     0.140 C 
ATOM     14  O   UNL     1      16.836  19.156 -10.385  1.00  0.00    -0.299 OA
BRANCH  13  15
ATOM     15  C   UNL     1      17.343  16.874 -10.030  1.00  0.00     0.106 CG0
ATOM     16  G   UNL     1      15.914  16.348 -10.055  1.00  0.00     0.000 G0
ENDBRANCH  13  15
ENDBRANCH  12  13
BRANCH  12  17
ATOM     17  C   UNL     1      18.676  19.840 -12.298  1.00  0.00    -0.006 C 
ATOM     18  C   UNL     1      17.718  20.279 -13.421  1.00  0.00     0.008 C 
ATOM     19  C   UNL     1      20.124  20.102 -12.753  1.00  0.00     0.008 C 
ENDBRANCH  12  17
ENDBRANCH  11  12
ENDBRANCH   1  11
TORSDOF 1
ENDMDL
MODEL 4
REMARK VINA RESULT:    15.038     15.015     16.263
REMARK INTER + INTRA:          27.724
REMARK INTER:                  26.451
REMARK INTRA:                   1.273
REMARK UNBOUND:                 4.774
REMARK SMILES CC1=CCC[C@H](C)C(=O)C[C@@H](C(C)C)C(=O)C1
REMARK SMILES IDX 8 1 9 2 6 3 7 4 5 5 4 6 3 7 2 8 1 9 10 11 11 12 15 13 16 14
REMARK SMILES IDX 17 15 12 17 13 18 14 19
REMARK H PARENT
REMARK Flexibility Score: 70.00
ROOT
ATOM      1  C   UNL     1      17.011  16.404 -12.810  1.00  0.00     0.136 C 
ATOM      2  O   UNL     1      16.164  16.676 -11.974  1.00  0.00    -0.299 OA
ENDROOT
BRANCH   1   3
ATOM      3  C   UNL     1      17.236  14.941 -13.166  1.00  0.00     0.053 C 
ATOM      4  C   UNL     1      16.119  14.359 -14.046  1.00  0.00     0.016 C 
BRANCH   3   5
ATOM      5  C   UNL     1      18.661  14.664 -13.704  1.00  0.00     0.015 C 
BRANCH   5   6
ATOM      6  C   UNL     1      19.719  14.308 -12.640  1.00  0.00     0.028 C 
BRANCH   6   7
ATOM      7  C   UNL     1      20.771  15.383 -12.540  1.00  0.00    -0.028 C 
ATOM      8  C   UNL     1      20.737  16.412 -11.661  1.00  0.00    -0.070 CG0
ATOM      9  C   UNL     1      21.904  17.367 -11.643  1.00  0.00     0.039 C 
ATOM     10  G   UNL     1      19.573  16.650 -10.709  1.00  0.00     0.000 G0
ENDBRANCH   6   7
ENDBRANCH   5   6
ENDBRANCH   3   5
ENDBRANCH   1   3
BRANCH   1  11
ATOM     11  C   UNL     1      17.772  17.540 -13.463  1.00  0.00     0.087 C 
BRANCH  11  12
ATOM     12  C   UNL     1      18.685  18.340 -12.493  1.00  0.00     0.066 C 
BRANCH  12  13
ATOM     13  C   UNL     1      18.627  17.741 -11.095  1.00  0.00     0.140 C 
ATOM     14  O   UNL     1      17.834  18.183 -10.275  1.00  0.00    -0.299 OA
BRANCH  13  15
ATOM     15  C   UNL     1      19.588  16.652 -10.687  1.00  0.00     0.106 CG0
ATOM     16  G   UNL     1      20.718  16.465 -11.690  1.00  0.00     0.000 G0
ENDBRANCH  13  15
ENDBRANCH  12  13
BRANCH  12  17
ATOM     17  C   UNL     1      18.424  19.885 -12.468  1.00  0.00    -0.006 C 
ATOM     18  C   UNL     1      17.487  20.347 -13.599  1.00  0.00     0.008 C 
ATOM     19  C   UNL     1      19.749  20.663 -12.574  1.00  0.00     0.008 C 
ENDBRANCH  12  17
ENDBRANCH  11  12
ENDBRANCH   1  11
TORSDOF 1
ENDMDL
