MODEL 1
REMARK VINA RESULT:    -3.484      0.000      0.000
REMARK INTER + INTRA:          -8.375
REMARK INTER:                  -6.132
REMARK INTRA:                  -2.243
REMARK UNBOUND:                -2.243
REMARK SMILES CCCCCCC=CCCCCCCCC(=O)[O-]
REMARK SMILES IDX 10 1 11 2 12 3 13 4 14 5 15 6 16 7 17 8 18 9 9 10 8 11 7 12
REMARK SMILES IDX 6 13 5 14 4 15 3 16 2 17 1 18
REMARK H PARENT
REMARK Flexibility Score: inf
ROOT
ATOM      1  C   UNL     1      17.113   1.684  43.789  1.00  0.00     0.004 C 
ENDROOT
BRANCH   1   2
ATOM      2  C   UNL     1      16.516   1.763  42.375  1.00  0.00     0.000 C 
BRANCH   2   3
ATOM      3  C   UNL     1      16.561   3.184  41.790  1.00  0.00     0.000 C 
BRANCH   3   4
ATOM      4  C   UNL     1      16.337   3.204  40.268  1.00  0.00     0.000 C 
BRANCH   4   5
ATOM      5  C   UNL     1      16.441   1.804  39.641  1.00  0.00     0.006 C 
BRANCH   5   6
ATOM      6  C   UNL     1      15.155   1.378  38.921  1.00  0.00     0.053 C 
BRANCH   6   7
ATOM      7  C   UNL     1      14.701   2.455  37.988  1.00  0.00     0.041 C 
ATOM      8  O   UNL     1      13.618   3.063  38.201  1.00  0.00    -0.550 OA
ATOM      9  O   UNL     1      15.444   2.750  36.852  1.00  0.00    -0.550 OA
ENDBRANCH   6   7
ENDBRANCH   5   6
ENDBRANCH   4   5
ENDBRANCH   3   4
ENDBRANCH   2   3
ENDBRANCH   1   2
BRANCH   1  10
ATOM     10  C   UNL     1      18.178   2.768  43.996  1.00  0.00     0.027 C 
BRANCH  10  11
ATOM     11  C   UNL     1      19.563   2.177  44.095  1.00  0.00    -0.031 C 
ATOM     12  C   UNL     1      20.393   1.955  43.056  1.00  0.00    -0.031 C 
BRANCH  12  13
ATOM     13  C   UNL     1      20.099   2.292  41.611  1.00  0.00     0.027 C 
BRANCH  13  14
ATOM     14  C   UNL     1      20.222   1.061  40.697  1.00  0.00     0.004 C 
BRANCH  14  15
ATOM     15  C   UNL     1      19.333  -0.132  41.093  1.00  0.00     0.000 C 
BRANCH  15  16
ATOM     16  C   UNL     1      20.144  -1.386  41.464  1.00  0.00    -0.000 C 
BRANCH  16  17
ATOM     17  C   UNL     1      19.503  -2.183  42.611  1.00  0.00    -0.003 C 
ATOM     18  C   UNL     1      19.801  -1.585  43.987  1.00  0.00     0.004 C 
ENDBRANCH  16  17
ENDBRANCH  15  16
ENDBRANCH  14  15
ENDBRANCH  13  14
ENDBRANCH  12  13
ENDBRANCH  10  11
ENDBRANCH   1  10
TORSDOF 13
ENDMDL
MODEL 2
REMARK VINA RESULT:    -3.420      3.388      5.868
REMARK INTER + INTRA:          -8.263
REMARK INTER:                  -5.670
REMARK INTRA:                  -2.593
REMARK UNBOUND:                -2.243
REMARK SMILES CCCCCCC=CCCCCCCCC(=O)[O-]
REMARK SMILES IDX 10 1 11 2 12 3 13 4 14 5 15 6 16 7 17 8 18 9 9 10 8 11 7 12
REMARK SMILES IDX 6 13 5 14 4 15 3 16 2 17 1 18
REMARK H PARENT
REMARK Flexibility Score: inf
ROOT
ATOM      1  C   UNL     1      20.843   1.243  40.961  1.00  0.00     0.004 C 
ENDROOT
BRANCH   1   2
ATOM      2  C   UNL     1      19.836   0.344  40.227  1.00  0.00     0.000 C 
BRANCH   2   3
ATOM      3  C   UNL     1      19.187  -0.699  41.150  1.00  0.00     0.000 C 
BRANCH   3   4
ATOM      4  C   UNL     1      20.221  -1.628  41.810  1.00  0.00     0.000 C 
BRANCH   4   5
ATOM      5  C   UNL     1      20.003  -1.767  43.326  1.00  0.00     0.006 C 
BRANCH   5   6
ATOM      6  C   UNL     1      18.533  -1.596  43.732  1.00  0.00     0.053 C 
BRANCH   6   7
ATOM      7  C   UNL     1      17.920  -2.926  44.040  1.00  0.00     0.041 C 
ATOM      8  O   UNL     1      16.685  -3.016  44.272  1.00  0.00    -0.550 OA
ATOM      9  O   UNL     1      18.721  -4.057  44.124  1.00  0.00    -0.550 OA
ENDBRANCH   6   7
ENDBRANCH   5   6
ENDBRANCH   4   5
ENDBRANCH   3   4
ENDBRANCH   2   3
ENDBRANCH   1   2
BRANCH   1  10
ATOM     10  C   UNL     1      20.123   2.227  41.892  1.00  0.00     0.027 C 
BRANCH  10  11
ATOM     11  C   UNL     1      20.483   1.992  43.338  1.00  0.00    -0.031 C 
ATOM     12  C   UNL     1      19.688   2.256  44.393  1.00  0.00    -0.031 C 
BRANCH  12  13
ATOM     13  C   UNL     1      18.280   2.804  44.316  1.00  0.00     0.027 C 
BRANCH  13  14
ATOM     14  C   UNL     1      17.223   1.692  44.431  1.00  0.00     0.004 C 
BRANCH  14  15
ATOM     15  C   UNL     1      16.486   1.358  43.121  1.00  0.00     0.000 C 
BRANCH  15  16
ATOM     16  C   UNL     1      16.602   2.476  42.069  1.00  0.00    -0.000 C 
BRANCH  16  17
ATOM     17  C   UNL     1      16.453   1.949  40.633  1.00  0.00    -0.003 C 
ATOM     18  C   UNL     1      17.115   2.858  39.596  1.00  0.00     0.004 C 
ENDBRANCH  16  17
ENDBRANCH  15  16
ENDBRANCH  14  15
ENDBRANCH  13  14
ENDBRANCH  12  13
ENDBRANCH  10  11
ENDBRANCH   1  10
TORSDOF 13
ENDMDL
MODEL 3
REMARK VINA RESULT:    -3.402      1.544      3.766
REMARK INTER + INTRA:          -8.231
REMARK INTER:                  -5.913
REMARK INTRA:                  -2.318
REMARK UNBOUND:                -2.243
REMARK SMILES CCCCCCC=CCCCCCCCC(=O)[O-]
REMARK SMILES IDX 10 1 11 2 12 3 13 4 14 5 15 6 16 7 17 8 18 9 9 10 8 11 7 12
REMARK SMILES IDX 6 13 5 14 4 15 3 16 2 17 1 18
REMARK H PARENT
REMARK Flexibility Score: inf
ROOT
ATOM      1  C   UNL     1      18.591   0.505  40.085  1.00  0.00     0.004 C 
ENDROOT
BRANCH   1   2
ATOM      2  C   UNL     1      18.706   1.910  39.474  1.00  0.00     0.000 C 
BRANCH   2   3
ATOM      3  C   UNL     1      17.370   2.430  38.921  1.00  0.00     0.000 C 
BRANCH   3   4
ATOM      4  C   UNL     1      16.177   1.554  39.340  1.00  0.00     0.000 C 
BRANCH   4   5
ATOM      5  C   UNL     1      14.909   1.859  38.525  1.00  0.00     0.006 C 
BRANCH   5   6
ATOM      6  C   UNL     1      14.433   0.659  37.696  1.00  0.00     0.053 C 
BRANCH   6   7
ATOM      7  C   UNL     1      15.063   0.682  36.339  1.00  0.00     0.041 C 
ATOM      8  O   UNL     1      15.540   1.754  35.880  1.00  0.00    -0.550 OA
ATOM      9  O   UNL     1      15.074  -0.467  35.559  1.00  0.00    -0.550 OA
ENDBRANCH   6   7
ENDBRANCH   5   6
ENDBRANCH   4   5
ENDBRANCH   3   4
ENDBRANCH   2   3
ENDBRANCH   1   2
BRANCH   1  10
ATOM     10  C   UNL     1      19.770   0.216  41.023  1.00  0.00     0.027 C 
BRANCH  10  11
ATOM     11  C   UNL     1      20.384   1.488  41.555  1.00  0.00    -0.031 C 
ATOM     12  C   UNL     1      20.387   1.872  42.846  1.00  0.00    -0.031 C 
BRANCH  12  13
ATOM     13  C   UNL     1      19.807   1.082  43.998  1.00  0.00     0.027 C 
BRANCH  13  14
ATOM     14  C   UNL     1      18.407   1.584  44.394  1.00  0.00     0.004 C 
BRANCH  14  15
ATOM     15  C   UNL     1      17.242   0.909  43.648  1.00  0.00     0.000 C 
BRANCH  15  16
ATOM     16  C   UNL     1      16.381   1.907  42.854  1.00  0.00    -0.000 C 
BRANCH  16  17
ATOM     17  C   UNL     1      17.039   3.291  42.741  1.00  0.00    -0.003 C 
ATOM     18  C   UNL     1      16.205   4.280  41.924  1.00  0.00     0.004 C 
ENDBRANCH  16  17
ENDBRANCH  15  16
ENDBRANCH  14  15
ENDBRANCH  13  14
ENDBRANCH  12  13
ENDBRANCH  10  11
ENDBRANCH   1  10
TORSDOF 13
ENDMDL
MODEL 4
REMARK VINA RESULT:    -3.309      1.648      3.045
REMARK INTER + INTRA:          -8.068
REMARK INTER:                  -5.884
REMARK INTRA:                  -2.184
REMARK UNBOUND:                -2.243
REMARK SMILES CCCCCCC=CCCCCCCCC(=O)[O-]
REMARK SMILES IDX 10 1 11 2 12 3 13 4 14 5 15 6 16 7 17 8 18 9 9 10 8 11 7 12
REMARK SMILES IDX 6 13 5 14 4 15 3 16 2 17 1 18
REMARK H PARENT
REMARK Flexibility Score: inf
ROOT
ATOM      1  C   UNL     1      17.286   4.930  42.848  1.00  0.00     0.004 C 
ENDROOT
BRANCH   1   2
ATOM      2  C   UNL     1      17.461   4.370  41.427  1.00  0.00     0.000 C 
BRANCH   2   3
ATOM      3  C   UNL     1      16.354   3.377  41.040  1.00  0.00     0.000 C 
BRANCH   3   4
ATOM      4  C   UNL     1      16.902   1.975  40.723  1.00  0.00     0.000 C 
BRANCH   4   5
ATOM      5  C   UNL     1      16.512   1.496  39.315  1.00  0.00     0.006 C 
BRANCH   5   6
ATOM      6  C   UNL     1      15.169   2.069  38.844  1.00  0.00     0.053 C 
BRANCH   6   7
ATOM      7  C   UNL     1      14.435   1.060  38.018  1.00  0.00     0.041 C 
ATOM      8  O   UNL     1      13.215   0.831  38.235  1.00  0.00    -0.550 OA
ATOM      9  O   UNL     1      15.110   0.332  37.047  1.00  0.00    -0.550 OA
ENDBRANCH   6   7
ENDBRANCH   5   6
ENDBRANCH   4   5
ENDBRANCH   3   4
ENDBRANCH   2   3
ENDBRANCH   1   2
BRANCH   1  10
ATOM     10  C   UNL     1      16.060   4.313  43.533  1.00  0.00     0.027 C 
BRANCH  10  11
ATOM     11  C   UNL     1      16.399   3.774  44.902  1.00  0.00    -0.031 C 
ATOM     12  C   UNL     1      16.780   2.510  45.171  1.00  0.00    -0.031 C 
BRANCH  12  13
ATOM     13  C   UNL     1      16.970   1.415  44.146  1.00  0.00     0.027 C 
BRANCH  13  14
ATOM     14  C   UNL     1      18.423   0.909  44.107  1.00  0.00     0.004 C 
BRANCH  14  15
ATOM     15  C   UNL     1      19.495   2.013  44.132  1.00  0.00     0.000 C 
BRANCH  15  16
ATOM     16  C   UNL     1      20.152   2.241  42.759  1.00  0.00    -0.000 C 
BRANCH  16  17
ATOM     17  C   UNL     1      20.225   0.954  41.922  1.00  0.00    -0.003 C 
ATOM     18  C   UNL     1      20.747   1.197  40.504  1.00  0.00     0.004 C 
ENDBRANCH  16  17
ENDBRANCH  15  16
ENDBRANCH  14  15
ENDBRANCH  13  14
ENDBRANCH  12  13
ENDBRANCH  10  11
ENDBRANCH   1  10
TORSDOF 13
ENDMDL
MODEL 5
REMARK VINA RESULT:    -3.266      1.729      3.209
REMARK INTER + INTRA:          -7.991
REMARK INTER:                  -6.254
REMARK INTRA:                  -1.737
REMARK UNBOUND:                -2.243
REMARK SMILES CCCCCCC=CCCCCCCCC(=O)[O-]
REMARK SMILES IDX 10 1 11 2 12 3 13 4 14 5 15 6 16 7 17 8 18 9 9 10 8 11 7 12
REMARK SMILES IDX 6 13 5 14 4 15 3 16 2 17 1 18
REMARK H PARENT
REMARK Flexibility Score: inf
ROOT
ATOM      1  C   UNL     1      16.333   2.149  41.084  1.00  0.00     0.004 C 
ENDROOT
BRANCH   1   2
ATOM      2  C   UNL     1      16.051   3.421  40.270  1.00  0.00     0.000 C 
BRANCH   2   3
ATOM      3  C   UNL     1      15.839   3.135  38.774  1.00  0.00     0.000 C 
BRANCH   3   4
ATOM      4  C   UNL     1      14.358   2.918  38.418  1.00  0.00     0.000 C 
BRANCH   4   5
ATOM      5  C   UNL     1      14.048   1.453  38.067  1.00  0.00     0.006 C 
BRANCH   5   6
ATOM      6  C   UNL     1      15.298   0.662  37.662  1.00  0.00     0.053 C 
BRANCH   6   7
ATOM      7  C   UNL     1      15.366   0.523  36.174  1.00  0.00     0.041 C 
ATOM      8  O   UNL     1      15.201  -0.604  35.635  1.00  0.00    -0.550 OA
ATOM      9  O   UNL     1      15.666   1.626  35.386  1.00  0.00    -0.550 OA
ENDBRANCH   6   7
ENDBRANCH   5   6
ENDBRANCH   4   5
ENDBRANCH   3   4
ENDBRANCH   2   3
ENDBRANCH   1   2
BRANCH   1  10
ATOM     10  C   UNL     1      16.716   2.496  42.528  1.00  0.00     0.027 C 
BRANCH  10  11
ATOM     11  C   UNL     1      17.219   1.286  43.277  1.00  0.00    -0.031 C 
ATOM     12  C   UNL     1      18.456   1.144  43.791  1.00  0.00    -0.031 C 
BRANCH  12  13
ATOM     13  C   UNL     1      19.551   2.186  43.740  1.00  0.00     0.027 C 
BRANCH  13  14
ATOM     14  C   UNL     1      20.404   2.064  42.465  1.00  0.00     0.004 C 
BRANCH  14  15
ATOM     15  C   UNL     1      20.308   0.704  41.749  1.00  0.00     0.000 C 
BRANCH  15  16
ATOM     16  C   UNL     1      19.777   0.822  40.310  1.00  0.00    -0.000 C 
BRANCH  16  17
ATOM     17  C   UNL     1      19.678   2.282  39.838  1.00  0.00    -0.003 C 
ATOM     18  C   UNL     1      20.319   2.507  38.467  1.00  0.00     0.004 C 
ENDBRANCH  16  17
ENDBRANCH  15  16
ENDBRANCH  14  15
ENDBRANCH  13  14
ENDBRANCH  12  13
ENDBRANCH  10  11
ENDBRANCH   1  10
TORSDOF 13
ENDMDL
MODEL 6
REMARK VINA RESULT:    -3.234      1.617      4.303
REMARK INTER + INTRA:          -7.936
REMARK INTER:                  -5.395
REMARK INTRA:                  -2.541
REMARK UNBOUND:                -2.243
REMARK SMILES CCCCCCC=CCCCCCCCC(=O)[O-]
REMARK SMILES IDX 10 1 11 2 12 3 13 4 14 5 15 6 16 7 17 8 18 9 9 10 8 11 7 12
REMARK SMILES IDX 6 13 5 14 4 15 3 16 2 17 1 18
REMARK H PARENT
REMARK Flexibility Score: inf
ROOT
ATOM      1  C   UNL     1      19.988   2.319  42.228  1.00  0.00     0.004 C 
ENDROOT
BRANCH   1   2
ATOM      2  C   UNL     1      19.869   1.652  40.849  1.00  0.00     0.000 C 
BRANCH   2   3
ATOM      3  C   UNL     1      18.707   2.215  40.015  1.00  0.00     0.000 C 
BRANCH   3   4
ATOM      4  C   UNL     1      17.537   1.224  39.888  1.00  0.00     0.000 C 
BRANCH   4   5
ATOM      5  C   UNL     1      16.168   1.920  39.958  1.00  0.00     0.006 C 
BRANCH   5   6
ATOM      6  C   UNL     1      15.577   2.209  38.571  1.00  0.00     0.053 C 
BRANCH   6   7
ATOM      7  C   UNL     1      14.940   0.977  38.011  1.00  0.00     0.041 C 
ATOM      8  O   UNL     1      15.557   0.271  37.169  1.00  0.00    -0.550 OA
ATOM      9  O   UNL     1      13.643   0.639  38.375  1.00  0.00    -0.550 OA
ENDBRANCH   6   7
ENDBRANCH   5   6
ENDBRANCH   4   5
ENDBRANCH   3   4
ENDBRANCH   2   3
ENDBRANCH   1   2
BRANCH   1  10
ATOM     10  C   UNL     1      20.078   1.267  43.340  1.00  0.00     0.027 C 
BRANCH  10  11
ATOM     11  C   UNL     1      19.134   0.115  43.095  1.00  0.00    -0.031 C 
ATOM     12  C   UNL     1      17.871   0.028  43.556  1.00  0.00    -0.031 C 
BRANCH  12  13
ATOM     13  C   UNL     1      17.160   1.086  44.370  1.00  0.00     0.027 C 
BRANCH  13  14
ATOM     14  C   UNL     1      16.425   2.102  43.479  1.00  0.00     0.004 C 
BRANCH  14  15
ATOM     15  C   UNL     1      16.823   3.572  43.706  1.00  0.00     0.000 C 
BRANCH  15  16
ATOM     16  C   UNL     1      16.396   4.493  42.550  1.00  0.00    -0.000 C 
BRANCH  16  17
ATOM     17  C   UNL     1      17.593   5.174  41.868  1.00  0.00    -0.003 C 
ATOM     18  C   UNL     1      17.298   5.588  40.425  1.00  0.00     0.004 C 
ENDBRANCH  16  17
ENDBRANCH  15  16
ENDBRANCH  14  15
ENDBRANCH  13  14
ENDBRANCH  12  13
ENDBRANCH  10  11
ENDBRANCH   1  10
TORSDOF 13
ENDMDL
MODEL 7
REMARK VINA RESULT:    -3.216      1.693      3.444
REMARK INTER + INTRA:          -7.904
REMARK INTER:                  -5.840
REMARK INTRA:                  -2.064
REMARK UNBOUND:                -2.243
REMARK SMILES CCCCCCC=CCCCCCCCC(=O)[O-]
REMARK SMILES IDX 10 1 11 2 12 3 13 4 14 5 15 6 16 7 17 8 18 9 9 10 8 11 7 12
REMARK SMILES IDX 6 13 5 14 4 15 3 16 2 17 1 18
REMARK H PARENT
REMARK Flexibility Score: inf
ROOT
ATOM      1  C   UNL     1      19.249   2.227  40.560  1.00  0.00     0.004 C 
ENDROOT
BRANCH   1   2
ATOM      2  C   UNL     1      18.222   1.181  40.100  1.00  0.00     0.000 C 
BRANCH   2   3
ATOM      3  C   UNL     1      16.777   1.572  40.452  1.00  0.00     0.000 C 
BRANCH   3   4
ATOM      4  C   UNL     1      16.405   2.977  39.946  1.00  0.00     0.000 C 
BRANCH   4   5
ATOM      5  C   UNL     1      15.238   2.950  38.946  1.00  0.00     0.006 C 
BRANCH   5   6
ATOM      6  C   UNL     1      15.570   2.173  37.665  1.00  0.00     0.053 C 
BRANCH   6   7
ATOM      7  C   UNL     1      14.593   1.058  37.466  1.00  0.00     0.041 C 
ATOM      8  O   UNL     1      13.772   0.765  38.375  1.00  0.00    -0.550 OA
ATOM      9  O   UNL     1      14.626   0.305  36.299  1.00  0.00    -0.550 OA
ENDBRANCH   6   7
ENDBRANCH   5   6
ENDBRANCH   4   5
ENDBRANCH   3   4
ENDBRANCH   2   3
ENDBRANCH   1   2
BRANCH   1  10
ATOM     10  C   UNL     1      20.340   1.581  41.424  1.00  0.00     0.027 C 
BRANCH  10  11
ATOM     11  C   UNL     1      19.756   0.639  42.447  1.00  0.00    -0.031 C 
ATOM     12  C   UNL     1      19.596   0.910  43.757  1.00  0.00    -0.031 C 
BRANCH  12  13
ATOM     13  C   UNL     1      19.941   2.220  44.430  1.00  0.00     0.027 C 
BRANCH  13  14
ATOM     14  C   UNL     1      18.688   2.948  44.948  1.00  0.00     0.004 C 
BRANCH  14  15
ATOM     15  C   UNL     1      17.821   3.604  43.857  1.00  0.00     0.000 C 
BRANCH  15  16
ATOM     16  C   UNL     1      16.484   2.874  43.637  1.00  0.00    -0.000 C 
BRANCH  16  17
ATOM     17  C   UNL     1      16.139   1.918  44.790  1.00  0.00    -0.003 C 
ATOM     18  C   UNL     1      15.850   0.494  44.313  1.00  0.00     0.004 C 
ENDBRANCH  16  17
ENDBRANCH  15  16
ENDBRANCH  14  15
ENDBRANCH  13  14
ENDBRANCH  12  13
ENDBRANCH  10  11
ENDBRANCH   1  10
TORSDOF 13
ENDMDL
MODEL 8
REMARK VINA RESULT:    -3.215      1.694      3.287
REMARK INTER + INTRA:          -7.902
REMARK INTER:                  -5.739
REMARK INTRA:                  -2.163
REMARK UNBOUND:                -2.243
REMARK SMILES CCCCCCC=CCCCCCCCC(=O)[O-]
REMARK SMILES IDX 10 1 11 2 12 3 13 4 14 5 15 6 16 7 17 8 18 9 9 10 8 11 7 12
REMARK SMILES IDX 6 13 5 14 4 15 3 16 2 17 1 18
REMARK H PARENT
REMARK Flexibility Score: inf
ROOT
ATOM      1  C   UNL     1      18.301   4.081  39.129  1.00  0.00     0.004 C 
ENDROOT
BRANCH   1   2
ATOM      2  C   UNL     1      17.769   4.142  40.569  1.00  0.00     0.000 C 
BRANCH   2   3
ATOM      3  C   UNL     1      16.251   3.918  40.652  1.00  0.00     0.000 C 
BRANCH   3   4
ATOM      4  C   UNL     1      15.681   3.258  39.384  1.00  0.00     0.000 C 
BRANCH   4   5
ATOM      5  C   UNL     1      15.514   1.738  39.538  1.00  0.00     0.006 C 
BRANCH   5   6
ATOM      6  C   UNL     1      15.846   0.971  38.251  1.00  0.00     0.053 C 
BRANCH   6   7
ATOM      7  C   UNL     1      14.601   0.717  37.462  1.00  0.00     0.041 C 
ATOM      8  O   UNL     1      13.473   0.787  38.018  1.00  0.00    -0.550 OA
ATOM      9  O   UNL     1      14.688   0.350  36.125  1.00  0.00    -0.550 OA
ENDBRANCH   6   7
ENDBRANCH   5   6
ENDBRANCH   4   5
ENDBRANCH   3   4
ENDBRANCH   2   3
ENDBRANCH   1   2
BRANCH   1  10
ATOM     10  C   UNL     1      19.545   3.187  39.041  1.00  0.00     0.027 C 
BRANCH  10  11
ATOM     11  C   UNL     1      19.211   1.740  39.310  1.00  0.00    -0.031 C 
ATOM     12  C   UNL     1      19.801   0.962  40.238  1.00  0.00    -0.031 C 
BRANCH  12  13
ATOM     13  C   UNL     1      20.879   1.409  41.201  1.00  0.00     0.027 C 
BRANCH  13  14
ATOM     14  C   UNL     1      20.287   2.005  42.491  1.00  0.00     0.004 C 
BRANCH  14  15
ATOM     15  C   UNL     1      19.891   0.970  43.560  1.00  0.00     0.000 C 
BRANCH  15  16
ATOM     16  C   UNL     1      18.752   1.459  44.472  1.00  0.00    -0.000 C 
BRANCH  16  17
ATOM     17  C   UNL     1      17.650   2.196  43.694  1.00  0.00    -0.003 C 
ATOM     18  C   UNL     1      16.542   1.263  43.205  1.00  0.00     0.004 C 
ENDBRANCH  16  17
ENDBRANCH  15  16
ENDBRANCH  14  15
ENDBRANCH  13  14
ENDBRANCH  12  13
ENDBRANCH  10  11
ENDBRANCH   1  10
TORSDOF 13
ENDMDL
MODEL 9
REMARK VINA RESULT:    -3.199      3.788      6.213
REMARK INTER + INTRA:          -7.873
REMARK INTER:                  -5.589
REMARK INTRA:                  -2.284
REMARK UNBOUND:                -2.243
REMARK SMILES CCCCCCC=CCCCCCCCC(=O)[O-]
REMARK SMILES IDX 10 1 11 2 12 3 13 4 14 5 15 6 16 7 17 8 18 9 9 10 8 11 7 12
REMARK SMILES IDX 6 13 5 14 4 15 3 16 2 17 1 18
REMARK H PARENT
REMARK Flexibility Score: inf
ROOT
ATOM      1  C   UNL     1      19.116  -2.084  40.494  1.00  0.00     0.004 C 
ENDROOT
BRANCH   1   2
ATOM      2  C   UNL     1      20.556  -1.675  40.146  1.00  0.00     0.000 C 
BRANCH   2   3
ATOM      3  C   UNL     1      20.838  -0.192  40.431  1.00  0.00     0.000 C 
BRANCH   3   4
ATOM      4  C   UNL     1      19.700   0.487  41.213  1.00  0.00     0.000 C 
BRANCH   4   5
ATOM      5  C   UNL     1      20.083   0.778  42.673  1.00  0.00     0.006 C 
BRANCH   5   6
ATOM      6  C   UNL     1      18.880   0.729  43.624  1.00  0.00     0.053 C 
BRANCH   6   7
ATOM      7  C   UNL     1      18.866   1.935  44.508  1.00  0.00     0.041 C 
ATOM      8  O   UNL     1      19.421   1.899  45.638  1.00  0.00    -0.550 OA
ATOM      9  O   UNL     1      18.192   3.082  44.108  1.00  0.00    -0.550 OA
ENDBRANCH   6   7
ENDBRANCH   5   6
ENDBRANCH   4   5
ENDBRANCH   3   4
ENDBRANCH   2   3
ENDBRANCH   1   2
BRANCH   1  10
ATOM     10  C   UNL     1      18.768  -3.445  39.878  1.00  0.00     0.027 C 
BRANCH  10  11
ATOM     11  C   UNL     1      19.384  -4.582  40.654  1.00  0.00    -0.031 C 
ATOM     12  C   UNL     1      18.864  -5.143  41.764  1.00  0.00    -0.031 C 
BRANCH  12  13
ATOM     13  C   UNL     1      17.552  -4.756  42.409  1.00  0.00     0.027 C 
BRANCH  13  14
ATOM     14  C   UNL     1      17.742  -4.275  43.858  1.00  0.00     0.004 C 
BRANCH  14  15
ATOM     15  C   UNL     1      18.308  -2.850  43.998  1.00  0.00     0.000 C 
BRANCH  15  16
ATOM     16  C   UNL     1      19.695  -2.819  44.664  1.00  0.00    -0.000 C 
BRANCH  16  17
ATOM     17  C   UNL     1      20.835  -2.672  43.643  1.00  0.00    -0.003 C 
ATOM     18  C   UNL     1      21.903  -3.758  43.784  1.00  0.00     0.004 C 
ENDBRANCH  16  17
ENDBRANCH  15  16
ENDBRANCH  14  15
ENDBRANCH  13  14
ENDBRANCH  12  13
ENDBRANCH  10  11
ENDBRANCH   1  10
TORSDOF 13
ENDMDL
