MODEL 1
REMARK VINA RESULT:    -4.905      0.000      0.000
REMARK INTER + INTRA:          -5.287
REMARK INTER:                  -5.191
REMARK INTRA:                  -0.096
REMARK UNBOUND:                -0.096
REMARK SMILES C=C(C)[C@@H]1CC=C(C)C(=O)C1
REMARK SMILES IDX 8 1 7 2 6 3 5 4 4 5 11 6 9 7 10 8 2 9 1 10 3 11
REMARK H PARENT
REMARK Flexibility Score: inf
ROOT
ATOM      1  C   UNL     1      15.617  18.724  29.608  1.00  0.00     0.048 C 
ATOM      2  C   UNL     1      15.372  20.206  29.560  1.00  0.00    -0.012 C 
ATOM      3  C   UNL     1      15.372  20.922  30.698  1.00  0.00    -0.019 C 
ATOM      4  C   UNL     1      15.151  22.412  30.704  1.00  0.00     0.036 C 
ATOM      5  C   UNL     1      14.199  22.836  29.571  1.00  0.00     0.025 C 
ATOM      6  C   UNL     1      14.723  22.330  28.215  1.00  0.00     0.089 C 
ATOM      7  C   UNL     1      15.008  20.855  28.274  1.00  0.00     0.158 C 
ATOM      8  O   UNL     1      14.973  20.179  27.211  1.00  0.00    -0.295 OA
ENDROOT
BRANCH   5   9
ATOM      9  C   UNL     1      13.984  24.343  29.558  1.00  0.00    -0.077 C 
ATOM     10  C   UNL     1      13.885  25.019  30.714  1.00  0.00     0.008 C 
ATOM     11  C   UNL     1      13.875  25.110  28.264  1.00  0.00     0.039 C 
ENDBRANCH   5   9
TORSDOF 1
ENDMDL
MODEL 2
REMARK VINA RESULT:    -4.737      1.427      2.728
REMARK INTER + INTRA:          -5.109
REMARK INTER:                  -5.012
REMARK INTRA:                  -0.097
REMARK UNBOUND:                -0.096
REMARK SMILES C=C(C)[C@@H]1CC=C(C)C(=O)C1
REMARK SMILES IDX 8 1 7 2 6 3 5 4 4 5 11 6 9 7 10 8 2 9 1 10 3 11
REMARK H PARENT
REMARK Flexibility Score: inf
ROOT
ATOM      1  C   UNL     1      14.830  20.983  26.838  1.00  0.00     0.048 C 
ATOM      2  C   UNL     1      14.656  21.604  28.196  1.00  0.00    -0.012 C 
ATOM      3  C   UNL     1      14.184  22.859  28.302  1.00  0.00    -0.019 C 
ATOM      4  C   UNL     1      13.972  23.522  29.638  1.00  0.00     0.036 C 
ATOM      5  C   UNL     1      15.011  23.040  30.667  1.00  0.00     0.025 C 
ATOM      6  C   UNL     1      14.990  21.504  30.769  1.00  0.00     0.089 C 
ATOM      7  C   UNL     1      15.121  20.881  29.407  1.00  0.00     0.158 C 
ATOM      8  O   UNL     1      15.598  19.719  29.306  1.00  0.00    -0.295 OA
ENDROOT
BRANCH   5   9
ATOM      9  C   UNL     1      14.794  23.692  32.025  1.00  0.00    -0.077 C 
ATOM     10  C   UNL     1      15.419  23.209  33.112  1.00  0.00     0.008 C 
ATOM     11  C   UNL     1      13.880  24.881  32.189  1.00  0.00     0.039 C 
ENDBRANCH   5   9
TORSDOF 1
ENDMDL
MODEL 3
REMARK VINA RESULT:    -4.503      2.001      4.383
REMARK INTER + INTRA:          -4.862
REMARK INTER:                  -4.763
REMARK INTRA:                  -0.098
REMARK UNBOUND:                -0.096
REMARK SMILES C=C(C)[C@@H]1CC=C(C)C(=O)C1
REMARK SMILES IDX 8 1 7 2 6 3 5 4 4 5 11 6 9 7 10 8 2 9 1 10 3 11
REMARK H PARENT
REMARK Flexibility Score: inf
ROOT
ATOM      1  C   UNL     1      14.476  25.255  32.369  1.00  0.00     0.048 C 
ATOM      2  C   UNL     1      14.466  24.039  31.486  1.00  0.00    -0.012 C 
ATOM      3  C   UNL     1      14.808  22.841  31.992  1.00  0.00    -0.019 C 
ATOM      4  C   UNL     1      14.796  21.588  31.156  1.00  0.00     0.036 C 
ATOM      5  C   UNL     1      15.157  21.895  29.692  1.00  0.00     0.025 C 
ATOM      6  C   UNL     1      14.223  22.981  29.127  1.00  0.00     0.089 C 
ATOM      7  C   UNL     1      14.200  24.182  30.032  1.00  0.00     0.158 C 
ATOM      8  O   UNL     1      13.914  25.310  29.548  1.00  0.00    -0.295 OA
ENDROOT
BRANCH   5   9
ATOM      9  C   UNL     1      15.130  20.637  28.835  1.00  0.00    -0.077 C 
ATOM     10  C   UNL     1      14.770  20.709  27.543  1.00  0.00     0.008 C 
ATOM     11  C   UNL     1      15.498  19.290  29.406  1.00  0.00     0.039 C 
ENDBRANCH   5   9
TORSDOF 1
ENDMDL
MODEL 4
REMARK VINA RESULT:    -4.485      2.229      4.787
REMARK INTER + INTRA:          -4.843
REMARK INTER:                  -4.746
REMARK INTRA:                  -0.098
REMARK UNBOUND:                -0.096
REMARK SMILES C=C(C)[C@@H]1CC=C(C)C(=O)C1
REMARK SMILES IDX 8 1 7 2 6 3 5 4 4 5 11 6 9 7 10 8 2 9 1 10 3 11
REMARK H PARENT
REMARK Flexibility Score: inf
ROOT
ATOM      1  C   UNL     1      13.901  25.613  31.912  1.00  0.00     0.048 C 
ATOM      2  C   UNL     1      14.374  24.400  31.160  1.00  0.00    -0.012 C 
ATOM      3  C   UNL     1      14.063  24.256  29.860  1.00  0.00    -0.019 C 
ATOM      4  C   UNL     1      14.528  23.072  29.054  1.00  0.00     0.036 C 
ATOM      5  C   UNL     1      14.621  21.809  29.930  1.00  0.00     0.025 C 
ATOM      6  C   UNL     1      15.521  22.071  31.152  1.00  0.00     0.089 C 
ATOM      7  C   UNL     1      15.074  23.308  31.882  1.00  0.00     0.158 C 
ATOM      8  O   UNL     1      15.335  23.425  33.109  1.00  0.00    -0.295 OA
ENDROOT
BRANCH   5   9
ATOM      9  C   UNL     1      15.108  20.610  29.128  1.00  0.00    -0.077 C 
ATOM     10  C   UNL     1      14.991  20.601  27.790  1.00  0.00     0.008 C 
ATOM     11  C   UNL     1      15.725  19.411  29.803  1.00  0.00     0.039 C 
ENDBRANCH   5   9
TORSDOF 1
ENDMDL
MODEL 5
REMARK VINA RESULT:    -4.422      1.868      3.190
REMARK INTER + INTRA:          -4.776
REMARK INTER:                  -4.678
REMARK INTRA:                  -0.098
REMARK UNBOUND:                -0.096
REMARK SMILES C=C(C)[C@@H]1CC=C(C)C(=O)C1
REMARK SMILES IDX 8 1 7 2 6 3 5 4 4 5 11 6 9 7 10 8 2 9 1 10 3 11
REMARK H PARENT
REMARK Flexibility Score: inf
ROOT
ATOM      1  C   UNL     1      15.756  22.797  25.625  1.00  0.00     0.048 C 
ATOM      2  C   UNL     1      15.339  23.162  27.022  1.00  0.00    -0.012 C 
ATOM      3  C   UNL     1      15.673  24.362  27.528  1.00  0.00    -0.019 C 
ATOM      4  C   UNL     1      15.266  24.786  28.915  1.00  0.00     0.036 C 
ATOM      5  C   UNL     1      15.206  23.578  29.868  1.00  0.00     0.025 C 
ATOM      6  C   UNL     1      14.280  22.490  29.295  1.00  0.00     0.089 C 
ATOM      7  C   UNL     1      14.669  22.154  27.882  1.00  0.00     0.158 C 
ATOM      8  O   UNL     1      14.386  21.015  27.421  1.00  0.00    -0.295 OA
ENDROOT
BRANCH   5   9
ATOM      9  C   UNL     1      14.776  23.995  31.268  1.00  0.00    -0.077 C 
ATOM     10  C   UNL     1      13.997  25.075  31.441  1.00  0.00     0.008 C 
ATOM     11  C   UNL     1      15.210  23.218  32.486  1.00  0.00     0.039 C 
ENDBRANCH   5   9
TORSDOF 1
ENDMDL
MODEL 6
REMARK VINA RESULT:    -4.421      8.998      9.797
REMARK INTER + INTRA:          -4.776
REMARK INTER:                  -4.679
REMARK INTRA:                  -0.096
REMARK UNBOUND:                -0.096
REMARK SMILES C=C(C)[C@@H]1CC=C(C)C(=O)C1
REMARK SMILES IDX 8 1 7 2 6 3 5 4 4 5 11 6 9 7 10 8 2 9 1 10 3 11
REMARK H PARENT
REMARK Flexibility Score: inf
ROOT
ATOM      1  C   UNL     1      24.444  29.409  29.821  1.00  0.00     0.048 C 
ATOM      2  C   UNL     1      23.437  28.486  29.194  1.00  0.00    -0.012 C 
ATOM      3  C   UNL     1      22.123  28.727  29.345  1.00  0.00    -0.019 C 
ATOM      4  C   UNL     1      21.072  27.845  28.723  1.00  0.00     0.036 C 
ATOM      5  C   UNL     1      21.546  26.382  28.655  1.00  0.00     0.025 C 
ATOM      6  C   UNL     1      22.896  26.291  27.918  1.00  0.00     0.089 C 
ATOM      7  C   UNL     1      23.891  27.245  28.516  1.00  0.00     0.158 C 
ATOM      8  O   UNL     1      25.122  26.999  28.404  1.00  0.00    -0.295 OA
ENDROOT
BRANCH   5   9
ATOM      9  C   UNL     1      20.498  25.486  28.010  1.00  0.00    -0.077 C 
ATOM     10  C   UNL     1      19.192  25.757  28.166  1.00  0.00     0.008 C 
ATOM     11  C   UNL     1      20.890  24.283  27.189  1.00  0.00     0.039 C 
ENDBRANCH   5   9
TORSDOF 1
ENDMDL
MODEL 7
REMARK VINA RESULT:    -4.406      8.420      9.026
REMARK INTER + INTRA:          -4.759
REMARK INTER:                  -4.661
REMARK INTRA:                  -0.098
REMARK UNBOUND:                -0.096
REMARK SMILES C=C(C)[C@@H]1CC=C(C)C(=O)C1
REMARK SMILES IDX 8 1 7 2 6 3 5 4 4 5 11 6 9 7 10 8 2 9 1 10 3 11
REMARK H PARENT
REMARK Flexibility Score: inf
ROOT
ATOM      1  C   UNL     1      18.583  25.593  27.880  1.00  0.00     0.048 C 
ATOM      2  C   UNL     1      19.946  26.100  28.263  1.00  0.00    -0.012 C 
ATOM      3  C   UNL     1      20.078  27.327  28.797  1.00  0.00    -0.019 C 
ATOM      4  C   UNL     1      21.416  27.876  29.216  1.00  0.00     0.036 C 
ATOM      5  C   UNL     1      22.541  27.346  28.308  1.00  0.00     0.025 C 
ATOM      6  C   UNL     1      22.525  25.806  28.280  1.00  0.00     0.089 C 
ATOM      7  C   UNL     1      21.152  25.297  27.938  1.00  0.00     0.158 C 
ATOM      8  O   UNL     1      21.033  24.162  27.406  1.00  0.00    -0.295 OA
ENDROOT
BRANCH   5   9
ATOM      9  C   UNL     1      23.901  27.881  28.735  1.00  0.00    -0.077 C 
ATOM     10  C   UNL     1      25.024  27.256  28.345  1.00  0.00     0.008 C 
ATOM     11  C   UNL     1      24.025  29.111  29.600  1.00  0.00     0.039 C 
ENDBRANCH   5   9
TORSDOF 1
ENDMDL
MODEL 8
REMARK VINA RESULT:    -4.381      6.347      7.026
REMARK INTER + INTRA:          -4.733
REMARK INTER:                  -4.635
REMARK INTRA:                  -0.097
REMARK UNBOUND:                -0.096
REMARK SMILES C=C(C)[C@@H]1CC=C(C)C(=O)C1
REMARK SMILES IDX 8 1 7 2 6 3 5 4 4 5 11 6 9 7 10 8 2 9 1 10 3 11
REMARK H PARENT
REMARK Flexibility Score: inf
ROOT
ATOM      1  C   UNL     1      20.589  23.964  26.688  1.00  0.00     0.048 C 
ATOM      2  C   UNL     1      20.021  25.073  27.530  1.00  0.00    -0.012 C 
ATOM      3  C   UNL     1      18.710  25.362  27.460  1.00  0.00    -0.019 C 
ATOM      4  C   UNL     1      18.085  26.448  28.295  1.00  0.00     0.036 C 
ATOM      5  C   UNL     1      19.078  27.600  28.537  1.00  0.00     0.025 C 
ATOM      6  C   UNL     1      20.380  27.061  29.159  1.00  0.00     0.089 C 
ATOM      7  C   UNL     1      20.927  25.925  28.341  1.00  0.00     0.158 C 
ATOM      8  O   UNL     1      22.162  25.678  28.381  1.00  0.00    -0.295 OA
ENDROOT
BRANCH   5   9
ATOM      9  C   UNL     1      18.462  28.695  29.397  1.00  0.00    -0.077 C 
ATOM     10  C   UNL     1      17.729  28.373  30.475  1.00  0.00     0.008 C 
ATOM     11  C   UNL     1      18.653  30.154  29.066  1.00  0.00     0.039 C 
ENDBRANCH   5   9
TORSDOF 1
ENDMDL
MODEL 9
REMARK VINA RESULT:    -4.204      1.710      2.620
REMARK INTER + INTRA:          -4.545
REMARK INTER:                  -4.447
REMARK INTRA:                  -0.098
REMARK UNBOUND:                -0.096
REMARK SMILES C=C(C)[C@@H]1CC=C(C)C(=O)C1
REMARK SMILES IDX 8 1 7 2 6 3 5 4 4 5 11 6 9 7 10 8 2 9 1 10 3 11
REMARK H PARENT
REMARK Flexibility Score: inf
ROOT
ATOM      1  C   UNL     1      14.841  21.015  26.805  1.00  0.00     0.048 C 
ATOM      2  C   UNL     1      14.973  21.772  28.097  1.00  0.00    -0.012 C 
ATOM      3  C   UNL     1      14.941  21.110  29.266  1.00  0.00    -0.019 C 
ATOM      4  C   UNL     1      15.088  21.817  30.588  1.00  0.00     0.036 C 
ATOM      5  C   UNL     1      14.485  23.232  30.530  1.00  0.00     0.025 C 
ATOM      6  C   UNL     1      15.107  24.031  29.369  1.00  0.00     0.089 C 
ATOM      7  C   UNL     1      15.014  23.257  28.084  1.00  0.00     0.158 C 
ATOM      8  O   UNL     1      15.008  23.881  26.990  1.00  0.00    -0.295 OA
ENDROOT
BRANCH   5   9
ATOM      9  C   UNL     1      14.646  23.962  31.857  1.00  0.00    -0.077 C 
ATOM     10  C   UNL     1      15.016  23.285  32.956  1.00  0.00     0.008 C 
ATOM     11  C   UNL     1      14.395  25.444  31.974  1.00  0.00     0.039 C 
ENDBRANCH   5   9
TORSDOF 1
ENDMDL
