MODEL 1
REMARK VINA RESULT:    53.873      0.000      0.000
REMARK INTER + INTRA:          83.090
REMARK INTER:                  80.643
REMARK INTRA:                   2.447
REMARK UNBOUND:                 2.447
REMARK SMILES C=C(CC[C@H](C(=O)[O-])[C@H]1[C@@H](O)C[C@@]2(C)C3=C(CC[C@@]12C)[C@]1(C)CC[C@H](OC(C)=O)C(C)(C)[C@H]1CC3)C(C)C
REMARK SMILES IDX 4 1 5 2 6 3 7 4 8 5 9 6 10 7 19 8 12 9 13 10 18 11 20 12
REMARK SMILES IDX 14 13 15 14 17 15 16 16 35 17 21 18 34 19 33 20 23 21 22 22
REMARK SMILES IDX 30 23 24 24 25 25 31 26 32 27 11 28 26 30 27 31 29 32 28 33
REMARK SMILES IDX 3 34 2 35 1 36 36 37 37 38 38 39
REMARK H PARENT 11 29
REMARK Flexibility Score: inf
ROOT
ATOM      1  C   UNL     1      19.660 -14.392  16.558  1.00  0.00     0.014 C 
ENDROOT
BRANCH   1   2
ATOM      2  C   UNL     1      19.530 -13.036  15.817  1.00  0.00     0.042 C 
BRANCH   2   3
ATOM      3  C   UNL     1      19.902 -11.921  16.773  1.00  0.00     0.045 C 
ATOM      4  O   UNL     1      20.032 -10.744  16.343  1.00  0.00    -0.550 OA
ATOM      5  O   UNL     1      20.152 -12.184  18.116  1.00  0.00    -0.550 OA
ENDBRANCH   2   3
BRANCH   2   6
ATOM      6  C   UNL     1      18.148 -12.757  15.110  1.00  0.00     0.033 C 
ATOM      7  C   UNL     1      17.082 -12.231  16.105  1.00  0.00     0.119 C 
ATOM      8  C   UNL     1      18.076 -11.798  13.859  1.00  0.00    -0.017 C 
ATOM      9  C   UNL     1      16.099 -11.361  15.323  1.00  0.00     0.043 C 
ATOM     10  C   UNL     1      16.560 -11.322  13.843  1.00  0.00    -0.003 C 
ATOM     11  C   UNL     1      19.062 -10.579  13.943  1.00  0.00     0.012 C 
ATOM     12  C   UNL     1      18.442 -12.557  12.550  1.00  0.00     0.013 C 
ATOM     13  C   UNL     1      15.642 -12.328  13.072  1.00  0.00     0.017 C 
ATOM     14  C   UNL     1      16.408  -9.871  13.311  1.00  0.00    -0.064 C 
ATOM     15  C   UNL     1      18.465  -9.336  14.587  1.00  0.00     0.032 C 
ATOM     16  C   UNL     1      17.235  -8.890  13.811  1.00  0.00    -0.064 C 
ATOM     17  C   UNL     1      15.313  -9.557  12.276  1.00  0.00     0.032 C 
ATOM     18  C   UNL     1      17.101  -7.426  13.343  1.00  0.00    -0.008 C 
ATOM     19  C   UNL     1      15.128  -8.078  11.883  1.00  0.00     0.009 C 
ATOM     20  C   UNL     1      15.575  -7.176  13.038  1.00  0.00     0.009 C 
ATOM     21  C   UNL     1      17.587  -6.371  14.405  1.00  0.00     0.015 C 
ATOM     22  C   UNL     1      18.028  -7.323  12.096  1.00  0.00     0.016 C 
ATOM     23  C   UNL     1      15.112  -5.668  13.017  1.00  0.00     0.005 C 
ATOM     24  C   UNL     1      16.463  -5.795  15.264  1.00  0.00     0.047 C 
ATOM     25  C   UNL     1      15.416  -5.015  14.431  1.00  0.00     0.182 C 
ATOM     26  C   UNL     1      15.815  -4.848  11.907  1.00  0.00     0.015 C 
ATOM     27  C   UNL     1      13.587  -5.582  12.718  1.00  0.00     0.015 C 
BRANCH   7  28
ATOM     28  O   UNL     1      17.667 -11.478  17.138  1.00  0.00    -0.393 OA
ATOM     29  H   UNL     1      18.594 -11.266  16.850  1.00  0.00     0.210 HD
ENDBRANCH   7  28
BRANCH  25  30
ATOM     30  O   UNL     1      14.223  -4.907  15.215  1.00  0.00    -0.462 OA
BRANCH  30  31
ATOM     31  C   UNL     1      14.211  -4.619  16.585  1.00  0.00     0.302 C 
ATOM     32  O   UNL     1      13.186  -4.843  17.285  1.00  0.00    -0.253 OA
ATOM     33  C   UNL     1      15.445  -4.091  17.234  1.00  0.00     0.139 C 
ENDBRANCH  30  31
ENDBRANCH  25  30
ENDBRANCH   2   6
ENDBRANCH   1   2
BRANCH   1  34
ATOM     34  C   UNL     1      20.996 -15.133  16.332  1.00  0.00     0.031 C 
BRANCH  34  35
ATOM     35  C   UNL     1      20.793 -16.413  15.542  1.00  0.00    -0.075 C 
ATOM     36  C   UNL     1      21.085 -16.419  14.230  1.00  0.00     0.008 C 
BRANCH  35  37
ATOM     37  C   UNL     1      20.330 -17.698  16.216  1.00  0.00     0.008 C 
ATOM     38  C   UNL     1      20.462 -17.603  17.740  1.00  0.00     0.012 C 
ATOM     39  C   UNL     1      18.898 -18.056  15.805  1.00  0.00     0.012 C 
ENDBRANCH  35  37
ENDBRANCH  34  35
ENDBRANCH   1  34
TORSDOF 9
ENDMDL
