MODEL 1
REMARK VINA RESULT:    -5.546      0.000      0.000
REMARK INTER + INTRA:          -7.481
REMARK INTER:                  -7.816
REMARK INTRA:                   0.335
REMARK UNBOUND:                 0.335
REMARK SMILES CC1=CCC(=C(C)C)C(=O)CC(C)=CCC1
REMARK SMILES IDX 12 1 14 2 13 3 15 4 16 5 2 6 1 7 3 8 11 10 9 11 10 12 5 13
REMARK SMILES IDX 6 14 7 15 8 16 4 17
REMARK H PARENT
REMARK Flexibility Score: 60.00
ROOT
ATOM      1  C   UNL     1      -7.685  33.402  21.321  1.00  0.00    -0.070 C 
ATOM      2  C   UNL     1      -7.626  34.632  21.881  1.00  0.00    -0.027 C 
ATOM      3  C   UNL     1      -7.863  33.311  19.827  1.00  0.00     0.039 C 
ENDROOT
BRANCH   2   4
ATOM      4  C   UNL     1      -7.514  34.910  23.363  1.00  0.00     0.032 C 
BRANCH   4   5
ATOM      5  C   UNL     1      -8.844  34.663  24.088  1.00  0.00     0.034 C 
BRANCH   5   6
ATOM      6  C   UNL     1      -8.692  33.874  25.382  1.00  0.00    -0.077 C 
ATOM      7  C   UNL     1      -7.899  34.479  26.513  1.00  0.00     0.039 C 
ATOM      8  C   UNL     1      -9.219  32.643  25.569  1.00  0.00    -0.023 CG0
ATOM      9  G   UNL     1     -10.097  31.907  24.585  1.00  0.00     0.000 G0
ENDBRANCH   5   6
ENDBRANCH   4   5
ENDBRANCH   2   4
BRANCH   1  10
ATOM     10  C   UNL     1      -7.575  32.122  22.127  1.00  0.00     0.111 C 
BRANCH  10  11
ATOM     11  C   UNL     1      -8.924  31.485  22.316  1.00  0.00     0.163 C 
ATOM     12  O   UNL     1      -9.713  31.402  21.337  1.00  0.00    -0.294 OA
BRANCH  11  13
ATOM     13  C   UNL     1      -9.354  30.969  23.642  1.00  0.00    -0.002 C 
ATOM     14  C   UNL     1      -9.082  29.685  23.999  1.00  0.00    -0.069 C 
ATOM     15  C   UNL     1      -8.424  28.725  23.032  1.00  0.00     0.039 C 
ATOM     16  C   UNL     1      -9.463  29.159  25.364  1.00  0.00     0.039 C 
BRANCH  13  17
ATOM     17  C   UNL     1     -10.104  31.897  24.591  1.00  0.00     0.066 CG0
ATOM     18  G   UNL     1      -9.207  32.629  25.562  1.00  0.00     0.000 G0
ENDBRANCH  13  17
ENDBRANCH  11  13
ENDBRANCH  10  11
ENDBRANCH   1  10
TORSDOF 0
ENDMDL
MODEL 2
REMARK VINA RESULT:    -4.935      1.975      3.915
REMARK INTER + INTRA:          -6.620
REMARK INTER:                  -6.980
REMARK INTRA:                   0.360
REMARK UNBOUND:                 0.335
REMARK SMILES CC1=CCC(=C(C)C)C(=O)CC(C)=CCC1
REMARK SMILES IDX 12 1 14 2 13 3 15 4 16 5 2 6 1 7 3 8 11 10 9 11 10 12 5 13
REMARK SMILES IDX 6 14 7 15 8 16 4 17
REMARK H PARENT
REMARK Flexibility Score: 60.00
ROOT
ATOM      1  C   UNL     1      -8.608  34.195  25.728  1.00  0.00    -0.070 C 
ATOM      2  C   UNL     1      -8.474  33.729  26.992  1.00  0.00    -0.027 C 
ATOM      3  C   UNL     1      -8.012  35.541  25.402  1.00  0.00     0.039 C 
ENDROOT
BRANCH   2   4
ATOM      4  C   UNL     1      -9.061  32.436  27.510  1.00  0.00     0.032 C 
BRANCH   4   5
ATOM      5  C   UNL     1      -8.161  31.235  27.185  1.00  0.00     0.034 C 
BRANCH   5   6
ATOM      6  C   UNL     1      -8.888  30.110  26.462  1.00  0.00    -0.077 C 
ATOM      7  C   UNL     1      -9.946  29.333  27.203  1.00  0.00     0.039 C 
ATOM      8  C   UNL     1      -8.623  29.754  25.184  1.00  0.00    -0.023 CG0
ATOM      9  G   UNL     1      -7.653  30.456  24.262  1.00  0.00     0.000 G0
ENDBRANCH   5   6
ENDBRANCH   4   5
ENDBRANCH   2   4
BRANCH   1  10
ATOM     10  C   UNL     1      -9.322  33.423  24.635  1.00  0.00     0.111 C 
BRANCH  10  11
ATOM     11  C   UNL     1      -8.344  32.879  23.631  1.00  0.00     0.163 C 
ATOM     12  O   UNL     1      -7.548  33.666  23.052  1.00  0.00    -0.294 OA
BRANCH  11  13
ATOM     13  C   UNL     1      -8.313  31.433  23.290  1.00  0.00    -0.002 C 
ATOM     14  C   UNL     1      -8.877  30.988  22.135  1.00  0.00    -0.069 C 
ATOM     15  C   UNL     1      -9.627  31.928  21.217  1.00  0.00     0.039 C 
ATOM     16  C   UNL     1      -8.808  29.530  21.745  1.00  0.00     0.039 C 
BRANCH  13  17
ATOM     17  C   UNL     1      -7.643  30.458  24.253  1.00  0.00     0.066 CG0
ATOM     18  G   UNL     1      -8.609  29.751  25.174  1.00  0.00     0.000 G0
ENDBRANCH  13  17
ENDBRANCH  11  13
ENDBRANCH  10  11
ENDBRANCH   1  10
TORSDOF 0
ENDMDL
MODEL 3
REMARK VINA RESULT:    -4.834      1.731      3.127
REMARK INTER + INTRA:          -6.477
REMARK INTER:                  -7.000
REMARK INTRA:                   0.524
REMARK UNBOUND:                 0.335
REMARK SMILES CC1=CCC(=C(C)C)C(=O)CC(C)=CCC1
REMARK SMILES IDX 12 1 14 2 13 3 15 4 16 5 2 6 1 7 3 8 11 10 9 11 10 12 5 13
REMARK SMILES IDX 6 14 7 15 8 16 4 17
REMARK H PARENT
REMARK Flexibility Score: 60.00
ROOT
ATOM      1  C   UNL     1      -8.181  29.899  22.571  1.00  0.00    -0.070 C 
ATOM      2  C   UNL     1      -8.254  30.860  21.621  1.00  0.00    -0.027 C 
ATOM      3  C   UNL     1      -8.490  28.479  22.168  1.00  0.00     0.039 C 
ENDROOT
BRANCH   2   4
ATOM      4  C   UNL     1      -8.041  32.338  21.859  1.00  0.00     0.032 C 
BRANCH   4   5
ATOM      5  C   UNL     1      -9.158  32.941  22.722  1.00  0.00     0.034 C 
BRANCH   5   6
ATOM      6  C   UNL     1      -8.643  33.751  23.903  1.00  0.00    -0.077 C 
ATOM      7  C   UNL     1      -7.715  34.910  23.641  1.00  0.00     0.039 C 
ATOM      8  C   UNL     1      -8.960  33.475  25.189  1.00  0.00    -0.023 CG0
ATOM      9  G   UNL     1      -9.925  32.405  25.643  1.00  0.00     0.000 G0
ENDBRANCH   5   6
ENDBRANCH   4   5
ENDBRANCH   2   4
BRANCH   1  10
ATOM     10  C   UNL     1      -7.800  30.187  24.010  1.00  0.00     0.111 C 
BRANCH  10  11
ATOM     11  C   UNL     1      -8.994  30.078  24.918  1.00  0.00     0.163 C 
ATOM     12  O   UNL     1      -9.817  29.139  24.747  1.00  0.00    -0.294 OA
BRANCH  11  13
ATOM     13  C   UNL     1      -9.234  31.068  25.999  1.00  0.00    -0.002 C 
ATOM     14  C   UNL     1      -8.850  30.797  27.276  1.00  0.00    -0.069 C 
ATOM     15  C   UNL     1      -8.261  29.454  27.647  1.00  0.00     0.039 C 
ATOM     16  C   UNL     1      -9.037  31.813  28.378  1.00  0.00     0.039 C 
BRANCH  13  17
ATOM     17  C   UNL     1      -9.915  32.389  25.658  1.00  0.00     0.066 CG0
ATOM     18  G   UNL     1      -8.960  33.468  25.204  1.00  0.00     0.000 G0
ENDBRANCH  13  17
ENDBRANCH  11  13
ENDBRANCH  10  11
ENDBRANCH   1  10
TORSDOF 0
ENDMDL
MODEL 4
REMARK VINA RESULT:    -4.634      1.878      3.862
REMARK INTER + INTRA:          -6.195
REMARK INTER:                  -6.584
REMARK INTRA:                   0.389
REMARK UNBOUND:                 0.335
REMARK SMILES CC1=CCC(=C(C)C)C(=O)CC(C)=CCC1
REMARK SMILES IDX 12 1 14 2 13 3 15 4 16 5 2 6 1 7 3 8 11 10 9 11 10 12 5 13
REMARK SMILES IDX 6 14 7 15 8 16 4 17
REMARK H PARENT
REMARK Flexibility Score: 60.00
ROOT
ATOM      1  C   UNL     1      -8.708  34.419  25.163  1.00  0.00    -0.070 C 
ATOM      2  C   UNL     1      -8.322  35.241  24.160  1.00  0.00    -0.027 C 
ATOM      3  C   UNL     1      -8.400  34.835  26.580  1.00  0.00     0.039 C 
ENDROOT
BRANCH   2   4
ATOM      4  C   UNL     1      -8.491  34.956  22.686  1.00  0.00     0.032 C 
BRANCH   4   5
ATOM      5  C   UNL     1      -7.236  34.307  22.085  1.00  0.00     0.034 C 
BRANCH   5   6
ATOM      6  C   UNL     1      -7.531  33.061  21.263  1.00  0.00    -0.077 C 
ATOM      7  C   UNL     1      -7.925  33.221  19.816  1.00  0.00     0.039 C 
ATOM      8  C   UNL     1      -7.476  31.807  21.766  1.00  0.00    -0.023 CG0
ATOM      9  G   UNL     1      -7.035  31.443  23.164  1.00  0.00     0.000 G0
ENDBRANCH   5   6
ENDBRANCH   4   5
ENDBRANCH   2   4
BRANCH   1  10
ATOM     10  C   UNL     1      -9.437  33.111  24.924  1.00  0.00     0.111 C 
BRANCH  10  11
ATOM     11  C   UNL     1      -8.541  31.935  25.194  1.00  0.00     0.163 C 
ATOM     12  O   UNL     1      -8.101  31.746  26.359  1.00  0.00    -0.294 OA
BRANCH  11  13
ATOM     13  C   UNL     1      -8.145  31.002  24.107  1.00  0.00    -0.002 C 
ATOM     14  C   UNL     1      -8.778  29.807  23.964  1.00  0.00    -0.069 C 
ATOM     15  C   UNL     1      -9.828  29.354  24.954  1.00  0.00     0.039 C 
ATOM     16  C   UNL     1      -8.426  28.869  22.832  1.00  0.00     0.039 C 
BRANCH  13  17
ATOM     17  C   UNL     1      -7.020  31.404  23.158  1.00  0.00     0.066 CG0
ATOM     18  G   UNL     1      -7.498  31.805  21.782  1.00  0.00     0.000 G0
ENDBRANCH  13  17
ENDBRANCH  11  13
ENDBRANCH  10  11
ENDBRANCH   1  10
TORSDOF 0
ENDMDL
MODEL 5
REMARK VINA RESULT:    -4.626      1.969      3.794
REMARK INTER + INTRA:          -6.184
REMARK INTER:                  -6.971
REMARK INTRA:                   0.787
REMARK UNBOUND:                 0.335
REMARK SMILES CC1=CCC(=C(C)C)C(=O)CC(C)=CCC1
REMARK SMILES IDX 12 1 14 2 13 3 15 4 16 5 2 6 1 7 3 8 11 10 9 11 10 12 5 13
REMARK SMILES IDX 6 14 7 15 8 16 4 17
REMARK H PARENT
REMARK Flexibility Score: 60.00
ROOT
ATOM      1  C   UNL     1      -7.763  34.966  24.031  1.00  0.00    -0.070 C 
ATOM      2  C   UNL     1      -7.428  34.949  22.720  1.00  0.00    -0.027 C 
ATOM      3  C   UNL     1      -6.862  35.712  24.983  1.00  0.00     0.039 C 
ENDROOT
BRANCH   2   4
ATOM      4  C   UNL     1      -8.176  34.202  21.640  1.00  0.00     0.032 C 
BRANCH   4   5
ATOM      5  C   UNL     1      -7.702  32.747  21.523  1.00  0.00     0.034 C 
BRANCH   5   6
ATOM      6  C   UNL     1      -8.797  31.727  21.803  1.00  0.00    -0.077 C 
ATOM      7  C   UNL     1      -9.780  31.398  20.708  1.00  0.00     0.039 C 
ATOM      8  C   UNL     1      -8.950  31.107  22.994  1.00  0.00    -0.023 CG0
ATOM      9  G   UNL     1      -8.028  31.252  24.182  1.00  0.00     0.000 G0
ENDBRANCH   5   6
ENDBRANCH   4   5
ENDBRANCH   2   4
BRANCH   1  10
ATOM     10  C   UNL     1      -8.999  34.278  24.577  1.00  0.00     0.111 C 
BRANCH  10  11
ATOM     11  C   UNL     1      -8.638  33.296  25.657  1.00  0.00     0.163 C 
ATOM     12  O   UNL     1      -8.246  33.723  26.776  1.00  0.00    -0.294 OA
BRANCH  11  13
ATOM     13  C   UNL     1      -8.713  31.830  25.423  1.00  0.00    -0.002 C 
ATOM     14  C   UNL     1      -9.380  31.030  26.297  1.00  0.00    -0.069 C 
ATOM     15  C   UNL     1      -9.978  31.588  27.570  1.00  0.00     0.039 C 
ATOM     16  C   UNL     1      -9.514  29.545  26.049  1.00  0.00     0.039 C 
BRANCH  13  17
ATOM     17  C   UNL     1      -8.032  31.239  24.193  1.00  0.00     0.066 CG0
ATOM     18  G   UNL     1      -8.946  31.101  22.998  1.00  0.00     0.000 G0
ENDBRANCH  13  17
ENDBRANCH  11  13
ENDBRANCH  10  11
ENDBRANCH   1  10
TORSDOF 0
ENDMDL
MODEL 6
REMARK VINA RESULT:    -4.409      1.166      3.826
REMARK INTER + INTRA:          -5.878
REMARK INTER:                  -7.437
REMARK INTRA:                   1.559
REMARK UNBOUND:                 0.335
REMARK SMILES CC1=CCC(=C(C)C)C(=O)CC(C)=CCC1
REMARK SMILES IDX 12 1 14 2 13 3 15 4 16 5 2 6 1 7 3 8 11 10 9 11 10 12 5 13
REMARK SMILES IDX 6 14 7 15 8 16 4 17
REMARK H PARENT
REMARK Flexibility Score: 60.00
ROOT
ATOM      1  C   UNL     1      -8.538  29.100  23.155  1.00  0.00    -0.070 C 
ATOM      2  C   UNL     1      -9.313  28.794  24.221  1.00  0.00    -0.027 C 
ATOM      3  C   UNL     1      -8.357  28.053  22.086  1.00  0.00     0.039 C 
ENDROOT
BRANCH   2   4
ATOM      4  C   UNL     1      -9.553  29.694  25.412  1.00  0.00     0.032 C 
BRANCH   4   5
ATOM      5  C   UNL     1      -8.271  30.421  25.841  1.00  0.00     0.034 C 
BRANCH   5   6
ATOM      6  C   UNL     1      -8.527  31.778  26.480  1.00  0.00    -0.077 C 
ATOM      7  C   UNL     1      -7.877  32.093  27.803  1.00  0.00     0.039 C 
ATOM      8  C   UNL     1      -9.328  32.720  25.931  1.00  0.00    -0.023 CG0
ATOM      9  G   UNL     1     -10.006  32.616  24.585  1.00  0.00     0.000 G0
ENDBRANCH   5   6
ENDBRANCH   4   5
ENDBRANCH   2   4
BRANCH   1  10
ATOM     10  C   UNL     1      -7.854  30.443  22.991  1.00  0.00     0.111 C 
BRANCH  10  11
ATOM     11  C   UNL     1      -8.832  31.498  22.552  1.00  0.00     0.163 C 
ATOM     12  O   UNL     1      -9.440  31.360  21.457  1.00  0.00    -0.294 OA
BRANCH  11  13
ATOM     13  C   UNL     1      -9.078  32.711  23.373  1.00  0.00    -0.002 C 
ATOM     14  C   UNL     1      -8.478  33.889  23.055  1.00  0.00    -0.069 C 
ATOM     15  C   UNL     1      -7.477  33.977  21.924  1.00  0.00     0.039 C 
ATOM     16  C   UNL     1      -8.758  35.146  23.845  1.00  0.00     0.039 C 
BRANCH  13  17
ATOM     17  C   UNL     1     -10.011  32.616  24.576  1.00  0.00     0.066 CG0
ATOM     18  G   UNL     1      -9.305  32.740  25.906  1.00  0.00     0.000 G0
ENDBRANCH  13  17
ENDBRANCH  11  13
ENDBRANCH  10  11
ENDBRANCH   1  10
TORSDOF 0
ENDMDL
MODEL 7
REMARK VINA RESULT:    -4.110      1.687      3.950
REMARK INTER + INTRA:          -5.457
REMARK INTER:                  -6.218
REMARK INTRA:                   0.760
REMARK UNBOUND:                 0.335
REMARK SMILES CC1=CCC(=C(C)C)C(=O)CC(C)=CCC1
REMARK SMILES IDX 12 1 14 2 13 3 15 4 16 5 2 6 1 7 3 8 11 10 9 11 10 12 5 13
REMARK SMILES IDX 6 14 7 15 8 16 4 17
REMARK H PARENT
REMARK Flexibility Score: 60.00
ROOT
ATOM      1  C   UNL     1      -8.404  32.751  20.998  1.00  0.00    -0.070 C 
ATOM      2  C   UNL     1      -8.531  31.414  20.837  1.00  0.00    -0.027 C 
ATOM      3  C   UNL     1      -7.425  33.483  20.115  1.00  0.00     0.039 C 
ENDROOT
BRANCH   2   4
ATOM      4  C   UNL     1      -9.413  30.515  21.673  1.00  0.00     0.032 C 
BRANCH   4   5
ATOM      5  C   UNL     1      -8.600  29.728  22.710  1.00  0.00     0.034 C 
BRANCH   5   6
ATOM      6  C   UNL     1      -9.038  29.982  24.145  1.00  0.00    -0.077 C 
ATOM      7  C   UNL     1     -10.003  29.021  24.792  1.00  0.00     0.039 C 
ATOM      8  C   UNL     1      -8.620  31.042  24.874  1.00  0.00    -0.023 CG0
ATOM      9  G   UNL     1      -7.605  32.068  24.426  1.00  0.00     0.000 G0
ENDBRANCH   5   6
ENDBRANCH   4   5
ENDBRANCH   2   4
BRANCH   1  10
ATOM     10  C   UNL     1      -9.203  33.539  22.018  1.00  0.00     0.111 C 
BRANCH  10  11
ATOM     11  C   UNL     1      -8.304  34.148  23.057  1.00  0.00     0.163 C 
ATOM     12  O   UNL     1      -7.688  35.215  22.795  1.00  0.00    -0.294 OA
BRANCH  11  13
ATOM     13  C   UNL     1      -8.108  33.502  24.382  1.00  0.00    -0.002 C 
ATOM     14  C   UNL     1      -8.388  34.185  25.525  1.00  0.00    -0.069 C 
ATOM     15  C   UNL     1      -8.810  35.637  25.487  1.00  0.00     0.039 C 
ATOM     16  C   UNL     1      -8.247  33.527  26.878  1.00  0.00     0.039 C 
BRANCH  13  17
ATOM     17  C   UNL     1      -7.590  32.069  24.440  1.00  0.00     0.066 CG0
ATOM     18  G   UNL     1      -8.630  31.062  24.873  1.00  0.00     0.000 G0
ENDBRANCH  13  17
ENDBRANCH  11  13
ENDBRANCH  10  11
ENDBRANCH   1  10
TORSDOF 0
ENDMDL
MODEL 8
REMARK VINA RESULT:    -3.917      2.215      3.927
REMARK INTER + INTRA:          -5.185
REMARK INTER:                  -6.529
REMARK INTRA:                   1.344
REMARK UNBOUND:                 0.335
REMARK SMILES CC1=CCC(=C(C)C)C(=O)CC(C)=CCC1
REMARK SMILES IDX 12 1 14 2 13 3 15 4 16 5 2 6 1 7 3 8 11 10 9 11 10 12 5 13
REMARK SMILES IDX 6 14 7 15 8 16 4 17
REMARK H PARENT
REMARK Flexibility Score: 60.00
ROOT
ATOM      1  C   UNL     1      -8.224  34.065  23.666  1.00  0.00    -0.070 C 
ATOM      2  C   UNL     1      -8.416  33.364  22.525  1.00  0.00    -0.027 C 
ATOM      3  C   UNL     1      -6.959  34.874  23.798  1.00  0.00     0.039 C 
ENDROOT
BRANCH   2   4
ATOM      4  C   UNL     1      -9.590  32.454  22.248  1.00  0.00     0.032 C 
BRANCH   4   5
ATOM      5  C   UNL     1      -9.160  30.983  22.161  1.00  0.00     0.034 C 
BRANCH   5   6
ATOM      6  C   UNL     1      -8.002  30.634  23.085  1.00  0.00    -0.077 C 
ATOM      7  C   UNL     1      -6.670  30.273  22.476  1.00  0.00     0.039 C 
ATOM      8  C   UNL     1      -8.106  30.611  24.433  1.00  0.00    -0.023 CG0
ATOM      9  G   UNL     1      -9.330  31.008  25.224  1.00  0.00     0.000 G0
ENDBRANCH   5   6
ENDBRANCH   4   5
ENDBRANCH   2   4
BRANCH   1  10
ATOM     10  C   UNL     1      -9.225  34.076  24.806  1.00  0.00     0.111 C 
BRANCH  10  11
ATOM     11  C   UNL     1      -8.663  33.401  26.025  1.00  0.00     0.163 C 
ATOM     12  O   UNL     1      -7.865  34.031  26.770  1.00  0.00    -0.294 OA
BRANCH  11  13
ATOM     13  C   UNL     1      -9.012  31.996  26.359  1.00  0.00    -0.002 C 
ATOM     14  C   UNL     1      -9.053  31.588  27.656  1.00  0.00    -0.069 C 
ATOM     15  C   UNL     1      -8.656  32.518  28.781  1.00  0.00     0.039 C 
ATOM     16  C   UNL     1      -9.459  30.178  28.018  1.00  0.00     0.039 C 
BRANCH  13  17
ATOM     17  C   UNL     1      -9.323  31.020  25.228  1.00  0.00     0.066 CG0
ATOM     18  G   UNL     1      -8.108  30.603  24.432  1.00  0.00     0.000 G0
ENDBRANCH  13  17
ENDBRANCH  11  13
ENDBRANCH  10  11
ENDBRANCH   1  10
TORSDOF 0
ENDMDL
MODEL 9
REMARK VINA RESULT:    -3.774      1.809      3.846
REMARK INTER + INTRA:          -4.984
REMARK INTER:                  -6.859
REMARK INTRA:                   1.875
REMARK UNBOUND:                 0.335
REMARK SMILES CC1=CCC(=C(C)C)C(=O)CC(C)=CCC1
REMARK SMILES IDX 12 1 14 2 13 3 15 4 16 5 2 6 1 7 3 8 11 10 9 11 10 12 5 13
REMARK SMILES IDX 6 14 7 15 8 16 4 17
REMARK H PARENT
REMARK Flexibility Score: 60.00
ROOT
ATOM      1  C   UNL     1      -8.720  33.035  26.968  1.00  0.00    -0.070 C 
ATOM      2  C   UNL     1      -8.253  34.219  26.509  1.00  0.00    -0.027 C 
ATOM      3  C   UNL     1      -8.249  32.564  28.321  1.00  0.00     0.039 C 
ENDROOT
BRANCH   2   4
ATOM      4  C   UNL     1      -8.567  34.813  25.155  1.00  0.00     0.032 C 
BRANCH   4   5
ATOM      5  C   UNL     1      -7.570  34.345  24.085  1.00  0.00     0.034 C 
BRANCH   5   6
ATOM      6  C   UNL     1      -8.148  34.344  22.676  1.00  0.00    -0.077 C 
ATOM      7  C   UNL     1      -7.472  35.173  21.613  1.00  0.00     0.039 C 
ATOM      8  C   UNL     1      -9.253  33.649  22.326  1.00  0.00    -0.023 CG0
ATOM      9  G   UNL     1     -10.021  32.712  23.229  1.00  0.00     0.000 G0
ENDBRANCH   5   6
ENDBRANCH   4   5
ENDBRANCH   2   4
BRANCH   1  10
ATOM     10  C   UNL     1      -9.693  32.172  26.188  1.00  0.00     0.111 C 
BRANCH  10  11
ATOM     11  C   UNL     1      -8.977  31.346  25.157  1.00  0.00     0.163 C 
ATOM     12  O   UNL     1      -8.100  30.520  25.525  1.00  0.00    -0.294 OA
BRANCH  11  13
ATOM     13  C   UNL     1      -9.268  31.500  23.708  1.00  0.00    -0.002 C 
ATOM     14  C   UNL     1      -8.836  30.565  22.818  1.00  0.00    -0.069 C 
ATOM     15  C   UNL     1      -7.974  29.403  23.261  1.00  0.00     0.039 C 
ATOM     16  C   UNL     1      -9.168  30.677  21.348  1.00  0.00     0.039 C 
BRANCH  13  17
ATOM     17  C   UNL     1     -10.054  32.718  23.234  1.00  0.00     0.066 CG0
ATOM     18  G   UNL     1      -9.269  33.634  22.325  1.00  0.00     0.000 G0
ENDBRANCH  13  17
ENDBRANCH  11  13
ENDBRANCH  10  11
ENDBRANCH   1  10
TORSDOF 0
ENDMDL
