MODEL 1
REMARK VINA RESULT:    -4.749      0.000      0.000
REMARK INTER + INTRA:          -9.214
REMARK INTER:                  -8.635
REMARK INTRA:                  -0.579
REMARK UNBOUND:                -0.579
REMARK SMILES CCCCCCCCCCCCCC[C@@H](C)C(=O)[O-]
REMARK SMILES IDX 9 1 10 2 11 3 12 4 13 5 14 6 15 7 16 8 17 9 18 10 19 11 8 12
REMARK SMILES IDX 7 13 6 14 5 15 4 16 3 17 2 18 1 19
REMARK H PARENT
REMARK Flexibility Score: inf
ROOT
ATOM      1  C   UNL     1     -11.493 -13.077  -1.323  1.00  0.00     0.000 C 
ENDROOT
BRANCH   1   2
ATOM      2  C   UNL     1     -12.774 -12.269  -1.617  1.00  0.00     0.000 C 
BRANCH   2   3
ATOM      3  C   UNL     1     -13.419 -11.603  -0.388  1.00  0.00     0.000 C 
BRANCH   3   4
ATOM      4  C   UNL     1     -12.811 -12.081   0.938  1.00  0.00     0.000 C 
BRANCH   4   5
ATOM      5  C   UNL     1     -13.505 -11.416   2.132  1.00  0.00     0.001 C 
BRANCH   5   6
ATOM      6  C   UNL     1     -12.669 -11.568   3.413  1.00  0.00     0.009 C 
BRANCH   6   7
ATOM      7  C   UNL     1     -12.509 -10.232   4.166  1.00  0.00     0.032 C 
ATOM      8  C   UNL     1     -13.871  -9.711   4.638  1.00  0.00     0.014 C 
BRANCH   7   9
ATOM      9  C   UNL     1     -11.577 -10.368   5.341  1.00  0.00     0.044 C 
ATOM     10  O   UNL     1     -10.785 -11.344   5.420  1.00  0.00    -0.550 OA
ATOM     11  O   UNL     1     -11.589  -9.412   6.348  1.00  0.00    -0.550 OA
ENDBRANCH   7   9
ENDBRANCH   6   7
ENDBRANCH   5   6
ENDBRANCH   4   5
ENDBRANCH   3   4
ENDBRANCH   2   3
ENDBRANCH   1   2
BRANCH   1  12
ATOM     12  C   UNL     1     -10.591 -13.337  -2.545  1.00  0.00     0.000 C 
BRANCH  12  13
ATOM     13  C   UNL     1      -9.121 -12.908  -2.368  1.00  0.00    -0.000 C 
BRANCH  13  14
ATOM     14  C   UNL     1      -8.152 -13.426  -3.451  1.00  0.00    -0.000 C 
BRANCH  14  15
ATOM     15  C   UNL     1      -6.874 -12.588  -3.644  1.00  0.00    -0.000 C 
BRANCH  15  16
ATOM     16  C   UNL     1      -5.690 -13.417  -4.168  1.00  0.00    -0.000 C 
BRANCH  16  17
ATOM     17  C   UNL     1      -5.160 -12.913  -5.523  1.00  0.00    -0.000 C 
BRANCH  17  18
ATOM     18  C   UNL     1      -5.972 -11.769  -6.157  1.00  0.00    -0.003 C 
ATOM     19  C   UNL     1      -6.931 -12.246  -7.246  1.00  0.00     0.004 C 
ENDBRANCH  17  18
ENDBRANCH  16  17
ENDBRANCH  15  16
ENDBRANCH  14  15
ENDBRANCH  13  14
ENDBRANCH  12  13
ENDBRANCH   1  12
TORSDOF 14
ENDMDL
MODEL 2
REMARK VINA RESULT:    -4.525     17.914     20.082
REMARK INTER + INTRA:          -8.806
REMARK INTER:                  -6.604
REMARK INTRA:                  -2.202
REMARK UNBOUND:                -0.579
REMARK SMILES CCCCCCCCCCCCCC[C@@H](C)C(=O)[O-]
REMARK SMILES IDX 9 1 10 2 11 3 12 4 13 5 14 6 15 7 16 8 17 9 18 10 19 11 8 12
REMARK SMILES IDX 7 13 6 14 5 15 4 16 3 17 2 18 1 19
REMARK H PARENT
REMARK Flexibility Score: inf
ROOT
ATOM      1  C   UNL     1       2.503   1.118  -5.264  1.00  0.00     0.000 C 
ENDROOT
BRANCH   1   2
ATOM      2  C   UNL     1       3.729   1.871  -5.822  1.00  0.00     0.000 C 
BRANCH   2   3
ATOM      3  C   UNL     1       4.226   1.379  -7.193  1.00  0.00     0.000 C 
BRANCH   3   4
ATOM      4  C   UNL     1       4.067   2.433  -8.299  1.00  0.00     0.000 C 
BRANCH   4   5
ATOM      5  C   UNL     1       2.586   2.715  -8.580  1.00  0.00     0.001 C 
BRANCH   5   6
ATOM      6  C   UNL     1       2.213   4.152  -8.184  1.00  0.00     0.009 C 
BRANCH   6   7
ATOM      7  C   UNL     1       0.728   4.279  -7.786  1.00  0.00     0.032 C 
ATOM      8  C   UNL     1      -0.008   2.954  -8.014  1.00  0.00     0.014 C 
BRANCH   7   9
ATOM      9  C   UNL     1       0.576   4.711  -6.352  1.00  0.00     0.044 C 
ATOM     10  O   UNL     1      -0.542   5.085  -5.910  1.00  0.00    -0.550 OA
ATOM     11  O   UNL     1       1.678   4.699  -5.506  1.00  0.00    -0.550 OA
ENDBRANCH   7   9
ENDBRANCH   6   7
ENDBRANCH   5   6
ENDBRANCH   4   5
ENDBRANCH   3   4
ENDBRANCH   2   3
ENDBRANCH   1   2
BRANCH   1  12
ATOM     12  C   UNL     1       2.780   0.246  -4.024  1.00  0.00     0.000 C 
BRANCH  12  13
ATOM     13  C   UNL     1       3.771  -0.910  -4.254  1.00  0.00    -0.000 C 
BRANCH  13  14
ATOM     14  C   UNL     1       3.187  -2.139  -4.982  1.00  0.00    -0.000 C 
BRANCH  14  15
ATOM     15  C   UNL     1       3.638  -2.312  -6.445  1.00  0.00    -0.000 C 
BRANCH  15  16
ATOM     16  C   UNL     1       2.459  -2.480  -7.417  1.00  0.00    -0.000 C 
BRANCH  16  17
ATOM     17  C   UNL     1       2.455  -1.427  -8.541  1.00  0.00    -0.000 C 
BRANCH  17  18
ATOM     18  C   UNL     1       1.141  -0.640  -8.693  1.00  0.00    -0.003 C 
ATOM     19  C   UNL     1      -0.036  -1.514  -9.122  1.00  0.00     0.004 C 
ENDBRANCH  17  18
ENDBRANCH  16  17
ENDBRANCH  15  16
ENDBRANCH  14  15
ENDBRANCH  13  14
ENDBRANCH  12  13
ENDBRANCH   1  12
TORSDOF 14
ENDMDL
MODEL 3
REMARK VINA RESULT:    -4.384      4.253      6.932
REMARK INTER + INTRA:          -8.551
REMARK INTER:                  -6.640
REMARK INTRA:                  -1.911
REMARK UNBOUND:                -0.579
REMARK SMILES CCCCCCCCCCCCCC[C@@H](C)C(=O)[O-]
REMARK SMILES IDX 9 1 10 2 11 3 12 4 13 5 14 6 15 7 16 8 17 9 18 10 19 11 8 12
REMARK SMILES IDX 7 13 6 14 5 15 4 16 3 17 2 18 1 19
REMARK H PARENT
REMARK Flexibility Score: inf
ROOT
ATOM      1  C   UNL     1     -11.384 -11.197   4.968  1.00  0.00     0.000 C 
ENDROOT
BRANCH   1   2
ATOM      2  C   UNL     1     -12.186  -9.964   4.502  1.00  0.00     0.000 C 
BRANCH   2   3
ATOM      3  C   UNL     1     -13.703 -10.188   4.369  1.00  0.00     0.000 C 
BRANCH   3   4
ATOM      4  C   UNL     1     -14.517  -9.383   5.392  1.00  0.00     0.000 C 
BRANCH   4   5
ATOM      5  C   UNL     1     -14.489 -10.057   6.769  1.00  0.00     0.001 C 
BRANCH   5   6
ATOM      6  C   UNL     1     -14.483  -9.011   7.895  1.00  0.00     0.009 C 
BRANCH   6   7
ATOM      7  C   UNL     1     -13.053  -8.602   8.304  1.00  0.00     0.032 C 
ATOM      8  C   UNL     1     -13.087  -7.438   9.299  1.00  0.00     0.014 C 
BRANCH   7   9
ATOM      9  C   UNL     1     -12.296  -9.762   8.895  1.00  0.00     0.044 C 
ATOM     10  O   UNL     1     -12.658 -10.274   9.987  1.00  0.00    -0.550 OA
ATOM     11  O   UNL     1     -11.187 -10.273   8.232  1.00  0.00    -0.550 OA
ENDBRANCH   7   9
ENDBRANCH   6   7
ENDBRANCH   5   6
ENDBRANCH   4   5
ENDBRANCH   3   4
ENDBRANCH   2   3
ENDBRANCH   1   2
BRANCH   1  12
ATOM     12  C   UNL     1     -12.197 -12.502   5.077  1.00  0.00     0.000 C 
BRANCH  12  13
ATOM     13  C   UNL     1     -11.744 -13.629   4.129  1.00  0.00    -0.000 C 
BRANCH  13  14
ATOM     14  C   UNL     1     -12.371 -13.591   2.720  1.00  0.00    -0.000 C 
BRANCH  14  15
ATOM     15  C   UNL     1     -13.906 -13.465   2.687  1.00  0.00    -0.000 C 
BRANCH  15  16
ATOM     16  C   UNL     1     -14.398 -12.416   1.677  1.00  0.00    -0.000 C 
BRANCH  16  17
ATOM     17  C   UNL     1     -13.246 -11.657   0.992  1.00  0.00    -0.000 C 
BRANCH  17  18
ATOM     18  C   UNL     1     -13.188 -11.803  -0.539  1.00  0.00    -0.003 C 
ATOM     19  C   UNL     1     -12.076 -12.739  -1.010  1.00  0.00     0.004 C 
ENDBRANCH  17  18
ENDBRANCH  16  17
ENDBRANCH  15  16
ENDBRANCH  14  15
ENDBRANCH  13  14
ENDBRANCH  12  13
ENDBRANCH   1  12
TORSDOF 14
ENDMDL
MODEL 4
REMARK VINA RESULT:    -4.374     17.744     20.538
REMARK INTER + INTRA:          -8.532
REMARK INTER:                  -6.302
REMARK INTRA:                  -2.230
REMARK UNBOUND:                -0.579
REMARK SMILES CCCCCCCCCCCCCC[C@@H](C)C(=O)[O-]
REMARK SMILES IDX 9 1 10 2 11 3 12 4 13 5 14 6 15 7 16 8 17 9 18 10 19 11 8 12
REMARK SMILES IDX 7 13 6 14 5 15 4 16 3 17 2 18 1 19
REMARK H PARENT
REMARK Flexibility Score: inf
ROOT
ATOM      1  C   UNL     1       2.492   1.430  -5.366  1.00  0.00     0.000 C 
ENDROOT
BRANCH   1   2
ATOM      2  C   UNL     1       2.733   0.393  -4.249  1.00  0.00     0.000 C 
BRANCH   2   3
ATOM      3  C   UNL     1       4.198  -0.048  -4.077  1.00  0.00     0.000 C 
BRANCH   3   4
ATOM      4  C   UNL     1       4.370  -1.573  -4.107  1.00  0.00     0.000 C 
BRANCH   4   5
ATOM      5  C   UNL     1       3.236  -2.238  -4.897  1.00  0.00     0.001 C 
BRANCH   5   6
ATOM      6  C   UNL     1       3.653  -2.490  -6.355  1.00  0.00     0.009 C 
BRANCH   6   7
ATOM      7  C   UNL     1       2.729  -1.767  -7.357  1.00  0.00     0.032 C 
ATOM      8  C   UNL     1       3.539  -0.830  -8.259  1.00  0.00     0.014 C 
BRANCH   7   9
ATOM      9  C   UNL     1       1.954  -2.746  -8.198  1.00  0.00     0.044 C 
ATOM     10  O   UNL     1       0.740  -2.543  -8.462  1.00  0.00    -0.550 OA
ATOM     11  O   UNL     1       2.580  -3.886  -8.686  1.00  0.00    -0.550 OA
ENDBRANCH   7   9
ENDBRANCH   6   7
ENDBRANCH   5   6
ENDBRANCH   4   5
ENDBRANCH   3   4
ENDBRANCH   2   3
ENDBRANCH   1   2
BRANCH   1  12
ATOM     12  C   UNL     1       3.736   2.238  -5.786  1.00  0.00     0.000 C 
BRANCH  12  13
ATOM     13  C   UNL     1       3.760   2.665  -7.267  1.00  0.00    -0.000 C 
BRANCH  13  14
ATOM     14  C   UNL     1       2.379   2.743  -7.949  1.00  0.00    -0.000 C 
BRANCH  14  15
ATOM     15  C   UNL     1       2.102   4.046  -8.723  1.00  0.00    -0.000 C 
BRANCH  15  16
ATOM     16  C   UNL     1       0.997   4.900  -8.080  1.00  0.00    -0.000 C 
BRANCH  16  17
ATOM     17  C   UNL     1       0.689   4.487  -6.629  1.00  0.00    -0.000 C 
BRANCH  17  18
ATOM     18  C   UNL     1       1.077   5.524  -5.559  1.00  0.00    -0.003 C 
ATOM     19  C   UNL     1       2.582   5.773  -5.483  1.00  0.00     0.004 C 
ENDBRANCH  17  18
ENDBRANCH  16  17
ENDBRANCH  15  16
ENDBRANCH  14  15
ENDBRANCH  13  14
ENDBRANCH  12  13
ENDBRANCH   1  12
TORSDOF 14
ENDMDL
MODEL 5
REMARK VINA RESULT:    -4.304     18.313     20.439
REMARK INTER + INTRA:          -8.404
REMARK INTER:                  -6.373
REMARK INTRA:                  -2.032
REMARK UNBOUND:                -0.579
REMARK SMILES CCCCCCCCCCCCCC[C@@H](C)C(=O)[O-]
REMARK SMILES IDX 9 1 10 2 11 3 12 4 13 5 14 6 15 7 16 8 17 9 18 10 19 11 8 12
REMARK SMILES IDX 7 13 6 14 5 15 4 16 3 17 2 18 1 19
REMARK H PARENT
REMARK Flexibility Score: inf
ROOT
ATOM      1  C   UNL     1       4.187   0.140  -3.589  1.00  0.00     0.000 C 
ENDROOT
BRANCH   1   2
ATOM      2  C   UNL     1       2.740   0.178  -4.122  1.00  0.00     0.000 C 
BRANCH   2   3
ATOM      3  C   UNL     1       2.504   1.147  -5.294  1.00  0.00     0.000 C 
BRANCH   3   4
ATOM      4  C   UNL     1       3.810   1.687  -5.895  1.00  0.00     0.000 C 
BRANCH   4   5
ATOM      5  C   UNL     1       3.570   2.281  -7.287  1.00  0.00     0.001 C 
BRANCH   5   6
ATOM      6  C   UNL     1       4.061   3.736  -7.359  1.00  0.00     0.009 C 
BRANCH   6   7
ATOM      7  C   UNL     1       3.849   4.489  -6.029  1.00  0.00     0.032 C 
ATOM      8  C   UNL     1       4.928   5.560  -5.837  1.00  0.00     0.014 C 
BRANCH   7   9
ATOM      9  C   UNL     1       2.483   5.117  -5.963  1.00  0.00     0.044 C 
ATOM     10  O   UNL     1       1.957   5.391  -4.853  1.00  0.00    -0.550 OA
ATOM     11  O   UNL     1       1.794   5.398  -7.136  1.00  0.00    -0.550 OA
ENDBRANCH   7   9
ENDBRANCH   6   7
ENDBRANCH   5   6
ENDBRANCH   4   5
ENDBRANCH   3   4
ENDBRANCH   2   3
ENDBRANCH   1   2
BRANCH   1  12
ATOM     12  C   UNL     1       4.855  -1.249  -3.612  1.00  0.00     0.000 C 
BRANCH  12  13
ATOM     13  C   UNL     1       4.093  -2.321  -4.415  1.00  0.00    -0.000 C 
BRANCH  13  14
ATOM     14  C   UNL     1       4.680  -2.638  -5.806  1.00  0.00    -0.000 C 
BRANCH  14  15
ATOM     15  C   UNL     1       3.977  -1.947  -6.989  1.00  0.00    -0.000 C 
BRANCH  15  16
ATOM     16  C   UNL     1       2.923  -2.841  -7.663  1.00  0.00    -0.000 C 
BRANCH  16  17
ATOM     17  C   UNL     1       1.649  -2.071  -8.057  1.00  0.00    -0.000 C 
BRANCH  17  18
ATOM     18  C   UNL     1       1.891  -0.697  -8.707  1.00  0.00    -0.003 C 
ATOM     19  C   UNL     1       0.704   0.253  -8.560  1.00  0.00     0.004 C 
ENDBRANCH  17  18
ENDBRANCH  16  17
ENDBRANCH  15  16
ENDBRANCH  14  15
ENDBRANCH  13  14
ENDBRANCH  12  13
ENDBRANCH   1  12
TORSDOF 14
ENDMDL
MODEL 6
REMARK VINA RESULT:    -4.288      3.690      9.004
REMARK INTER + INTRA:          -8.376
REMARK INTER:                  -6.904
REMARK INTRA:                  -1.473
REMARK UNBOUND:                -0.579
REMARK SMILES CCCCCCCCCCCCCC[C@@H](C)C(=O)[O-]
REMARK SMILES IDX 9 1 10 2 11 3 12 4 13 5 14 6 15 7 16 8 17 9 18 10 19 11 8 12
REMARK SMILES IDX 7 13 6 14 5 15 4 16 3 17 2 18 1 19
REMARK H PARENT
REMARK Flexibility Score: inf
ROOT
ATOM      1  C   UNL     1     -13.664 -11.211   2.254  1.00  0.00     0.000 C 
ENDROOT
BRANCH   1   2
ATOM      2  C   UNL     1     -13.500 -12.311   1.184  1.00  0.00     0.000 C 
BRANCH   2   3
ATOM      3  C   UNL     1     -12.731 -11.880  -0.078  1.00  0.00     0.000 C 
BRANCH   3   4
ATOM      4  C   UNL     1     -13.657 -11.478  -1.234  1.00  0.00     0.000 C 
BRANCH   4   5
ATOM      5  C   UNL     1     -13.405 -12.352  -2.469  1.00  0.00     0.001 C 
BRANCH   5   6
ATOM      6  C   UNL     1     -12.257 -13.343  -2.219  1.00  0.00     0.009 C 
BRANCH   6   7
ATOM      7  C   UNL     1     -11.268 -13.398  -3.402  1.00  0.00     0.032 C 
ATOM      8  C   UNL     1     -11.708 -12.445  -4.519  1.00  0.00     0.014 C 
BRANCH   7   9
ATOM      9  C   UNL     1      -9.867 -13.066  -2.965  1.00  0.00     0.044 C 
ATOM     10  O   UNL     1      -8.927 -13.028  -3.802  1.00  0.00    -0.550 OA
ATOM     11  O   UNL     1      -9.605 -12.799  -1.627  1.00  0.00    -0.550 OA
ENDBRANCH   7   9
ENDBRANCH   6   7
ENDBRANCH   5   6
ENDBRANCH   4   5
ENDBRANCH   3   4
ENDBRANCH   2   3
ENDBRANCH   1   2
BRANCH   1  12
ATOM     12  C   UNL     1     -15.058 -11.139   2.908  1.00  0.00     0.000 C 
BRANCH  12  13
ATOM     13  C   UNL     1     -15.058 -10.706   4.386  1.00  0.00    -0.000 C 
BRANCH  13  14
ATOM     14  C   UNL     1     -14.025  -9.621   4.752  1.00  0.00    -0.000 C 
BRANCH  14  15
ATOM     15  C   UNL     1     -13.333  -9.804   6.116  1.00  0.00    -0.000 C 
BRANCH  15  16
ATOM     16  C   UNL     1     -11.800  -9.766   6.019  1.00  0.00    -0.000 C 
BRANCH  16  17
ATOM     17  C   UNL     1     -11.238 -10.788   5.013  1.00  0.00    -0.000 C 
BRANCH  17  18
ATOM     18  C   UNL     1     -11.264 -12.253   5.486  1.00  0.00    -0.003 C 
ATOM     19  C   UNL     1     -11.817 -13.213   4.434  1.00  0.00     0.004 C 
ENDBRANCH  17  18
ENDBRANCH  16  17
ENDBRANCH  15  16
ENDBRANCH  14  15
ENDBRANCH  13  14
ENDBRANCH  12  13
ENDBRANCH   1  12
TORSDOF 14
ENDMDL
MODEL 7
REMARK VINA RESULT:    -4.271     18.349     19.885
REMARK INTER + INTRA:          -8.344
REMARK INTER:                  -6.417
REMARK INTRA:                  -1.927
REMARK UNBOUND:                -0.579
REMARK SMILES CCCCCCCCCCCCCC[C@@H](C)C(=O)[O-]
REMARK SMILES IDX 9 1 10 2 11 3 12 4 13 5 14 6 15 7 16 8 17 9 18 10 19 11 8 12
REMARK SMILES IDX 7 13 6 14 5 15 4 16 3 17 2 18 1 19
REMARK H PARENT
REMARK Flexibility Score: inf
ROOT
ATOM      1  C   UNL     1       2.031  -1.547  -8.340  1.00  0.00     0.000 C 
ENDROOT
BRANCH   1   2
ATOM      2  C   UNL     1       2.873  -0.277  -8.584  1.00  0.00     0.000 C 
BRANCH   2   3
ATOM      3  C   UNL     1       2.134   1.050  -8.335  1.00  0.00     0.000 C 
BRANCH   3   4
ATOM      4  C   UNL     1       0.623   0.950  -8.591  1.00  0.00     0.000 C 
BRANCH   4   5
ATOM      5  C   UNL     1      -0.061   2.305  -8.379  1.00  0.00     0.001 C 
BRANCH   5   6
ATOM      6  C   UNL     1       0.917   3.331  -7.784  1.00  0.00     0.009 C 
BRANCH   6   7
ATOM      7  C   UNL     1       0.203   4.620  -7.330  1.00  0.00     0.032 C 
ATOM      8  C   UNL     1      -1.306   4.386  -7.202  1.00  0.00     0.014 C 
BRANCH   7   9
ATOM      9  C   UNL     1       0.756   5.127  -6.025  1.00  0.00     0.044 C 
ATOM     10  O   UNL     1       0.168   6.042  -5.391  1.00  0.00    -0.550 OA
ATOM     11  O   UNL     1       1.928   4.583  -5.513  1.00  0.00    -0.550 OA
ENDBRANCH   7   9
ENDBRANCH   6   7
ENDBRANCH   5   6
ENDBRANCH   4   5
ENDBRANCH   3   4
ENDBRANCH   2   3
ENDBRANCH   1   2
BRANCH   1  12
ATOM     12  C   UNL     1       2.519  -2.442  -7.184  1.00  0.00     0.000 C 
BRANCH  12  13
ATOM     13  C   UNL     1       4.025  -2.769  -7.210  1.00  0.00    -0.000 C 
BRANCH  13  14
ATOM     14  C   UNL     1       4.840  -2.193  -6.033  1.00  0.00    -0.000 C 
BRANCH  14  15
ATOM     15  C   UNL     1       4.131  -2.224  -4.666  1.00  0.00    -0.000 C 
BRANCH  15  16
ATOM     16  C   UNL     1       4.100  -0.849  -3.979  1.00  0.00    -0.000 C 
BRANCH  16  17
ATOM     17  C   UNL     1       2.817  -0.055  -4.286  1.00  0.00    -0.000 C 
BRANCH  17  18
ATOM     18  C   UNL     1       3.035   1.274  -5.032  1.00  0.00    -0.003 C 
ATOM     19  C   UNL     1       4.491   1.503  -5.435  1.00  0.00     0.004 C 
ENDBRANCH  17  18
ENDBRANCH  16  17
ENDBRANCH  15  16
ENDBRANCH  14  15
ENDBRANCH  13  14
ENDBRANCH  12  13
ENDBRANCH   1  12
TORSDOF 14
ENDMDL
MODEL 8
REMARK VINA RESULT:    -4.253     17.564     19.985
REMARK INTER + INTRA:          -8.313
REMARK INTER:                  -7.056
REMARK INTRA:                  -1.257
REMARK UNBOUND:                -0.579
REMARK SMILES CCCCCCCCCCCCCC[C@@H](C)C(=O)[O-]
REMARK SMILES IDX 9 1 10 2 11 3 12 4 13 5 14 6 15 7 16 8 17 9 18 10 19 11 8 12
REMARK SMILES IDX 7 13 6 14 5 15 4 16 3 17 2 18 1 19
REMARK H PARENT
REMARK Flexibility Score: inf
ROOT
ATOM      1  C   UNL     1       2.505   0.774  -4.880  1.00  0.00     0.000 C 
ENDROOT
BRANCH   1   2
ATOM      2  C   UNL     1       3.450  -0.258  -4.229  1.00  0.00     0.000 C 
BRANCH   2   3
ATOM      3  C   UNL     1       3.246  -1.710  -4.695  1.00  0.00     0.000 C 
BRANCH   3   4
ATOM      4  C   UNL     1       3.961  -2.019  -6.019  1.00  0.00     0.000 C 
BRANCH   4   5
ATOM      5  C   UNL     1       2.960  -2.454  -7.096  1.00  0.00     0.001 C 
BRANCH   5   6
ATOM      6  C   UNL     1       2.550  -1.266  -7.980  1.00  0.00     0.009 C 
BRANCH   6   7
ATOM      7  C   UNL     1       1.564  -1.681  -9.092  1.00  0.00     0.032 C 
ATOM      8  C   UNL     1       1.394  -3.203  -9.122  1.00  0.00     0.014 C 
BRANCH   7   9
ATOM      9  C   UNL     1       0.224  -1.017  -8.916  1.00  0.00     0.044 C 
ATOM     10  O   UNL     1      -0.832  -1.703  -8.885  1.00  0.00    -0.550 OA
ATOM     11  O   UNL     1       0.148   0.364  -8.787  1.00  0.00    -0.550 OA
ENDBRANCH   7   9
ENDBRANCH   6   7
ENDBRANCH   5   6
ENDBRANCH   4   5
ENDBRANCH   3   4
ENDBRANCH   2   3
ENDBRANCH   1   2
BRANCH   1  12
ATOM     12  C   UNL     1       3.159   1.680  -5.942  1.00  0.00     0.000 C 
BRANCH  12  13
ATOM     13  C   UNL     1       2.174   2.543  -6.753  1.00  0.00    -0.000 C 
BRANCH  13  14
ATOM     14  C   UNL     1       1.853   3.922  -6.140  1.00  0.00    -0.000 C 
BRANCH  14  15
ATOM     15  C   UNL     1       0.563   4.586  -6.656  1.00  0.00    -0.000 C 
BRANCH  15  16
ATOM     16  C   UNL     1      -0.254   3.668  -7.579  1.00  0.00    -0.000 C 
BRANCH  16  17
ATOM     17  C   UNL     1      -1.706   4.145  -7.767  1.00  0.00    -0.000 C 
BRANCH  17  18
ATOM     18  C   UNL     1      -2.306   4.900  -6.567  1.00  0.00    -0.003 C 
ATOM     19  C   UNL     1      -3.577   5.670  -6.918  1.00  0.00     0.004 C 
ENDBRANCH  17  18
ENDBRANCH  16  17
ENDBRANCH  15  16
ENDBRANCH  14  15
ENDBRANCH  13  14
ENDBRANCH  12  13
ENDBRANCH   1  12
TORSDOF 14
ENDMDL
MODEL 9
REMARK VINA RESULT:    -4.236      5.078      9.874
REMARK INTER + INTRA:          -8.281
REMARK INTER:                  -6.251
REMARK INTRA:                  -2.031
REMARK UNBOUND:                -0.579
REMARK SMILES CCCCCCCCCCCCCC[C@@H](C)C(=O)[O-]
REMARK SMILES IDX 9 1 10 2 11 3 12 4 13 5 14 6 15 7 16 8 17 9 18 10 19 11 8 12
REMARK SMILES IDX 7 13 6 14 5 15 4 16 3 17 2 18 1 19
REMARK H PARENT
REMARK Flexibility Score: inf
ROOT
ATOM      1  C   UNL     1     -11.021 -11.332   5.098  1.00  0.00     0.000 C 
ENDROOT
BRANCH   1   2
ATOM      2  C   UNL     1     -11.976 -12.544   5.113  1.00  0.00     0.000 C 
BRANCH   2   3
ATOM      3  C   UNL     1     -11.988 -13.377   3.819  1.00  0.00     0.000 C 
BRANCH   3   4
ATOM      4  C   UNL     1     -13.393 -13.526   3.218  1.00  0.00     0.000 C 
BRANCH   4   5
ATOM      5  C   UNL     1     -13.343 -13.485   1.686  1.00  0.00     0.001 C 
BRANCH   5   6
ATOM      6  C   UNL     1     -13.586 -12.060   1.163  1.00  0.00     0.009 C 
BRANCH   6   7
ATOM      7  C   UNL     1     -12.968 -11.840  -0.233  1.00  0.00     0.032 C 
ATOM      8  C   UNL     1     -11.922 -12.917  -0.538  1.00  0.00     0.014 C 
BRANCH   7   9
ATOM      9  C   UNL     1     -14.023 -11.829  -1.307  1.00  0.00     0.044 C 
ATOM     10  O   UNL     1     -14.991 -12.633  -1.262  1.00  0.00    -0.550 OA
ATOM     11  O   UNL     1     -13.930 -10.927  -2.359  1.00  0.00    -0.550 OA
ENDBRANCH   7   9
ENDBRANCH   6   7
ENDBRANCH   5   6
ENDBRANCH   4   5
ENDBRANCH   3   4
ENDBRANCH   2   3
ENDBRANCH   1   2
BRANCH   1  12
ATOM     12  C   UNL     1     -11.712  -9.959   4.976  1.00  0.00     0.000 C 
BRANCH  12  13
ATOM     13  C   UNL     1     -13.016  -9.961   4.156  1.00  0.00    -0.000 C 
BRANCH  13  14
ATOM     14  C   UNL     1     -14.279  -9.538   4.934  1.00  0.00    -0.000 C 
BRANCH  14  15
ATOM     15  C   UNL     1     -14.880 -10.622   5.850  1.00  0.00    -0.000 C 
BRANCH  15  16
ATOM     16  C   UNL     1     -14.538 -10.407   7.333  1.00  0.00    -0.000 C 
BRANCH  16  17
ATOM     17  C   UNL     1     -14.210  -8.940   7.667  1.00  0.00    -0.000 C 
BRANCH  17  18
ATOM     18  C   UNL     1     -12.809  -8.702   8.258  1.00  0.00    -0.003 C 
ATOM     19  C   UNL     1     -12.112  -9.993   8.686  1.00  0.00     0.004 C 
ENDBRANCH  17  18
ENDBRANCH  16  17
ENDBRANCH  15  16
ENDBRANCH  14  15
ENDBRANCH  13  14
ENDBRANCH  12  13
ENDBRANCH   1  12
TORSDOF 14
ENDMDL
