MODEL 1
REMARK VINA RESULT:    -4.851      0.000      0.000
REMARK INTER + INTRA:          -9.585
REMARK INTER:                  -7.545
REMARK INTRA:                  -2.041
REMARK UNBOUND:                -2.041
REMARK SMILES COc1cc(CNC(=O)CCCCC=CC(C)C)ccc1O
REMARK SMILES IDX 11 1 12 2 13 3 14 4 15 5 16 6 17 7 18 8 10 9 8 10 9 11 7 12
REMARK SMILES IDX 6 14 5 15 4 16 19 17 3 18 20 19 21 20 2 21 1 22 22 23
REMARK H PARENT 7 13 22 24
REMARK Flexibility Score: inf
ROOT
ATOM      1  C   UNL     1       7.406 -12.570 -45.768  1.00  0.00     0.010 C 
ENDROOT
BRANCH   1   2
ATOM      2  C   UNL     1       8.752 -12.398 -46.490  1.00  0.00     0.005 C 
BRANCH   2   3
ATOM      3  C   UNL     1       9.638 -11.342 -45.814  1.00  0.00     0.027 C 
BRANCH   3   4
ATOM      4  C   UNL     1       8.822 -10.195 -45.275  1.00  0.00    -0.031 C 
ATOM      5  C   UNL     1       9.286  -9.266 -44.416  1.00  0.00    -0.028 C 
BRANCH   5   6
ATOM      6  C   UNL     1      10.721  -9.171 -43.943  1.00  0.00     0.005 C 
ATOM      7  C   UNL     1      11.520  -8.271 -44.888  1.00  0.00     0.012 C 
ATOM      8  C   UNL     1      10.763  -8.623 -42.513  1.00  0.00     0.012 C 
ENDBRANCH   5   6
ENDBRANCH   3   4
ENDBRANCH   2   3
ENDBRANCH   1   2
BRANCH   1   9
ATOM      9  C   UNL     1       6.950 -14.036 -45.720  1.00  0.00     0.100 C 
BRANCH   9  10
ATOM     10  C   UNL     1       7.779 -14.840 -44.761  1.00  0.00     0.220 C 
ATOM     11  O   UNL     1       7.975 -16.063 -44.991  1.00  0.00    -0.275 OA
ATOM     12  N   UNL     1       8.388 -14.208 -43.626  1.00  0.00    -0.352 N 
ATOM     13  H   UNL     1       8.145 -13.214 -43.417  1.00  0.00     0.163 HD
BRANCH  12  14
ATOM     14  C   UNL     1       9.555 -14.775 -42.955  1.00  0.00     0.151 C 
BRANCH  14  15
ATOM     15  C   UNL     1      10.794 -14.056 -43.414  1.00  0.00    -0.025 A 
ATOM     16  C   UNL     1      11.407 -14.410 -44.627  1.00  0.00     0.056 A 
ATOM     17  C   UNL     1      11.271 -12.951 -42.696  1.00  0.00     0.009 A 
ATOM     18  C   UNL     1      12.490 -13.660 -45.125  1.00  0.00     0.160 A 
ATOM     19  C   UNL     1      12.359 -12.221 -43.174  1.00  0.00     0.050 A 
ATOM     20  C   UNL     1      12.967 -12.569 -44.386  1.00  0.00     0.157 A 
BRANCH  18  21
ATOM     21  O   UNL     1      13.106 -13.958 -46.349  1.00  0.00    -0.493 OA
ATOM     22  C   UNL     1      12.428 -14.010 -47.599  1.00  0.00     0.278 C 
ENDBRANCH  18  21
BRANCH  20  23
ATOM     23  O   UNL     1      14.043 -11.827 -44.870  1.00  0.00    -0.504 OA
ATOM     24  H   UNL     1      14.180 -10.857 -44.609  1.00  0.00     0.293 HD
ENDBRANCH  20  23
ENDBRANCH  14  15
ENDBRANCH  12  14
ENDBRANCH   9  10
ENDBRANCH   1   9
TORSDOF 10
ENDMDL
MODEL 2
REMARK VINA RESULT:    -4.651     10.563     12.484
REMARK INTER + INTRA:          -9.275
REMARK INTER:                  -8.060
REMARK INTRA:                  -1.215
REMARK UNBOUND:                -2.041
REMARK SMILES COc1cc(CNC(=O)CCCCC=CC(C)C)ccc1O
REMARK SMILES IDX 11 1 12 2 13 3 14 4 15 5 16 6 17 7 18 8 10 9 8 10 9 11 7 12
REMARK SMILES IDX 6 14 5 15 4 16 19 17 3 18 20 19 21 20 2 21 1 22 22 23
REMARK H PARENT 7 13 22 24
REMARK Flexibility Score: inf
ROOT
ATOM      1  C   UNL     1       8.747 -22.288 -34.851  1.00  0.00     0.010 C 
ENDROOT
BRANCH   1   2
ATOM      2  C   UNL     1       9.539 -21.066 -35.344  1.00  0.00     0.005 C 
BRANCH   2   3
ATOM      3  C   UNL     1       8.819 -20.334 -36.487  1.00  0.00     0.027 C 
BRANCH   3   4
ATOM      4  C   UNL     1       7.398 -20.813 -36.644  1.00  0.00    -0.031 C 
ATOM      5  C   UNL     1       6.322 -20.004 -36.703  1.00  0.00    -0.028 C 
BRANCH   5   6
ATOM      6  C   UNL     1       6.383 -18.491 -36.725  1.00  0.00     0.005 C 
ATOM      7  C   UNL     1       5.483 -17.951 -37.839  1.00  0.00     0.012 C 
ATOM      8  C   UNL     1       5.951 -17.932 -35.366  1.00  0.00     0.012 C 
ENDBRANCH   5   6
ENDBRANCH   3   4
ENDBRANCH   2   3
ENDBRANCH   1   2
BRANCH   1   9
ATOM      9  C   UNL     1       9.585 -23.574 -34.867  1.00  0.00     0.100 C 
BRANCH   9  10
ATOM     10  C   UNL     1       9.722 -24.126 -36.256  1.00  0.00     0.220 C 
ATOM     11  O   UNL     1       8.733 -24.083 -37.036  1.00  0.00    -0.275 OA
ATOM     12  N   UNL     1      10.981 -24.643 -36.708  1.00  0.00    -0.352 N 
ATOM     13  H   UNL     1      11.760 -24.738 -36.018  1.00  0.00     0.163 HD
BRANCH  12  14
ATOM     14  C   UNL     1      11.320 -24.735 -38.126  1.00  0.00     0.151 C 
BRANCH  14  15
ATOM     15  C   UNL     1      12.494 -23.841 -38.418  1.00  0.00    -0.025 A 
ATOM     16  C   UNL     1      12.588 -22.577 -37.813  1.00  0.00     0.056 A 
ATOM     17  C   UNL     1      13.558 -24.311 -39.199  1.00  0.00     0.009 A 
ATOM     18  C   UNL     1      13.741 -21.789 -37.981  1.00  0.00     0.160 A 
ATOM     19  C   UNL     1      14.692 -23.523 -39.389  1.00  0.00     0.050 A 
ATOM     20  C   UNL     1      14.789 -22.266 -38.780  1.00  0.00     0.157 A 
BRANCH  18  21
ATOM     21  O   UNL     1      13.890 -20.538 -37.364  1.00  0.00    -0.493 OA
ATOM     22  C   UNL     1      12.817 -19.641 -37.096  1.00  0.00     0.278 C 
ENDBRANCH  18  21
BRANCH  20  23
ATOM     23  O   UNL     1      15.931 -21.487 -38.956  1.00  0.00    -0.504 OA
ATOM     24  H   UNL     1      16.523 -21.227 -38.174  1.00  0.00     0.293 HD
ENDBRANCH  20  23
ENDBRANCH  14  15
ENDBRANCH  12  14
ENDBRANCH   9  10
ENDBRANCH   1   9
TORSDOF 10
ENDMDL
MODEL 3
REMARK VINA RESULT:    -4.600      1.572      1.996
REMARK INTER + INTRA:          -9.195
REMARK INTER:                  -8.084
REMARK INTRA:                  -1.110
REMARK UNBOUND:                -2.041
REMARK SMILES COc1cc(CNC(=O)CCCCC=CC(C)C)ccc1O
REMARK SMILES IDX 11 1 12 2 13 3 14 4 15 5 16 6 17 7 18 8 10 9 8 10 9 11 7 12
REMARK SMILES IDX 6 14 5 15 4 16 19 17 3 18 20 19 21 20 2 21 1 22 22 23
REMARK H PARENT 7 13 22 24
REMARK Flexibility Score: inf
ROOT
ATOM      1  C   UNL     1       7.086 -12.704 -45.785  1.00  0.00     0.010 C 
ENDROOT
BRANCH   1   2
ATOM      2  C   UNL     1       7.814 -11.609 -46.583  1.00  0.00     0.005 C 
BRANCH   2   3
ATOM      3  C   UNL     1       8.339 -10.487 -45.675  1.00  0.00     0.027 C 
BRANCH   3   4
ATOM      4  C   UNL     1       9.573 -10.914 -44.922  1.00  0.00    -0.031 C 
ATOM      5  C   UNL     1      10.432 -10.067 -44.322  1.00  0.00    -0.028 C 
BRANCH   5   6
ATOM      6  C   UNL     1      10.236  -8.569 -44.223  1.00  0.00     0.005 C 
ATOM      7  C   UNL     1      10.192  -8.147 -42.752  1.00  0.00     0.012 C 
ATOM      8  C   UNL     1      11.369  -7.845 -44.957  1.00  0.00     0.012 C 
ENDBRANCH   5   6
ENDBRANCH   3   4
ENDBRANCH   2   3
ENDBRANCH   1   2
BRANCH   1   9
ATOM      9  C   UNL     1       7.771 -14.072 -45.909  1.00  0.00     0.100 C 
BRANCH   9  10
ATOM     10  C   UNL     1       8.750 -14.301 -44.795  1.00  0.00     0.220 C 
ATOM     11  O   UNL     1       8.327 -14.684 -43.671  1.00  0.00    -0.275 OA
ATOM     12  N   UNL     1      10.158 -14.143 -45.024  1.00  0.00    -0.352 N 
ATOM     13  H   UNL     1      10.474 -13.751 -45.939  1.00  0.00     0.163 HD
BRANCH  12  14
ATOM     14  C   UNL     1      11.160 -14.793 -44.184  1.00  0.00     0.151 C 
BRANCH  14  15
ATOM     15  C   UNL     1      12.369 -13.905 -44.070  1.00  0.00    -0.025 A 
ATOM     16  C   UNL     1      13.476 -14.107 -44.911  1.00  0.00     0.056 A 
ATOM     17  C   UNL     1      12.349 -12.798 -43.211  1.00  0.00     0.009 A 
ATOM     18  C   UNL     1      14.556 -13.205 -44.898  1.00  0.00     0.160 A 
ATOM     19  C   UNL     1      13.428 -11.915 -43.178  1.00  0.00     0.050 A 
ATOM     20  C   UNL     1      14.529 -12.113 -44.020  1.00  0.00     0.157 A 
BRANCH  18  21
ATOM     21  O   UNL     1      15.663 -13.350 -45.747  1.00  0.00    -0.493 OA
ATOM     22  C   UNL     1      16.772 -14.202 -45.483  1.00  0.00     0.278 C 
ENDBRANCH  18  21
BRANCH  20  23
ATOM     23  O   UNL     1      15.599 -11.220 -43.998  1.00  0.00    -0.504 OA
ATOM     24  H   UNL     1      16.096 -11.007 -43.140  1.00  0.00     0.293 HD
ENDBRANCH  20  23
ENDBRANCH  14  15
ENDBRANCH  12  14
ENDBRANCH   9  10
ENDBRANCH   1   9
TORSDOF 10
ENDMDL
MODEL 4
REMARK VINA RESULT:    -4.579      2.732      4.664
REMARK INTER + INTRA:          -9.163
REMARK INTER:                  -7.742
REMARK INTRA:                  -1.421
REMARK UNBOUND:                -2.041
REMARK SMILES COc1cc(CNC(=O)CCCCC=CC(C)C)ccc1O
REMARK SMILES IDX 11 1 12 2 13 3 14 4 15 5 16 6 17 7 18 8 10 9 8 10 9 11 7 12
REMARK SMILES IDX 6 14 5 15 4 16 19 17 3 18 20 19 21 20 2 21 1 22 22 23
REMARK H PARENT 7 13 22 24
REMARK Flexibility Score: inf
ROOT
ATOM      1  C   UNL     1       8.766 -10.874 -45.411  1.00  0.00     0.010 C 
ENDROOT
BRANCH   1   2
ATOM      2  C   UNL     1      10.159 -11.521 -45.462  1.00  0.00     0.005 C 
BRANCH   2   3
ATOM      3  C   UNL     1      10.968 -11.250 -44.184  1.00  0.00     0.027 C 
BRANCH   3   4
ATOM      4  C   UNL     1      11.810 -10.007 -44.313  1.00  0.00    -0.031 C 
ATOM      5  C   UNL     1      11.466  -8.798 -43.826  1.00  0.00    -0.028 C 
BRANCH   5   6
ATOM      6  C   UNL     1      10.234  -8.526 -42.988  1.00  0.00     0.005 C 
ATOM      7  C   UNL     1      10.615  -8.480 -41.506  1.00  0.00     0.012 C 
ATOM      8  C   UNL     1       9.590  -7.206 -43.420  1.00  0.00     0.012 C 
ENDBRANCH   5   6
ENDBRANCH   3   4
ENDBRANCH   2   3
ENDBRANCH   1   2
BRANCH   1   9
ATOM      9  C   UNL     1       7.963 -11.111 -46.698  1.00  0.00     0.100 C 
BRANCH   9  10
ATOM     10  C   UNL     1       7.440 -12.516 -46.770  1.00  0.00     0.220 C 
ATOM     11  O   UNL     1       7.842 -13.277 -47.691  1.00  0.00    -0.275 OA
ATOM     12  N   UNL     1       6.538 -13.005 -45.767  1.00  0.00    -0.352 N 
ATOM     13  H   UNL     1       6.162 -12.333 -45.062  1.00  0.00     0.163 HD
BRANCH  12  14
ATOM     14  C   UNL     1       6.380 -14.431 -45.493  1.00  0.00     0.151 C 
BRANCH  14  15
ATOM     15  C   UNL     1       7.167 -14.793 -44.263  1.00  0.00    -0.025 A 
ATOM     16  C   UNL     1       6.550 -15.482 -43.206  1.00  0.00     0.056 A 
ATOM     17  C   UNL     1       8.547 -14.552 -44.215  1.00  0.00     0.009 A 
ATOM     18  C   UNL     1       7.308 -15.935 -42.109  1.00  0.00     0.160 A 
ATOM     19  C   UNL     1       9.297 -14.977 -43.119  1.00  0.00     0.050 A 
ATOM     20  C   UNL     1       8.683 -15.670 -42.069  1.00  0.00     0.157 A 
BRANCH  18  21
ATOM     21  O   UNL     1       6.736 -16.658 -41.053  1.00  0.00    -0.493 OA
ATOM     22  C   UNL     1       6.258 -17.995 -41.159  1.00  0.00     0.278 C 
ENDBRANCH  18  21
BRANCH  20  23
ATOM     23  O   UNL     1       9.437 -16.110 -40.982  1.00  0.00    -0.504 OA
ATOM     24  H   UNL     1      10.377 -16.472 -41.100  1.00  0.00     0.293 HD
ENDBRANCH  20  23
ENDBRANCH  14  15
ENDBRANCH  12  14
ENDBRANCH   9  10
ENDBRANCH   1   9
TORSDOF 10
ENDMDL
MODEL 5
REMARK VINA RESULT:    -4.576     10.059     11.866
REMARK INTER + INTRA:          -9.158
REMARK INTER:                  -8.083
REMARK INTRA:                  -1.075
REMARK UNBOUND:                -2.041
REMARK SMILES COc1cc(CNC(=O)CCCCC=CC(C)C)ccc1O
REMARK SMILES IDX 11 1 12 2 13 3 14 4 15 5 16 6 17 7 18 8 10 9 8 10 9 11 7 12
REMARK SMILES IDX 6 14 5 15 4 16 19 17 3 18 20 19 21 20 2 21 1 22 22 23
REMARK H PARENT 7 13 22 24
REMARK Flexibility Score: inf
ROOT
ATOM      1  C   UNL     1       8.797 -22.383 -36.198  1.00  0.00     0.010 C 
ENDROOT
BRANCH   1   2
ATOM      2  C   UNL     1       7.668 -22.239 -37.231  1.00  0.00     0.005 C 
BRANCH   2   3
ATOM      3  C   UNL     1       6.326 -21.885 -36.573  1.00  0.00     0.027 C 
BRANCH   3   4
ATOM      4  C   UNL     1       5.499 -20.979 -37.449  1.00  0.00    -0.031 C 
ATOM      5  C   UNL     1       5.552 -19.633 -37.419  1.00  0.00    -0.028 C 
BRANCH   5   6
ATOM      6  C   UNL     1       6.519 -18.827 -36.578  1.00  0.00     0.005 C 
ATOM      7  C   UNL     1       7.501 -18.083 -37.486  1.00  0.00     0.012 C 
ATOM      8  C   UNL     1       5.749 -17.842 -35.696  1.00  0.00     0.012 C 
ENDBRANCH   5   6
ENDBRANCH   3   4
ENDBRANCH   2   3
ENDBRANCH   1   2
BRANCH   1   9
ATOM      9  C   UNL     1       9.528 -21.058 -35.942  1.00  0.00     0.100 C 
BRANCH   9  10
ATOM     10  C   UNL     1      10.550 -20.778 -37.005  1.00  0.00     0.220 C 
ATOM     11  O   UNL     1      10.217 -20.107 -38.019  1.00  0.00    -0.275 OA
ATOM     12  N   UNL     1      11.905 -21.220 -36.841  1.00  0.00    -0.352 N 
ATOM     13  H   UNL     1      12.135 -21.839 -36.031  1.00  0.00     0.163 HD
BRANCH  12  14
ATOM     14  C   UNL     1      13.018 -20.594 -37.550  1.00  0.00     0.151 C 
BRANCH  14  15
ATOM     15  C   UNL     1      13.798 -21.650 -38.285  1.00  0.00    -0.025 A 
ATOM     16  C   UNL     1      14.966 -21.306 -38.985  1.00  0.00     0.056 A 
ATOM     17  C   UNL     1      13.432 -22.998 -38.176  1.00  0.00     0.009 A 
ATOM     18  C   UNL     1      15.769 -22.304 -39.568  1.00  0.00     0.160 A 
ATOM     19  C   UNL     1      14.211 -23.988 -38.773  1.00  0.00     0.050 A 
ATOM     20  C   UNL     1      15.380 -23.646 -39.465  1.00  0.00     0.157 A 
BRANCH  18  21
ATOM     21  O   UNL     1      16.962 -22.006 -40.243  1.00  0.00    -0.493 OA
ATOM     22  C   UNL     1      17.110 -20.948 -41.184  1.00  0.00     0.278 C 
ENDBRANCH  18  21
BRANCH  20  23
ATOM     23  O   UNL     1      16.167 -24.639 -40.046  1.00  0.00    -0.504 OA
ATOM     24  H   UNL     1      15.948 -25.024 -40.959  1.00  0.00     0.293 HD
ENDBRANCH  20  23
ENDBRANCH  14  15
ENDBRANCH  12  14
ENDBRANCH   9  10
ENDBRANCH   1   9
TORSDOF 10
ENDMDL
MODEL 6
REMARK VINA RESULT:    -4.571      9.235     11.857
REMARK INTER + INTRA:          -9.150
REMARK INTER:                  -7.487
REMARK INTRA:                  -1.663
REMARK UNBOUND:                -2.041
REMARK SMILES COc1cc(CNC(=O)CCCCC=CC(C)C)ccc1O
REMARK SMILES IDX 11 1 12 2 13 3 14 4 15 5 16 6 17 7 18 8 10 9 8 10 9 11 7 12
REMARK SMILES IDX 6 14 5 15 4 16 19 17 3 18 20 19 21 20 2 21 1 22 22 23
REMARK H PARENT 7 13 22 24
REMARK Flexibility Score: inf
ROOT
ATOM      1  C   UNL     1       6.938 -19.517 -38.163  1.00  0.00     0.010 C 
ENDROOT
BRANCH   1   2
ATOM      2  C   UNL     1       5.972 -20.089 -37.112  1.00  0.00     0.005 C 
BRANCH   2   3
ATOM      3  C   UNL     1       5.991 -21.625 -37.087  1.00  0.00     0.027 C 
BRANCH   3   4
ATOM      4  C   UNL     1       7.225 -22.176 -37.754  1.00  0.00    -0.031 C 
ATOM      5  C   UNL     1       8.325 -22.594 -37.098  1.00  0.00    -0.028 C 
BRANCH   5   6
ATOM      6  C   UNL     1       8.451 -22.672 -35.591  1.00  0.00     0.005 C 
ATOM      7  C   UNL     1       9.340 -23.857 -35.206  1.00  0.00     0.012 C 
ATOM      8  C   UNL     1       9.032 -21.364 -35.047  1.00  0.00     0.012 C 
ENDBRANCH   5   6
ENDBRANCH   3   4
ENDBRANCH   2   3
ENDBRANCH   1   2
BRANCH   1   9
ATOM      9  C   UNL     1       7.754 -18.333 -37.625  1.00  0.00     0.100 C 
BRANCH   9  10
ATOM     10  C   UNL     1       9.125 -18.288 -38.233  1.00  0.00     0.220 C 
ATOM     11  O   UNL     1       9.404 -17.376 -39.058  1.00  0.00    -0.275 OA
ATOM     12  N   UNL     1      10.125 -19.237 -37.837  1.00  0.00    -0.352 N 
ATOM     13  H   UNL     1       9.845 -20.027 -37.213  1.00  0.00     0.163 HD
BRANCH  12  14
ATOM     14  C   UNL     1      11.553 -18.974 -37.995  1.00  0.00     0.151 C 
BRANCH  14  15
ATOM     15  C   UNL     1      12.299 -20.280 -38.042  1.00  0.00    -0.025 A 
ATOM     16  C   UNL     1      13.671 -20.300 -38.341  1.00  0.00     0.056 A 
ATOM     17  C   UNL     1      11.657 -21.469 -37.671  1.00  0.00     0.009 A 
ATOM     18  C   UNL     1      14.402 -21.500 -38.263  1.00  0.00     0.160 A 
ATOM     19  C   UNL     1      12.372 -22.666 -37.617  1.00  0.00     0.050 A 
ATOM     20  C   UNL     1      13.741 -22.684 -37.908  1.00  0.00     0.157 A 
BRANCH  18  21
ATOM     21  O   UNL     1      15.780 -21.555 -38.518  1.00  0.00    -0.493 OA
ATOM     22  C   UNL     1      16.382 -21.215 -39.762  1.00  0.00     0.278 C 
ENDBRANCH  18  21
BRANCH  20  23
ATOM     23  O   UNL     1      14.458 -23.878 -37.837  1.00  0.00    -0.504 OA
ATOM     24  H   UNL     1      14.245 -24.585 -37.142  1.00  0.00     0.293 HD
ENDBRANCH  20  23
ENDBRANCH  14  15
ENDBRANCH  12  14
ENDBRANCH   9  10
ENDBRANCH   1   9
TORSDOF 10
ENDMDL
MODEL 7
REMARK VINA RESULT:    -4.521      2.201      5.285
REMARK INTER + INTRA:          -9.072
REMARK INTER:                  -7.352
REMARK INTRA:                  -1.721
REMARK UNBOUND:                -2.041
REMARK SMILES COc1cc(CNC(=O)CCCCC=CC(C)C)ccc1O
REMARK SMILES IDX 11 1 12 2 13 3 14 4 15 5 16 6 17 7 18 8 10 9 8 10 9 11 7 12
REMARK SMILES IDX 6 14 5 15 4 16 19 17 3 18 20 19 21 20 2 21 1 22 22 23
REMARK H PARENT 7 13 22 24
REMARK Flexibility Score: inf
ROOT
ATOM      1  C   UNL     1      14.811 -13.603 -44.079  1.00  0.00     0.010 C 
ENDROOT
BRANCH   1   2
ATOM      2  C   UNL     1      14.839 -12.169 -43.525  1.00  0.00     0.005 C 
BRANCH   2   3
ATOM      3  C   UNL     1      13.615 -11.355 -43.973  1.00  0.00     0.027 C 
BRANCH   3   4
ATOM      4  C   UNL     1      12.406 -11.660 -43.127  1.00  0.00    -0.031 C 
ATOM      5  C   UNL     1      11.253 -10.962 -43.164  1.00  0.00    -0.028 C 
BRANCH   5   6
ATOM      6  C   UNL     1      10.961  -9.833 -44.129  1.00  0.00     0.005 C 
ATOM      7  C   UNL     1       9.770 -10.205 -45.017  1.00  0.00     0.012 C 
ATOM      8  C   UNL     1      10.672  -8.545 -43.354  1.00  0.00     0.012 C 
ENDBRANCH   5   6
ENDBRANCH   3   4
ENDBRANCH   2   3
ENDBRANCH   1   2
BRANCH   1   9
ATOM      9  C   UNL     1      15.671 -13.760 -45.342  1.00  0.00     0.100 C 
BRANCH   9  10
ATOM     10  C   UNL     1      14.831 -14.084 -46.543  1.00  0.00     0.220 C 
ATOM     11  O   UNL     1      15.303 -14.831 -47.442  1.00  0.00    -0.275 OA
ATOM     12  N   UNL     1      13.486 -13.595 -46.639  1.00  0.00    -0.352 N 
ATOM     13  H   UNL     1      13.148 -12.916 -45.920  1.00  0.00     0.163 HD
BRANCH  12  14
ATOM     14  C   UNL     1      12.484 -14.237 -47.485  1.00  0.00     0.151 C 
BRANCH  14  15
ATOM     15  C   UNL     1      11.129 -14.101 -46.847  1.00  0.00    -0.025 A 
ATOM     16  C   UNL     1      10.988 -14.223 -45.455  1.00  0.00     0.056 A 
ATOM     17  C   UNL     1      10.021 -13.733 -47.621  1.00  0.00     0.009 A 
ATOM     18  C   UNL     1       9.748 -13.972 -44.837  1.00  0.00     0.160 A 
ATOM     19  C   UNL     1       8.784 -13.508 -47.017  1.00  0.00     0.050 A 
ATOM     20  C   UNL     1       8.646 -13.623 -45.628  1.00  0.00     0.157 A 
BRANCH  18  21
ATOM     21  O   UNL     1       9.576 -14.047 -43.447  1.00  0.00    -0.493 OA
ATOM     22  C   UNL     1       9.485 -15.263 -42.713  1.00  0.00     0.278 C 
ENDBRANCH  18  21
BRANCH  20  23
ATOM     23  O   UNL     1       7.413 -13.380 -45.023  1.00  0.00    -0.504 OA
ATOM     24  H   UNL     1       6.825 -14.138 -44.694  1.00  0.00     0.293 HD
ENDBRANCH  20  23
ENDBRANCH  14  15
ENDBRANCH  12  14
ENDBRANCH   9  10
ENDBRANCH   1   9
TORSDOF 10
ENDMDL
MODEL 8
REMARK VINA RESULT:    -4.493      1.910      4.836
REMARK INTER + INTRA:          -9.029
REMARK INTER:                  -7.662
REMARK INTRA:                  -1.367
REMARK UNBOUND:                -2.041
REMARK SMILES COc1cc(CNC(=O)CCCCC=CC(C)C)ccc1O
REMARK SMILES IDX 11 1 12 2 13 3 14 4 15 5 16 6 17 7 18 8 10 9 8 10 9 11 7 12
REMARK SMILES IDX 6 14 5 15 4 16 19 17 3 18 20 19 21 20 2 21 1 22 22 23
REMARK H PARENT 7 13 22 24
REMARK Flexibility Score: inf
ROOT
ATOM      1  C   UNL     1      13.827 -12.999 -43.873  1.00  0.00     0.010 C 
ENDROOT
BRANCH   1   2
ATOM      2  C   UNL     1      13.290 -11.558 -43.882  1.00  0.00     0.005 C 
BRANCH   2   3
ATOM      3  C   UNL     1      12.000 -11.418 -43.060  1.00  0.00     0.027 C 
BRANCH   3   4
ATOM      4  C   UNL     1      10.804 -11.167 -43.943  1.00  0.00    -0.031 C 
ATOM      5  C   UNL     1      10.302  -9.947 -44.217  1.00  0.00    -0.028 C 
BRANCH   5   6
ATOM      6  C   UNL     1      10.921  -8.640 -43.769  1.00  0.00     0.005 C 
ATOM      7  C   UNL     1      11.789  -8.065 -44.891  1.00  0.00     0.012 C 
ATOM      8  C   UNL     1       9.821  -7.649 -43.377  1.00  0.00     0.012 C 
ENDBRANCH   5   6
ENDBRANCH   3   4
ENDBRANCH   2   3
ENDBRANCH   1   2
BRANCH   1   9
ATOM      9  C   UNL     1      14.109 -13.527 -45.287  1.00  0.00     0.100 C 
BRANCH   9  10
ATOM     10  C   UNL     1      12.892 -14.169 -45.887  1.00  0.00     0.220 C 
ATOM     11  O   UNL     1      12.802 -14.269 -47.141  1.00  0.00    -0.275 OA
ATOM     12  N   UNL     1      11.869 -14.715 -45.042  1.00  0.00    -0.352 N 
ATOM     13  H   UNL     1      11.931 -14.549 -44.012  1.00  0.00     0.163 HD
BRANCH  12  14
ATOM     14  C   UNL     1      10.943 -15.744 -45.507  1.00  0.00     0.151 C 
BRANCH  14  15
ATOM     15  C   UNL     1       9.538 -15.208 -45.463  1.00  0.00    -0.025 A 
ATOM     16  C   UNL     1       9.310 -13.823 -45.453  1.00  0.00     0.056 A 
ATOM     17  C   UNL     1       8.449 -16.085 -45.553  1.00  0.00     0.009 A 
ATOM     18  C   UNL     1       8.001 -13.313 -45.540  1.00  0.00     0.160 A 
ATOM     19  C   UNL     1       7.148 -15.585 -45.614  1.00  0.00     0.050 A 
ATOM     20  C   UNL     1       6.921 -14.204 -45.611  1.00  0.00     0.157 A 
BRANCH  18  21
ATOM     21  O   UNL     1       7.734 -11.937 -45.571  1.00  0.00    -0.493 OA
ATOM     22  C   UNL     1       7.871 -11.117 -46.726  1.00  0.00     0.278 C 
ENDBRANCH  18  21
BRANCH  20  23
ATOM     23  O   UNL     1       5.622 -13.706 -45.690  1.00  0.00    -0.504 OA
ATOM     24  H   UNL     1       5.382 -12.788 -45.332  1.00  0.00     0.293 HD
ENDBRANCH  20  23
ENDBRANCH  14  15
ENDBRANCH  12  14
ENDBRANCH   9  10
ENDBRANCH   1   9
TORSDOF 10
ENDMDL
MODEL 9
REMARK VINA RESULT:    -4.461      9.302     12.402
REMARK INTER + INTRA:          -8.980
REMARK INTER:                  -6.975
REMARK INTRA:                  -2.005
REMARK UNBOUND:                -2.041
REMARK SMILES COc1cc(CNC(=O)CCCCC=CC(C)C)ccc1O
REMARK SMILES IDX 11 1 12 2 13 3 14 4 15 5 16 6 17 7 18 8 10 9 8 10 9 11 7 12
REMARK SMILES IDX 6 14 5 15 4 16 19 17 3 18 20 19 21 20 2 21 1 22 22 23
REMARK H PARENT 7 13 22 24
REMARK Flexibility Score: inf
ROOT
ATOM      1  C   UNL     1      10.670 -18.683 -38.547  1.00  0.00     0.010 C 
ENDROOT
BRANCH   1   2
ATOM      2  C   UNL     1      11.468 -19.018 -37.277  1.00  0.00     0.005 C 
BRANCH   2   3
ATOM      3  C   UNL     1      11.286 -20.482 -36.850  1.00  0.00     0.027 C 
BRANCH   3   4
ATOM      4  C   UNL     1      11.257 -21.407 -38.040  1.00  0.00    -0.031 C 
ATOM      5  C   UNL     1      12.351 -21.934 -38.624  1.00  0.00    -0.028 C 
BRANCH   5   6
ATOM      6  C   UNL     1      13.766 -21.762 -38.113  1.00  0.00     0.005 C 
ATOM      7  C   UNL     1      14.433 -23.131 -37.962  1.00  0.00     0.012 C 
ATOM      8  C   UNL     1      14.564 -20.878 -39.076  1.00  0.00     0.012 C 
ENDBRANCH   5   6
ENDBRANCH   3   4
ENDBRANCH   2   3
ENDBRANCH   1   2
BRANCH   1   9
ATOM      9  C   UNL     1       9.396 -17.882 -38.243  1.00  0.00     0.100 C 
BRANCH   9  10
ATOM     10  C   UNL     1       8.173 -18.752 -38.292  1.00  0.00     0.220 C 
ATOM     11  O   UNL     1       7.898 -19.369 -39.356  1.00  0.00    -0.275 OA
ATOM     12  N   UNL     1       7.361 -18.925 -37.123  1.00  0.00    -0.352 N 
ATOM     13  H   UNL     1       7.566 -18.342 -36.280  1.00  0.00     0.163 HD
BRANCH  12  14
ATOM     14  C   UNL     1       6.486 -20.081 -36.948  1.00  0.00     0.151 C 
BRANCH  14  15
ATOM     15  C   UNL     1       7.299 -21.254 -36.473  1.00  0.00    -0.025 A 
ATOM     16  C   UNL     1       7.433 -22.395 -37.281  1.00  0.00     0.056 A 
ATOM     17  C   UNL     1       8.025 -21.168 -35.278  1.00  0.00     0.009 A 
ATOM     18  C   UNL     1       8.292 -23.443 -36.901  1.00  0.00     0.160 A 
ATOM     19  C   UNL     1       8.859 -22.215 -34.885  1.00  0.00     0.050 A 
ATOM     20  C   UNL     1       8.997 -23.349 -35.694  1.00  0.00     0.157 A 
BRANCH  18  21
ATOM     21  O   UNL     1       8.481 -24.582 -37.698  1.00  0.00    -0.493 OA
ATOM     22  C   UNL     1       9.266 -24.611 -38.885  1.00  0.00     0.278 C 
ENDBRANCH  18  21
BRANCH  20  23
ATOM     23  O   UNL     1       9.845 -24.387 -35.309  1.00  0.00    -0.504 OA
ATOM     24  H   UNL     1      10.595 -24.241 -34.643  1.00  0.00     0.293 HD
ENDBRANCH  20  23
ENDBRANCH  14  15
ENDBRANCH  12  14
ENDBRANCH   9  10
ENDBRANCH   1   9
TORSDOF 10
ENDMDL
