MODEL 1
REMARK VINA RESULT:    -2.675      0.000      0.000
REMARK INTER + INTRA:          -7.164
REMARK INTER:                  -4.864
REMARK INTRA:                  -2.300
REMARK UNBOUND:                -2.300
REMARK SMILES CCCCCCCCCCCCCC[C@@H](C)C(=O)[O-]
REMARK SMILES IDX 9 1 10 2 11 3 12 4 13 5 14 6 15 7 16 8 17 9 18 10 19 11 8 12
REMARK SMILES IDX 7 13 6 14 5 15 4 16 3 17 2 18 1 19
REMARK H PARENT
REMARK Flexibility Score: inf
ROOT
ATOM      1  C   UNL     1      51.115 -31.237  22.818  1.00  0.00     0.000 C 
ENDROOT
BRANCH   1   2
ATOM      2  C   UNL     1      50.211 -32.478  22.736  1.00  0.00     0.000 C 
BRANCH   2   3
ATOM      3  C   UNL     1      50.595 -33.565  23.757  1.00  0.00     0.000 C 
BRANCH   3   4
ATOM      4  C   UNL     1      51.379 -34.753  23.170  1.00  0.00     0.000 C 
BRANCH   4   5
ATOM      5  C   UNL     1      52.036 -35.630  24.250  1.00  0.00     0.001 C 
BRANCH   5   6
ATOM      6  C   UNL     1      53.549 -35.348  24.391  1.00  0.00     0.009 C 
BRANCH   6   7
ATOM      7  C   UNL     1      54.173 -34.682  23.143  1.00  0.00     0.032 C 
ATOM      8  C   UNL     1      54.945 -33.401  23.485  1.00  0.00     0.014 C 
BRANCH   7   9
ATOM      9  C   UNL     1      55.088 -35.654  22.455  1.00  0.00     0.044 C 
ATOM     10  O   UNL     1      54.804 -36.088  21.306  1.00  0.00    -0.550 OA
ATOM     11  O   UNL     1      56.252 -36.087  23.080  1.00  0.00    -0.550 OA
ENDBRANCH   7   9
ENDBRANCH   6   7
ENDBRANCH   5   6
ENDBRANCH   4   5
ENDBRANCH   3   4
ENDBRANCH   2   3
ENDBRANCH   1   2
BRANCH   1  12
ATOM     12  C   UNL     1      50.317 -29.924  22.775  1.00  0.00     0.000 C 
BRANCH  12  13
ATOM     13  C   UNL     1      50.700 -28.965  23.917  1.00  0.00    -0.000 C 
BRANCH  13  14
ATOM     14  C   UNL     1      51.935 -28.113  23.579  1.00  0.00    -0.000 C 
BRANCH  14  15
ATOM     15  C   UNL     1      53.191 -28.567  24.342  1.00  0.00    -0.000 C 
BRANCH  15  16
ATOM     16  C   UNL     1      52.864 -29.427  25.575  1.00  0.00    -0.000 C 
BRANCH  16  17
ATOM     17  C   UNL     1      53.613 -30.771  25.643  1.00  0.00    -0.000 C 
BRANCH  17  18
ATOM     18  C   UNL     1      52.743 -31.913  26.190  1.00  0.00    -0.003 C 
ATOM     19  C   UNL     1      51.361 -31.407  26.593  1.00  0.00     0.004 C 
ENDBRANCH  17  18
ENDBRANCH  16  17
ENDBRANCH  15  16
ENDBRANCH  14  15
ENDBRANCH  13  14
ENDBRANCH  12  13
ENDBRANCH   1  12
TORSDOF 14
ENDMDL
MODEL 2
REMARK VINA RESULT:    -2.616      0.892      2.469
REMARK INTER + INTRA:          -7.057
REMARK INTER:                  -4.879
REMARK INTRA:                  -2.178
REMARK UNBOUND:                -2.300
REMARK SMILES CCCCCCCCCCCCCC[C@@H](C)C(=O)[O-]
REMARK SMILES IDX 9 1 10 2 11 3 12 4 13 5 14 6 15 7 16 8 17 9 18 10 19 11 8 12
REMARK SMILES IDX 7 13 6 14 5 15 4 16 3 17 2 18 1 19
REMARK H PARENT
REMARK Flexibility Score: inf
ROOT
ATOM      1  C   UNL     1      52.056 -31.855  23.396  1.00  0.00     0.000 C 
ENDROOT
BRANCH   1   2
ATOM      2  C   UNL     1      50.656 -32.406  23.074  1.00  0.00     0.000 C 
BRANCH   2   3
ATOM      3  C   UNL     1      50.514 -33.904  23.403  1.00  0.00     0.000 C 
BRANCH   3   4
ATOM      4  C   UNL     1      51.780 -34.743  23.150  1.00  0.00     0.000 C 
BRANCH   4   5
ATOM      5  C   UNL     1      52.366 -35.345  24.439  1.00  0.00     0.001 C 
BRANCH   5   6
ATOM      6  C   UNL     1      53.911 -35.325  24.443  1.00  0.00     0.009 C 
BRANCH   6   7
ATOM      7  C   UNL     1      54.524 -34.629  23.207  1.00  0.00     0.032 C 
ATOM      8  C   UNL     1      55.482 -33.493  23.587  1.00  0.00     0.014 C 
BRANCH   7   9
ATOM      9  C   UNL     1      55.250 -35.640  22.364  1.00  0.00     0.044 C 
ATOM     10  O   UNL     1      56.362 -36.098  22.742  1.00  0.00    -0.550 OA
ATOM     11  O   UNL     1      54.705 -36.075  21.161  1.00  0.00    -0.550 OA
ENDBRANCH   7   9
ENDBRANCH   6   7
ENDBRANCH   5   6
ENDBRANCH   4   5
ENDBRANCH   3   4
ENDBRANCH   2   3
ENDBRANCH   1   2
BRANCH   1  12
ATOM     12  C   UNL     1      52.156 -31.303  24.826  1.00  0.00     0.000 C 
BRANCH  12  13
ATOM     13  C   UNL     1      53.588 -30.875  25.194  1.00  0.00    -0.000 C 
BRANCH  13  14
ATOM     14  C   UNL     1      53.622 -29.877  26.362  1.00  0.00    -0.000 C 
BRANCH  14  15
ATOM     15  C   UNL     1      53.187 -28.463  25.942  1.00  0.00    -0.000 C 
BRANCH  15  16
ATOM     16  C   UNL     1      53.676 -28.080  24.534  1.00  0.00    -0.000 C 
BRANCH  16  17
ATOM     17  C   UNL     1      52.559 -27.720  23.537  1.00  0.00    -0.000 C 
BRANCH  17  18
ATOM     18  C   UNL     1      51.160 -27.749  24.170  1.00  0.00    -0.003 C 
ATOM     19  C   UNL     1      50.183 -28.544  23.310  1.00  0.00     0.004 C 
ENDBRANCH  17  18
ENDBRANCH  16  17
ENDBRANCH  15  16
ENDBRANCH  14  15
ENDBRANCH  13  14
ENDBRANCH  12  13
ENDBRANCH   1  12
TORSDOF 14
ENDMDL
MODEL 3
REMARK VINA RESULT:    -2.603      1.135      2.321
REMARK INTER + INTRA:          -7.033
REMARK INTER:                  -5.190
REMARK INTRA:                  -1.843
REMARK UNBOUND:                -2.300
REMARK SMILES CCCCCCCCCCCCCC[C@@H](C)C(=O)[O-]
REMARK SMILES IDX 9 1 10 2 11 3 12 4 13 5 14 6 15 7 16 8 17 9 18 10 19 11 8 12
REMARK SMILES IDX 7 13 6 14 5 15 4 16 3 17 2 18 1 19
REMARK H PARENT
REMARK Flexibility Score: inf
ROOT
ATOM      1  C   UNL     1      51.521 -31.655  24.509  1.00  0.00     0.000 C 
ENDROOT
BRANCH   1   2
ATOM      2  C   UNL     1      50.987 -33.086  24.690  1.00  0.00     0.000 C 
BRANCH   2   3
ATOM      3  C   UNL     1      50.784 -33.821  23.352  1.00  0.00     0.000 C 
BRANCH   3   4
ATOM      4  C   UNL     1      51.623 -35.102  23.187  1.00  0.00     0.000 C 
BRANCH   4   5
ATOM      5  C   UNL     1      52.299 -35.548  24.495  1.00  0.00     0.001 C 
BRANCH   5   6
ATOM      6  C   UNL     1      53.818 -35.267  24.493  1.00  0.00     0.009 C 
BRANCH   6   7
ATOM      7  C   UNL     1      54.328 -34.632  23.179  1.00  0.00     0.032 C 
ATOM      8  C   UNL     1      55.098 -33.327  23.418  1.00  0.00     0.014 C 
BRANCH   7   9
ATOM      9  C   UNL     1      55.208 -35.611  22.452  1.00  0.00     0.044 C 
ATOM     10  O   UNL     1      54.901 -35.999  21.293  1.00  0.00    -0.550 OA
ATOM     11  O   UNL     1      56.363 -36.099  23.053  1.00  0.00    -0.550 OA
ENDBRANCH   7   9
ENDBRANCH   6   7
ENDBRANCH   5   6
ENDBRANCH   4   5
ENDBRANCH   3   4
ENDBRANCH   2   3
ENDBRANCH   1   2
BRANCH   1  12
ATOM     12  C   UNL     1      51.395 -31.159  23.060  1.00  0.00     0.000 C 
BRANCH  12  13
ATOM     13  C   UNL     1      50.065 -30.429  22.802  1.00  0.00    -0.000 C 
BRANCH  13  14
ATOM     14  C   UNL     1      50.213 -28.900  22.860  1.00  0.00    -0.000 C 
BRANCH  14  15
ATOM     15  C   UNL     1      49.913 -28.331  24.257  1.00  0.00    -0.000 C 
BRANCH  15  16
ATOM     16  C   UNL     1      51.158 -27.742  24.943  1.00  0.00    -0.000 C 
BRANCH  16  17
ATOM     17  C   UNL     1      51.989 -26.787  24.065  1.00  0.00    -0.000 C 
BRANCH  17  18
ATOM     18  C   UNL     1      53.372 -27.353  23.710  1.00  0.00    -0.003 C 
ATOM     19  C   UNL     1      53.708 -28.566  24.573  1.00  0.00     0.004 C 
ENDBRANCH  17  18
ENDBRANCH  16  17
ENDBRANCH  15  16
ENDBRANCH  14  15
ENDBRANCH  13  14
ENDBRANCH  12  13
ENDBRANCH   1  12
TORSDOF 14
ENDMDL
MODEL 4
REMARK VINA RESULT:    -2.582      1.200      3.532
REMARK INTER + INTRA:          -6.994
REMARK INTER:                  -4.718
REMARK INTRA:                  -2.277
REMARK UNBOUND:                -2.300
REMARK SMILES CCCCCCCCCCCCCC[C@@H](C)C(=O)[O-]
REMARK SMILES IDX 9 1 10 2 11 3 12 4 13 5 14 6 15 7 16 8 17 9 18 10 19 11 8 12
REMARK SMILES IDX 7 13 6 14 5 15 4 16 3 17 2 18 1 19
REMARK H PARENT
REMARK Flexibility Score: inf
ROOT
ATOM      1  C   UNL     1      53.229 -29.319  25.978  1.00  0.00     0.000 C 
ENDROOT
BRANCH   1   2
ATOM      2  C   UNL     1      54.051 -30.539  25.526  1.00  0.00     0.000 C 
BRANCH   2   3
ATOM      3  C   UNL     1      53.353 -31.876  25.833  1.00  0.00     0.000 C 
BRANCH   3   4
ATOM      4  C   UNL     1      53.991 -33.106  25.162  1.00  0.00     0.000 C 
BRANCH   4   5
ATOM      5  C   UNL     1      54.311 -32.878  23.674  1.00  0.00     0.001 C 
BRANCH   5   6
ATOM      6  C   UNL     1      55.463 -33.781  23.180  1.00  0.00     0.009 C 
BRANCH   6   7
ATOM      7  C   UNL     1      55.086 -35.277  23.100  1.00  0.00     0.032 C 
ATOM      8  C   UNL     1      54.984 -35.782  21.655  1.00  0.00     0.014 C 
BRANCH   7   9
ATOM      9  C   UNL     1      56.100 -36.096  23.849  1.00  0.00     0.044 C 
ATOM     10  O   UNL     1      56.209 -35.981  25.099  1.00  0.00    -0.550 OA
ATOM     11  O   UNL     1      56.930 -36.981  23.169  1.00  0.00    -0.550 OA
ENDBRANCH   7   9
ENDBRANCH   6   7
ENDBRANCH   5   6
ENDBRANCH   4   5
ENDBRANCH   3   4
ENDBRANCH   2   3
ENDBRANCH   1   2
BRANCH   1  12
ATOM     12  C   UNL     1      51.817 -29.304  25.370  1.00  0.00     0.000 C 
BRANCH  12  13
ATOM     13  C   UNL     1      51.822 -28.924  23.879  1.00  0.00    -0.000 C 
BRANCH  13  14
ATOM     14  C   UNL     1      50.805 -29.738  23.062  1.00  0.00    -0.000 C 
BRANCH  14  15
ATOM     15  C   UNL     1      51.300 -31.161  22.754  1.00  0.00    -0.000 C 
BRANCH  15  16
ATOM     16  C   UNL     1      50.201 -32.225  22.917  1.00  0.00    -0.000 C 
BRANCH  16  17
ATOM     17  C   UNL     1      50.556 -33.383  23.867  1.00  0.00    -0.000 C 
BRANCH  17  18
ATOM     18  C   UNL     1      51.166 -34.589  23.139  1.00  0.00    -0.003 C 
ATOM     19  C   UNL     1      51.475 -35.722  24.113  1.00  0.00     0.004 C 
ENDBRANCH  17  18
ENDBRANCH  16  17
ENDBRANCH  15  16
ENDBRANCH  14  15
ENDBRANCH  13  14
ENDBRANCH  12  13
ENDBRANCH   1  12
TORSDOF 14
ENDMDL
MODEL 5
REMARK VINA RESULT:    -2.574      3.223      6.846
REMARK INTER + INTRA:          -6.980
REMARK INTER:                  -4.484
REMARK INTRA:                  -2.496
REMARK UNBOUND:                -2.300
REMARK SMILES CCCCCCCCCCCCCC[C@@H](C)C(=O)[O-]
REMARK SMILES IDX 9 1 10 2 11 3 12 4 13 5 14 6 15 7 16 8 17 9 18 10 19 11 8 12
REMARK SMILES IDX 7 13 6 14 5 15 4 16 3 17 2 18 1 19
REMARK H PARENT
REMARK Flexibility Score: inf
ROOT
ATOM      1  C   UNL     1      57.156 -33.698  25.422  1.00  0.00     0.000 C 
ENDROOT
BRANCH   1   2
ATOM      2  C   UNL     1      57.125 -32.731  24.226  1.00  0.00     0.000 C 
BRANCH   2   3
ATOM      3  C   UNL     1      55.714 -32.190  23.933  1.00  0.00     0.000 C 
BRANCH   3   4
ATOM      4  C   UNL     1      54.871 -31.876  25.183  1.00  0.00     0.000 C 
BRANCH   4   5
ATOM      5  C   UNL     1      53.369 -32.133  24.972  1.00  0.00     0.001 C 
BRANCH   5   6
ATOM      6  C   UNL     1      52.986 -32.168  23.476  1.00  0.00     0.009 C 
BRANCH   6   7
ATOM      7  C   UNL     1      51.596 -31.561  23.178  1.00  0.00     0.032 C 
ATOM      8  C   UNL     1      50.449 -32.513  23.538  1.00  0.00     0.014 C 
BRANCH   7   9
ATOM      9  C   UNL     1      51.435 -30.271  23.933  1.00  0.00     0.044 C 
ATOM     10  O   UNL     1      50.614 -30.192  24.885  1.00  0.00    -0.550 OA
ATOM     11  O   UNL     1      52.185 -29.153  23.583  1.00  0.00    -0.550 OA
ENDBRANCH   7   9
ENDBRANCH   6   7
ENDBRANCH   5   6
ENDBRANCH   4   5
ENDBRANCH   3   4
ENDBRANCH   2   3
ENDBRANCH   1   2
BRANCH   1  12
ATOM     12  C   UNL     1      57.693 -35.087  25.041  1.00  0.00     0.000 C 
BRANCH  12  13
ATOM     13  C   UNL     1      58.582 -35.050  23.785  1.00  0.00    -0.000 C 
BRANCH  13  14
ATOM     14  C   UNL     1      58.092 -36.012  22.690  1.00  0.00    -0.000 C 
BRANCH  14  15
ATOM     15  C   UNL     1      56.636 -36.459  22.906  1.00  0.00    -0.000 C 
BRANCH  15  16
ATOM     16  C   UNL     1      55.646 -35.749  21.967  1.00  0.00    -0.000 C 
BRANCH  16  17
ATOM     17  C   UNL     1      54.260 -35.472  22.577  1.00  0.00    -0.000 C 
BRANCH  17  18
ATOM     18  C   UNL     1      54.235 -35.635  24.104  1.00  0.00    -0.003 C 
ATOM     19  C   UNL     1      52.805 -35.769  24.619  1.00  0.00     0.004 C 
ENDBRANCH  17  18
ENDBRANCH  16  17
ENDBRANCH  15  16
ENDBRANCH  14  15
ENDBRANCH  13  14
ENDBRANCH  12  13
ENDBRANCH   1  12
TORSDOF 14
ENDMDL
MODEL 6
REMARK VINA RESULT:    -2.561      2.588      4.929
REMARK INTER + INTRA:          -6.957
REMARK INTER:                  -4.635
REMARK INTRA:                  -2.321
REMARK UNBOUND:                -2.300
REMARK SMILES CCCCCCCCCCCCCC[C@@H](C)C(=O)[O-]
REMARK SMILES IDX 9 1 10 2 11 3 12 4 13 5 14 6 15 7 16 8 17 9 18 10 19 11 8 12
REMARK SMILES IDX 7 13 6 14 5 15 4 16 3 17 2 18 1 19
REMARK H PARENT
REMARK Flexibility Score: inf
ROOT
ATOM      1  C   UNL     1      54.038 -35.636  24.122  1.00  0.00     0.000 C 
ENDROOT
BRANCH   1   2
ATOM      2  C   UNL     1      54.475 -35.071  22.759  1.00  0.00     0.000 C 
BRANCH   2   3
ATOM      3  C   UNL     1      55.316 -36.068  21.941  1.00  0.00     0.000 C 
BRANCH   3   4
ATOM      4  C   UNL     1      56.472 -36.726  22.718  1.00  0.00     0.000 C 
BRANCH   4   5
ATOM      5  C   UNL     1      57.845 -36.124  22.372  1.00  0.00     0.001 C 
BRANCH   5   6
ATOM      6  C   UNL     1      58.565 -35.558  23.617  1.00  0.00     0.009 C 
BRANCH   6   7
ATOM      7  C   UNL     1      57.898 -34.288  24.193  1.00  0.00     0.032 C 
ATOM      8  C   UNL     1      57.266 -34.529  25.569  1.00  0.00     0.014 C 
BRANCH   7   9
ATOM      9  C   UNL     1      58.912 -33.183  24.291  1.00  0.00     0.044 C 
ATOM     10  O   UNL     1      59.620 -32.882  23.292  1.00  0.00    -0.550 OA
ATOM     11  O   UNL     1      59.083 -32.489  25.483  1.00  0.00    -0.550 OA
ENDBRANCH   7   9
ENDBRANCH   6   7
ENDBRANCH   5   6
ENDBRANCH   4   5
ENDBRANCH   3   4
ENDBRANCH   2   3
ENDBRANCH   1   2
BRANCH   1  12
ATOM     12  C   UNL     1      52.514 -35.597  24.314  1.00  0.00     0.000 C 
BRANCH  12  13
ATOM     13  C   UNL     1      51.792 -34.901  23.146  1.00  0.00    -0.000 C 
BRANCH  13  14
ATOM     14  C   UNL     1      50.745 -33.882  23.626  1.00  0.00    -0.000 C 
BRANCH  14  15
ATOM     15  C   UNL     1      51.073 -32.447  23.180  1.00  0.00    -0.000 C 
BRANCH  15  16
ATOM     16  C   UNL     1      52.486 -32.000  23.592  1.00  0.00    -0.000 C 
BRANCH  16  17
ATOM     17  C   UNL     1      52.731 -31.950  25.111  1.00  0.00    -0.000 C 
BRANCH  17  18
ATOM     18  C   UNL     1      54.213 -31.768  25.472  1.00  0.00    -0.003 C 
ATOM     19  C   UNL     1      55.095 -31.840  24.228  1.00  0.00     0.004 C 
ENDBRANCH  17  18
ENDBRANCH  16  17
ENDBRANCH  15  16
ENDBRANCH  14  15
ENDBRANCH  13  14
ENDBRANCH  12  13
ENDBRANCH   1  12
TORSDOF 14
ENDMDL
MODEL 7
REMARK VINA RESULT:    -2.526      3.034      6.250
REMARK INTER + INTRA:          -6.893
REMARK INTER:                  -4.314
REMARK INTRA:                  -2.578
REMARK UNBOUND:                -2.300
REMARK SMILES CCCCCCCCCCCCCC[C@@H](C)C(=O)[O-]
REMARK SMILES IDX 9 1 10 2 11 3 12 4 13 5 14 6 15 7 16 8 17 9 18 10 19 11 8 12
REMARK SMILES IDX 7 13 6 14 5 15 4 16 3 17 2 18 1 19
REMARK H PARENT
REMARK Flexibility Score: inf
ROOT
ATOM      1  C   UNL     1      56.870 -36.598  23.766  1.00  0.00     0.000 C 
ENDROOT
BRANCH   1   2
ATOM      2  C   UNL     1      58.232 -35.995  24.151  1.00  0.00     0.000 C 
BRANCH   2   3
ATOM      3  C   UNL     1      58.143 -34.501  24.512  1.00  0.00     0.000 C 
BRANCH   3   4
ATOM      4  C   UNL     1      57.307 -34.189  25.767  1.00  0.00     0.000 C 
BRANCH   4   5
ATOM      5  C   UNL     1      56.186 -33.169  25.502  1.00  0.00     0.001 C 
BRANCH   5   6
ATOM      6  C   UNL     1      56.297 -32.529  24.100  1.00  0.00     0.009 C 
BRANCH   6   7
ATOM      7  C   UNL     1      56.211 -30.986  24.116  1.00  0.00     0.032 C 
ATOM      8  C   UNL     1      55.679 -30.440  25.447  1.00  0.00     0.014 C 
BRANCH   7   9
ATOM      9  C   UNL     1      57.567 -30.400  23.837  1.00  0.00     0.044 C 
ATOM     10  O   UNL     1      58.489 -31.126  23.380  1.00  0.00    -0.550 OA
ATOM     11  O   UNL     1      57.815 -29.054  24.084  1.00  0.00    -0.550 OA
ENDBRANCH   7   9
ENDBRANCH   6   7
ENDBRANCH   5   6
ENDBRANCH   4   5
ENDBRANCH   3   4
ENDBRANCH   2   3
ENDBRANCH   1   2
BRANCH   1  12
ATOM     12  C   UNL     1      56.507 -36.337  22.295  1.00  0.00     0.000 C 
BRANCH  12  13
ATOM     13  C   UNL     1      55.117 -35.693  22.138  1.00  0.00    -0.000 C 
BRANCH  13  14
ATOM     14  C   UNL     1      54.361 -35.595  23.473  1.00  0.00    -0.000 C 
BRANCH  14  15
ATOM     15  C   UNL     1      53.109 -34.707  23.377  1.00  0.00    -0.000 C 
BRANCH  15  16
ATOM     16  C   UNL     1      52.627 -34.203  24.749  1.00  0.00    -0.000 C 
BRANCH  16  17
ATOM     17  C   UNL     1      52.548 -32.671  24.883  1.00  0.00    -0.000 C 
BRANCH  17  18
ATOM     18  C   UNL     1      52.617 -31.947  23.530  1.00  0.00    -0.003 C 
ATOM     19  C   UNL     1      51.228 -31.520  23.063  1.00  0.00     0.004 C 
ENDBRANCH  17  18
ENDBRANCH  16  17
ENDBRANCH  15  16
ENDBRANCH  14  15
ENDBRANCH  13  14
ENDBRANCH  12  13
ENDBRANCH   1  12
TORSDOF 14
ENDMDL
MODEL 8
REMARK VINA RESULT:    -2.520      2.150      4.398
REMARK INTER + INTRA:          -6.883
REMARK INTER:                  -4.253
REMARK INTRA:                  -2.630
REMARK UNBOUND:                -2.300
REMARK SMILES CCCCCCCCCCCCCC[C@@H](C)C(=O)[O-]
REMARK SMILES IDX 9 1 10 2 11 3 12 4 13 5 14 6 15 7 16 8 17 9 18 10 19 11 8 12
REMARK SMILES IDX 7 13 6 14 5 15 4 16 3 17 2 18 1 19
REMARK H PARENT
REMARK Flexibility Score: inf
ROOT
ATOM      1  C   UNL     1      50.766 -32.665  23.195  1.00  0.00     0.000 C 
ENDROOT
BRANCH   1   2
ATOM      2  C   UNL     1      51.678 -32.172  24.332  1.00  0.00     0.000 C 
BRANCH   2   3
ATOM      3  C   UNL     1      53.025 -31.629  23.823  1.00  0.00     0.000 C 
BRANCH   3   4
ATOM      4  C   UNL     1      54.265 -32.345  24.389  1.00  0.00     0.000 C 
BRANCH   4   5
ATOM      5  C   UNL     1      54.848 -33.389  23.421  1.00  0.00     0.001 C 
BRANCH   5   6
ATOM      6  C   UNL     1      55.511 -34.570  24.165  1.00  0.00     0.009 C 
BRANCH   6   7
ATOM      7  C   UNL     1      55.760 -35.804  23.269  1.00  0.00     0.032 C 
ATOM      8  C   UNL     1      55.256 -35.601  21.835  1.00  0.00     0.014 C 
BRANCH   7   9
ATOM      9  C   UNL     1      57.229 -36.125  23.246  1.00  0.00     0.044 C 
ATOM     10  O   UNL     1      57.868 -36.090  22.161  1.00  0.00    -0.550 OA
ATOM     11  O   UNL     1      57.892 -36.467  24.419  1.00  0.00    -0.550 OA
ENDBRANCH   7   9
ENDBRANCH   6   7
ENDBRANCH   5   6
ENDBRANCH   4   5
ENDBRANCH   3   4
ENDBRANCH   2   3
ENDBRANCH   1   2
BRANCH   1  12
ATOM     12  C   UNL     1      50.451 -34.166  23.302  1.00  0.00     0.000 C 
BRANCH  12  13
ATOM     13  C   UNL     1      51.700 -35.044  23.107  1.00  0.00    -0.000 C 
BRANCH  13  14
ATOM     14  C   UNL     1      52.035 -35.875  24.357  1.00  0.00    -0.000 C 
BRANCH  14  15
ATOM     15  C   UNL     1      51.013 -35.676  25.488  1.00  0.00    -0.000 C 
BRANCH  15  16
ATOM     16  C   UNL     1      51.671 -35.533  26.871  1.00  0.00    -0.000 C 
BRANCH  16  17
ATOM     17  C   UNL     1      52.938 -34.658  26.898  1.00  0.00    -0.000 C 
BRANCH  17  18
ATOM     18  C   UNL     1      54.161 -35.395  27.464  1.00  0.00    -0.003 C 
ATOM     19  C   UNL     1      54.012 -36.906  27.313  1.00  0.00     0.004 C 
ENDBRANCH  17  18
ENDBRANCH  16  17
ENDBRANCH  15  16
ENDBRANCH  14  15
ENDBRANCH  13  14
ENDBRANCH  12  13
ENDBRANCH   1  12
TORSDOF 14
ENDMDL
MODEL 9
REMARK VINA RESULT:    -2.511      1.433      2.067
REMARK INTER + INTRA:          -6.865
REMARK INTER:                  -4.765
REMARK INTRA:                  -2.101
REMARK UNBOUND:                -2.300
REMARK SMILES CCCCCCCCCCCCCC[C@@H](C)C(=O)[O-]
REMARK SMILES IDX 9 1 10 2 11 3 12 4 13 5 14 6 15 7 16 8 17 9 18 10 19 11 8 12
REMARK SMILES IDX 7 13 6 14 5 15 4 16 3 17 2 18 1 19
REMARK H PARENT
REMARK Flexibility Score: inf
ROOT
ATOM      1  C   UNL     1      51.355 -31.371  22.820  1.00  0.00     0.000 C 
ENDROOT
BRANCH   1   2
ATOM      2  C   UNL     1      51.124 -32.816  23.294  1.00  0.00     0.000 C 
BRANCH   2   3
ATOM      3  C   UNL     1      52.389 -33.457  23.895  1.00  0.00     0.000 C 
BRANCH   3   4
ATOM      4  C   UNL     1      53.670 -32.614  23.750  1.00  0.00     0.000 C 
BRANCH   4   5
ATOM      5  C   UNL     1      54.913 -33.463  23.431  1.00  0.00     0.001 C 
BRANCH   5   6
ATOM      6  C   UNL     1      54.756 -34.927  23.899  1.00  0.00     0.009 C 
BRANCH   6   7
ATOM      7  C   UNL     1      55.429 -35.953  22.958  1.00  0.00     0.032 C 
ATOM      8  C   UNL     1      55.207 -35.625  21.476  1.00  0.00     0.014 C 
BRANCH   7   9
ATOM      9  C   UNL     1      56.903 -36.012  23.246  1.00  0.00     0.044 C 
ATOM     10  O   UNL     1      57.318 -35.987  24.436  1.00  0.00    -0.550 OA
ATOM     11  O   UNL     1      57.820 -36.090  22.204  1.00  0.00    -0.550 OA
ENDBRANCH   7   9
ENDBRANCH   6   7
ENDBRANCH   5   6
ENDBRANCH   4   5
ENDBRANCH   3   4
ENDBRANCH   2   3
ENDBRANCH   1   2
BRANCH   1  12
ATOM     12  C   UNL     1      50.088 -30.507  22.927  1.00  0.00     0.000 C 
BRANCH  12  13
ATOM     13  C   UNL     1      50.408 -29.022  23.176  1.00  0.00    -0.000 C 
BRANCH  13  14
ATOM     14  C   UNL     1      51.876 -28.795  23.572  1.00  0.00    -0.000 C 
BRANCH  14  15
ATOM     15  C   UNL     1      52.017 -27.951  24.850  1.00  0.00    -0.000 C 
BRANCH  15  16
ATOM     16  C   UNL     1      51.350 -28.602  26.074  1.00  0.00    -0.000 C 
BRANCH  16  17
ATOM     17  C   UNL     1      52.183 -29.701  26.758  1.00  0.00    -0.000 C 
BRANCH  17  18
ATOM     18  C   UNL     1      51.574 -31.102  26.596  1.00  0.00    -0.003 C 
ATOM     19  C   UNL     1      50.050 -31.040  26.582  1.00  0.00     0.004 C 
ENDBRANCH  17  18
ENDBRANCH  16  17
ENDBRANCH  15  16
ENDBRANCH  14  15
ENDBRANCH  13  14
ENDBRANCH  12  13
ENDBRANCH   1  12
TORSDOF 14
ENDMDL
