MODEL 1
REMARK VINA RESULT:    -3.545      0.000      0.000
REMARK INTER + INTRA:          -4.981
REMARK INTER:                  -4.581
REMARK INTRA:                  -0.400
REMARK UNBOUND:                -0.400
REMARK SMILES CCO[C@H]1O[C@H](CO)[C@H](O)[C@H](O)[C@@H]1O
REMARK SMILES IDX 4 1 13 2 11 3 9 4 6 5 5 6 3 7 2 8 1 9 14 10 12 12 7 14 8 15
REMARK SMILES IDX 10 17
REMARK H PARENT 14 11 12 13 8 16 10 18
REMARK Flexibility Score: inf
ROOT
ATOM      1  C   UNL     1      17.430  -9.507   5.721  1.00  0.00     0.281 C 
ATOM      2  C   UNL     1      15.931  -9.143   5.660  1.00  0.00     0.202 C 
ATOM      3  C   UNL     1      15.757  -7.610   5.605  1.00  0.00     0.179 C 
ATOM      4  C   UNL     1      16.564  -6.931   6.724  1.00  0.00     0.177 C 
ATOM      5  C   UNL     1      18.024  -7.438   6.676  1.00  0.00     0.178 C 
ATOM      6  O   UNL     1      18.070  -8.851   6.807  1.00  0.00    -0.341 OA
ENDROOT
BRANCH   1   7
ATOM      7  O   UNL     1      18.079  -9.180   4.498  1.00  0.00    -0.350 OA
BRANCH   7   8
ATOM      8  C   UNL     1      19.224  -9.984   4.299  1.00  0.00     0.160 C 
ATOM      9  C   UNL     1      20.429  -9.085   4.072  1.00  0.00     0.035 C 
ENDBRANCH   7   8
ENDBRANCH   1   7
BRANCH   2  10
ATOM     10  O   UNL     1      15.283  -9.673   6.790  1.00  0.00    -0.385 OA
ATOM     11  H   UNL     1      15.933 -10.270   7.244  1.00  0.00     0.211 HD
ENDBRANCH   2  10
BRANCH   3  12
ATOM     12  O   UNL     1      14.401  -7.257   5.708  1.00  0.00    -0.387 OA
ATOM     13  H   UNL     1      14.342  -6.288   5.504  1.00  0.00     0.211 HD
ENDBRANCH   3  12
BRANCH   5  14
ATOM     14  C   UNL     1      18.879  -6.819   7.792  1.00  0.00     0.191 C 
BRANCH  14  15
ATOM     15  O   UNL     1      18.874  -7.632   8.935  1.00  0.00    -0.394 OA
ATOM     16  H   UNL     1      19.726  -7.462   9.414  1.00  0.00     0.210 HD
ENDBRANCH  14  15
ENDBRANCH   5  14
BRANCH   4  17
ATOM     17  O   UNL     1      16.000  -7.216   7.981  1.00  0.00    -0.387 OA
ATOM     18  H   UNL     1      16.348  -8.102   8.262  1.00  0.00     0.211 HD
ENDBRANCH   4  17
TORSDOF 7
ENDMDL
MODEL 2
REMARK VINA RESULT:    -3.361      2.127      4.134
REMARK INTER + INTRA:          -4.744
REMARK INTER:                  -4.361
REMARK INTRA:                  -0.383
REMARK UNBOUND:                -0.400
REMARK SMILES CCO[C@H]1O[C@H](CO)[C@H](O)[C@H](O)[C@@H]1O
REMARK SMILES IDX 4 1 13 2 11 3 9 4 6 5 5 6 3 7 2 8 1 9 14 10 12 12 7 14 8 15
REMARK SMILES IDX 10 17
REMARK H PARENT 14 11 12 13 8 16 10 18
REMARK Flexibility Score: inf
ROOT
ATOM      1  C   UNL     1      19.024  -6.905   5.780  1.00  0.00     0.281 C 
ATOM      2  C   UNL     1      18.977  -7.285   7.276  1.00  0.00     0.202 C 
ATOM      3  C   UNL     1      19.522  -8.715   7.480  1.00  0.00     0.179 C 
ATOM      4  C   UNL     1      18.836  -9.700   6.518  1.00  0.00     0.177 C 
ATOM      5  C   UNL     1      18.930  -9.150   5.077  1.00  0.00     0.178 C 
ATOM      6  O   UNL     1      18.336  -7.864   4.989  1.00  0.00    -0.341 OA
ENDROOT
BRANCH   1   7
ATOM      7  O   UNL     1      20.369  -6.775   5.335  1.00  0.00    -0.350 OA
BRANCH   7   8
ATOM      8  C   UNL     1      20.770  -5.420   5.317  1.00  0.00     0.160 C 
ATOM      9  C   UNL     1      20.850  -4.944   3.875  1.00  0.00     0.035 C 
ENDBRANCH   7   8
ENDBRANCH   1   7
BRANCH   2  10
ATOM     10  O   UNL     1      17.651  -7.193   7.732  1.00  0.00    -0.385 OA
ATOM     11  H   UNL     1      17.167  -6.600   7.100  1.00  0.00     0.211 HD
ENDBRANCH   2  10
BRANCH   3  12
ATOM     12  O   UNL     1      19.340  -9.134   8.808  1.00  0.00    -0.387 OA
ATOM     13  H   UNL     1      18.375  -9.340   8.913  1.00  0.00     0.211 HD
ENDBRANCH   3  12
BRANCH   5  14
ATOM     14  C   UNL     1      18.233 -10.076   4.068  1.00  0.00     0.191 C 
BRANCH  14  15
ATOM     15  O   UNL     1      16.865  -9.778   3.978  1.00  0.00    -0.394 OA
ATOM     16  H   UNL     1      16.667  -9.114   4.687  1.00  0.00     0.210 HD
ENDBRANCH  14  15
ENDBRANCH   5  14
BRANCH   4  17
ATOM     17  O   UNL     1      17.487  -9.878   6.876  1.00  0.00    -0.387 OA
ATOM     18  H   UNL     1      16.955  -9.828   6.039  1.00  0.00     0.211 HD
ENDBRANCH   4  17
TORSDOF 7
ENDMDL
MODEL 3
REMARK VINA RESULT:    -3.353      2.340      3.099
REMARK INTER + INTRA:          -4.734
REMARK INTER:                  -4.375
REMARK INTRA:                  -0.359
REMARK UNBOUND:                -0.400
REMARK SMILES CCO[C@H]1O[C@H](CO)[C@H](O)[C@H](O)[C@@H]1O
REMARK SMILES IDX 4 1 13 2 11 3 9 4 6 5 5 6 3 7 2 8 1 9 14 10 12 12 7 14 8 15
REMARK SMILES IDX 10 17
REMARK H PARENT 14 11 12 13 8 16 10 18
REMARK Flexibility Score: inf
ROOT
ATOM      1  C   UNL     1      19.890  -7.356   4.926  1.00  0.00     0.281 C 
ATOM      2  C   UNL     1      18.791  -8.196   4.240  1.00  0.00     0.202 C 
ATOM      3  C   UNL     1      17.406  -7.838   4.820  1.00  0.00     0.179 C 
ATOM      4  C   UNL     1      17.430  -7.897   6.356  1.00  0.00     0.177 C 
ATOM      5  C   UNL     1      18.610  -7.047   6.878  1.00  0.00     0.178 C 
ATOM      6  O   UNL     1      19.840  -7.507   6.338  1.00  0.00    -0.341 OA
ENDROOT
BRANCH   1   7
ATOM      7  O   UNL     1      19.768  -5.983   4.575  1.00  0.00    -0.350 OA
BRANCH   7   8
ATOM      8  C   UNL     1      21.027  -5.341   4.583  1.00  0.00     0.160 C 
ATOM      9  C   UNL     1      20.906  -3.998   3.881  1.00  0.00     0.035 C 
ENDBRANCH   7   8
ENDBRANCH   1   7
BRANCH   2  10
ATOM     10  O   UNL     1      19.070  -9.560   4.432  1.00  0.00    -0.385 OA
ATOM     11  H   UNL     1      18.719  -9.806   5.327  1.00  0.00     0.211 HD
ENDBRANCH   2  10
BRANCH   3  12
ATOM     12  O   UNL     1      16.418  -8.703   4.321  1.00  0.00    -0.387 OA
ATOM     13  H   UNL     1      16.522  -9.564   4.802  1.00  0.00     0.211 HD
ENDBRANCH   3  12
BRANCH   5  14
ATOM     14  C   UNL     1      18.708  -7.088   8.411  1.00  0.00     0.191 C 
BRANCH  14  15
ATOM     15  O   UNL     1      19.409  -8.226   8.837  1.00  0.00    -0.394 OA
ATOM     16  H   UNL     1      19.423  -8.203   9.829  1.00  0.00     0.210 HD
ENDBRANCH  14  15
ENDBRANCH   5  14
BRANCH   4  17
ATOM     17  O   UNL     1      17.565  -9.226   6.797  1.00  0.00    -0.387 OA
ATOM     18  H   UNL     1      18.518  -9.476   6.678  1.00  0.00     0.211 HD
ENDBRANCH   4  17
TORSDOF 7
ENDMDL
MODEL 4
REMARK VINA RESULT:    -3.213      1.854      3.666
REMARK INTER + INTRA:          -4.552
REMARK INTER:                  -4.138
REMARK INTRA:                  -0.414
REMARK UNBOUND:                -0.400
REMARK SMILES CCO[C@H]1O[C@H](CO)[C@H](O)[C@H](O)[C@@H]1O
REMARK SMILES IDX 4 1 13 2 11 3 9 4 6 5 5 6 3 7 2 8 1 9 14 10 12 12 7 14 8 15
REMARK SMILES IDX 10 17
REMARK H PARENT 14 11 12 13 8 16 10 18
REMARK Flexibility Score: inf
ROOT
ATOM      1  C   UNL     1      18.667  -6.831   5.515  1.00  0.00     0.281 C 
ATOM      2  C   UNL     1      18.895  -7.851   6.651  1.00  0.00     0.202 C 
ATOM      3  C   UNL     1      18.324  -9.228   6.252  1.00  0.00     0.179 C 
ATOM      4  C   UNL     1      16.874  -9.092   5.758  1.00  0.00     0.177 C 
ATOM      5  C   UNL     1      16.811  -8.003   4.663  1.00  0.00     0.178 C 
ATOM      6  O   UNL     1      17.293  -6.763   5.159  1.00  0.00    -0.341 OA
ENDROOT
BRANCH   1   7
ATOM      7  O   UNL     1      19.454  -7.159   4.376  1.00  0.00    -0.350 OA
BRANCH   7   8
ATOM      8  C   UNL     1      20.809  -6.808   4.575  1.00  0.00     0.160 C 
ATOM      9  C   UNL     1      20.916  -5.297   4.714  1.00  0.00     0.035 C 
ENDBRANCH   7   8
ENDBRANCH   1   7
BRANCH   2  10
ATOM     10  O   UNL     1      18.277  -7.380   7.822  1.00  0.00    -0.385 OA
ATOM     11  H   UNL     1      18.419  -8.068   8.523  1.00  0.00     0.211 HD
ENDBRANCH   2  10
BRANCH   3  12
ATOM     12  O   UNL     1      18.381 -10.124   7.333  1.00  0.00    -0.387 OA
ATOM     13  H   UNL     1      18.824  -9.644   8.079  1.00  0.00     0.211 HD
ENDBRANCH   3  12
BRANCH   5  14
ATOM     14  C   UNL     1      15.379  -7.796   4.147  1.00  0.00     0.191 C 
BRANCH  14  15
ATOM     15  O   UNL     1      14.606  -7.096   5.085  1.00  0.00    -0.394 OA
ATOM     16  H   UNL     1      14.120  -6.388   4.588  1.00  0.00     0.210 HD
ENDBRANCH  14  15
ENDBRANCH   5  14
BRANCH   4  17
ATOM     17  O   UNL     1      16.020  -8.750   6.822  1.00  0.00    -0.387 OA
ATOM     18  H   UNL     1      15.218  -8.321   6.425  1.00  0.00     0.211 HD
ENDBRANCH   4  17
TORSDOF 7
ENDMDL
MODEL 5
REMARK VINA RESULT:    -3.191      2.645      3.535
REMARK INTER + INTRA:          -4.524
REMARK INTER:                  -4.330
REMARK INTRA:                  -0.194
REMARK UNBOUND:                -0.400
REMARK SMILES CCO[C@H]1O[C@H](CO)[C@H](O)[C@H](O)[C@@H]1O
REMARK SMILES IDX 4 1 13 2 11 3 9 4 6 5 5 6 3 7 2 8 1 9 14 10 12 12 7 14 8 15
REMARK SMILES IDX 10 17
REMARK H PARENT 14 11 12 13 8 16 10 18
REMARK Flexibility Score: inf
ROOT
ATOM      1  C   UNL     1      18.938  -8.136   7.236  1.00  0.00     0.281 C 
ATOM      2  C   UNL     1      17.808  -8.751   6.382  1.00  0.00     0.202 C 
ATOM      3  C   UNL     1      18.262  -8.880   4.912  1.00  0.00     0.179 C 
ATOM      4  C   UNL     1      18.835  -7.546   4.402  1.00  0.00     0.177 C 
ATOM      5  C   UNL     1      19.913  -7.047   5.390  1.00  0.00     0.178 C 
ATOM      6  O   UNL     1      19.369  -6.896   6.694  1.00  0.00    -0.341 OA
ENDROOT
BRANCH   1   7
ATOM      7  O   UNL     1      20.036  -9.035   7.343  1.00  0.00    -0.350 OA
BRANCH   7   8
ATOM      8  C   UNL     1      19.722 -10.125   8.186  1.00  0.00     0.160 C 
ATOM      9  C   UNL     1      19.869  -9.691   9.636  1.00  0.00     0.035 C 
ENDBRANCH   7   8
ENDBRANCH   1   7
BRANCH   2  10
ATOM     10  O   UNL     1      16.666  -7.937   6.477  1.00  0.00    -0.385 OA
ATOM     11  H   UNL     1      16.155  -8.054   5.635  1.00  0.00     0.211 HD
ENDBRANCH   2  10
BRANCH   3  12
ATOM     12  O   UNL     1      17.195  -9.288   4.094  1.00  0.00    -0.387 OA
ATOM     13  H   UNL     1      16.809  -8.466   3.696  1.00  0.00     0.211 HD
ENDBRANCH   3  12
BRANCH   5  14
ATOM     14  C   UNL     1      20.505  -5.699   4.952  1.00  0.00     0.191 C 
BRANCH  14  15
ATOM     15  O   UNL     1      21.864  -5.616   5.292  1.00  0.00    -0.394 OA
ATOM     16  H   UNL     1      22.333  -5.220   4.512  1.00  0.00     0.210 HD
ENDBRANCH  14  15
ENDBRANCH   5  14
BRANCH   4  17
ATOM     17  O   UNL     1      17.814  -6.585   4.281  1.00  0.00    -0.387 OA
ATOM     18  H   UNL     1      17.549  -6.325   5.201  1.00  0.00     0.211 HD
ENDBRANCH   4  17
TORSDOF 7
ENDMDL
MODEL 6
REMARK VINA RESULT:    -3.145      2.105      3.863
REMARK INTER + INTRA:          -4.464
REMARK INTER:                  -4.078
REMARK INTRA:                  -0.387
REMARK UNBOUND:                -0.400
REMARK SMILES CCO[C@H]1O[C@H](CO)[C@H](O)[C@H](O)[C@@H]1O
REMARK SMILES IDX 4 1 13 2 11 3 9 4 6 5 5 6 3 7 2 8 1 9 14 10 12 12 7 14 8 15
REMARK SMILES IDX 10 17
REMARK H PARENT 14 11 12 13 8 16 10 18
REMARK Flexibility Score: inf
ROOT
ATOM      1  C   UNL     1      17.302  -7.824   5.072  1.00  0.00     0.281 C 
ATOM      2  C   UNL     1      17.428  -8.142   6.578  1.00  0.00     0.202 C 
ATOM      3  C   UNL     1      18.374  -7.131   7.259  1.00  0.00     0.179 C 
ATOM      4  C   UNL     1      19.700  -7.022   6.486  1.00  0.00     0.177 C 
ATOM      5  C   UNL     1      19.396  -6.751   4.995  1.00  0.00     0.178 C 
ATOM      6  O   UNL     1      18.580  -7.778   4.453  1.00  0.00    -0.341 OA
ENDROOT
BRANCH   1   7
ATOM      7  O   UNL     1      16.614  -6.595   4.873  1.00  0.00    -0.350 OA
BRANCH   7   8
ATOM      8  C   UNL     1      15.621  -6.723   3.875  1.00  0.00     0.160 C 
ATOM      9  C   UNL     1      14.444  -7.500   4.442  1.00  0.00     0.035 C 
ENDBRANCH   7   8
ENDBRANCH   1   7
BRANCH   2  10
ATOM     10  O   UNL     1      17.913  -9.453   6.730  1.00  0.00    -0.385 OA
ATOM     11  H   UNL     1      18.554  -9.440   7.488  1.00  0.00     0.211 HD
ENDBRANCH   2  10
BRANCH   3  12
ATOM     12  O   UNL     1      18.624  -7.500   8.591  1.00  0.00    -0.387 OA
ATOM     13  H   UNL     1      18.543  -6.675   9.136  1.00  0.00     0.211 HD
ENDBRANCH   3  12
BRANCH   5  14
ATOM     14  C   UNL     1      20.682  -6.661   4.160  1.00  0.00     0.191 C 
BRANCH  14  15
ATOM     15  O   UNL     1      21.756  -6.210   4.942  1.00  0.00    -0.394 OA
ATOM     16  H   UNL     1      21.898  -6.885   5.655  1.00  0.00     0.210 HD
ENDBRANCH  14  15
ENDBRANCH   5  14
BRANCH   4  17
ATOM     17  O   UNL     1      20.445  -8.209   6.615  1.00  0.00    -0.387 OA
ATOM     18  H   UNL     1      19.947  -8.798   7.240  1.00  0.00     0.211 HD
ENDBRANCH   4  17
TORSDOF 7
ENDMDL
MODEL 7
REMARK VINA RESULT:    -3.124      1.935      3.821
REMARK INTER + INTRA:          -4.437
REMARK INTER:                  -4.054
REMARK INTRA:                  -0.383
REMARK UNBOUND:                -0.400
REMARK SMILES CCO[C@H]1O[C@H](CO)[C@H](O)[C@H](O)[C@@H]1O
REMARK SMILES IDX 4 1 13 2 11 3 9 4 6 5 5 6 3 7 2 8 1 9 14 10 12 12 7 14 8 15
REMARK SMILES IDX 10 17
REMARK H PARENT 14 11 12 13 8 16 10 18
REMARK Flexibility Score: inf
ROOT
ATOM      1  C   UNL     1      16.885  -7.553   5.640  1.00  0.00     0.281 C 
ATOM      2  C   UNL     1      17.898  -7.588   4.475  1.00  0.00     0.202 C 
ATOM      3  C   UNL     1      19.123  -8.445   4.859  1.00  0.00     0.179 C 
ATOM      4  C   UNL     1      19.687  -8.005   6.221  1.00  0.00     0.177 C 
ATOM      5  C   UNL     1      18.542  -7.977   7.259  1.00  0.00     0.178 C 
ATOM      6  O   UNL     1      17.503  -7.104   6.838  1.00  0.00    -0.341 OA
ENDROOT
BRANCH   1   7
ATOM      7  O   UNL     1      16.299  -8.834   5.838  1.00  0.00    -0.350 OA
BRANCH   7   8
ATOM      8  C   UNL     1      14.898  -8.785   5.664  1.00  0.00     0.160 C 
ATOM      9  C   UNL     1      14.241  -8.474   7.000  1.00  0.00     0.035 C 
ENDBRANCH   7   8
ENDBRANCH   1   7
BRANCH   2  10
ATOM     10  O   UNL     1      18.291  -6.274   4.168  1.00  0.00    -0.385 OA
ATOM     11  H   UNL     1      18.183  -6.159   3.188  1.00  0.00     0.211 HD
ENDBRANCH   2  10
BRANCH   3  12
ATOM     12  O   UNL     1      20.121  -8.359   3.875  1.00  0.00    -0.387 OA
ATOM     13  H   UNL     1      20.982  -8.224   4.352  1.00  0.00     0.211 HD
ENDBRANCH   3  12
BRANCH   5  14
ATOM     14  C   UNL     1      19.035  -7.514   8.638  1.00  0.00     0.191 C 
BRANCH  14  15
ATOM     15  O   UNL     1      18.869  -6.129   8.790  1.00  0.00    -0.394 OA
ATOM     16  H   UNL     1      17.917  -5.930   8.596  1.00  0.00     0.210 HD
ENDBRANCH  14  15
ENDBRANCH   5  14
BRANCH   4  17
ATOM     17  O   UNL     1      20.276  -6.731   6.123  1.00  0.00    -0.387 OA
ATOM     18  H   UNL     1      21.217  -6.868   5.838  1.00  0.00     0.211 HD
ENDBRANCH   4  17
TORSDOF 7
ENDMDL
MODEL 8
REMARK VINA RESULT:    -2.965      2.301      4.122
REMARK INTER + INTRA:          -4.232
REMARK INTER:                  -4.067
REMARK INTRA:                  -0.165
REMARK UNBOUND:                -0.400
REMARK SMILES CCO[C@H]1O[C@H](CO)[C@H](O)[C@H](O)[C@@H]1O
REMARK SMILES IDX 4 1 13 2 11 3 9 4 6 5 5 6 3 7 2 8 1 9 14 10 12 12 7 14 8 15
REMARK SMILES IDX 10 17
REMARK H PARENT 14 11 12 13 8 16 10 18
REMARK Flexibility Score: inf
ROOT
ATOM      1  C   UNL     1      19.547  -9.245   6.513  1.00  0.00     0.281 C 
ATOM      2  C   UNL     1      20.352  -8.276   5.620  1.00  0.00     0.202 C 
ATOM      3  C   UNL     1      19.771  -6.850   5.723  1.00  0.00     0.179 C 
ATOM      4  C   UNL     1      18.251  -6.865   5.492  1.00  0.00     0.177 C 
ATOM      5  C   UNL     1      17.606  -7.915   6.425  1.00  0.00     0.178 C 
ATOM      6  O   UNL     1      18.163  -9.201   6.195  1.00  0.00    -0.341 OA
ENDROOT
BRANCH   1   7
ATOM      7  O   UNL     1      19.745  -8.945   7.889  1.00  0.00    -0.350 OA
BRANCH   7   8
ATOM      8  C   UNL     1      19.808 -10.125   8.664  1.00  0.00     0.160 C 
ATOM      9  C   UNL     1      19.840  -9.751  10.137  1.00  0.00     0.035 C 
ENDBRANCH   7   8
ENDBRANCH   1   7
BRANCH   2  10
ATOM     10  O   UNL     1      20.307  -8.733   4.291  1.00  0.00    -0.385 OA
ATOM     11  H   UNL     1      20.338  -9.724   4.323  1.00  0.00     0.211 HD
ENDBRANCH   2  10
BRANCH   3  12
ATOM     12  O   UNL     1      20.389  -5.991   4.799  1.00  0.00    -0.387 OA
ATOM     13  H   UNL     1      20.486  -6.502   3.954  1.00  0.00     0.211 HD
ENDBRANCH   3  12
BRANCH   5  14
ATOM     14  C   UNL     1      16.086  -8.001   6.221  1.00  0.00     0.191 C 
BRANCH  14  15
ATOM     15  O   UNL     1      15.471  -6.776   6.520  1.00  0.00    -0.394 OA
ATOM     16  H   UNL     1      15.883  -6.094   5.928  1.00  0.00     0.210 HD
ENDBRANCH  14  15
ENDBRANCH   5  14
BRANCH   4  17
ATOM     17  O   UNL     1      17.959  -7.172   4.150  1.00  0.00    -0.387 OA
ATOM     18  H   UNL     1      18.091  -8.149   4.041  1.00  0.00     0.211 HD
ENDBRANCH   4  17
TORSDOF 7
ENDMDL
MODEL 9
REMARK VINA RESULT:    -2.917      1.835      3.942
REMARK INTER + INTRA:          -4.169
REMARK INTER:                  -3.814
REMARK INTRA:                  -0.355
REMARK UNBOUND:                -0.400
REMARK SMILES CCO[C@H]1O[C@H](CO)[C@H](O)[C@H](O)[C@@H]1O
REMARK SMILES IDX 4 1 13 2 11 3 9 4 6 5 5 6 3 7 2 8 1 9 14 10 12 12 7 14 8 15
REMARK SMILES IDX 10 17
REMARK H PARENT 14 11 12 13 8 16 10 18
REMARK Flexibility Score: inf
ROOT
ATOM      1  C   UNL     1      14.688  -8.365   4.961  1.00  0.00     0.281 C 
ATOM      2  C   UNL     1      14.815  -7.942   6.440  1.00  0.00     0.202 C 
ATOM      3  C   UNL     1      16.055  -7.043   6.633  1.00  0.00     0.179 C 
ATOM      4  C   UNL     1      17.302  -7.698   6.016  1.00  0.00     0.177 C 
ATOM      5  C   UNL     1      16.994  -8.103   4.557  1.00  0.00     0.178 C 
ATOM      6  O   UNL     1      15.882  -8.986   4.504  1.00  0.00    -0.341 OA
ENDROOT
BRANCH   1   7
ATOM      7  O   UNL     1      14.372  -7.246   4.141  1.00  0.00    -0.350 OA
BRANCH   7   8
ATOM      8  C   UNL     1      12.983  -7.173   3.893  1.00  0.00     0.160 C 
ATOM      9  C   UNL     1      12.399  -8.577   3.918  1.00  0.00     0.035 C 
ENDBRANCH   7   8
ENDBRANCH   1   7
BRANCH   2  10
ATOM     10  O   UNL     1      14.911  -9.094   7.240  1.00  0.00    -0.385 OA
ATOM     11  H   UNL     1      14.017  -9.523   7.240  1.00  0.00     0.211 HD
ENDBRANCH   2  10
BRANCH   3  12
ATOM     12  O   UNL     1      16.274  -6.780   7.995  1.00  0.00    -0.387 OA
ATOM     13  H   UNL     1      15.635  -6.066   8.255  1.00  0.00     0.211 HD
ENDBRANCH   3  12
BRANCH   5  14
ATOM     14  C   UNL     1      18.194  -8.794   3.892  1.00  0.00     0.191 C 
BRANCH  14  15
ATOM     15  O   UNL     1      19.387  -8.471   4.556  1.00  0.00    -0.394 OA
ATOM     16  H   UNL     1      19.519  -9.156   5.262  1.00  0.00     0.210 HD
ENDBRANCH  14  15
ENDBRANCH   5  14
BRANCH   4  17
ATOM     17  O   UNL     1      17.681  -8.832   6.758  1.00  0.00    -0.387 OA
ATOM     18  H   UNL     1      17.179  -9.604   6.386  1.00  0.00     0.211 HD
ENDBRANCH   4  17
TORSDOF 7
ENDMDL
