MODEL 1
REMARK VINA RESULT:    -4.822      0.000      0.000
REMARK INTER + INTRA:         -13.553
REMARK INTER:                 -10.459
REMARK INTRA:                  -3.094
REMARK UNBOUND:                -3.094
REMARK SMILES CCCCCCCCCCCCCCCCCCCCCC(=O)[O-]
REMARK SMILES IDX 12 1 11 2 10 3 9 4 8 5 7 6 6 7 5 8 4 9 3 10 2 11 1 12 13 13
REMARK SMILES IDX 14 14 15 15 16 16 17 17 18 18 19 19 20 20 21 21 22 22 23 23
REMARK SMILES IDX 24 24
REMARK H PARENT
REMARK Flexibility Score: inf
ROOT
ATOM      1  C   UNL     1     -22.598  -7.060  15.108  1.00  0.00     0.000 C 
ENDROOT
BRANCH   1   2
ATOM      2  C   UNL     1     -23.000  -8.543  15.123  1.00  0.00     0.000 C 
BRANCH   2   3
ATOM      3  C   UNL     1     -22.703  -9.180  16.489  1.00  0.00     0.000 C 
BRANCH   3   4
ATOM      4  C   UNL     1     -23.925  -9.893  17.096  1.00  0.00    -0.000 C 
BRANCH   4   5
ATOM      5  C   UNL     1     -25.099  -8.969  17.463  1.00  0.00    -0.000 C 
BRANCH   5   6
ATOM      6  C   UNL     1     -24.694  -7.840  18.426  1.00  0.00    -0.000 C 
BRANCH   6   7
ATOM      7  C   UNL     1     -25.321  -6.484  18.040  1.00  0.00    -0.000 C 
BRANCH   7   8
ATOM      8  C   UNL     1     -26.822  -6.566  17.702  1.00  0.00    -0.000 C 
BRANCH   8   9
ATOM      9  C   UNL     1     -27.240  -5.842  16.411  1.00  0.00    -0.000 C 
BRANCH   9  10
ATOM     10  C   UNL     1     -26.735  -6.493  15.109  1.00  0.00    -0.000 C 
BRANCH  10  11
ATOM     11  C   UNL     1     -27.444  -5.976  13.839  1.00  0.00    -0.003 C 
ATOM     12  C   UNL     1     -27.304  -6.937  12.660  1.00  0.00     0.004 C 
ENDBRANCH  10  11
ENDBRANCH   9  10
ENDBRANCH   8   9
ENDBRANCH   7   8
ENDBRANCH   6   7
ENDBRANCH   5   6
ENDBRANCH   4   5
ENDBRANCH   3   4
ENDBRANCH   2   3
ENDBRANCH   1   2
BRANCH   1  13
ATOM     13  C   UNL     1     -21.991  -6.585  16.443  1.00  0.00     0.000 C 
BRANCH  13  14
ATOM     14  C   UNL     1     -21.014  -5.401  16.333  1.00  0.00     0.000 C 
BRANCH  14  15
ATOM     15  C   UNL     1     -20.769  -4.953  14.883  1.00  0.00     0.000 C 
BRANCH  15  16
ATOM     16  C   UNL     1     -19.276  -4.845  14.533  1.00  0.00     0.000 C 
BRANCH  16  17
ATOM     17  C   UNL     1     -18.447  -6.089  14.916  1.00  0.00     0.000 C 
BRANCH  17  18
ATOM     18  C   UNL     1     -19.000  -7.375  14.275  1.00  0.00     0.000 C 
BRANCH  18  19
ATOM     19  C   UNL     1     -19.023  -8.562  15.251  1.00  0.00     0.000 C 
BRANCH  19  20
ATOM     20  C   UNL     1     -18.337  -8.243  16.589  1.00  0.00     0.006 C 
BRANCH  20  21
ATOM     21  C   UNL     1     -18.949  -9.066  17.728  1.00  0.00     0.053 C 
BRANCH  21  22
ATOM     22  C   UNL     1     -17.914  -9.928  18.376  1.00  0.00     0.041 C 
ATOM     23  O   UNL     1     -18.128 -11.157  18.545  1.00  0.00    -0.550 OA
ATOM     24  O   UNL     1     -16.708  -9.376  18.789  1.00  0.00    -0.550 OA
ENDBRANCH  21  22
ENDBRANCH  20  21
ENDBRANCH  19  20
ENDBRANCH  18  19
ENDBRANCH  17  18
ENDBRANCH  16  17
ENDBRANCH  15  16
ENDBRANCH  14  15
ENDBRANCH  13  14
ENDBRANCH   1  13
TORSDOF 20
ENDMDL
MODEL 2
REMARK VINA RESULT:    -4.745      1.046      3.367
REMARK INTER + INTRA:         -13.386
REMARK INTER:                 -10.287
REMARK INTRA:                  -3.099
REMARK UNBOUND:                -3.094
REMARK SMILES CCCCCCCCCCCCCCCCCCCCCC(=O)[O-]
REMARK SMILES IDX 12 1 11 2 10 3 9 4 8 5 7 6 6 7 5 8 4 9 3 10 2 11 1 12 13 13
REMARK SMILES IDX 14 14 15 15 16 16 17 17 18 18 19 19 20 20 21 21 22 22 23 23
REMARK SMILES IDX 24 24
REMARK H PARENT
REMARK Flexibility Score: inf
ROOT
ATOM      1  C   UNL     1     -23.266  -7.346  18.588  1.00  0.00     0.000 C 
ENDROOT
BRANCH   1   2
ATOM      2  C   UNL     1     -24.771  -7.414  18.888  1.00  0.00     0.000 C 
BRANCH   2   3
ATOM      3  C   UNL     1     -25.348  -6.012  19.132  1.00  0.00     0.000 C 
BRANCH   3   4
ATOM      4  C   UNL     1     -26.509  -5.667  18.182  1.00  0.00    -0.000 C 
BRANCH   4   5
ATOM      5  C   UNL     1     -26.945  -6.811  17.250  1.00  0.00    -0.000 C 
BRANCH   5   6
ATOM      6  C   UNL     1     -27.284  -6.328  15.829  1.00  0.00    -0.000 C 
BRANCH   6   7
ATOM      7  C   UNL     1     -26.205  -6.725  14.800  1.00  0.00    -0.000 C 
BRANCH   7   8
ATOM      8  C   UNL     1     -25.044  -7.543  15.399  1.00  0.00    -0.000 C 
BRANCH   8   9
ATOM      9  C   UNL     1     -23.737  -7.509  14.589  1.00  0.00    -0.000 C 
BRANCH   9  10
ATOM     10  C   UNL     1     -22.853  -8.763  14.730  1.00  0.00    -0.000 C 
BRANCH  10  11
ATOM     11  C   UNL     1     -22.636  -9.210  16.191  1.00  0.00    -0.003 C 
ATOM     12  C   UNL     1     -23.294 -10.555  16.494  1.00  0.00     0.004 C 
ENDBRANCH  10  11
ENDBRANCH   9  10
ENDBRANCH   8   9
ENDBRANCH   7   8
ENDBRANCH   6   7
ENDBRANCH   5   6
ENDBRANCH   4   5
ENDBRANCH   3   4
ENDBRANCH   2   3
ENDBRANCH   1   2
BRANCH   1  13
ATOM     13  C   UNL     1     -22.835  -6.004  17.963  1.00  0.00     0.000 C 
BRANCH  13  14
ATOM     14  C   UNL     1     -21.409  -5.980  17.384  1.00  0.00     0.000 C 
BRANCH  14  15
ATOM     15  C   UNL     1     -21.191  -4.849  16.366  1.00  0.00     0.000 C 
BRANCH  15  16
ATOM     16  C   UNL     1     -20.838  -5.366  14.962  1.00  0.00     0.000 C 
BRANCH  16  17
ATOM     17  C   UNL     1     -19.333  -5.641  14.753  1.00  0.00     0.000 C 
BRANCH  17  18
ATOM     18  C   UNL     1     -19.025  -7.146  14.656  1.00  0.00     0.000 C 
BRANCH  18  19
ATOM     19  C   UNL     1     -18.383  -7.704  15.936  1.00  0.00     0.000 C 
BRANCH  19  20
ATOM     20  C   UNL     1     -19.100  -8.956  16.463  1.00  0.00     0.006 C 
BRANCH  20  21
ATOM     21  C   UNL     1     -19.052  -9.011  17.994  1.00  0.00     0.053 C 
BRANCH  21  22
ATOM     22  C   UNL     1     -17.913  -9.862  18.459  1.00  0.00     0.041 C 
ATOM     23  O   UNL     1     -16.788  -9.346  18.684  1.00  0.00    -0.550 OA
ATOM     24  O   UNL     1     -18.096 -11.225  18.651  1.00  0.00    -0.550 OA
ENDBRANCH  21  22
ENDBRANCH  20  21
ENDBRANCH  19  20
ENDBRANCH  18  19
ENDBRANCH  17  18
ENDBRANCH  16  17
ENDBRANCH  15  16
ENDBRANCH  14  15
ENDBRANCH  13  14
ENDBRANCH   1  13
TORSDOF 20
ENDMDL
MODEL 3
REMARK VINA RESULT:    -4.729      1.209      2.822
REMARK INTER + INTRA:         -13.352
REMARK INTER:                 -10.542
REMARK INTRA:                  -2.810
REMARK UNBOUND:                -3.094
REMARK SMILES CCCCCCCCCCCCCCCCCCCCCC(=O)[O-]
REMARK SMILES IDX 12 1 11 2 10 3 9 4 8 5 7 6 6 7 5 8 4 9 3 10 2 11 1 12 13 13
REMARK SMILES IDX 14 14 15 15 16 16 17 17 18 18 19 19 20 20 21 21 22 22 23 23
REMARK SMILES IDX 24 24
REMARK H PARENT
REMARK Flexibility Score: inf
ROOT
ATOM      1  C   UNL     1     -21.998  -7.486  17.887  1.00  0.00     0.000 C 
ENDROOT
BRANCH   1   2
ATOM      2  C   UNL     1     -22.960  -8.453  17.180  1.00  0.00     0.000 C 
BRANCH   2   3
ATOM      3  C   UNL     1     -22.660  -8.525  15.675  1.00  0.00     0.000 C 
BRANCH   3   4
ATOM      4  C   UNL     1     -23.693  -7.769  14.821  1.00  0.00    -0.000 C 
BRANCH   4   5
ATOM      5  C   UNL     1     -24.890  -7.201  15.603  1.00  0.00    -0.000 C 
BRANCH   5   6
ATOM      6  C   UNL     1     -26.104  -6.905  14.706  1.00  0.00    -0.000 C 
BRANCH   6   7
ATOM      7  C   UNL     1     -27.421  -6.824  15.507  1.00  0.00    -0.000 C 
BRANCH   7   8
ATOM      8  C   UNL     1     -27.829  -5.389  15.892  1.00  0.00    -0.000 C 
BRANCH   8   9
ATOM      9  C   UNL     1     -27.324  -4.914  17.265  1.00  0.00    -0.000 C 
BRANCH   9  10
ATOM     10  C   UNL     1     -27.029  -6.040  18.274  1.00  0.00    -0.000 C 
BRANCH  10  11
ATOM     11  C   UNL     1     -25.813  -5.759  19.181  1.00  0.00    -0.003 C 
ATOM     12  C   UNL     1     -26.221  -5.374  20.602  1.00  0.00     0.004 C 
ENDBRANCH  10  11
ENDBRANCH   9  10
ENDBRANCH   8   9
ENDBRANCH   7   8
ENDBRANCH   6   7
ENDBRANCH   5   6
ENDBRANCH   4   5
ENDBRANCH   3   4
ENDBRANCH   2   3
ENDBRANCH   1   2
BRANCH   1  13
ATOM     13  C   UNL     1     -22.343  -6.004  17.643  1.00  0.00     0.000 C 
BRANCH  13  14
ATOM     14  C   UNL     1     -21.185  -5.142  17.110  1.00  0.00     0.000 C 
BRANCH  14  15
ATOM     15  C   UNL     1     -21.380  -4.708  15.648  1.00  0.00     0.000 C 
BRANCH  15  16
ATOM     16  C   UNL     1     -20.634  -5.611  14.650  1.00  0.00     0.000 C 
BRANCH  16  17
ATOM     17  C   UNL     1     -19.100  -5.608  14.825  1.00  0.00     0.000 C 
BRANCH  17  18
ATOM     18  C   UNL     1     -18.475  -6.974  14.487  1.00  0.00     0.000 C 
BRANCH  18  19
ATOM     19  C   UNL     1     -19.008  -8.107  15.378  1.00  0.00     0.000 C 
BRANCH  19  20
ATOM     20  C   UNL     1     -18.192  -8.280  16.669  1.00  0.00     0.006 C 
BRANCH  20  21
ATOM     21  C   UNL     1     -18.837  -9.323  17.589  1.00  0.00     0.053 C 
BRANCH  21  22
ATOM     22  C   UNL     1     -17.817  -9.935  18.495  1.00  0.00     0.041 C 
ATOM     23  O   UNL     1     -16.746  -9.325  18.746  1.00  0.00    -0.550 OA
ATOM     24  O   UNL     1     -18.054 -11.179  19.068  1.00  0.00    -0.550 OA
ENDBRANCH  21  22
ENDBRANCH  20  21
ENDBRANCH  19  20
ENDBRANCH  18  19
ENDBRANCH  17  18
ENDBRANCH  16  17
ENDBRANCH  15  16
ENDBRANCH  14  15
ENDBRANCH  13  14
ENDBRANCH   1  13
TORSDOF 20
ENDMDL
MODEL 4
REMARK VINA RESULT:    -4.457      1.321      4.876
REMARK INTER + INTRA:         -12.762
REMARK INTER:                  -9.592
REMARK INTRA:                  -3.171
REMARK UNBOUND:                -3.094
REMARK SMILES CCCCCCCCCCCCCCCCCCCCCC(=O)[O-]
REMARK SMILES IDX 12 1 11 2 10 3 9 4 8 5 7 6 6 7 5 8 4 9 3 10 2 11 1 12 13 13
REMARK SMILES IDX 14 14 15 15 16 16 17 17 18 18 19 19 20 20 21 21 22 22 23 23
REMARK SMILES IDX 24 24
REMARK H PARENT
REMARK Flexibility Score: inf
ROOT
ATOM      1  C   UNL     1     -26.714  -7.397  16.739  1.00  0.00     0.000 C 
ENDROOT
BRANCH   1   2
ATOM      2  C   UNL     1     -27.068  -6.454  17.899  1.00  0.00     0.000 C 
BRANCH   2   3
ATOM      3  C   UNL     1     -25.805  -5.811  18.491  1.00  0.00     0.000 C 
BRANCH   3   4
ATOM      4  C   UNL     1     -24.930  -6.811  19.267  1.00  0.00    -0.000 C 
BRANCH   4   5
ATOM      5  C   UNL     1     -23.547  -7.079  18.649  1.00  0.00    -0.000 C 
BRANCH   5   6
ATOM      6  C   UNL     1     -23.184  -6.078  17.538  1.00  0.00    -0.000 C 
BRANCH   6   7
ATOM      7  C   UNL     1     -21.675  -5.752  17.510  1.00  0.00    -0.000 C 
BRANCH   7   8
ATOM      8  C   UNL     1     -21.323  -4.503  16.678  1.00  0.00    -0.000 C 
BRANCH   8   9
ATOM      9  C   UNL     1     -20.979  -4.777  15.205  1.00  0.00    -0.000 C 
BRANCH   9  10
ATOM     10  C   UNL     1     -20.193  -6.078  14.952  1.00  0.00    -0.000 C 
BRANCH  10  11
ATOM     11  C   UNL     1     -18.661  -5.901  15.007  1.00  0.00    -0.003 C 
ATOM     12  C   UNL     1     -17.920  -6.972  14.210  1.00  0.00     0.004 C 
ENDBRANCH  10  11
ENDBRANCH   9  10
ENDBRANCH   8   9
ENDBRANCH   7   8
ENDBRANCH   6   7
ENDBRANCH   5   6
ENDBRANCH   4   5
ENDBRANCH   3   4
ENDBRANCH   2   3
ENDBRANCH   1   2
BRANCH   1  13
ATOM     13  C   UNL     1     -26.147  -6.658  15.511  1.00  0.00     0.000 C 
BRANCH  13  14
ATOM     14  C   UNL     1     -25.279  -7.516  14.573  1.00  0.00     0.000 C 
BRANCH  14  15
ATOM     15  C   UNL     1     -23.773  -7.263  14.747  1.00  0.00     0.000 C 
BRANCH  15  16
ATOM     16  C   UNL     1     -22.945  -8.559  14.771  1.00  0.00     0.000 C 
BRANCH  16  17
ATOM     17  C   UNL     1     -23.308  -9.516  15.926  1.00  0.00     0.000 C 
BRANCH  17  18
ATOM     18  C   UNL     1     -22.084  -9.881  16.785  1.00  0.00     0.000 C 
BRANCH  18  19
ATOM     19  C   UNL     1     -20.891  -8.943  16.546  1.00  0.00     0.000 C 
BRANCH  19  20
ATOM     20  C   UNL     1     -19.916  -8.909  17.734  1.00  0.00     0.006 C 
BRANCH  20  21
ATOM     21  C   UNL     1     -18.462  -8.958  17.251  1.00  0.00     0.053 C 
BRANCH  21  22
ATOM     22  C   UNL     1     -17.581  -9.587  18.282  1.00  0.00     0.041 C 
ATOM     23  O   UNL     1     -16.505  -9.029  18.621  1.00  0.00    -0.550 OA
ATOM     24  O   UNL     1     -17.950 -10.787  18.874  1.00  0.00    -0.550 OA
ENDBRANCH  21  22
ENDBRANCH  20  21
ENDBRANCH  19  20
ENDBRANCH  18  19
ENDBRANCH  17  18
ENDBRANCH  16  17
ENDBRANCH  15  16
ENDBRANCH  14  15
ENDBRANCH  13  14
ENDBRANCH   1  13
TORSDOF 20
ENDMDL
MODEL 5
REMARK VINA RESULT:    -4.365      4.401      8.397
REMARK INTER + INTRA:         -12.562
REMARK INTER:                 -10.157
REMARK INTRA:                  -2.405
REMARK UNBOUND:                -3.094
REMARK SMILES CCCCCCCCCCCCCCCCCCCCCC(=O)[O-]
REMARK SMILES IDX 12 1 11 2 10 3 9 4 8 5 7 6 6 7 5 8 4 9 3 10 2 11 1 12 13 13
REMARK SMILES IDX 14 14 15 15 16 16 17 17 18 18 19 19 20 20 21 21 22 22 23 23
REMARK SMILES IDX 24 24
REMARK H PARENT
REMARK Flexibility Score: inf
ROOT
ATOM      1  C   UNL     1     -24.098  -9.829  16.935  1.00  0.00     0.000 C 
ENDROOT
BRANCH   1   2
ATOM      2  C   UNL     1     -22.780  -9.430  16.254  1.00  0.00     0.000 C 
BRANCH   2   3
ATOM      3  C   UNL     1     -23.044  -8.672  14.945  1.00  0.00     0.000 C 
BRANCH   3   4
ATOM      4  C   UNL     1     -22.303  -7.325  14.872  1.00  0.00    -0.000 C 
BRANCH   4   5
ATOM      5  C   UNL     1     -22.342  -6.493  16.166  1.00  0.00    -0.000 C 
BRANCH   5   6
ATOM      6  C   UNL     1     -21.216  -5.447  16.239  1.00  0.00    -0.000 C 
BRANCH   6   7
ATOM      7  C   UNL     1     -20.521  -5.235  14.877  1.00  0.00    -0.000 C 
BRANCH   7   8
ATOM      8  C   UNL     1     -19.022  -5.591  14.880  1.00  0.00    -0.000 C 
BRANCH   8   9
ATOM      9  C   UNL     1     -18.700  -7.059  14.554  1.00  0.00    -0.000 C 
BRANCH   9  10
ATOM     10  C   UNL     1     -18.149  -7.882  15.734  1.00  0.00    -0.000 C 
BRANCH  10  11
ATOM     11  C   UNL     1     -19.237  -8.636  16.528  1.00  0.00    -0.003 C 
ATOM     12  C   UNL     1     -18.674  -9.352  17.754  1.00  0.00     0.004 C 
ENDBRANCH  10  11
ENDBRANCH   9  10
ENDBRANCH   8   9
ENDBRANCH   7   8
ENDBRANCH   6   7
ENDBRANCH   5   6
ENDBRANCH   4   5
ENDBRANCH   3   4
ENDBRANCH   2   3
ENDBRANCH   1   2
BRANCH   1  13
ATOM     13  C   UNL     1     -24.609  -8.769  17.931  1.00  0.00     0.000 C 
BRANCH  13  14
ATOM     14  C   UNL     1     -25.683  -7.815  17.379  1.00  0.00     0.000 C 
BRANCH  14  15
ATOM     15  C   UNL     1     -25.634  -6.417  18.017  1.00  0.00     0.000 C 
BRANCH  15  16
ATOM     16  C   UNL     1     -24.771  -6.369  19.289  1.00  0.00     0.000 C 
BRANCH  16  17
ATOM     17  C   UNL     1     -25.500  -5.794  20.522  1.00  0.00     0.000 C 
BRANCH  17  18
ATOM     18  C   UNL     1     -26.807  -5.075  20.142  1.00  0.00     0.000 C 
BRANCH  18  19
ATOM     19  C   UNL     1     -27.590  -4.579  21.367  1.00  0.00     0.000 C 
BRANCH  19  20
ATOM     20  C   UNL     1     -27.381  -3.081  21.639  1.00  0.00     0.006 C 
BRANCH  20  21
ATOM     21  C   UNL     1     -27.606  -2.756  23.119  1.00  0.00     0.053 C 
BRANCH  21  22
ATOM     22  C   UNL     1     -26.378  -3.048  23.920  1.00  0.00     0.041 C 
ATOM     23  O   UNL     1     -26.473  -3.356  25.137  1.00  0.00    -0.550 OA
ATOM     24  O   UNL     1     -25.126  -2.986  23.321  1.00  0.00    -0.550 OA
ENDBRANCH  21  22
ENDBRANCH  20  21
ENDBRANCH  19  20
ENDBRANCH  18  19
ENDBRANCH  17  18
ENDBRANCH  16  17
ENDBRANCH  15  16
ENDBRANCH  14  15
ENDBRANCH  13  14
ENDBRANCH   1  13
TORSDOF 20
ENDMDL
MODEL 6
REMARK VINA RESULT:    -4.327      3.182      8.120
REMARK INTER + INTRA:         -12.479
REMARK INTER:                  -9.919
REMARK INTRA:                  -2.560
REMARK UNBOUND:                -3.094
REMARK SMILES CCCCCCCCCCCCCCCCCCCCCC(=O)[O-]
REMARK SMILES IDX 12 1 11 2 10 3 9 4 8 5 7 6 6 7 5 8 4 9 3 10 2 11 1 12 13 13
REMARK SMILES IDX 14 14 15 15 16 16 17 17 18 18 19 19 20 20 21 21 22 22 23 23
REMARK SMILES IDX 24 24
REMARK H PARENT
REMARK Flexibility Score: inf
ROOT
ATOM      1  C   UNL     1     -22.141  -7.803  17.995  1.00  0.00     0.000 C 
ENDROOT
BRANCH   1   2
ATOM      2  C   UNL     1     -21.348  -6.495  17.865  1.00  0.00     0.000 C 
BRANCH   2   3
ATOM      3  C   UNL     1     -22.120  -5.463  17.027  1.00  0.00     0.000 C 
BRANCH   3   4
ATOM      4  C   UNL     1     -21.262  -4.828  15.919  1.00  0.00    -0.000 C 
BRANCH   4   5
ATOM      5  C   UNL     1     -20.628  -5.828  14.936  1.00  0.00    -0.000 C 
BRANCH   5   6
ATOM      6  C   UNL     1     -19.097  -5.698  14.853  1.00  0.00    -0.000 C 
BRANCH   6   7
ATOM      7  C   UNL     1     -18.407  -7.048  14.565  1.00  0.00    -0.000 C 
BRANCH   7   8
ATOM      8  C   UNL     1     -18.917  -8.208  15.443  1.00  0.00    -0.000 C 
BRANCH   8   9
ATOM      9  C   UNL     1     -18.160  -8.405  16.768  1.00  0.00    -0.000 C 
BRANCH   9  10
ATOM     10  C   UNL     1     -18.835  -9.365  17.765  1.00  0.00    -0.000 C 
BRANCH  10  11
ATOM     11  C   UNL     1     -17.837 -10.181  18.615  1.00  0.00    -0.003 C 
ATOM     12  C   UNL     1     -16.578  -9.387  18.960  1.00  0.00     0.004 C 
ENDBRANCH  10  11
ENDBRANCH   9  10
ENDBRANCH   8   9
ENDBRANCH   7   8
ENDBRANCH   6   7
ENDBRANCH   5   6
ENDBRANCH   4   5
ENDBRANCH   3   4
ENDBRANCH   2   3
ENDBRANCH   1   2
BRANCH   1  13
ATOM     13  C   UNL     1     -22.395  -8.494  16.641  1.00  0.00     0.000 C 
BRANCH  13  14
ATOM     14  C   UNL     1     -23.795  -9.111  16.472  1.00  0.00     0.000 C 
BRANCH  14  15
ATOM     15  C   UNL     1     -24.735  -8.803  17.648  1.00  0.00     0.000 C 
BRANCH  15  16
ATOM     16  C   UNL     1     -26.080  -8.204  17.200  1.00  0.00     0.000 C 
BRANCH  16  17
ATOM     17  C   UNL     1     -25.949  -7.073  16.158  1.00  0.00     0.000 C 
BRANCH  17  18
ATOM     18  C   UNL     1     -26.647  -5.779  16.614  1.00  0.00     0.000 C 
BRANCH  18  19
ATOM     19  C   UNL     1     -27.484  -5.974  17.888  1.00  0.00     0.000 C 
BRANCH  19  20
ATOM     20  C   UNL     1     -27.389  -4.778  18.849  1.00  0.00     0.006 C 
BRANCH  20  21
ATOM     21  C   UNL     1     -27.531  -5.233  20.305  1.00  0.00     0.053 C 
BRANCH  21  22
ATOM     22  C   UNL     1     -26.203  -5.235  20.993  1.00  0.00     0.041 C 
ATOM     23  O   UNL     1     -25.991  -4.462  21.963  1.00  0.00    -0.550 OA
ATOM     24  O   UNL     1     -25.200  -6.096  20.567  1.00  0.00    -0.550 OA
ENDBRANCH  21  22
ENDBRANCH  20  21
ENDBRANCH  19  20
ENDBRANCH  18  19
ENDBRANCH  17  18
ENDBRANCH  16  17
ENDBRANCH  15  16
ENDBRANCH  14  15
ENDBRANCH  13  14
ENDBRANCH   1  13
TORSDOF 20
ENDMDL
MODEL 7
REMARK VINA RESULT:    -4.311      3.381      5.624
REMARK INTER + INTRA:         -12.445
REMARK INTER:                 -10.103
REMARK INTRA:                  -2.342
REMARK UNBOUND:                -3.094
REMARK SMILES CCCCCCCCCCCCCCCCCCCCCC(=O)[O-]
REMARK SMILES IDX 12 1 11 2 10 3 9 4 8 5 7 6 6 7 5 8 4 9 3 10 2 11 1 12 13 13
REMARK SMILES IDX 14 14 15 15 16 16 17 17 18 18 19 19 20 20 21 21 22 22 23 23
REMARK SMILES IDX 24 24
REMARK H PARENT
REMARK Flexibility Score: inf
ROOT
ATOM      1  C   UNL     1     -25.045 -10.032  17.158  1.00  0.00     0.000 C 
ENDROOT
BRANCH   1   2
ATOM      2  C   UNL     1     -25.065  -8.738  17.986  1.00  0.00     0.000 C 
BRANCH   2   3
ATOM      3  C   UNL     1     -25.932  -7.665  17.310  1.00  0.00     0.000 C 
BRANCH   3   4
ATOM      4  C   UNL     1     -25.760  -6.271  17.939  1.00  0.00    -0.000 C 
BRANCH   4   5
ATOM      5  C   UNL     1     -25.051  -6.259  19.305  1.00  0.00    -0.000 C 
BRANCH   5   6
ATOM      6  C   UNL     1     -25.883  -5.577  20.405  1.00  0.00    -0.000 C 
BRANCH   6   7
ATOM      7  C   UNL     1     -27.197  -4.975  19.860  1.00  0.00    -0.000 C 
BRANCH   7   8
ATOM      8  C   UNL     1     -27.612  -3.661  20.549  1.00  0.00    -0.000 C 
BRANCH   8   9
ATOM      9  C   UNL     1     -27.441  -3.643  22.077  1.00  0.00    -0.000 C 
BRANCH   9  10
ATOM     10  C   UNL     1     -26.664  -2.432  22.630  1.00  0.00    -0.000 C 
BRANCH  10  11
ATOM     11  C   UNL     1     -25.425  -2.816  23.465  1.00  0.00    -0.003 C 
ATOM     12  C   UNL     1     -25.727  -2.888  24.960  1.00  0.00     0.004 C 
ENDBRANCH  10  11
ENDBRANCH   9  10
ENDBRANCH   8   9
ENDBRANCH   7   8
ENDBRANCH   6   7
ENDBRANCH   5   6
ENDBRANCH   4   5
ENDBRANCH   3   4
ENDBRANCH   2   3
ENDBRANCH   1   2
BRANCH   1  13
ATOM     13  C   UNL     1     -23.623 -10.472  16.759  1.00  0.00     0.000 C 
BRANCH  13  14
ATOM     14  C   UNL     1     -22.766  -9.386  16.083  1.00  0.00     0.000 C 
BRANCH  14  15
ATOM     15  C   UNL     1     -21.442  -9.120  16.816  1.00  0.00     0.000 C 
BRANCH  15  16
ATOM     16  C   UNL     1     -21.456  -7.813  17.626  1.00  0.00     0.000 C 
BRANCH  16  17
ATOM     17  C   UNL     1     -22.222  -6.659  16.944  1.00  0.00     0.000 C 
BRANCH  17  18
ATOM     18  C   UNL     1     -21.591  -5.287  17.242  1.00  0.00     0.000 C 
BRANCH  18  19
ATOM     19  C   UNL     1     -21.228  -4.511  15.967  1.00  0.00     0.000 C 
BRANCH  19  20
ATOM     20  C   UNL     1     -20.888  -5.435  14.786  1.00  0.00     0.006 C 
BRANCH  20  21
ATOM     21  C   UNL     1     -19.456  -5.967  14.903  1.00  0.00     0.053 C 
BRANCH  21  22
ATOM     22  C   UNL     1     -19.402  -7.425  14.575  1.00  0.00     0.041 C 
ATOM     23  O   UNL     1     -18.473  -8.142  15.028  1.00  0.00    -0.550 OA
ATOM     24  O   UNL     1     -20.384  -7.994  13.774  1.00  0.00    -0.550 OA
ENDBRANCH  21  22
ENDBRANCH  20  21
ENDBRANCH  19  20
ENDBRANCH  18  19
ENDBRANCH  17  18
ENDBRANCH  16  17
ENDBRANCH  15  16
ENDBRANCH  14  15
ENDBRANCH  13  14
ENDBRANCH   1  13
TORSDOF 20
ENDMDL
MODEL 8
REMARK VINA RESULT:    -4.228      4.267      8.366
REMARK INTER + INTRA:         -12.265
REMARK INTER:                 -10.026
REMARK INTRA:                  -2.239
REMARK UNBOUND:                -3.094
REMARK SMILES CCCCCCCCCCCCCCCCCCCCCC(=O)[O-]
REMARK SMILES IDX 12 1 11 2 10 3 9 4 8 5 7 6 6 7 5 8 4 9 3 10 2 11 1 12 13 13
REMARK SMILES IDX 14 14 15 15 16 16 17 17 18 18 19 19 20 20 21 21 22 22 23 23
REMARK SMILES IDX 24 24
REMARK H PARENT
REMARK Flexibility Score: inf
ROOT
ATOM      1  C   UNL     1     -25.681  -8.080  17.027  1.00  0.00     0.000 C 
ENDROOT
BRANCH   1   2
ATOM      2  C   UNL     1     -24.566  -8.066  18.083  1.00  0.00     0.000 C 
BRANCH   2   3
ATOM      3  C   UNL     1     -23.792  -6.739  18.049  1.00  0.00     0.000 C 
BRANCH   3   4
ATOM      4  C   UNL     1     -22.284  -6.930  17.807  1.00  0.00    -0.000 C 
BRANCH   4   5
ATOM      5  C   UNL     1     -21.575  -5.731  17.154  1.00  0.00    -0.000 C 
BRANCH   5   6
ATOM      6  C   UNL     1     -21.523  -5.829  15.619  1.00  0.00    -0.000 C 
BRANCH   6   7
ATOM      7  C   UNL     1     -21.722  -7.275  15.116  1.00  0.00    -0.000 C 
BRANCH   7   8
ATOM      8  C   UNL     1     -20.459  -7.894  14.487  1.00  0.00    -0.000 C 
BRANCH   8   9
ATOM      9  C   UNL     1     -19.143  -7.571  15.214  1.00  0.00    -0.000 C 
BRANCH   9  10
ATOM     10  C   UNL     1     -18.019  -7.025  14.313  1.00  0.00    -0.000 C 
BRANCH  10  11
ATOM     11  C   UNL     1     -17.946  -5.484  14.274  1.00  0.00    -0.003 C 
ATOM     12  C   UNL     1     -16.747  -4.976  13.476  1.00  0.00     0.004 C 
ENDBRANCH  10  11
ENDBRANCH   9  10
ENDBRANCH   8   9
ENDBRANCH   7   8
ENDBRANCH   6   7
ENDBRANCH   5   6
ENDBRANCH   4   5
ENDBRANCH   3   4
ENDBRANCH   2   3
ENDBRANCH   1   2
BRANCH   1  13
ATOM     13  C   UNL     1     -25.407  -7.128  15.846  1.00  0.00     0.000 C 
BRANCH  13  14
ATOM     14  C   UNL     1     -26.640  -6.760  15.001  1.00  0.00     0.000 C 
BRANCH  14  15
ATOM     15  C   UNL     1     -27.905  -6.540  15.846  1.00  0.00     0.000 C 
BRANCH  15  16
ATOM     16  C   UNL     1     -27.856  -5.244  16.673  1.00  0.00     0.000 C 
BRANCH  16  17
ATOM     17  C   UNL     1     -28.115  -5.450  18.180  1.00  0.00     0.000 C 
BRANCH  17  18
ATOM     18  C   UNL     1     -27.282  -4.490  19.049  1.00  0.00     0.000 C 
BRANCH  18  19
ATOM     19  C   UNL     1     -26.351  -5.228  20.024  1.00  0.00     0.000 C 
BRANCH  19  20
ATOM     20  C   UNL     1     -26.738  -5.008  21.495  1.00  0.00     0.006 C 
BRANCH  20  21
ATOM     21  C   UNL     1     -27.323  -3.608  21.704  1.00  0.00     0.053 C 
BRANCH  21  22
ATOM     22  C   UNL     1     -26.619  -2.898  22.816  1.00  0.00     0.041 C 
ATOM     23  O   UNL     1     -27.179  -1.940  23.410  1.00  0.00    -0.550 OA
ATOM     24  O   UNL     1     -25.347  -3.299  23.202  1.00  0.00    -0.550 OA
ENDBRANCH  21  22
ENDBRANCH  20  21
ENDBRANCH  19  20
ENDBRANCH  18  19
ENDBRANCH  17  18
ENDBRANCH  16  17
ENDBRANCH  15  16
ENDBRANCH  14  15
ENDBRANCH  13  14
ENDBRANCH   1  13
TORSDOF 20
ENDMDL
MODEL 9
REMARK VINA RESULT:    -4.178      1.694      3.572
REMARK INTER + INTRA:         -12.157
REMARK INTER:                  -9.527
REMARK INTRA:                  -2.630
REMARK UNBOUND:                -3.094
REMARK SMILES CCCCCCCCCCCCCCCCCCCCCC(=O)[O-]
REMARK SMILES IDX 12 1 11 2 10 3 9 4 8 5 7 6 6 7 5 8 4 9 3 10 2 11 1 12 13 13
REMARK SMILES IDX 14 14 15 15 16 16 17 17 18 18 19 19 20 20 21 21 22 22 23 23
REMARK SMILES IDX 24 24
REMARK H PARENT
REMARK Flexibility Score: inf
ROOT
ATOM      1  C   UNL     1     -22.390  -7.297  17.660  1.00  0.00     0.000 C 
ENDROOT
BRANCH   1   2
ATOM      2  C   UNL     1     -23.527  -6.915  18.620  1.00  0.00     0.000 C 
BRANCH   2   3
ATOM      3  C   UNL     1     -24.776  -6.468  17.846  1.00  0.00     0.000 C 
BRANCH   3   4
ATOM      4  C   UNL     1     -25.780  -7.611  17.615  1.00  0.00    -0.000 C 
BRANCH   4   5
ATOM      5  C   UNL     1     -26.709  -7.423  16.404  1.00  0.00    -0.000 C 
BRANCH   5   6
ATOM      6  C   UNL     1     -27.951  -6.574  16.728  1.00  0.00    -0.000 C 
BRANCH   6   7
ATOM      7  C   UNL     1     -27.795  -5.108  16.271  1.00  0.00    -0.000 C 
BRANCH   7   8
ATOM      8  C   UNL     1     -27.826  -4.089  17.427  1.00  0.00    -0.000 C 
BRANCH   8   9
ATOM      9  C   UNL     1     -28.051  -4.694  18.823  1.00  0.00    -0.000 C 
BRANCH   9  10
ATOM     10  C   UNL     1     -27.450  -3.883  19.987  1.00  0.00    -0.000 C 
BRANCH  10  11
ATOM     11  C   UNL     1     -27.152  -4.726  21.244  1.00  0.00    -0.003 C 
ATOM     12  C   UNL     1     -25.840  -5.500  21.131  1.00  0.00     0.004 C 
ENDBRANCH  10  11
ENDBRANCH   9  10
ENDBRANCH   8   9
ENDBRANCH   7   8
ENDBRANCH   6   7
ENDBRANCH   5   6
ENDBRANCH   4   5
ENDBRANCH   3   4
ENDBRANCH   2   3
ENDBRANCH   1   2
BRANCH   1  13
ATOM     13  C   UNL     1     -22.486  -8.752  17.159  1.00  0.00     0.000 C 
BRANCH  13  14
ATOM     14  C   UNL     1     -22.496  -8.918  15.628  1.00  0.00     0.000 C 
BRANCH  14  15
ATOM     15  C   UNL     1     -22.818  -7.613  14.882  1.00  0.00     0.000 C 
BRANCH  15  16
ATOM     16  C   UNL     1     -21.559  -6.876  14.395  1.00  0.00     0.000 C 
BRANCH  16  17
ATOM     17  C   UNL     1     -20.282  -7.743  14.392  1.00  0.00     0.000 C 
BRANCH  17  18
ATOM     18  C   UNL     1     -19.038  -6.948  14.826  1.00  0.00     0.000 C 
BRANCH  18  19
ATOM     19  C   UNL     1     -18.199  -7.686  15.881  1.00  0.00     0.000 C 
BRANCH  19  20
ATOM     20  C   UNL     1     -18.872  -8.977  16.377  1.00  0.00     0.006 C 
BRANCH  20  21
ATOM     21  C   UNL     1     -18.923  -9.014  17.908  1.00  0.00     0.053 C 
BRANCH  21  22
ATOM     22  C   UNL     1     -17.763  -9.781  18.459  1.00  0.00     0.041 C 
ATOM     23  O   UNL     1     -17.908 -10.980  18.813  1.00  0.00    -0.550 OA
ATOM     24  O   UNL     1     -16.520  -9.172  18.578  1.00  0.00    -0.550 OA
ENDBRANCH  21  22
ENDBRANCH  20  21
ENDBRANCH  19  20
ENDBRANCH  18  19
ENDBRANCH  17  18
ENDBRANCH  16  17
ENDBRANCH  15  16
ENDBRANCH  14  15
ENDBRANCH  13  14
ENDBRANCH   1  13
TORSDOF 20
ENDMDL
