MODEL 1
REMARK VINA RESULT:    -3.922      0.000      0.000
REMARK INTER + INTRA:          -4.739
REMARK INTER:                  -4.609
REMARK INTRA:                  -0.130
REMARK UNBOUND:                -0.130
REMARK SMILES O=C([O-])C=Cc1ccc(O)c(O)c1
REMARK SMILES IDX 6 1 13 2 7 3 11 4 8 5 9 6 5 7 4 8 2 9 1 10 3 11 12 12 10 14
REMARK H PARENT 12 13 10 15
REMARK Flexibility Score: inf
ROOT
ATOM      1  C   UNL     1       9.135  10.282  60.400  1.00  0.00    -0.022 A 
ATOM      2  C   UNL     1       9.907   9.324  61.091  1.00  0.00     0.058 A 
ATOM      3  C   UNL     1       9.094  10.234  58.998  1.00  0.00     0.012 A 
ATOM      4  C   UNL     1      10.642   8.358  60.387  1.00  0.00     0.157 A 
ATOM      5  C   UNL     1       9.826   9.273  58.296  1.00  0.00     0.051 A 
ATOM      6  C   UNL     1      10.603   8.337  58.983  1.00  0.00     0.157 A 
ENDROOT
BRANCH   1   7
ATOM      7  C   UNL     1       8.333  11.315  61.101  1.00  0.00     0.010 C 
ATOM      8  C   UNL     1       8.748  12.573  61.299  1.00  0.00     0.025 C 
BRANCH   8   9
ATOM      9  C   UNL     1       7.913  13.569  61.987  1.00  0.00     0.064 C 
ATOM     10  O   UNL     1       8.439  14.627  62.422  1.00  0.00    -0.545 OA
ATOM     11  O   UNL     1       6.550  13.360  62.169  1.00  0.00    -0.545 OA
ENDBRANCH   8   9
ENDBRANCH   1   7
BRANCH   4  12
ATOM     12  O   UNL     1      11.405   7.418  61.077  1.00  0.00    -0.504 OA
ATOM     13  H   UNL     1      11.304   6.424  60.908  1.00  0.00     0.293 HD
ENDBRANCH   4  12
BRANCH   6  14
ATOM     14  O   UNL     1      11.324   7.390  58.256  1.00  0.00    -0.504 OA
ATOM     15  H   UNL     1      11.353   6.413  58.523  1.00  0.00     0.293 HD
ENDBRANCH   6  14
TORSDOF 4
ENDMDL
MODEL 2
REMARK VINA RESULT:    -3.842      1.931      2.772
REMARK INTER + INTRA:          -4.646
REMARK INTER:                  -4.518
REMARK INTRA:                  -0.128
REMARK UNBOUND:                -0.130
REMARK SMILES O=C([O-])C=Cc1ccc(O)c(O)c1
REMARK SMILES IDX 6 1 13 2 7 3 11 4 8 5 9 6 5 7 4 8 2 9 1 10 3 11 12 12 10 14
REMARK H PARENT 12 13 10 15
REMARK Flexibility Score: inf
ROOT
ATOM      1  C   UNL     1       8.688  12.447  61.626  1.00  0.00    -0.022 A 
ATOM      2  C   UNL     1       8.256  11.322  62.358  1.00  0.00     0.058 A 
ATOM      3  C   UNL     1       9.408  12.246  60.438  1.00  0.00     0.012 A 
ATOM      4  C   UNL     1       8.565  10.025  61.920  1.00  0.00     0.157 A 
ATOM      5  C   UNL     1       9.717  10.956  60.001  1.00  0.00     0.051 A 
ATOM      6  C   UNL     1       9.302   9.843  60.738  1.00  0.00     0.157 A 
ENDROOT
BRANCH   1   7
ATOM      7  C   UNL     1       8.376  13.837  62.042  1.00  0.00     0.010 C 
ATOM      8  C   UNL     1       7.169  14.235  62.465  1.00  0.00     0.025 C 
BRANCH   8   9
ATOM      9  C   UNL     1       6.909  15.622  62.881  1.00  0.00     0.064 C 
ATOM     10  O   UNL     1       7.872  16.365  63.204  1.00  0.00    -0.545 OA
ATOM     11  O   UNL     1       5.613  16.126  62.926  1.00  0.00    -0.545 OA
ENDBRANCH   8   9
ENDBRANCH   1   7
BRANCH   4  12
ATOM     12  O   UNL     1       8.138   8.918  62.651  1.00  0.00    -0.504 OA
ATOM     13  H   UNL     1       7.222   8.508  62.509  1.00  0.00     0.293 HD
ENDBRANCH   4  12
BRANCH   6  14
ATOM     14  O   UNL     1       9.626   8.567  60.279  1.00  0.00    -0.504 OA
ATOM     15  H   UNL     1       9.610   7.756  60.885  1.00  0.00     0.293 HD
ENDBRANCH   6  14
TORSDOF 4
ENDMDL
MODEL 3
REMARK VINA RESULT:    -3.767      1.833      2.506
REMARK INTER + INTRA:          -4.558
REMARK INTER:                  -4.421
REMARK INTRA:                  -0.136
REMARK UNBOUND:                -0.130
REMARK SMILES O=C([O-])C=Cc1ccc(O)c(O)c1
REMARK SMILES IDX 6 1 13 2 7 3 11 4 8 5 9 6 5 7 4 8 2 9 1 10 3 11 12 12 10 14
REMARK H PARENT 12 13 10 15
REMARK Flexibility Score: inf
ROOT
ATOM      1  C   UNL     1       8.534  11.461  61.339  1.00  0.00    -0.022 A 
ATOM      2  C   UNL     1       8.690  10.094  61.031  1.00  0.00     0.058 A 
ATOM      3  C   UNL     1       9.323  12.403  60.661  1.00  0.00     0.012 A 
ATOM      4  C   UNL     1       9.638   9.682  60.081  1.00  0.00     0.157 A 
ATOM      5  C   UNL     1      10.268  11.993  59.717  1.00  0.00     0.051 A 
ATOM      6  C   UNL     1      10.432  10.637  59.425  1.00  0.00     0.157 A 
ENDROOT
BRANCH   1   7
ATOM      7  C   UNL     1       7.538  11.947  62.327  1.00  0.00     0.010 C 
ATOM      8  C   UNL     1       6.598  12.860  62.049  1.00  0.00     0.025 C 
BRANCH   8   9
ATOM      9  C   UNL     1       5.622  13.303  63.056  1.00  0.00     0.064 C 
ATOM     10  O   UNL     1       4.399  13.061  62.885  1.00  0.00    -0.545 OA
ATOM     11  O   UNL     1       6.028  13.988  64.196  1.00  0.00    -0.545 OA
ENDBRANCH   8   9
ENDBRANCH   1   7
BRANCH   4  12
ATOM     12  O   UNL     1       9.789   8.328  59.784  1.00  0.00    -0.504 OA
ATOM     13  H   UNL     1       9.324   7.609  60.328  1.00  0.00     0.293 HD
ENDBRANCH   4  12
BRANCH   6  14
ATOM     14  O   UNL     1      11.383  10.257  58.479  1.00  0.00    -0.504 OA
ATOM     15  H   UNL     1      11.757   9.317  58.439  1.00  0.00     0.293 HD
ENDBRANCH   6  14
TORSDOF 4
ENDMDL
MODEL 4
REMARK VINA RESULT:    -3.752     13.827     15.707
REMARK INTER + INTRA:          -4.540
REMARK INTER:                  -4.401
REMARK INTRA:                  -0.138
REMARK UNBOUND:                -0.130
REMARK SMILES O=C([O-])C=Cc1ccc(O)c(O)c1
REMARK SMILES IDX 6 1 13 2 7 3 11 4 8 5 9 6 5 7 4 8 2 9 1 10 3 11 12 12 10 14
REMARK H PARENT 12 13 10 15
REMARK Flexibility Score: inf
ROOT
ATOM      1  C   UNL     1       5.467  13.142  75.424  1.00  0.00    -0.022 A 
ATOM      2  C   UNL     1       6.275  12.417  76.325  1.00  0.00     0.058 A 
ATOM      3  C   UNL     1       5.721  13.031  74.048  1.00  0.00     0.012 A 
ATOM      4  C   UNL     1       7.329  11.621  75.854  1.00  0.00     0.157 A 
ATOM      5  C   UNL     1       6.772  12.240  73.579  1.00  0.00     0.051 A 
ATOM      6  C   UNL     1       7.580  11.536  74.475  1.00  0.00     0.157 A 
ENDROOT
BRANCH   1   7
ATOM      7  C   UNL     1       4.333  13.988  75.872  1.00  0.00     0.010 C 
ATOM      8  C   UNL     1       4.156  15.259  75.490  1.00  0.00     0.025 C 
BRANCH   8   9
ATOM      9  C   UNL     1       3.009  16.057  75.949  1.00  0.00     0.064 C 
ATOM     10  O   UNL     1       1.842  15.608  75.805  1.00  0.00    -0.545 OA
ATOM     11  O   UNL     1       3.192  17.303  76.539  1.00  0.00    -0.545 OA
ENDBRANCH   8   9
ENDBRANCH   1   7
BRANCH   4  12
ATOM     12  O   UNL     1       8.125  10.910  76.752  1.00  0.00    -0.504 OA
ATOM     13  H   UNL     1       8.217   9.902  76.698  1.00  0.00     0.293 HD
ENDBRANCH   4  12
BRANCH   6  14
ATOM     14  O   UNL     1       8.623  10.755  73.978  1.00  0.00    -0.504 OA
ATOM     15  H   UNL     1       8.486  10.087  73.228  1.00  0.00     0.293 HD
ENDBRANCH   6  14
TORSDOF 4
ENDMDL
MODEL 5
REMARK VINA RESULT:    -3.696      1.654      2.597
REMARK INTER + INTRA:          -4.474
REMARK INTER:                  -4.329
REMARK INTRA:                  -0.145
REMARK UNBOUND:                -0.130
REMARK SMILES O=C([O-])C=Cc1ccc(O)c(O)c1
REMARK SMILES IDX 6 1 13 2 7 3 11 4 8 5 9 6 5 7 4 8 2 9 1 10 3 11 12 12 10 14
REMARK H PARENT 12 13 10 15
REMARK Flexibility Score: inf
ROOT
ATOM      1  C   UNL     1       8.916  12.130  61.176  1.00  0.00    -0.022 A 
ATOM      2  C   UNL     1       9.674  11.951  60.000  1.00  0.00     0.058 A 
ATOM      3  C   UNL     1       8.486  10.996  61.884  1.00  0.00     0.012 A 
ATOM      4  C   UNL     1       9.970  10.662  59.533  1.00  0.00     0.157 A 
ATOM      5  C   UNL     1       8.780   9.712  61.418  1.00  0.00     0.051 A 
ATOM      6  C   UNL     1       9.517   9.538  60.244  1.00  0.00     0.157 A 
ENDROOT
BRANCH   1   7
ATOM      7  C   UNL     1       8.587  13.472  61.716  1.00  0.00     0.010 C 
ATOM      8  C   UNL     1       7.421  13.774  62.303  1.00  0.00     0.025 C 
BRANCH   8   9
ATOM      9  C   UNL     1       7.142  15.116  62.836  1.00  0.00     0.064 C 
ATOM     10  O   UNL     1       8.042  15.736  63.461  1.00  0.00    -0.545 OA
ATOM     11  O   UNL     1       5.898  15.713  62.664  1.00  0.00    -0.545 OA
ENDBRANCH   8   9
ENDBRANCH   1   7
BRANCH   4  12
ATOM     12  O   UNL     1      10.717  10.493  58.368  1.00  0.00    -0.504 OA
ATOM     13  H   UNL     1      11.729  10.434  58.389  1.00  0.00     0.293 HD
ENDBRANCH   4  12
BRANCH   6  14
ATOM     14  O   UNL     1       9.794   8.245  59.803  1.00  0.00    -0.504 OA
ATOM     15  H   UNL     1       9.070   7.544  59.701  1.00  0.00     0.293 HD
ENDBRANCH   6  14
TORSDOF 4
ENDMDL
MODEL 6
REMARK VINA RESULT:    -3.686     11.992     13.486
REMARK INTER + INTRA:          -4.463
REMARK INTER:                  -4.330
REMARK INTRA:                  -0.133
REMARK UNBOUND:                -0.130
REMARK SMILES O=C([O-])C=Cc1ccc(O)c(O)c1
REMARK SMILES IDX 6 1 13 2 7 3 11 4 8 5 9 6 5 7 4 8 2 9 1 10 3 11 12 12 10 14
REMARK H PARENT 12 13 10 15
REMARK Flexibility Score: inf
ROOT
ATOM      1  C   UNL     1      -3.269   9.015  60.082  1.00  0.00    -0.022 A 
ATOM      2  C   UNL     1      -2.670  10.248  59.750  1.00  0.00     0.058 A 
ATOM      3  C   UNL     1      -2.526   8.078  60.816  1.00  0.00     0.012 A 
ATOM      4  C   UNL     1      -1.346  10.521  60.124  1.00  0.00     0.157 A 
ATOM      5  C   UNL     1      -1.207   8.348  61.189  1.00  0.00     0.051 A 
ATOM      6  C   UNL     1      -0.611   9.564  60.844  1.00  0.00     0.157 A 
ENDROOT
BRANCH   1   7
ATOM      7  C   UNL     1      -4.670   8.685  59.718  1.00  0.00     0.010 C 
ATOM      8  C   UNL     1      -5.007   7.714  58.860  1.00  0.00     0.025 C 
BRANCH   8   9
ATOM      9  C   UNL     1      -6.410   7.413  58.538  1.00  0.00     0.064 C 
ATOM     10  O   UNL     1      -7.125   8.292  57.991  1.00  0.00    -0.545 OA
ATOM     11  O   UNL     1      -6.964   6.171  58.832  1.00  0.00    -0.545 OA
ENDBRANCH   8   9
ENDBRANCH   1   7
BRANCH   4  12
ATOM     12  O   UNL     1      -0.760  11.740  59.789  1.00  0.00    -0.504 OA
ATOM     13  H   UNL     1      -0.989  12.221  58.926  1.00  0.00     0.293 HD
ENDBRANCH   4  12
BRANCH   6  14
ATOM     14  O   UNL     1       0.707   9.805  61.228  1.00  0.00    -0.504 OA
ATOM     15  H   UNL     1       1.411  10.120  60.570  1.00  0.00     0.293 HD
ENDBRANCH   6  14
TORSDOF 4
ENDMDL
MODEL 7
REMARK VINA RESULT:    -3.670     10.069     11.969
REMARK INTER + INTRA:          -4.444
REMARK INTER:                  -4.316
REMARK INTRA:                  -0.128
REMARK UNBOUND:                -0.130
REMARK SMILES O=C([O-])C=Cc1ccc(O)c(O)c1
REMARK SMILES IDX 6 1 13 2 7 3 11 4 8 5 9 6 5 7 4 8 2 9 1 10 3 11 12 12 10 14
REMARK H PARENT 12 13 10 15
REMARK Flexibility Score: inf
ROOT
ATOM      1  C   UNL     1      -1.550   9.376  60.800  1.00  0.00    -0.022 A 
ATOM      2  C   UNL     1      -0.837  10.152  59.862  1.00  0.00     0.058 A 
ATOM      3  C   UNL     1      -2.739   9.891  61.339  1.00  0.00     0.012 A 
ATOM      4  C   UNL     1      -1.295  11.427  59.497  1.00  0.00     0.157 A 
ATOM      5  C   UNL     1      -3.195  11.161  60.977  1.00  0.00     0.051 A 
ATOM      6  C   UNL     1      -2.478  11.934  60.061  1.00  0.00     0.157 A 
ENDROOT
BRANCH   1   7
ATOM      7  C   UNL     1      -1.113   8.019  61.209  1.00  0.00     0.010 C 
ATOM      8  C   UNL     1      -0.106   7.786  62.062  1.00  0.00     0.025 C 
BRANCH   8   9
ATOM      9  C   UNL     1       0.286   6.423  62.450  1.00  0.00     0.064 C 
ATOM     10  O   UNL     1      -0.495   5.462  62.218  1.00  0.00    -0.545 OA
ATOM     11  O   UNL     1       1.505   6.176  63.072  1.00  0.00    -0.545 OA
ENDBRANCH   8   9
ENDBRANCH   1   7
BRANCH   4  12
ATOM     12  O   UNL     1      -0.582  12.189  58.573  1.00  0.00    -0.504 OA
ATOM     13  H   UNL     1      -0.795  12.160  57.582  1.00  0.00     0.293 HD
ENDBRANCH   4  12
BRANCH   6  14
ATOM     14  O   UNL     1      -2.956  13.198  59.719  1.00  0.00    -0.504 OA
ATOM     15  H   UNL     1      -3.946  13.408  59.682  1.00  0.00     0.293 HD
ENDBRANCH   6  14
TORSDOF 4
ENDMDL
MODEL 8
REMARK VINA RESULT:    -3.607     15.616     17.514
REMARK INTER + INTRA:          -4.369
REMARK INTER:                  -4.235
REMARK INTRA:                  -0.134
REMARK UNBOUND:                -0.130
REMARK SMILES O=C([O-])C=Cc1ccc(O)c(O)c1
REMARK SMILES IDX 6 1 13 2 7 3 11 4 8 5 9 6 5 7 4 8 2 9 1 10 3 11 12 12 10 14
REMARK H PARENT 12 13 10 15
REMARK Flexibility Score: inf
ROOT
ATOM      1  C   UNL     1       3.316  12.686  75.684  1.00  0.00    -0.022 A 
ATOM      2  C   UNL     1       2.334  11.698  75.908  1.00  0.00     0.058 A 
ATOM      3  C   UNL     1       2.949  14.038  75.777  1.00  0.00     0.012 A 
ATOM      4  C   UNL     1       1.009  12.062  76.194  1.00  0.00     0.157 A 
ATOM      5  C   UNL     1       1.630  14.400  76.060  1.00  0.00     0.051 A 
ATOM      6  C   UNL     1       0.657  13.420  76.266  1.00  0.00     0.157 A 
ENDROOT
BRANCH   1   7
ATOM      7  C   UNL     1       4.731  12.351  75.390  1.00  0.00     0.010 C 
ATOM      8  C   UNL     1       5.760  12.723  76.163  1.00  0.00     0.025 C 
BRANCH   8   9
ATOM      9  C   UNL     1       7.148  12.357  75.840  1.00  0.00     0.064 C 
ATOM     10  O   UNL     1       7.718  11.446  76.494  1.00  0.00    -0.545 OA
ATOM     11  O   UNL     1       7.842  13.005  74.824  1.00  0.00    -0.545 OA
ENDBRANCH   8   9
ENDBRANCH   1   7
BRANCH   4  12
ATOM     12  O   UNL     1       0.044  11.079  76.411  1.00  0.00    -0.504 OA
ATOM     13  H   UNL     1      -0.016  10.254  75.825  1.00  0.00     0.293 HD
ENDBRANCH   4  12
BRANCH   6  14
ATOM     14  O   UNL     1      -0.652  13.811  76.545  1.00  0.00    -0.504 OA
ATOM     15  H   UNL     1      -1.428  13.162  76.506  1.00  0.00     0.293 HD
ENDBRANCH   6  14
TORSDOF 4
ENDMDL
MODEL 9
REMARK VINA RESULT:    -3.446     10.107     11.174
REMARK INTER + INTRA:          -4.181
REMARK INTER:                  -4.059
REMARK INTRA:                  -0.122
REMARK UNBOUND:                -0.130
REMARK SMILES O=C([O-])C=Cc1ccc(O)c(O)c1
REMARK SMILES IDX 6 1 13 2 7 3 11 4 8 5 9 6 5 7 4 8 2 9 1 10 3 11 12 12 10 14
REMARK H PARENT 12 13 10 15
REMARK Flexibility Score: inf
ROOT
ATOM      1  C   UNL     1      -1.737  10.725  60.226  1.00  0.00    -0.022 A 
ATOM      2  C   UNL     1      -0.600  10.018  60.672  1.00  0.00     0.058 A 
ATOM      3  C   UNL     1      -2.963  10.047  60.135  1.00  0.00     0.012 A 
ATOM      4  C   UNL     1      -0.690   8.655  60.993  1.00  0.00     0.157 A 
ATOM      5  C   UNL     1      -3.052   8.690  60.453  1.00  0.00     0.051 A 
ATOM      6  C   UNL     1      -1.921   7.989  60.879  1.00  0.00     0.157 A 
ENDROOT
BRANCH   1   7
ATOM      7  C   UNL     1      -1.695  12.168  59.885  1.00  0.00     0.010 C 
ATOM      8  C   UNL     1      -1.572  13.145  60.794  1.00  0.00     0.025 C 
BRANCH   8   9
ATOM      9  C   UNL     1      -1.522  14.564  60.410  1.00  0.00     0.064 C 
ATOM     10  O   UNL     1      -0.409  15.146  60.327  1.00  0.00    -0.545 OA
ATOM     11  O   UNL     1      -2.686  15.275  60.138  1.00  0.00    -0.545 OA
ENDBRANCH   8   9
ENDBRANCH   1   7
BRANCH   4  12
ATOM     12  O   UNL     1       0.439   7.963  61.430  1.00  0.00    -0.504 OA
ATOM     13  H   UNL     1       0.381   7.250  62.149  1.00  0.00     0.293 HD
ENDBRANCH   4  12
BRANCH   6  14
ATOM     14  O   UNL     1      -2.040   6.634  61.189  1.00  0.00    -0.504 OA
ATOM     15  H   UNL     1      -1.231   6.038  61.316  1.00  0.00     0.293 HD
ENDBRANCH   6  14
TORSDOF 4
ENDMDL
