MODEL 1
REMARK VINA RESULT:    -5.384      0.000      0.000
REMARK INTER + INTRA:          -6.431
REMARK INTER:                  -6.170
REMARK INTRA:                  -0.261
REMARK UNBOUND:                -0.261
REMARK SMILES COc1ccc(C=O)c(O)c1
REMARK SMILES IDX 3 1 11 2 9 3 6 4 5 5 4 6 2 7 1 8 10 9 7 11 8 12
REMARK H PARENT 10 10
REMARK Flexibility Score: inf
ROOT
ATOM      1  C   UNL     1     -15.041  61.161  38.375  1.00  0.00     0.122 A 
ATOM      2  C   UNL     1     -14.458  62.415  38.633  1.00  0.00     0.093 A 
ATOM      3  C   UNL     1     -13.149  62.503  39.133  1.00  0.00     0.129 A 
ATOM      4  C   UNL     1     -12.410  61.330  39.380  1.00  0.00     0.056 A 
ATOM      5  C   UNL     1     -13.000  60.080  39.121  1.00  0.00     0.019 A 
ATOM      6  C   UNL     1     -14.302  60.001  38.623  1.00  0.00     0.047 A 
ENDROOT
BRANCH   1   7
ATOM      7  O   UNL     1     -16.346  61.025  37.875  1.00  0.00    -0.497 OA
ATOM      8  C   UNL     1     -17.526  61.141  38.663  1.00  0.00     0.278 C 
ENDBRANCH   1   7
BRANCH   3   9
ATOM      9  O   UNL     1     -12.586  63.755  39.382  1.00  0.00    -0.507 OA
ATOM     10  H   UNL     1     -13.157  64.561  39.604  1.00  0.00     0.293 HD
ENDBRANCH   3   9
BRANCH   4  11
ATOM     11  C   UNL     1     -11.032  61.411  39.906  1.00  0.00     0.263 C 
ATOM     12  O   UNL     1     -10.140  62.060  39.298  1.00  0.00    -0.298 OA
ENDBRANCH   4  11
TORSDOF 3
ENDMDL
MODEL 2
REMARK VINA RESULT:    -5.350      1.696      2.458
REMARK INTER + INTRA:          -6.393
REMARK INTER:                  -6.134
REMARK INTRA:                  -0.259
REMARK UNBOUND:                -0.261
REMARK SMILES COc1ccc(C=O)c(O)c1
REMARK SMILES IDX 3 1 11 2 9 3 6 4 5 5 4 6 2 7 1 8 10 9 7 11 8 12
REMARK H PARENT 10 10
REMARK Flexibility Score: inf
ROOT
ATOM      1  C   UNL     1     -13.877  61.000  39.617  1.00  0.00     0.122 A 
ATOM      2  C   UNL     1     -12.763  60.329  40.155  1.00  0.00     0.093 A 
ATOM      3  C   UNL     1     -11.492  60.923  40.128  1.00  0.00     0.129 A 
ATOM      4  C   UNL     1     -11.323  62.199  39.559  1.00  0.00     0.056 A 
ATOM      5  C   UNL     1     -12.439  62.864  39.023  1.00  0.00     0.019 A 
ATOM      6  C   UNL     1     -13.702  62.267  39.054  1.00  0.00     0.047 A 
ENDROOT
BRANCH   1   7
ATOM      7  O   UNL     1     -15.166  60.446  39.623  1.00  0.00    -0.497 OA
ATOM      8  C   UNL     1     -16.104  60.579  38.560  1.00  0.00     0.278 C 
ENDBRANCH   1   7
BRANCH   3   9
ATOM      9  O   UNL     1     -10.399  60.242  40.667  1.00  0.00    -0.507 OA
ATOM     10  H   UNL     1     -10.485  59.303  41.036  1.00  0.00     0.293 HD
ENDBRANCH   3   9
BRANCH   4  11
ATOM     11  C   UNL     1      -9.988  62.833  39.525  1.00  0.00     0.263 C 
ATOM     12  O   UNL     1      -9.221  62.788  40.523  1.00  0.00    -0.298 OA
ENDBRANCH   4  11
TORSDOF 3
ENDMDL
MODEL 3
REMARK VINA RESULT:    -5.339     18.633     19.792
REMARK INTER + INTRA:          -6.380
REMARK INTER:                  -6.115
REMARK INTRA:                  -0.265
REMARK UNBOUND:                -0.261
REMARK SMILES COc1ccc(C=O)c(O)c1
REMARK SMILES IDX 3 1 11 2 9 3 6 4 5 5 4 6 2 7 1 8 10 9 7 11 8 12
REMARK H PARENT 10 10
REMARK Flexibility Score: inf
ROOT
ATOM      1  C   UNL     1      -9.733  49.812  54.780  1.00  0.00     0.122 A 
ATOM      2  C   UNL     1     -10.321  50.825  54.000  1.00  0.00     0.093 A 
ATOM      3  C   UNL     1     -11.659  50.722  53.591  1.00  0.00     0.129 A 
ATOM      4  C   UNL     1     -12.425  49.600  53.960  1.00  0.00     0.056 A 
ATOM      5  C   UNL     1     -11.831  48.591  54.739  1.00  0.00     0.019 A 
ATOM      6  C   UNL     1     -10.498  48.700  55.143  1.00  0.00     0.047 A 
ENDROOT
BRANCH   1   7
ATOM      7  O   UNL     1      -8.399  49.872  55.213  1.00  0.00    -0.497 OA
ATOM      8  C   UNL     1      -7.392  48.936  54.846  1.00  0.00     0.278 C 
ENDBRANCH   1   7
BRANCH   3   9
ATOM      9  O   UNL     1     -12.226  51.737  52.818  1.00  0.00    -0.507 OA
ATOM     10  H   UNL     1     -13.065  51.585  52.272  1.00  0.00     0.293 HD
ENDBRANCH   3   9
BRANCH   4  11
ATOM     11  C   UNL     1     -13.835  49.482  53.534  1.00  0.00     0.263 C 
ATOM     12  O   UNL     1     -14.166  49.646  52.330  1.00  0.00    -0.298 OA
ENDBRANCH   4  11
TORSDOF 3
ENDMDL
MODEL 4
REMARK VINA RESULT:    -5.290      1.158      4.361
REMARK INTER + INTRA:          -6.324
REMARK INTER:                  -6.061
REMARK INTRA:                  -0.263
REMARK UNBOUND:                -0.261
REMARK SMILES COc1ccc(C=O)c(O)c1
REMARK SMILES IDX 3 1 11 2 9 3 6 4 5 5 4 6 2 7 1 8 10 9 7 11 8 12
REMARK H PARENT 10 10
REMARK Flexibility Score: inf
ROOT
ATOM      1  C   UNL     1     -11.621  61.465  39.703  1.00  0.00     0.122 A 
ATOM      2  C   UNL     1     -12.277  62.611  39.219  1.00  0.00     0.093 A 
ATOM      3  C   UNL     1     -13.660  62.594  38.981  1.00  0.00     0.129 A 
ATOM      4  C   UNL     1     -14.401  61.422  39.226  1.00  0.00     0.056 A 
ATOM      5  C   UNL     1     -13.739  60.280  39.709  1.00  0.00     0.019 A 
ATOM      6  C   UNL     1     -12.363  60.305  39.944  1.00  0.00     0.047 A 
ENDROOT
BRANCH   1   7
ATOM      7  O   UNL     1     -10.241  61.437  39.956  1.00  0.00    -0.497 OA
ATOM      8  C   UNL     1      -9.565  62.333  40.833  1.00  0.00     0.278 C 
ENDBRANCH   1   7
BRANCH   3   9
ATOM      9  O   UNL     1     -14.294  63.740  38.501  1.00  0.00    -0.507 OA
ATOM     10  H   UNL     1     -14.106  64.105  37.576  1.00  0.00     0.293 HD
ENDBRANCH   3   9
BRANCH   4  11
ATOM     11  C   UNL     1     -15.858  61.393  38.978  1.00  0.00     0.263 C 
ATOM     12  O   UNL     1     -16.338  61.768  37.875  1.00  0.00    -0.298 OA
ENDBRANCH   4  11
TORSDOF 3
ENDMDL
MODEL 5
REMARK VINA RESULT:    -5.217     14.755     16.579
REMARK INTER + INTRA:          -6.240
REMARK INTER:                  -5.992
REMARK INTRA:                  -0.248
REMARK UNBOUND:                -0.261
REMARK SMILES COc1ccc(C=O)c(O)c1
REMARK SMILES IDX 3 1 11 2 9 3 6 4 5 5 4 6 2 7 1 8 10 9 7 11 8 12
REMARK H PARENT 10 10
REMARK Flexibility Score: inf
ROOT
ATOM      1  C   UNL     1      -7.274  63.841  52.801  1.00  0.00     0.122 A 
ATOM      2  C   UNL     1      -6.094  63.078  52.744  1.00  0.00     0.093 A 
ATOM      3  C   UNL     1      -5.845  62.077  53.696  1.00  0.00     0.129 A 
ATOM      4  C   UNL     1      -6.781  61.832  54.719  1.00  0.00     0.056 A 
ATOM      5  C   UNL     1      -7.957  62.599  54.772  1.00  0.00     0.019 A 
ATOM      6  C   UNL     1      -8.198  63.592  53.820  1.00  0.00     0.047 A 
ENDROOT
BRANCH   1   7
ATOM      7  O   UNL     1      -7.564  64.851  51.871  1.00  0.00    -0.497 OA
ATOM      8  C   UNL     1      -7.808  64.623  50.486  1.00  0.00     0.278 C 
ENDBRANCH   1   7
BRANCH   3   9
ATOM      9  O   UNL     1      -4.669  61.329  53.624  1.00  0.00    -0.507 OA
ATOM     10  H   UNL     1      -3.982  61.488  52.898  1.00  0.00     0.293 HD
ENDBRANCH   3   9
BRANCH   4  11
ATOM     11  C   UNL     1      -6.528  60.781  55.728  1.00  0.00     0.263 C 
ATOM     12  O   UNL     1      -5.385  60.623  56.231  1.00  0.00    -0.298 OA
ENDBRANCH   4  11
TORSDOF 3
ENDMDL
MODEL 6
REMARK VINA RESULT:    -5.052     18.291     18.937
REMARK INTER + INTRA:          -6.051
REMARK INTER:                  -5.828
REMARK INTRA:                  -0.223
REMARK UNBOUND:                -0.261
REMARK SMILES COc1ccc(C=O)c(O)c1
REMARK SMILES IDX 3 1 11 2 9 3 6 4 5 5 4 6 2 7 1 8 10 9 7 11 8 12
REMARK H PARENT 10 10
REMARK Flexibility Score: inf
ROOT
ATOM      1  C   UNL     1     -13.781  48.295  53.267  1.00  0.00     0.122 A 
ATOM      2  C   UNL     1     -13.687  49.576  52.691  1.00  0.00     0.093 A 
ATOM      3  C   UNL     1     -12.677  50.465  53.090  1.00  0.00     0.129 A 
ATOM      4  C   UNL     1     -11.747  50.078  54.073  1.00  0.00     0.056 A 
ATOM      5  C   UNL     1     -11.846  48.797  54.645  1.00  0.00     0.019 A 
ATOM      6  C   UNL     1     -12.854  47.918  54.243  1.00  0.00     0.047 A 
ENDROOT
BRANCH   1   7
ATOM      7  O   UNL     1     -14.773  47.374  52.899  1.00  0.00    -0.497 OA
ATOM      8  C   UNL     1     -16.161  47.679  52.811  1.00  0.00     0.278 C 
ENDBRANCH   1   7
BRANCH   3   9
ATOM      9  O   UNL     1     -12.600  51.730  52.507  1.00  0.00    -0.507 OA
ATOM     10  H   UNL     1     -13.349  52.100  51.936  1.00  0.00     0.293 HD
ENDBRANCH   3   9
BRANCH   4  11
ATOM     11  C   UNL     1     -10.680  51.006  54.500  1.00  0.00     0.263 C 
ATOM     12  O   UNL     1     -10.173  51.830  53.694  1.00  0.00    -0.298 OA
ENDBRANCH   4  11
TORSDOF 3
ENDMDL
MODEL 7
REMARK VINA RESULT:    -5.016      1.358      4.882
REMARK INTER + INTRA:          -6.010
REMARK INTER:                  -5.744
REMARK INTRA:                  -0.266
REMARK UNBOUND:                -0.261
REMARK SMILES COc1ccc(C=O)c(O)c1
REMARK SMILES IDX 3 1 11 2 9 3 6 4 5 5 4 6 2 7 1 8 10 9 7 11 8 12
REMARK H PARENT 10 10
REMARK Flexibility Score: inf
ROOT
ATOM      1  C   UNL     1     -13.196  61.353  39.003  1.00  0.00     0.122 A 
ATOM      2  C   UNL     1     -14.142  60.331  38.798  1.00  0.00     0.093 A 
ATOM      3  C   UNL     1     -15.460  60.644  38.430  1.00  0.00     0.129 A 
ATOM      4  C   UNL     1     -15.844  61.988  38.262  1.00  0.00     0.056 A 
ATOM      5  C   UNL     1     -14.894  63.003  38.469  1.00  0.00     0.019 A 
ATOM      6  C   UNL     1     -13.585  62.685  38.835  1.00  0.00     0.047 A 
ENDROOT
BRANCH   1   7
ATOM      7  O   UNL     1     -11.868  61.087  39.371  1.00  0.00    -0.497 OA
ATOM      8  C   UNL     1     -10.823  62.053  39.362  1.00  0.00     0.278 C 
ENDBRANCH   1   7
BRANCH   3   9
ATOM      9  O   UNL     1     -16.385  59.618  38.231  1.00  0.00    -0.507 OA
ATOM     10  H   UNL     1     -16.213  58.675  38.559  1.00  0.00     0.293 HD
ENDBRANCH   3   9
BRANCH   4  11
ATOM     11  C   UNL     1     -17.229  62.328  37.875  1.00  0.00     0.263 C 
ATOM     12  O   UNL     1     -18.215  61.770  38.427  1.00  0.00    -0.298 OA
ENDBRANCH   4  11
TORSDOF 3
ENDMDL
MODEL 8
REMARK VINA RESULT:    -4.993      3.212      5.617
REMARK INTER + INTRA:          -5.984
REMARK INTER:                  -5.717
REMARK INTRA:                  -0.267
REMARK UNBOUND:                -0.261
REMARK SMILES COc1ccc(C=O)c(O)c1
REMARK SMILES IDX 3 1 11 2 9 3 6 4 5 5 4 6 2 7 1 8 10 9 7 11 8 12
REMARK H PARENT 10 10
REMARK Flexibility Score: inf
ROOT
ATOM      1  C   UNL     1      -9.436  63.559  39.500  1.00  0.00     0.122 A 
ATOM      2  C   UNL     1      -9.413  62.833  40.705  1.00  0.00     0.093 A 
ATOM      3  C   UNL     1     -10.328  61.792  40.927  1.00  0.00     0.129 A 
ATOM      4  C   UNL     1     -11.278  61.468  39.939  1.00  0.00     0.056 A 
ATOM      5  C   UNL     1     -11.295  62.197  38.738  1.00  0.00     0.019 A 
ATOM      6  C   UNL     1     -10.381  63.232  38.525  1.00  0.00     0.047 A 
ENDROOT
BRANCH   1   7
ATOM      7  O   UNL     1      -8.540  64.607  39.235  1.00  0.00    -0.497 OA
ATOM      8  C   UNL     1      -7.316  64.814  39.932  1.00  0.00     0.278 C 
ENDBRANCH   1   7
BRANCH   3   9
ATOM      9  O   UNL     1     -10.291  61.083  42.128  1.00  0.00    -0.507 OA
ATOM     10  H   UNL     1     -10.782  60.204  42.242  1.00  0.00     0.293 HD
ENDBRANCH   3   9
BRANCH   4  11
ATOM     11  C   UNL     1     -12.246  60.373  40.163  1.00  0.00     0.263 C 
ATOM     12  O   UNL     1     -12.951  60.331  41.205  1.00  0.00    -0.298 OA
ENDBRANCH   4  11
TORSDOF 3
ENDMDL
