MODEL 1
REMARK VINA RESULT:    -4.095      0.000      0.000
REMARK INTER + INTRA:          -5.701
REMARK INTER:                  -5.292
REMARK INTRA:                  -0.409
REMARK UNBOUND:                -0.409
REMARK SMILES CCO[C@@H]1O[C@H](CO)[C@H](O)[C@@H](O)[C@H]1O
REMARK SMILES IDX 4 1 13 2 11 3 9 4 6 5 5 6 3 7 2 8 1 9 14 10 12 12 7 14 8 15
REMARK SMILES IDX 10 17
REMARK H PARENT 14 11 12 13 8 16 10 18
REMARK Flexibility Score: inf
ROOT
ATOM      1  C   UNL     1      19.676  41.245  35.472  1.00  0.00     0.281 C 
ATOM      2  C   UNL     1      19.714  41.027  36.999  1.00  0.00     0.202 C 
ATOM      3  C   UNL     1      20.803  40.020  37.392  1.00  0.00     0.179 C 
ATOM      4  C   UNL     1      22.148  40.412  36.757  1.00  0.00     0.177 C 
ATOM      5  C   UNL     1      22.005  40.723  35.244  1.00  0.00     0.178 C 
ATOM      6  O   UNL     1      20.941  41.621  34.940  1.00  0.00    -0.341 OA
ENDROOT
BRANCH   1   7
ATOM      7  O   UNL     1      19.164  40.091  34.829  1.00  0.00    -0.350 OA
BRANCH   7   8
ATOM      8  C   UNL     1      17.797  39.917  35.144  1.00  0.00     0.160 C 
ATOM      9  C   UNL     1      17.544  38.456  35.479  1.00  0.00     0.035 C 
ENDBRANCH   7   8
ENDBRANCH   1   7
BRANCH   2  10
ATOM     10  O   UNL     1      19.868  42.247  37.687  1.00  0.00    -0.385 OA
ATOM     11  H   UNL     1      20.818  42.526  37.618  1.00  0.00     0.211 HD
ENDBRANCH   2  10
BRANCH   3  12
ATOM     12  O   UNL     1      20.920  39.989  38.793  1.00  0.00    -0.387 OA
ATOM     13  H   UNL     1      21.263  39.090  39.036  1.00  0.00     0.211 HD
ENDBRANCH   3  12
BRANCH   5  14
ATOM     14  C   UNL     1      22.055  39.503  34.290  1.00  0.00     0.191 C 
BRANCH  14  15
ATOM     15  O   UNL     1      21.621  39.813  32.992  1.00  0.00    -0.394 OA
ATOM     16  H   UNL     1      20.957  39.125  32.731  1.00  0.00     0.210 HD
ENDBRANCH  14  15
ENDBRANCH   5  14
BRANCH   4  17
ATOM     17  O   UNL     1      23.096  39.392  36.949  1.00  0.00    -0.387 OA
ATOM     18  H   UNL     1      23.895  39.629  36.408  1.00  0.00     0.211 HD
ENDBRANCH   4  17
TORSDOF 7
ENDMDL
MODEL 2
REMARK VINA RESULT:    -3.927     14.842     16.366
REMARK INTER + INTRA:          -5.484
REMARK INTER:                  -4.949
REMARK INTRA:                  -0.536
REMARK UNBOUND:                -0.409
REMARK SMILES CCO[C@@H]1O[C@H](CO)[C@H](O)[C@@H](O)[C@H]1O
REMARK SMILES IDX 4 1 13 2 11 3 9 4 6 5 5 6 3 7 2 8 1 9 14 10 12 12 7 14 8 15
REMARK SMILES IDX 10 17
REMARK H PARENT 14 11 12 13 8 16 10 18
REMARK Flexibility Score: inf
ROOT
ATOM      1  C   UNL     1      12.195  51.269  27.917  1.00  0.00     0.281 C 
ATOM      2  C   UNL     1      11.427  51.610  26.623  1.00  0.00     0.202 C 
ATOM      3  C   UNL     1      12.310  51.419  25.383  1.00  0.00     0.179 C 
ATOM      4  C   UNL     1      12.966  50.028  25.403  1.00  0.00     0.177 C 
ATOM      5  C   UNL     1      13.620  49.716  26.774  1.00  0.00     0.178 C 
ATOM      6  O   UNL     1      12.767  49.966  27.888  1.00  0.00    -0.341 OA
ENDROOT
BRANCH   1   7
ATOM      7  O   UNL     1      13.174  52.260  28.178  1.00  0.00    -0.350 OA
BRANCH   7   8
ATOM      8  C   UNL     1      13.356  52.416  29.571  1.00  0.00     0.160 C 
ATOM      9  C   UNL     1      14.845  52.441  29.880  1.00  0.00     0.035 C 
ENDBRANCH   7   8
ENDBRANCH   1   7
BRANCH   2  10
ATOM     10  O   UNL     1      10.234  50.868  26.524  1.00  0.00    -0.385 OA
ATOM     11  H   UNL     1       9.757  50.927  27.393  1.00  0.00     0.211 HD
ENDBRANCH   2  10
BRANCH   3  12
ATOM     12  O   UNL     1      11.523  51.567  24.228  1.00  0.00    -0.387 OA
ATOM     13  H   UNL     1      10.835  50.851  24.251  1.00  0.00     0.211 HD
ENDBRANCH   3  12
BRANCH   5  14
ATOM     14  C   UNL     1      15.057  50.256  26.983  1.00  0.00     0.191 C 
BRANCH  14  15
ATOM     15  O   UNL     1      15.294  51.448  26.283  1.00  0.00    -0.394 OA
ATOM     16  H   UNL     1      14.454  51.976  26.308  1.00  0.00     0.210 HD
ENDBRANCH  14  15
ENDBRANCH   5  14
BRANCH   4  17
ATOM     17  O   UNL     1      13.925  49.924  24.380  1.00  0.00    -0.387 OA
ATOM     18  H   UNL     1      13.950  48.971  24.098  1.00  0.00     0.211 HD
ENDBRANCH   4  17
TORSDOF 7
ENDMDL
MODEL 3
REMARK VINA RESULT:    -3.798     12.120     13.731
REMARK INTER + INTRA:          -5.317
REMARK INTER:                  -4.767
REMARK INTRA:                  -0.550
REMARK UNBOUND:                -0.409
REMARK SMILES CCO[C@@H]1O[C@H](CO)[C@H](O)[C@@H](O)[C@H]1O
REMARK SMILES IDX 4 1 13 2 11 3 9 4 6 5 5 6 3 7 2 8 1 9 14 10 12 12 7 14 8 15
REMARK SMILES IDX 10 17
REMARK H PARENT 14 11 12 13 8 16 10 18
REMARK Flexibility Score: inf
ROOT
ATOM      1  C   UNL     1      13.106  35.386  27.850  1.00  0.00     0.281 C 
ATOM      2  C   UNL     1      13.720  35.139  26.456  1.00  0.00     0.202 C 
ATOM      3  C   UNL     1      12.692  35.379  25.343  1.00  0.00     0.179 C 
ATOM      4  C   UNL     1      12.020  36.750  25.523  1.00  0.00     0.177 C 
ATOM      5  C   UNL     1      11.529  36.968  26.979  1.00  0.00     0.178 C 
ATOM      6  O   UNL     1      12.513  36.675  27.967  1.00  0.00    -0.341 OA
ENDROOT
BRANCH   1   7
ATOM      7  O   UNL     1      12.183  34.359  28.165  1.00  0.00    -0.350 OA
BRANCH   7   8
ATOM      8  C   UNL     1      12.290  34.003  29.529  1.00  0.00     0.160 C 
ATOM      9  C   UNL     1      10.909  34.044  30.165  1.00  0.00     0.035 C 
ENDBRANCH   7   8
ENDBRANCH   1   7
BRANCH   2  10
ATOM     10  O   UNL     1      14.880  35.914  26.262  1.00  0.00    -0.385 OA
ATOM     11  H   UNL     1      15.563  35.348  25.816  1.00  0.00     0.211 HD
ENDBRANCH   2  10
BRANCH   3  12
ATOM     12  O   UNL     1      13.338  35.317  24.096  1.00  0.00    -0.387 OA
ATOM     13  H   UNL     1      14.224  34.894  24.248  1.00  0.00     0.211 HD
ENDBRANCH   3  12
BRANCH   5  14
ATOM     14  C   UNL     1      10.136  36.382  27.323  1.00  0.00     0.191 C 
BRANCH  14  15
ATOM     15  O   UNL     1       9.873  35.181  26.649  1.00  0.00    -0.394 OA
ATOM     16  H   UNL     1      10.704  34.639  26.676  1.00  0.00     0.210 HD
ENDBRANCH  14  15
ENDBRANCH   5  14
BRANCH   4  17
ATOM     17  O   UNL     1      10.943  36.890  24.629  1.00  0.00    -0.387 OA
ATOM     18  H   UNL     1      10.520  37.769  24.815  1.00  0.00     0.211 HD
ENDBRANCH   4  17
TORSDOF 7
ENDMDL
MODEL 4
REMARK VINA RESULT:    -3.792     11.135     13.430
REMARK INTER + INTRA:          -5.310
REMARK INTER:                  -4.953
REMARK INTRA:                  -0.358
REMARK UNBOUND:                -0.409
REMARK SMILES CCO[C@@H]1O[C@H](CO)[C@H](O)[C@@H](O)[C@H]1O
REMARK SMILES IDX 4 1 13 2 11 3 9 4 6 5 5 6 3 7 2 8 1 9 14 10 12 12 7 14 8 15
REMARK SMILES IDX 10 17
REMARK H PARENT 14 11 12 13 8 16 10 18
REMARK Flexibility Score: inf
ROOT
ATOM      1  C   UNL     1      12.232  37.353  26.856  1.00  0.00     0.281 C 
ATOM      2  C   UNL     1      12.511  36.978  25.385  1.00  0.00     0.202 C 
ATOM      3  C   UNL     1      13.162  35.594  25.275  1.00  0.00     0.179 C 
ATOM      4  C   UNL     1      12.350  34.556  26.067  1.00  0.00     0.177 C 
ATOM      5  C   UNL     1      12.015  35.053  27.499  1.00  0.00     0.178 C 
ATOM      6  O   UNL     1      11.464  36.367  27.537  1.00  0.00    -0.341 OA
ENDROOT
BRANCH   1   7
ATOM      7  O   UNL     1      13.450  37.618  27.529  1.00  0.00    -0.350 OA
BRANCH   7   8
ATOM      8  C   UNL     1      14.185  38.613  26.844  1.00  0.00     0.160 C 
ATOM      9  C   UNL     1      15.663  38.257  26.881  1.00  0.00     0.035 C 
ENDBRANCH   7   8
ENDBRANCH   1   7
BRANCH   2  10
ATOM     10  O   UNL     1      11.340  37.060  24.605  1.00  0.00    -0.385 OA
ATOM     11  H   UNL     1      11.477  36.525  23.780  1.00  0.00     0.211 HD
ENDBRANCH   2  10
BRANCH   3  12
ATOM     12  O   UNL     1      13.233  35.223  23.921  1.00  0.00    -0.387 OA
ATOM     13  H   UNL     1      13.963  35.757  23.511  1.00  0.00     0.211 HD
ENDBRANCH   3  12
BRANCH   5  14
ATOM     14  C   UNL     1      13.110  34.827  28.572  1.00  0.00     0.191 C 
BRANCH  14  15
ATOM     15  O   UNL     1      12.982  33.593  29.225  1.00  0.00    -0.394 OA
ATOM     16  H   UNL     1      12.215  33.118  28.810  1.00  0.00     0.210 HD
ENDBRANCH  14  15
ENDBRANCH   5  14
BRANCH   4  17
ATOM     17  O   UNL     1      13.046  33.336  26.134  1.00  0.00    -0.387 OA
ATOM     18  H   UNL     1      13.987  33.521  25.872  1.00  0.00     0.211 HD
ENDBRANCH   4  17
TORSDOF 7
ENDMDL
MODEL 5
REMARK VINA RESULT:    -3.771      1.791      3.457
REMARK INTER + INTRA:          -5.282
REMARK INTER:                  -4.790
REMARK INTRA:                  -0.492
REMARK UNBOUND:                -0.409
REMARK SMILES CCO[C@@H]1O[C@H](CO)[C@H](O)[C@@H](O)[C@H]1O
REMARK SMILES IDX 4 1 13 2 11 3 9 4 6 5 5 6 3 7 2 8 1 9 14 10 12 12 7 14 8 15
REMARK SMILES IDX 10 17
REMARK H PARENT 14 11 12 13 8 16 10 18
REMARK Flexibility Score: inf
ROOT
ATOM      1  C   UNL     1      20.126  40.409  34.419  1.00  0.00     0.281 C 
ATOM      2  C   UNL     1      20.388  39.741  35.784  1.00  0.00     0.202 C 
ATOM      3  C   UNL     1      20.560  40.786  36.894  1.00  0.00     0.179 C 
ATOM      4  C   UNL     1      19.391  41.785  36.873  1.00  0.00     0.177 C 
ATOM      5  C   UNL     1      19.118  42.328  35.445  1.00  0.00     0.178 C 
ATOM      6  O   UNL     1      19.024  41.310  34.452  1.00  0.00    -0.341 OA
ENDROOT
BRANCH   1   7
ATOM      7  O   UNL     1      21.303  41.045  33.954  1.00  0.00    -0.350 OA
BRANCH   7   8
ATOM      8  C   UNL     1      21.255  41.203  32.549  1.00  0.00     0.160 C 
ATOM      9  C   UNL     1      21.294  39.833  31.891  1.00  0.00     0.035 C 
ENDBRANCH   7   8
ENDBRANCH   1   7
BRANCH   2  10
ATOM     10  O   UNL     1      19.377  38.812  36.103  1.00  0.00    -0.385 OA
ATOM     11  H   UNL     1      19.594  37.950  35.662  1.00  0.00     0.211 HD
ENDBRANCH   2  10
BRANCH   3  12
ATOM     12  O   UNL     1      20.618  40.134  38.138  1.00  0.00    -0.387 OA
ATOM     13  H   UNL     1      19.871  39.480  38.159  1.00  0.00     0.211 HD
ENDBRANCH   3  12
BRANCH   5  14
ATOM     14  C   UNL     1      19.987  43.530  34.995  1.00  0.00     0.191 C 
BRANCH  14  15
ATOM     15  O   UNL     1      21.275  43.504  35.550  1.00  0.00    -0.394 OA
ATOM     16  H   UNL     1      21.807  44.205  35.092  1.00  0.00     0.210 HD
ENDBRANCH  14  15
ENDBRANCH   5  14
BRANCH   4  17
ATOM     17  O   UNL     1      19.643  42.854  37.751  1.00  0.00    -0.387 OA
ATOM     18  H   UNL     1      19.045  42.736  38.535  1.00  0.00     0.211 HD
ENDBRANCH   4  17
TORSDOF 7
ENDMDL
MODEL 6
REMARK VINA RESULT:    -3.669     14.488     15.781
REMARK INTER + INTRA:          -5.150
REMARK INTER:                  -4.602
REMARK INTRA:                  -0.548
REMARK UNBOUND:                -0.409
REMARK SMILES CCO[C@@H]1O[C@H](CO)[C@H](O)[C@@H](O)[C@H]1O
REMARK SMILES IDX 4 1 13 2 11 3 9 4 6 5 5 6 3 7 2 8 1 9 14 10 12 12 7 14 8 15
REMARK SMILES IDX 10 17
REMARK H PARENT 14 11 12 13 8 16 10 18
REMARK Flexibility Score: inf
ROOT
ATOM      1  C   UNL     1       5.661  46.192  35.000  1.00  0.00     0.281 C 
ATOM      2  C   UNL     1       5.512  46.791  36.413  1.00  0.00     0.202 C 
ATOM      3  C   UNL     1       5.505  45.695  37.487  1.00  0.00     0.179 C 
ATOM      4  C   UNL     1       6.711  44.758  37.302  1.00  0.00     0.177 C 
ATOM      5  C   UNL     1       6.858  44.288  35.831  1.00  0.00     0.178 C 
ATOM      6  O   UNL     1       6.801  45.348  34.880  1.00  0.00    -0.341 OA
ENDROOT
BRANCH   1   7
ATOM      7  O   UNL     1       4.473  45.516  34.629  1.00  0.00    -0.350 OA
BRANCH   7   8
ATOM      8  C   UNL     1       4.298  45.561  33.227  1.00  0.00     0.160 C 
ATOM      9  C   UNL     1       3.674  44.256  32.759  1.00  0.00     0.035 C 
ENDBRANCH   7   8
ENDBRANCH   1   7
BRANCH   2  10
ATOM     10  O   UNL     1       6.506  47.756  36.669  1.00  0.00    -0.385 OA
ATOM     11  H   UNL     1       7.333  47.486  36.190  1.00  0.00     0.211 HD
ENDBRANCH   2  10
BRANCH   3  12
ATOM     12  O   UNL     1       5.547  46.293  38.758  1.00  0.00    -0.387 OA
ATOM     13  H   UNL     1       5.868  47.223  38.631  1.00  0.00     0.211 HD
ENDBRANCH   3  12
BRANCH   5  14
ATOM     14  C   UNL     1       6.004  43.062  35.418  1.00  0.00     0.191 C 
BRANCH  14  15
ATOM     15  O   UNL     1       4.754  43.035  36.054  1.00  0.00    -0.394 OA
ATOM     16  H   UNL     1       4.843  42.456  36.855  1.00  0.00     0.210 HD
ENDBRANCH  14  15
ENDBRANCH   5  14
BRANCH   4  17
ATOM     17  O   UNL     1       6.601  43.644  38.152  1.00  0.00    -0.387 OA
ATOM     18  H   UNL     1       5.993  42.996  37.708  1.00  0.00     0.211 HD
ENDBRANCH   4  17
TORSDOF 7
ENDMDL
MODEL 7
REMARK VINA RESULT:    -3.646      8.812     10.437
REMARK INTER + INTRA:          -5.122
REMARK INTER:                  -4.573
REMARK INTRA:                  -0.549
REMARK UNBOUND:                -0.409
REMARK SMILES CCO[C@@H]1O[C@H](CO)[C@H](O)[C@@H](O)[C@H]1O
REMARK SMILES IDX 4 1 13 2 11 3 9 4 6 5 5 6 3 7 2 8 1 9 14 10 12 12 7 14 8 15
REMARK SMILES IDX 10 17
REMARK H PARENT 14 11 12 13 8 16 10 18
REMARK Flexibility Score: inf
ROOT
ATOM      1  C   UNL     1      18.206  49.788  38.585  1.00  0.00     0.281 C 
ATOM      2  C   UNL     1      18.220  48.919  39.860  1.00  0.00     0.202 C 
ATOM      3  C   UNL     1      16.924  48.109  39.997  1.00  0.00     0.179 C 
ATOM      4  C   UNL     1      16.629  47.348  38.694  1.00  0.00     0.177 C 
ATOM      5  C   UNL     1      16.744  48.266  37.448  1.00  0.00     0.178 C 
ATOM      6  O   UNL     1      17.945  49.032  37.408  1.00  0.00    -0.341 OA
ENDROOT
BRANCH   1   7
ATOM      7  O   UNL     1      17.285  50.854  38.733  1.00  0.00    -0.350 OA
BRANCH   7   8
ATOM      8  C   UNL     1      17.762  52.012  38.076  1.00  0.00     0.160 C 
ATOM      9  C   UNL     1      16.595  52.727  37.414  1.00  0.00     0.035 C 
ENDBRANCH   7   8
ENDBRANCH   1   7
BRANCH   2  10
ATOM     10  O   UNL     1      19.355  48.085  39.899  1.00  0.00    -0.385 OA
ATOM     11  H   UNL     1      19.061  47.170  40.148  1.00  0.00     0.211 HD
ENDBRANCH   2  10
BRANCH   3  12
ATOM     12  O   UNL     1      17.055  47.206  41.066  1.00  0.00    -0.387 OA
ATOM     13  H   UNL     1      16.137  46.993  41.381  1.00  0.00     0.211 HD
ENDBRANCH   3  12
BRANCH   5  14
ATOM     14  C   UNL     1      15.486  49.100  37.097  1.00  0.00     0.191 C 
BRANCH  14  15
ATOM     15  O   UNL     1      14.771  49.504  38.233  1.00  0.00    -0.394 OA
ATOM     16  H   UNL     1      15.411  49.961  38.838  1.00  0.00     0.210 HD
ENDBRANCH  14  15
ENDBRANCH   5  14
BRANCH   4  17
ATOM     17  O   UNL     1      15.349  46.768  38.744  1.00  0.00    -0.387 OA
ATOM     18  H   UNL     1      15.070  46.756  39.698  1.00  0.00     0.211 HD
ENDBRANCH   4  17
TORSDOF 7
ENDMDL
MODEL 8
REMARK VINA RESULT:    -3.627      8.108     10.069
REMARK INTER + INTRA:          -5.096
REMARK INTER:                  -4.551
REMARK INTRA:                  -0.545
REMARK UNBOUND:                -0.409
REMARK SMILES CCO[C@@H]1O[C@H](CO)[C@H](O)[C@@H](O)[C@H]1O
REMARK SMILES IDX 4 1 13 2 11 3 9 4 6 5 5 6 3 7 2 8 1 9 14 10 12 12 7 14 8 15
REMARK SMILES IDX 10 17
REMARK H PARENT 14 11 12 13 8 16 10 18
REMARK Flexibility Score: inf
ROOT
ATOM      1  C   UNL     1      16.190  47.395  37.994  1.00  0.00     0.281 C 
ATOM      2  C   UNL     1      15.144  48.504  37.755  1.00  0.00     0.202 C 
ATOM      3  C   UNL     1      15.535  49.804  38.469  1.00  0.00     0.179 C 
ATOM      4  C   UNL     1      16.983  50.190  38.124  1.00  0.00     0.177 C 
ATOM      5  C   UNL     1      17.956  48.992  38.284  1.00  0.00     0.178 C 
ATOM      6  O   UNL     1      17.508  47.800  37.643  1.00  0.00    -0.341 OA
ENDROOT
BRANCH   1   7
ATOM      7  O   UNL     1      16.124  46.947  39.336  1.00  0.00    -0.350 OA
BRANCH   7   8
ATOM      8  C   UNL     1      16.221  45.537  39.389  1.00  0.00     0.160 C 
ATOM      9  C   UNL     1      17.544  45.152  40.034  1.00  0.00     0.035 C 
ENDBRANCH   7   8
ENDBRANCH   1   7
BRANCH   2  10
ATOM     10  O   UNL     1      14.931  48.718  36.378  1.00  0.00    -0.385 OA
ATOM     11  H   UNL     1      14.418  47.948  36.019  1.00  0.00     0.211 HD
ENDBRANCH   2  10
BRANCH   3  12
ATOM     12  O   UNL     1      14.655  50.828  38.080  1.00  0.00    -0.387 OA
ATOM     13  H   UNL     1      14.966  51.662  38.520  1.00  0.00     0.211 HD
ENDBRANCH   3  12
BRANCH   5  14
ATOM     14  C   UNL     1      18.498  48.740  39.713  1.00  0.00     0.191 C 
BRANCH  14  15
ATOM     15  O   UNL     1      17.567  49.065  40.711  1.00  0.00    -0.394 OA
ATOM     16  H   UNL     1      17.931  48.735  41.573  1.00  0.00     0.210 HD
ENDBRANCH  14  15
ENDBRANCH   5  14
BRANCH   4  17
ATOM     17  O   UNL     1      17.409  51.263  38.927  1.00  0.00    -0.387 OA
ATOM     18  H   UNL     1      16.948  52.078  38.595  1.00  0.00     0.211 HD
ENDBRANCH   4  17
TORSDOF 7
ENDMDL
