MODEL 1
REMARK VINA RESULT:    -3.064      0.000      0.000
REMARK INTER + INTRA:          -6.287
REMARK INTER:                  -5.571
REMARK INTRA:                  -0.716
REMARK UNBOUND:                -0.716
REMARK SMILES CCCCCCCCCCCCCC[C@@H](C)C(=O)[O-]
REMARK SMILES IDX 9 1 10 2 11 3 12 4 13 5 14 6 15 7 16 8 17 9 18 10 19 11 8 12
REMARK SMILES IDX 7 13 6 14 5 15 4 16 3 17 2 18 1 19
REMARK H PARENT
REMARK Flexibility Score: inf
ROOT
ATOM      1  C   UNL     1      22.362  22.775 -10.242  1.00  0.00     0.000 C 
ENDROOT
BRANCH   1   2
ATOM      2  C   UNL     1      22.584  21.403  -9.586  1.00  0.00     0.000 C 
BRANCH   2   3
ATOM      3  C   UNL     1      21.910  20.258 -10.361  1.00  0.00     0.000 C 
BRANCH   3   4
ATOM      4  C   UNL     1      20.552  20.666 -10.953  1.00  0.00     0.000 C 
BRANCH   4   5
ATOM      5  C   UNL     1      19.599  19.474 -11.125  1.00  0.00     0.001 C 
BRANCH   5   6
ATOM      6  C   UNL     1      18.245  19.750 -10.452  1.00  0.00     0.009 C 
BRANCH   6   7
ATOM      7  C   UNL     1      17.210  18.633 -10.712  1.00  0.00     0.032 C 
ATOM      8  C   UNL     1      17.860  17.245 -10.802  1.00  0.00     0.014 C 
BRANCH   7   9
ATOM      9  C   UNL     1      16.168  18.638  -9.627  1.00  0.00     0.044 C 
ATOM     10  O   UNL     1      16.333  17.960  -8.578  1.00  0.00    -0.550 OA
ATOM     11  O   UNL     1      15.012  19.393  -9.778  1.00  0.00    -0.550 OA
ENDBRANCH   7   9
ENDBRANCH   6   7
ENDBRANCH   5   6
ENDBRANCH   4   5
ENDBRANCH   3   4
ENDBRANCH   2   3
ENDBRANCH   1   2
BRANCH   1  12
ATOM     12  C   UNL     1      23.563  23.223 -11.095  1.00  0.00     0.000 C 
BRANCH  12  13
ATOM     13  C   UNL     1      24.910  22.833 -10.465  1.00  0.00    -0.000 C 
BRANCH  13  14
ATOM     14  C   UNL     1      26.098  23.562 -11.118  1.00  0.00    -0.000 C 
BRANCH  14  15
ATOM     15  C   UNL     1      26.612  24.742 -10.274  1.00  0.00    -0.000 C 
BRANCH  15  16
ATOM     16  C   UNL     1      27.199  25.913 -11.084  1.00  0.00    -0.000 C 
BRANCH  16  17
ATOM     17  C   UNL     1      26.337  27.185 -11.007  1.00  0.00    -0.000 C 
BRANCH  17  18
ATOM     18  C   UNL     1      26.521  27.941  -9.682  1.00  0.00    -0.003 C 
ATOM     19  C   UNL     1      27.987  28.241  -9.372  1.00  0.00     0.004 C 
ENDBRANCH  17  18
ENDBRANCH  16  17
ENDBRANCH  15  16
ENDBRANCH  14  15
ENDBRANCH  13  14
ENDBRANCH  12  13
ENDBRANCH   1  12
TORSDOF 14
ENDMDL
MODEL 2
REMARK VINA RESULT:    -2.810     12.627     13.706
REMARK INTER + INTRA:          -5.826
REMARK INTER:                  -4.841
REMARK INTRA:                  -0.985
REMARK UNBOUND:                -0.716
REMARK SMILES CCCCCCCCCCCCCC[C@@H](C)C(=O)[O-]
REMARK SMILES IDX 9 1 10 2 11 3 12 4 13 5 14 6 15 7 16 8 17 9 18 10 19 11 8 12
REMARK SMILES IDX 7 13 6 14 5 15 4 16 3 17 2 18 1 19
REMARK H PARENT
REMARK Flexibility Score: inf
ROOT
ATOM      1  C   UNL     1      11.921  32.459  -9.738  1.00  0.00     0.000 C 
ENDROOT
BRANCH   1   2
ATOM      2  C   UNL     1      11.104  32.771 -11.002  1.00  0.00     0.000 C 
BRANCH   2   3
ATOM      3  C   UNL     1       9.703  32.136 -10.975  1.00  0.00     0.000 C 
BRANCH   3   4
ATOM      4  C   UNL     1       9.080  32.140  -9.571  1.00  0.00     0.000 C 
BRANCH   4   5
ATOM      5  C   UNL     1       8.946  30.729  -8.979  1.00  0.00     0.001 C 
BRANCH   5   6
ATOM      6  C   UNL     1       8.952  29.665 -10.088  1.00  0.00     0.009 C 
BRANCH   6   7
ATOM      7  C   UNL     1      10.034  28.583  -9.871  1.00  0.00     0.032 C 
ATOM      8  C   UNL     1      11.238  28.767 -10.804  1.00  0.00     0.014 C 
BRANCH   7   9
ATOM      9  C   UNL     1      10.493  28.598  -8.439  1.00  0.00     0.044 C 
ATOM     10  O   UNL     1      11.586  29.139  -8.122  1.00  0.00    -0.550 OA
ATOM     11  O   UNL     1       9.710  28.012  -7.453  1.00  0.00    -0.550 OA
ENDBRANCH   7   9
ENDBRANCH   6   7
ENDBRANCH   5   6
ENDBRANCH   4   5
ENDBRANCH   3   4
ENDBRANCH   2   3
ENDBRANCH   1   2
BRANCH   1  12
ATOM     12  C   UNL     1      12.966  31.354  -9.968  1.00  0.00     0.000 C 
BRANCH  12  13
ATOM     13  C   UNL     1      13.943  31.214  -8.789  1.00  0.00    -0.000 C 
BRANCH  13  14
ATOM     14  C   UNL     1      14.617  32.548  -8.421  1.00  0.00    -0.000 C 
BRANCH  14  15
ATOM     15  C   UNL     1      16.148  32.506  -8.568  1.00  0.00    -0.000 C 
BRANCH  15  16
ATOM     16  C   UNL     1      16.662  31.755  -9.810  1.00  0.00    -0.000 C 
BRANCH  16  17
ATOM     17  C   UNL     1      16.355  32.491 -11.125  1.00  0.00    -0.000 C 
BRANCH  17  18
ATOM     18  C   UNL     1      16.205  34.007 -10.929  1.00  0.00    -0.003 C 
ATOM     19  C   UNL     1      14.767  34.488 -11.124  1.00  0.00     0.004 C 
ENDBRANCH  17  18
ENDBRANCH  16  17
ENDBRANCH  15  16
ENDBRANCH  14  15
ENDBRANCH  13  14
ENDBRANCH  12  13
ENDBRANCH   1  12
TORSDOF 14
ENDMDL
MODEL 3
REMARK VINA RESULT:    -2.662      4.945     10.417
REMARK INTER + INTRA:          -5.557
REMARK INTER:                  -4.891
REMARK INTRA:                  -0.667
REMARK UNBOUND:                -0.716
REMARK SMILES CCCCCCCCCCCCCC[C@@H](C)C(=O)[O-]
REMARK SMILES IDX 9 1 10 2 11 3 12 4 13 5 14 6 15 7 16 8 17 9 18 10 19 11 8 12
REMARK SMILES IDX 7 13 6 14 5 15 4 16 3 17 2 18 1 19
REMARK H PARENT
REMARK Flexibility Score: inf
ROOT
ATOM      1  C   UNL     1      22.532  21.825 -10.308  1.00  0.00     0.000 C 
ENDROOT
BRANCH   1   2
ATOM      2  C   UNL     1      23.307  22.998  -9.687  1.00  0.00     0.000 C 
BRANCH   2   3
ATOM      3  C   UNL     1      24.602  23.324 -10.450  1.00  0.00     0.000 C 
BRANCH   3   4
ATOM      4  C   UNL     1      25.580  22.140 -10.485  1.00  0.00     0.000 C 
BRANCH   4   5
ATOM      5  C   UNL     1      26.970  22.535 -11.008  1.00  0.00     0.001 C 
BRANCH   5   6
ATOM      6  C   UNL     1      27.106  24.063 -11.103  1.00  0.00     0.009 C 
BRANCH   6   7
ATOM      7  C   UNL     1      27.597  24.702  -9.785  1.00  0.00     0.032 C 
ATOM      8  C   UNL     1      28.809  23.966  -9.196  1.00  0.00     0.014 C 
BRANCH   7   9
ATOM      9  C   UNL     1      27.942  26.148 -10.014  1.00  0.00     0.044 C 
ATOM     10  O   UNL     1      27.492  26.762 -11.018  1.00  0.00    -0.550 OA
ATOM     11  O   UNL     1      28.764  26.816  -9.116  1.00  0.00    -0.550 OA
ENDBRANCH   7   9
ENDBRANCH   6   7
ENDBRANCH   5   6
ENDBRANCH   4   5
ENDBRANCH   3   4
ENDBRANCH   2   3
ENDBRANCH   1   2
BRANCH   1  12
ATOM     12  C   UNL     1      21.274  22.284 -11.066  1.00  0.00     0.000 C 
BRANCH  12  13
ATOM     13  C   UNL     1      20.191  21.193 -11.125  1.00  0.00    -0.000 C 
BRANCH  13  14
ATOM     14  C   UNL     1      20.662  19.863 -10.511  1.00  0.00    -0.000 C 
BRANCH  14  15
ATOM     15  C   UNL     1      19.954  18.639 -11.120  1.00  0.00    -0.000 C 
BRANCH  15  16
ATOM     16  C   UNL     1      18.416  18.704 -11.106  1.00  0.00    -0.000 C 
BRANCH  16  17
ATOM     17  C   UNL     1      17.771  17.474 -10.445  1.00  0.00    -0.000 C 
BRANCH  17  18
ATOM     18  C   UNL     1      16.414  17.796  -9.801  1.00  0.00    -0.003 C 
ATOM     19  C   UNL     1      15.831  19.123 -10.286  1.00  0.00     0.004 C 
ENDBRANCH  17  18
ENDBRANCH  16  17
ENDBRANCH  15  16
ENDBRANCH  14  15
ENDBRANCH  13  14
ENDBRANCH  12  13
ENDBRANCH   1  12
TORSDOF 14
ENDMDL
MODEL 4
REMARK VINA RESULT:    -2.644      2.119      2.583
REMARK INTER + INTRA:          -5.524
REMARK INTER:                  -5.016
REMARK INTRA:                  -0.508
REMARK UNBOUND:                -0.716
REMARK SMILES CCCCCCCCCCCCCC[C@@H](C)C(=O)[O-]
REMARK SMILES IDX 9 1 10 2 11 3 12 4 13 5 14 6 15 7 16 8 17 9 18 10 19 11 8 12
REMARK SMILES IDX 7 13 6 14 5 15 4 16 3 17 2 18 1 19
REMARK H PARENT
REMARK Flexibility Score: inf
ROOT
ATOM      1  C   UNL     1      21.463  21.806 -10.390  1.00  0.00     0.000 C 
ENDROOT
BRANCH   1   2
ATOM      2  C   UNL     1      22.146  20.447 -10.613  1.00  0.00     0.000 C 
BRANCH   2   3
ATOM      3  C   UNL     1      21.141  19.288 -10.721  1.00  0.00     0.000 C 
BRANCH   3   4
ATOM      4  C   UNL     1      19.736  19.762 -11.125  1.00  0.00     0.000 C 
BRANCH   4   5
ATOM      5  C   UNL     1      18.661  18.689 -10.893  1.00  0.00     0.001 C 
BRANCH   5   6
ATOM      6  C   UNL     1      17.254  19.307 -10.916  1.00  0.00     0.009 C 
BRANCH   6   7
ATOM      7  C   UNL     1      16.201  18.421 -10.213  1.00  0.00     0.032 C 
ATOM      8  C   UNL     1      16.723  17.827  -8.898  1.00  0.00     0.014 C 
BRANCH   7   9
ATOM      9  C   UNL     1      14.953  19.218  -9.952  1.00  0.00     0.044 C 
ATOM     10  O   UNL     1      14.067  18.783  -9.169  1.00  0.00    -0.550 OA
ATOM     11  O   UNL     1      14.769  20.444 -10.578  1.00  0.00    -0.550 OA
ENDBRANCH   7   9
ENDBRANCH   6   7
ENDBRANCH   5   6
ENDBRANCH   4   5
ENDBRANCH   3   4
ENDBRANCH   2   3
ENDBRANCH   1   2
BRANCH   1  12
ATOM     12  C   UNL     1      22.451  22.896  -9.938  1.00  0.00     0.000 C 
BRANCH  12  13
ATOM     13  C   UNL     1      23.915  22.436 -10.022  1.00  0.00    -0.000 C 
BRANCH  13  14
ATOM     14  C   UNL     1      24.710  23.194 -11.100  1.00  0.00    -0.000 C 
BRANCH  14  15
ATOM     15  C   UNL     1      26.217  23.263 -10.795  1.00  0.00    -0.000 C 
BRANCH  15  16
ATOM     16  C   UNL     1      27.000  21.970 -11.087  1.00  0.00    -0.000 C 
BRANCH  16  17
ATOM     17  C   UNL     1      28.483  22.066 -10.694  1.00  0.00    -0.000 C 
BRANCH  17  18
ATOM     18  C   UNL     1      28.962  23.519 -10.553  1.00  0.00    -0.003 C 
ATOM     19  C   UNL     1      28.928  24.014  -9.108  1.00  0.00     0.004 C 
ENDBRANCH  17  18
ENDBRANCH  16  17
ENDBRANCH  15  16
ENDBRANCH  14  15
ENDBRANCH  13  14
ENDBRANCH  12  13
ENDBRANCH   1  12
TORSDOF 14
ENDMDL
MODEL 5
REMARK VINA RESULT:    -2.365     12.418     15.718
REMARK INTER + INTRA:          -5.016
REMARK INTER:                  -4.069
REMARK INTRA:                  -0.947
REMARK UNBOUND:                -0.716
REMARK SMILES CCCCCCCCCCCCCC[C@@H](C)C(=O)[O-]
REMARK SMILES IDX 9 1 10 2 11 3 12 4 13 5 14 6 15 7 16 8 17 9 18 10 19 11 8 12
REMARK SMILES IDX 7 13 6 14 5 15 4 16 3 17 2 18 1 19
REMARK H PARENT
REMARK Flexibility Score: inf
ROOT
ATOM      1  C   UNL     1      28.853  25.457  -0.881  1.00  0.00     0.000 C 
ENDROOT
BRANCH   1   2
ATOM      2  C   UNL     1      27.814  25.855   0.180  1.00  0.00     0.000 C 
BRANCH   2   3
ATOM      3  C   UNL     1      27.969  25.062   1.488  1.00  0.00     0.000 C 
BRANCH   3   4
ATOM      4  C   UNL     1      29.080  25.622   2.390  1.00  0.00     0.000 C 
BRANCH   4   5
ATOM      5  C   UNL     1      28.530  26.428   3.576  1.00  0.00     0.001 C 
BRANCH   5   6
ATOM      6  C   UNL     1      29.125  27.845   3.600  1.00  0.00     0.009 C 
BRANCH   6   7
ATOM      7  C   UNL     1      28.234  28.853   4.361  1.00  0.00     0.032 C 
ATOM      8  C   UNL     1      28.456  28.798   5.879  1.00  0.00     0.014 C 
BRANCH   7   9
ATOM      9  C   UNL     1      28.495  30.247   3.859  1.00  0.00     0.044 C 
ATOM     10  O   UNL     1      28.628  31.205   4.667  1.00  0.00    -0.550 OA
ATOM     11  O   UNL     1      28.590  30.486   2.494  1.00  0.00    -0.550 OA
ENDBRANCH   7   9
ENDBRANCH   6   7
ENDBRANCH   5   6
ENDBRANCH   4   5
ENDBRANCH   3   4
ENDBRANCH   2   3
ENDBRANCH   1   2
BRANCH   1  12
ATOM     12  C   UNL     1      28.759  23.972  -1.273  1.00  0.00     0.000 C 
BRANCH  12  13
ATOM     13  C   UNL     1      27.341  23.567  -1.708  1.00  0.00    -0.000 C 
BRANCH  13  14
ATOM     14  C   UNL     1      27.339  22.713  -2.989  1.00  0.00    -0.000 C 
BRANCH  14  15
ATOM     15  C   UNL     1      28.757  22.414  -3.510  1.00  0.00    -0.000 C 
BRANCH  15  16
ATOM     16  C   UNL     1      29.124  20.921  -3.574  1.00  0.00    -0.000 C 
BRANCH  16  17
ATOM     17  C   UNL     1      27.896  19.998  -3.504  1.00  0.00    -0.000 C 
BRANCH  17  18
ATOM     18  C   UNL     1      27.752  19.314  -2.136  1.00  0.00    -0.003 C 
ATOM     19  C   UNL     1      29.098  19.062  -1.457  1.00  0.00     0.004 C 
ENDBRANCH  17  18
ENDBRANCH  16  17
ENDBRANCH  15  16
ENDBRANCH  14  15
ENDBRANCH  13  14
ENDBRANCH  12  13
ENDBRANCH   1  12
TORSDOF 14
ENDMDL
MODEL 6
REMARK VINA RESULT:    -2.346     13.477     16.781
REMARK INTER + INTRA:          -4.981
REMARK INTER:                  -4.238
REMARK INTRA:                  -0.743
REMARK UNBOUND:                -0.716
REMARK SMILES CCCCCCCCCCCCCC[C@@H](C)C(=O)[O-]
REMARK SMILES IDX 9 1 10 2 11 3 12 4 13 5 14 6 15 7 16 8 17 9 18 10 19 11 8 12
REMARK SMILES IDX 7 13 6 14 5 15 4 16 3 17 2 18 1 19
REMARK H PARENT
REMARK Flexibility Score: inf
ROOT
ATOM      1  C   UNL     1      26.992  25.207   1.065  1.00  0.00     0.000 C 
ENDROOT
BRANCH   1   2
ATOM      2  C   UNL     1      27.346  25.745   2.460  1.00  0.00     0.000 C 
BRANCH   2   3
ATOM      3  C   UNL     1      28.830  26.131   2.588  1.00  0.00     0.000 C 
BRANCH   3   4
ATOM      4  C   UNL     1      29.034  27.646   2.744  1.00  0.00     0.000 C 
BRANCH   4   5
ATOM      5  C   UNL     1      29.125  28.083   4.214  1.00  0.00     0.001 C 
BRANCH   5   6
ATOM      6  C   UNL     1      28.989  29.609   4.343  1.00  0.00     0.009 C 
BRANCH   6   7
ATOM      7  C   UNL     1      27.974  30.027   5.431  1.00  0.00     0.032 C 
ATOM      8  C   UNL     1      26.921  28.943   5.694  1.00  0.00     0.014 C 
BRANCH   7   9
ATOM      9  C   UNL     1      28.699  30.354   6.707  1.00  0.00     0.044 C 
ATOM     10  O   UNL     1      29.070  29.436   7.487  1.00  0.00    -0.550 OA
ATOM     11  O   UNL     1      28.963  31.677   7.036  1.00  0.00    -0.550 OA
ENDBRANCH   7   9
ENDBRANCH   6   7
ENDBRANCH   5   6
ENDBRANCH   4   5
ENDBRANCH   3   4
ENDBRANCH   2   3
ENDBRANCH   1   2
BRANCH   1  12
ATOM     12  C   UNL     1      28.238  24.880   0.224  1.00  0.00     0.000 C 
BRANCH  12  13
ATOM     13  C   UNL     1      27.885  24.443  -1.207  1.00  0.00    -0.000 C 
BRANCH  13  14
ATOM     14  C   UNL     1      28.602  23.145  -1.621  1.00  0.00    -0.000 C 
BRANCH  14  15
ATOM     15  C   UNL     1      27.969  22.480  -2.857  1.00  0.00    -0.000 C 
BRANCH  15  16
ATOM     16  C   UNL     1      28.873  21.468  -3.584  1.00  0.00    -0.000 C 
BRANCH  16  17
ATOM     17  C   UNL     1      28.287  20.046  -3.602  1.00  0.00    -0.000 C 
BRANCH  17  18
ATOM     18  C   UNL     1      27.962  19.525  -2.193  1.00  0.00    -0.003 C 
ATOM     19  C   UNL     1      29.014  18.548  -1.669  1.00  0.00     0.004 C 
ENDBRANCH  17  18
ENDBRANCH  16  17
ENDBRANCH  15  16
ENDBRANCH  14  15
ENDBRANCH  13  14
ENDBRANCH  12  13
ENDBRANCH   1  12
TORSDOF 14
ENDMDL
MODEL 7
REMARK VINA RESULT:    -2.188      8.696     11.972
REMARK INTER + INTRA:          -4.695
REMARK INTER:                  -4.043
REMARK INTRA:                  -0.651
REMARK UNBOUND:                -0.716
REMARK SMILES CCCCCCCCCCCCCC[C@@H](C)C(=O)[O-]
REMARK SMILES IDX 9 1 10 2 11 3 12 4 13 5 14 6 15 7 16 8 17 9 18 10 19 11 8 12
REMARK SMILES IDX 7 13 6 14 5 15 4 16 3 17 2 18 1 19
REMARK H PARENT
REMARK Flexibility Score: inf
ROOT
ATOM      1  C   UNL     1      28.081  22.668  -4.555  1.00  0.00     0.000 C 
ENDROOT
BRANCH   1   2
ATOM      2  C   UNL     1      29.125  22.794  -5.677  1.00  0.00     0.000 C 
BRANCH   2   3
ATOM      3  C   UNL     1      28.772  23.894  -6.694  1.00  0.00     0.000 C 
BRANCH   3   4
ATOM      4  C   UNL     1      28.863  23.404  -8.148  1.00  0.00     0.000 C 
BRANCH   4   5
ATOM      5  C   UNL     1      29.084  24.551  -9.145  1.00  0.00     0.001 C 
BRANCH   5   6
ATOM      6  C   UNL     1      28.434  25.850  -8.643  1.00  0.00     0.009 C 
BRANCH   6   7
ATOM      7  C   UNL     1      28.522  26.999  -9.672  1.00  0.00     0.032 C 
ATOM      8  C   UNL     1      29.122  26.540 -11.009  1.00  0.00     0.014 C 
BRANCH   7   9
ATOM      9  C   UNL     1      27.157  27.586  -9.902  1.00  0.00     0.044 C 
ATOM     10  O   UNL     1      26.920  28.789  -9.610  1.00  0.00    -0.550 OA
ATOM     11  O   UNL     1      26.144  26.800 -10.437  1.00  0.00    -0.550 OA
ENDBRANCH   7   9
ENDBRANCH   6   7
ENDBRANCH   5   6
ENDBRANCH   4   5
ENDBRANCH   3   4
ENDBRANCH   2   3
ENDBRANCH   1   2
BRANCH   1  12
ATOM     12  C   UNL     1      28.671  22.962  -3.165  1.00  0.00     0.000 C 
BRANCH  12  13
ATOM     13  C   UNL     1      28.784  21.699  -2.295  1.00  0.00    -0.000 C 
BRANCH  13  14
ATOM     14  C   UNL     1      27.617  20.722  -2.520  1.00  0.00    -0.000 C 
BRANCH  14  15
ATOM     15  C   UNL     1      28.083  19.269  -2.724  1.00  0.00    -0.000 C 
BRANCH  15  16
ATOM     16  C   UNL     1      28.588  18.563  -1.452  1.00  0.00    -0.000 C 
BRANCH  16  17
ATOM     17  C   UNL     1      27.837  17.254  -1.157  1.00  0.00    -0.000 C 
BRANCH  17  18
ATOM     18  C   UNL     1      27.810  16.917   0.342  1.00  0.00    -0.003 C 
ATOM     19  C   UNL     1      26.393  16.891   0.915  1.00  0.00     0.004 C 
ENDBRANCH  17  18
ENDBRANCH  16  17
ENDBRANCH  15  16
ENDBRANCH  14  15
ENDBRANCH  13  14
ENDBRANCH  12  13
ENDBRANCH   1  12
TORSDOF 14
ENDMDL
MODEL 8
REMARK VINA RESULT:    -2.184     11.214     13.336
REMARK INTER + INTRA:          -4.688
REMARK INTER:                  -4.079
REMARK INTRA:                  -0.609
REMARK UNBOUND:                -0.716
REMARK SMILES CCCCCCCCCCCCCC[C@@H](C)C(=O)[O-]
REMARK SMILES IDX 9 1 10 2 11 3 12 4 13 5 14 6 15 7 16 8 17 9 18 10 19 11 8 12
REMARK SMILES IDX 7 13 6 14 5 15 4 16 3 17 2 18 1 19
REMARK H PARENT
REMARK Flexibility Score: inf
ROOT
ATOM      1  C   UNL     1      26.509  24.699  -0.121  1.00  0.00     0.000 C 
ENDROOT
BRANCH   1   2
ATOM      2  C   UNL     1      26.759  24.095  -1.513  1.00  0.00     0.000 C 
BRANCH   2   3
ATOM      3  C   UNL     1      28.186  24.353  -2.024  1.00  0.00     0.000 C 
BRANCH   3   4
ATOM      4  C   UNL     1      28.637  23.315  -3.064  1.00  0.00     0.000 C 
BRANCH   4   5
ATOM      5  C   UNL     1      28.732  21.897  -2.482  1.00  0.00     0.001 C 
BRANCH   5   6
ATOM      6  C   UNL     1      29.026  20.869  -3.586  1.00  0.00     0.009 C 
BRANCH   6   7
ATOM      7  C   UNL     1      28.011  19.703  -3.602  1.00  0.00     0.032 C 
ATOM      8  C   UNL     1      28.157  18.820  -4.848  1.00  0.00     0.014 C 
BRANCH   7   9
ATOM      9  C   UNL     1      28.172  18.867  -2.363  1.00  0.00     0.044 C 
ATOM     10  O   UNL     1      27.450  19.075  -1.351  1.00  0.00    -0.550 OA
ATOM     11  O   UNL     1      29.125  17.857  -2.326  1.00  0.00    -0.550 OA
ENDBRANCH   7   9
ENDBRANCH   6   7
ENDBRANCH   5   6
ENDBRANCH   4   5
ENDBRANCH   3   4
ENDBRANCH   2   3
ENDBRANCH   1   2
BRANCH   1  12
ATOM     12  C   UNL     1      27.775  25.332   0.483  1.00  0.00     0.000 C 
BRANCH  12  13
ATOM     13  C   UNL     1      27.726  25.393   2.019  1.00  0.00    -0.000 C 
BRANCH  13  14
ATOM     14  C   UNL     1      29.118  25.599   2.644  1.00  0.00    -0.000 C 
BRANCH  14  15
ATOM     15  C   UNL     1      29.087  26.503   3.890  1.00  0.00    -0.000 C 
BRANCH  15  16
ATOM     16  C   UNL     1      29.117  28.014   3.597  1.00  0.00    -0.000 C 
BRANCH  16  17
ATOM     17  C   UNL     1      28.117  28.810   4.452  1.00  0.00    -0.000 C 
BRANCH  17  18
ATOM     18  C   UNL     1      28.169  30.319   4.167  1.00  0.00    -0.003 C 
ATOM     19  C   UNL     1      28.632  31.132   5.376  1.00  0.00     0.004 C 
ENDBRANCH  17  18
ENDBRANCH  16  17
ENDBRANCH  15  16
ENDBRANCH  14  15
ENDBRANCH  13  14
ENDBRANCH  12  13
ENDBRANCH   1  12
TORSDOF 14
ENDMDL
MODEL 9
REMARK VINA RESULT:    -1.537     11.962     14.472
REMARK INTER + INTRA:          -3.511
REMARK INTER:                  -2.888
REMARK INTRA:                  -0.623
REMARK UNBOUND:                -0.716
REMARK SMILES CCCCCCCCCCCCCC[C@@H](C)C(=O)[O-]
REMARK SMILES IDX 9 1 10 2 11 3 12 4 13 5 14 6 15 7 16 8 17 9 18 10 19 11 8 12
REMARK SMILES IDX 7 13 6 14 5 15 4 16 3 17 2 18 1 19
REMARK H PARENT
REMARK Flexibility Score: inf
ROOT
ATOM      1  C   UNL     1      27.229  25.786   1.333  1.00  0.00     0.000 C 
ENDROOT
BRANCH   1   2
ATOM      2  C   UNL     1      27.735  24.654   0.424  1.00  0.00     0.000 C 
BRANCH   2   3
ATOM      3  C   UNL     1      28.389  25.176  -0.866  1.00  0.00     0.000 C 
BRANCH   3   4
ATOM      4  C   UNL     1      27.700  24.646  -2.133  1.00  0.00     0.000 C 
BRANCH   4   5
ATOM      5  C   UNL     1      28.667  23.902  -3.066  1.00  0.00     0.001 C 
BRANCH   5   6
ATOM      6  C   UNL     1      28.926  22.473  -2.562  1.00  0.00     0.009 C 
BRANCH   6   7
ATOM      7  C   UNL     1      28.352  21.394  -3.508  1.00  0.00     0.032 C 
ATOM      8  C   UNL     1      29.125  21.307  -4.831  1.00  0.00     0.014 C 
BRANCH   7   9
ATOM      9  C   UNL     1      28.363  20.056  -2.823  1.00  0.00     0.044 C 
ATOM     10  O   UNL     1      27.707  19.089  -3.295  1.00  0.00    -0.550 OA
ATOM     11  O   UNL     1      29.099  19.878  -1.658  1.00  0.00    -0.550 OA
ENDBRANCH   7   9
ENDBRANCH   6   7
ENDBRANCH   5   6
ENDBRANCH   4   5
ENDBRANCH   3   4
ENDBRANCH   2   3
ENDBRANCH   1   2
BRANCH   1  12
ATOM     12  C   UNL     1      27.984  25.850   2.672  1.00  0.00     0.000 C 
BRANCH  12  13
ATOM     13  C   UNL     1      29.036  26.971   2.702  1.00  0.00    -0.000 C 
BRANCH  13  14
ATOM     14  C   UNL     1      29.122  27.663   4.074  1.00  0.00    -0.000 C 
BRANCH  14  15
ATOM     15  C   UNL     1      28.771  29.160   4.012  1.00  0.00    -0.000 C 
BRANCH  15  16
ATOM     16  C   UNL     1      27.561  29.580   4.867  1.00  0.00    -0.000 C 
BRANCH  16  17
ATOM     17  C   UNL     1      27.745  29.264   6.360  1.00  0.00    -0.000 C 
BRANCH  17  18
ATOM     18  C   UNL     1      29.028  29.880   6.939  1.00  0.00    -0.003 C 
ATOM     19  C   UNL     1      29.111  31.389   6.714  1.00  0.00     0.004 C 
ENDBRANCH  17  18
ENDBRANCH  16  17
ENDBRANCH  15  16
ENDBRANCH  14  15
ENDBRANCH  13  14
ENDBRANCH  12  13
ENDBRANCH   1  12
TORSDOF 14
ENDMDL
