MODEL 1
REMARK VINA RESULT:    -4.593      0.000      0.000
REMARK INTER + INTRA:          -5.812
REMARK INTER:                  -5.668
REMARK INTRA:                  -0.145
REMARK UNBOUND:                -0.145
REMARK SMILES CCCCCC(=O)[O-]
REMARK SMILES IDX 4 1 5 2 6 3 7 4 8 5 3 6 2 7 1 8
REMARK H PARENT
REMARK Flexibility Score: inf
ROOT
ATOM      1  C   UNL     1      89.293  -6.989  -6.010  1.00  0.00     0.006 C 
ENDROOT
BRANCH   1   2
ATOM      2  C   UNL     1      90.391  -7.812  -5.329  1.00  0.00     0.053 C 
BRANCH   2   3
ATOM      3  C   UNL     1      89.806  -8.692  -4.270  1.00  0.00     0.041 C 
ATOM      4  O   UNL     1      89.042  -9.641  -4.586  1.00  0.00    -0.550 OA
ATOM      5  O   UNL     1      90.146  -8.496  -2.937  1.00  0.00    -0.550 OA
ENDBRANCH   2   3
ENDBRANCH   1   2
BRANCH   1   6
ATOM      6  C   UNL     1      88.510  -6.161  -4.980  1.00  0.00     0.000 C 
BRANCH   6   7
ATOM      7  C   UNL     1      88.547  -4.655  -5.282  1.00  0.00    -0.003 C 
ATOM      8  C   UNL     1      88.551  -4.353  -6.780  1.00  0.00     0.004 C 
ENDBRANCH   6   7
ENDBRANCH   1   6
TORSDOF 4
ENDMDL
MODEL 2
REMARK VINA RESULT:    -4.551     19.995     21.148
REMARK INTER + INTRA:          -5.759
REMARK INTER:                  -5.598
REMARK INTRA:                  -0.162
REMARK UNBOUND:                -0.145
REMARK SMILES CCCCCC(=O)[O-]
REMARK SMILES IDX 4 1 5 2 6 3 7 4 8 5 3 6 2 7 1 8
REMARK H PARENT
REMARK Flexibility Score: inf
ROOT
ATOM      1  C   UNL     1      93.808   7.014  10.774  1.00  0.00     0.006 C 
ENDROOT
BRANCH   1   2
ATOM      2  C   UNL     1      92.411   7.487  10.358  1.00  0.00     0.053 C 
BRANCH   2   3
ATOM      3  C   UNL     1      91.358   6.746  11.121  1.00  0.00     0.041 C 
ATOM      4  O   UNL     1      91.418   6.673  12.376  1.00  0.00    -0.550 OA
ATOM      5  O   UNL     1      90.282   6.179  10.448  1.00  0.00    -0.550 OA
ENDBRANCH   2   3
ENDBRANCH   1   2
BRANCH   1   6
ATOM      6  C   UNL     1      94.153   5.673  10.110  1.00  0.00     0.000 C 
BRANCH   6   7
ATOM      7  C   UNL     1      94.771   5.848   8.713  1.00  0.00    -0.003 C 
ATOM      8  C   UNL     1      95.886   6.891   8.687  1.00  0.00     0.004 C 
ENDBRANCH   6   7
ENDBRANCH   1   6
TORSDOF 4
ENDMDL
MODEL 3
REMARK VINA RESULT:    -4.361      2.801      4.360
REMARK INTER + INTRA:          -5.525
REMARK INTER:                  -5.428
REMARK INTRA:                  -0.097
REMARK UNBOUND:                -0.145
REMARK SMILES CCCCCC(=O)[O-]
REMARK SMILES IDX 4 1 5 2 6 3 7 4 8 5 3 6 2 7 1 8
REMARK H PARENT
REMARK Flexibility Score: inf
ROOT
ATOM      1  C   UNL     1      89.451  -7.356  -5.591  1.00  0.00     0.006 C 
ENDROOT
BRANCH   1   2
ATOM      2  C   UNL     1      88.412  -6.557  -6.383  1.00  0.00     0.053 C 
BRANCH   2   3
ATOM      3  C   UNL     1      88.459  -5.112  -6.000  1.00  0.00     0.041 C 
ATOM      4  O   UNL     1      88.475  -4.778  -4.787  1.00  0.00    -0.550 OA
ATOM      5  O   UNL     1      88.536  -4.134  -6.985  1.00  0.00    -0.550 OA
ENDBRANCH   2   3
ENDBRANCH   1   2
BRANCH   1   6
ATOM      6  C   UNL     1      88.877  -8.706  -5.138  1.00  0.00     0.000 C 
BRANCH   6   7
ATOM      7  C   UNL     1      89.710  -9.359  -4.023  1.00  0.00    -0.003 C 
ATOM      8  C   UNL     1      90.006  -8.401  -2.871  1.00  0.00     0.004 C 
ENDBRANCH   6   7
ENDBRANCH   1   6
TORSDOF 4
ENDMDL
MODEL 4
REMARK VINA RESULT:    -4.335     19.990     20.980
REMARK INTER + INTRA:          -5.493
REMARK INTER:                  -5.405
REMARK INTRA:                  -0.088
REMARK UNBOUND:                -0.145
REMARK SMILES CCCCCC(=O)[O-]
REMARK SMILES IDX 4 1 5 2 6 3 7 4 8 5 3 6 2 7 1 8
REMARK H PARENT
REMARK Flexibility Score: inf
ROOT
ATOM      1  C   UNL     1      92.761   7.058  10.431  1.00  0.00     0.006 C 
ENDROOT
BRANCH   1   2
ATOM      2  C   UNL     1      94.288   6.980  10.522  1.00  0.00     0.053 C 
BRANCH   2   3
ATOM      3  C   UNL     1      94.858   6.384   9.274  1.00  0.00     0.041 C 
ATOM      4  O   UNL     1      95.826   6.940   8.691  1.00  0.00    -0.550 OA
ATOM      5  O   UNL     1      94.352   5.187   8.781  1.00  0.00    -0.550 OA
ENDBRANCH   2   3
ENDBRANCH   1   2
BRANCH   1   6
ATOM      6  C   UNL     1      92.115   6.777  11.796  1.00  0.00     0.000 C 
BRANCH   6   7
ATOM      7  C   UNL     1      90.605   6.507  11.691  1.00  0.00    -0.003 C 
ATOM      8  C   UNL     1      90.262   5.498  10.596  1.00  0.00     0.004 C 
ENDBRANCH   6   7
ENDBRANCH   1   6
TORSDOF 4
ENDMDL
MODEL 5
REMARK VINA RESULT:    -4.176     15.331     16.331
REMARK INTER + INTRA:          -5.297
REMARK INTER:                  -5.084
REMARK INTRA:                  -0.213
REMARK UNBOUND:                -0.145
REMARK SMILES CCCCCC(=O)[O-]
REMARK SMILES IDX 4 1 5 2 6 3 7 4 8 5 3 6 2 7 1 8
REMARK H PARENT
REMARK Flexibility Score: inf
ROOT
ATOM      1  C   UNL     1      94.291  -3.787  10.469  1.00  0.00     0.006 C 
ENDROOT
BRANCH   1   2
ATOM      2  C   UNL     1      93.507  -4.176   9.212  1.00  0.00     0.053 C 
BRANCH   2   3
ATOM      3  C   UNL     1      93.695  -3.149   8.139  1.00  0.00     0.041 C 
ATOM      4  O   UNL     1      94.850  -2.747   7.843  1.00  0.00    -0.550 OA
ATOM      5  O   UNL     1      92.597  -2.674   7.432  1.00  0.00    -0.550 OA
ENDBRANCH   2   3
ENDBRANCH   1   2
BRANCH   1   6
ATOM      6  C   UNL     1      95.345  -4.852  10.809  1.00  0.00     0.000 C 
BRANCH   6   7
ATOM      7  C   UNL     1      96.769  -4.277  10.861  1.00  0.00    -0.003 C 
ATOM      8  C   UNL     1      96.788  -2.750  10.913  1.00  0.00     0.004 C 
ENDBRANCH   6   7
ENDBRANCH   1   6
TORSDOF 4
ENDMDL
MODEL 6
REMARK VINA RESULT:    -4.109     15.852     16.742
REMARK INTER + INTRA:          -5.215
REMARK INTER:                  -4.966
REMARK INTRA:                  -0.248
REMARK UNBOUND:                -0.145
REMARK SMILES CCCCCC(=O)[O-]
REMARK SMILES IDX 4 1 5 2 6 3 7 4 8 5 3 6 2 7 1 8
REMARK H PARENT
REMARK Flexibility Score: inf
ROOT
ATOM      1  C   UNL     1      95.234  -4.939  10.535  1.00  0.00     0.006 C 
ENDROOT
BRANCH   1   2
ATOM      2  C   UNL     1      96.568  -4.384  11.044  1.00  0.00     0.053 C 
BRANCH   2   3
ATOM      3  C   UNL     1      97.068  -3.306  10.135  1.00  0.00     0.041 C 
ATOM      4  O   UNL     1      97.272  -2.146  10.579  1.00  0.00    -0.550 OA
ATOM      5  O   UNL     1      97.359  -3.596   8.807  1.00  0.00    -0.550 OA
ENDBRANCH   2   3
ENDBRANCH   1   2
BRANCH   1   6
ATOM      6  C   UNL     1      94.189  -3.821  10.403  1.00  0.00     0.000 C 
BRANCH   6   7
ATOM      7  C   UNL     1      93.381  -3.918   9.099  1.00  0.00    -0.003 C 
ATOM      8  C   UNL     1      93.950  -3.041   7.985  1.00  0.00     0.004 C 
ENDBRANCH   6   7
ENDBRANCH   1   6
TORSDOF 4
ENDMDL
MODEL 7
REMARK VINA RESULT:    -4.106     10.117     10.714
REMARK INTER + INTRA:          -5.211
REMARK INTER:                  -4.998
REMARK INTRA:                  -0.213
REMARK UNBOUND:                -0.145
REMARK SMILES CCCCCC(=O)[O-]
REMARK SMILES IDX 4 1 5 2 6 3 7 4 8 5 3 6 2 7 1 8
REMARK H PARENT
REMARK Flexibility Score: inf
ROOT
ATOM      1  C   UNL     1      82.470  -3.977   2.279  1.00  0.00     0.006 C 
ENDROOT
BRANCH   1   2
ATOM      2  C   UNL     1      83.413  -3.356   3.314  1.00  0.00     0.053 C 
BRANCH   2   3
ATOM      3  C   UNL     1      84.522  -2.617   2.634  1.00  0.00     0.041 C 
ATOM      4  O   UNL     1      85.689  -2.652   3.106  1.00  0.00    -0.550 OA
ATOM      5  O   UNL     1      84.278  -1.930   1.451  1.00  0.00    -0.550 OA
ENDBRANCH   2   3
ENDBRANCH   1   2
BRANCH   1   6
ATOM      6  C   UNL     1      81.061  -3.377   2.390  1.00  0.00     0.000 C 
BRANCH   6   7
ATOM      7  C   UNL     1      80.601  -2.703   1.088  1.00  0.00    -0.003 C 
ATOM      8  C   UNL     1      81.357  -3.213  -0.139  1.00  0.00     0.004 C 
ENDBRANCH   6   7
ENDBRANCH   1   6
TORSDOF 4
ENDMDL
MODEL 8
REMARK VINA RESULT:    -4.053     10.082     10.943
REMARK INTER + INTRA:          -5.145
REMARK INTER:                  -4.904
REMARK INTRA:                  -0.241
REMARK UNBOUND:                -0.145
REMARK SMILES CCCCCC(=O)[O-]
REMARK SMILES IDX 4 1 5 2 6 3 7 4 8 5 3 6 2 7 1 8
REMARK H PARENT
REMARK Flexibility Score: inf
ROOT
ATOM      1  C   UNL     1      83.036  -3.746   2.642  1.00  0.00     0.006 C 
ENDROOT
BRANCH   1   2
ATOM      2  C   UNL     1      81.511  -3.607   2.683  1.00  0.00     0.053 C 
BRANCH   2   3
ATOM      3  C   UNL     1      80.966  -3.403   1.304  1.00  0.00     0.041 C 
ATOM      4  O   UNL     1      80.180  -2.449   1.069  1.00  0.00    -0.550 OA
ATOM      5  O   UNL     1      81.366  -4.238   0.268  1.00  0.00    -0.550 OA
ENDBRANCH   2   3
ENDBRANCH   1   2
BRANCH   1   6
ATOM      6  C   UNL     1      83.715  -2.379   2.809  1.00  0.00     0.000 C 
BRANCH   6   7
ATOM      7  C   UNL     1      84.296  -1.843   1.490  1.00  0.00    -0.003 C 
ATOM      8  C   UNL     1      83.461  -0.709   0.896  1.00  0.00     0.004 C 
ENDBRANCH   6   7
ENDBRANCH   1   6
TORSDOF 4
ENDMDL
MODEL 9
REMARK VINA RESULT:    -4.002     10.392     11.437
REMARK INTER + INTRA:          -5.083
REMARK INTER:                  -4.828
REMARK INTRA:                  -0.255
REMARK UNBOUND:                -0.145
REMARK SMILES CCCCCC(=O)[O-]
REMARK SMILES IDX 4 1 5 2 6 3 7 4 8 5 3 6 2 7 1 8
REMARK H PARENT
REMARK Flexibility Score: inf
ROOT
ATOM      1  C   UNL     1      82.297  -2.869   0.595  1.00  0.00     0.006 C 
ENDROOT
BRANCH   1   2
ATOM      2  C   UNL     1      82.080  -1.431   0.114  1.00  0.00     0.053 C 
BRANCH   2   3
ATOM      3  C   UNL     1      82.939  -0.483   0.890  1.00  0.00     0.041 C 
ATOM      4  O   UNL     1      84.009  -0.045   0.391  1.00  0.00    -0.550 OA
ATOM      5  O   UNL     1      82.534  -0.044   2.144  1.00  0.00    -0.550 OA
ENDBRANCH   2   3
ENDBRANCH   1   2
BRANCH   1   6
ATOM      6  C   UNL     1      81.069  -3.383   1.360  1.00  0.00     0.000 C 
BRANCH   6   7
ATOM      7  C   UNL     1      81.294  -3.424   2.880  1.00  0.00    -0.003 C 
ATOM      8  C   UNL     1      82.774  -3.450   3.257  1.00  0.00     0.004 C 
ENDBRANCH   6   7
ENDBRANCH   1   6
TORSDOF 4
ENDMDL
