MODEL 1
REMARK VINA RESULT:    -3.292      0.000      0.000
REMARK INTER + INTRA:          -4.588
REMARK INTER:                  -4.255
REMARK INTRA:                  -0.333
REMARK UNBOUND:                -0.333
REMARK SMILES CCCCCCC(=O)[O-]
REMARK SMILES IDX 5 1 6 2 7 3 8 4 9 5 4 6 3 7 2 8 1 9
REMARK H PARENT
REMARK Flexibility Score: inf
ROOT
ATOM      1  C   UNL     1       9.594  15.470  32.033  1.00  0.00     0.006 C 
ENDROOT
BRANCH   1   2
ATOM      2  C   UNL     1       9.434  13.955  32.195  1.00  0.00     0.053 C 
BRANCH   2   3
ATOM      3  C   UNL     1       8.988  13.335  30.909  1.00  0.00     0.041 C 
ATOM      4  O   UNL     1       9.810  13.160  29.971  1.00  0.00    -0.550 OA
ATOM      5  O   UNL     1       7.654  12.994  30.728  1.00  0.00    -0.550 OA
ENDBRANCH   2   3
ENDBRANCH   1   2
BRANCH   1   6
ATOM      6  C   UNL     1      11.039  15.903  32.311  1.00  0.00     0.000 C 
BRANCH   6   7
ATOM      7  C   UNL     1      11.891  15.826  31.035  1.00  0.00    -0.000 C 
BRANCH   7   8
ATOM      8  C   UNL     1      11.211  16.496  29.831  1.00  0.00    -0.003 C 
ATOM      9  C   UNL     1      11.938  16.225  28.515  1.00  0.00     0.004 C 
ENDBRANCH   7   8
ENDBRANCH   6   7
ENDBRANCH   1   6
TORSDOF 5
ENDMDL
MODEL 2
REMARK VINA RESULT:    -3.155      2.057      3.201
REMARK INTER + INTRA:          -4.410
REMARK INTER:                  -4.186
REMARK INTRA:                  -0.224
REMARK UNBOUND:                -0.333
REMARK SMILES CCCCCCC(=O)[O-]
REMARK SMILES IDX 5 1 6 2 7 3 8 4 9 5 4 6 3 7 2 8 1 9
REMARK H PARENT
REMARK Flexibility Score: inf
ROOT
ATOM      1  C   UNL     1       8.204  12.860  30.916  1.00  0.00     0.006 C 
ENDROOT
BRANCH   1   2
ATOM      2  C   UNL     1       7.028  13.060  31.878  1.00  0.00     0.053 C 
BRANCH   2   3
ATOM      3  C   UNL     1       6.283  11.776  32.066  1.00  0.00     0.041 C 
ATOM      4  O   UNL     1       6.847  10.676  31.833  1.00  0.00    -0.550 OA
ATOM      5  O   UNL     1       4.949  11.799  32.453  1.00  0.00    -0.550 OA
ENDBRANCH   2   3
ENDBRANCH   1   2
BRANCH   1   6
ATOM      6  C   UNL     1       9.529  13.264  31.576  1.00  0.00     0.000 C 
BRANCH   6   7
ATOM      7  C   UNL     1       9.358  14.538  32.417  1.00  0.00    -0.000 C 
BRANCH   7   8
ATOM      8  C   UNL     1      10.564  15.484  32.308  1.00  0.00    -0.003 C 
ATOM      9  C   UNL     1      11.222  15.447  30.930  1.00  0.00     0.004 C 
ENDBRANCH   7   8
ENDBRANCH   6   7
ENDBRANCH   1   6
TORSDOF 5
ENDMDL
MODEL 3
REMARK VINA RESULT:    -3.130     11.757     13.156
REMARK INTER + INTRA:          -4.378
REMARK INTER:                  -4.207
REMARK INTRA:                  -0.171
REMARK UNBOUND:                -0.333
REMARK SMILES CCCCCCC(=O)[O-]
REMARK SMILES IDX 5 1 6 2 7 3 8 4 9 5 4 6 3 7 2 8 1 9
REMARK H PARENT
REMARK Flexibility Score: inf
ROOT
ATOM      1  C   UNL     1      15.216  20.338  21.678  1.00  0.00     0.006 C 
ENDROOT
BRANCH   1   2
ATOM      2  C   UNL     1      15.845  20.478  23.068  1.00  0.00     0.053 C 
BRANCH   2   3
ATOM      3  C   UNL     1      17.315  20.733  22.954  1.00  0.00     0.041 C 
ATOM      4  O   UNL     1      17.800  21.827  23.342  1.00  0.00    -0.550 OA
ATOM      5  O   UNL     1      18.142  19.779  22.374  1.00  0.00    -0.550 OA
ENDBRANCH   2   3
ENDBRANCH   1   2
BRANCH   1   6
ATOM      6  C   UNL     1      14.947  21.714  21.055  1.00  0.00     0.000 C 
BRANCH   6   7
ATOM      7  C   UNL     1      13.529  21.783  20.471  1.00  0.00    -0.000 C 
BRANCH   7   8
ATOM      8  C   UNL     1      13.421  22.770  19.298  1.00  0.00    -0.003 C 
ATOM      9  C   UNL     1      14.768  23.378  18.911  1.00  0.00     0.004 C 
ENDBRANCH   7   8
ENDBRANCH   6   7
ENDBRANCH   1   6
TORSDOF 5
ENDMDL
MODEL 4
REMARK VINA RESULT:    -3.127      1.365      2.360
REMARK INTER + INTRA:          -4.375
REMARK INTER:                  -4.132
REMARK INTRA:                  -0.243
REMARK UNBOUND:                -0.333
REMARK SMILES CCCCCCC(=O)[O-]
REMARK SMILES IDX 5 1 6 2 7 3 8 4 9 5 4 6 3 7 2 8 1 9
REMARK H PARENT
REMARK Flexibility Score: inf
ROOT
ATOM      1  C   UNL     1      11.787  16.163  31.273  1.00  0.00     0.006 C 
ENDROOT
BRANCH   1   2
ATOM      2  C   UNL     1      10.903  15.811  32.474  1.00  0.00     0.053 C 
BRANCH   2   3
ATOM      3  C   UNL     1       9.921  14.744  32.106  1.00  0.00     0.041 C 
ATOM      4  O   UNL     1       8.887  14.567  32.802  1.00  0.00    -0.550 OA
ATOM      5  O   UNL     1      10.173  13.912  31.023  1.00  0.00    -0.550 OA
ENDBRANCH   2   3
ENDBRANCH   1   2
BRANCH   1   6
ATOM      6  C   UNL     1      11.471  17.570  30.750  1.00  0.00     0.000 C 
BRANCH   6   7
ATOM      7  C   UNL     1      11.441  17.590  29.215  1.00  0.00    -0.000 C 
BRANCH   7   8
ATOM      8  C   UNL     1      11.903  16.260  28.597  1.00  0.00    -0.003 C 
ATOM      9  C   UNL     1      12.670  16.450  27.290  1.00  0.00     0.004 C 
ENDBRANCH   7   8
ENDBRANCH   6   7
ENDBRANCH   1   6
TORSDOF 5
ENDMDL
MODEL 5
REMARK VINA RESULT:    -3.095      3.368      4.796
REMARK INTER + INTRA:          -4.333
REMARK INTER:                  -4.132
REMARK INTRA:                  -0.201
REMARK UNBOUND:                -0.333
REMARK SMILES CCCCCCC(=O)[O-]
REMARK SMILES IDX 5 1 6 2 7 3 8 4 9 5 4 6 3 7 2 8 1 9
REMARK H PARENT
REMARK Flexibility Score: inf
ROOT
ATOM      1  C   UNL     1      11.742  16.232  28.835  1.00  0.00     0.006 C 
ENDROOT
BRANCH   1   2
ATOM      2  C   UNL     1      11.496  17.547  29.582  1.00  0.00     0.053 C 
BRANCH   2   3
ATOM      3  C   UNL     1      11.525  17.323  31.061  1.00  0.00     0.041 C 
ATOM      4  O   UNL     1      10.995  18.158  31.839  1.00  0.00    -0.550 OA
ATOM      5  O   UNL     1      12.180  16.214  31.582  1.00  0.00    -0.550 OA
ENDBRANCH   2   3
ENDBRANCH   1   2
BRANCH   1   6
ATOM      6  C   UNL     1      12.585  16.464  27.575  1.00  0.00     0.000 C 
BRANCH   6   7
ATOM      7  C   UNL     1      12.856  17.961  27.364  1.00  0.00    -0.000 C 
BRANCH   7   8
ATOM      8  C   UNL     1      13.890  18.224  26.259  1.00  0.00    -0.003 C 
ATOM      9  C   UNL     1      15.262  17.632  26.580  1.00  0.00     0.004 C 
ENDBRANCH   7   8
ENDBRANCH   6   7
ENDBRANCH   1   6
TORSDOF 5
ENDMDL
MODEL 6
REMARK VINA RESULT:    -3.086     11.759     12.514
REMARK INTER + INTRA:          -4.322
REMARK INTER:                  -4.167
REMARK INTRA:                  -0.154
REMARK UNBOUND:                -0.333
REMARK SMILES CCCCCCC(=O)[O-]
REMARK SMILES IDX 5 1 6 2 7 3 8 4 9 5 4 6 3 7 2 8 1 9
REMARK H PARENT
REMARK Flexibility Score: inf
ROOT
ATOM      1  C   UNL     1      17.443  22.010  23.650  1.00  0.00     0.006 C 
ENDROOT
BRANCH   1   2
ATOM      2  C   UNL     1      15.947  22.279  23.462  1.00  0.00     0.053 C 
BRANCH   2   3
ATOM      3  C   UNL     1      15.523  23.466  24.269  1.00  0.00     0.041 C 
ATOM      4  O   UNL     1      16.070  24.585  24.086  1.00  0.00    -0.550 OA
ATOM      5  O   UNL     1      14.557  23.324  25.257  1.00  0.00    -0.550 OA
ENDBRANCH   2   3
ENDBRANCH   1   2
BRANCH   1   6
ATOM      6  C   UNL     1      17.819  20.613  23.140  1.00  0.00     0.000 C 
BRANCH   6   7
ATOM      7  C   UNL     1      17.128  20.314  21.801  1.00  0.00    -0.000 C 
BRANCH   7   8
ATOM      8  C   UNL     1      17.300  18.851  21.361  1.00  0.00    -0.003 C 
ATOM      9  C   UNL     1      16.014  18.038  21.497  1.00  0.00     0.004 C 
ENDBRANCH   7   8
ENDBRANCH   6   7
ENDBRANCH   1   6
TORSDOF 5
ENDMDL
MODEL 7
REMARK VINA RESULT:    -3.079     11.947     12.562
REMARK INTER + INTRA:          -4.313
REMARK INTER:                  -4.213
REMARK INTRA:                  -0.099
REMARK UNBOUND:                -0.333
REMARK SMILES CCCCCCC(=O)[O-]
REMARK SMILES IDX 5 1 6 2 7 3 8 4 9 5 4 6 3 7 2 8 1 9
REMARK H PARENT
REMARK Flexibility Score: inf
ROOT
ATOM      1  C   UNL     1      15.847  22.826  23.498  1.00  0.00     0.006 C 
ENDROOT
BRANCH   1   2
ATOM      2  C   UNL     1      15.948  24.248  24.059  1.00  0.00     0.053 C 
BRANCH   2   3
ATOM      3  C   UNL     1      14.796  24.535  24.969  1.00  0.00     0.041 C 
ATOM      4  O   UNL     1      14.858  24.226  26.187  1.00  0.00    -0.550 OA
ATOM      5  O   UNL     1      13.634  25.101  24.459  1.00  0.00    -0.550 OA
ENDBRANCH   2   3
ENDBRANCH   1   2
BRANCH   1   6
ATOM      6  C   UNL     1      17.174  22.074  23.660  1.00  0.00     0.000 C 
BRANCH   6   7
ATOM      7  C   UNL     1      17.008  20.587  23.313  1.00  0.00    -0.000 C 
BRANCH   7   8
ATOM      8  C   UNL     1      17.715  20.204  22.003  1.00  0.00    -0.003 C 
ATOM      9  C   UNL     1      17.467  18.751  21.600  1.00  0.00     0.004 C 
ENDBRANCH   7   8
ENDBRANCH   6   7
ENDBRANCH   1   6
TORSDOF 5
ENDMDL
MODEL 8
REMARK VINA RESULT:    -3.063      2.663      4.955
REMARK INTER + INTRA:          -4.292
REMARK INTER:                  -4.195
REMARK INTRA:                  -0.097
REMARK UNBOUND:                -0.333
REMARK SMILES CCCCCCC(=O)[O-]
REMARK SMILES IDX 5 1 6 2 7 3 8 4 9 5 4 6 3 7 2 8 1 9
REMARK H PARENT
REMARK Flexibility Score: inf
ROOT
ATOM      1  C   UNL     1       9.937  14.006  31.228  1.00  0.00     0.006 C 
ENDROOT
BRANCH   1   2
ATOM      2  C   UNL     1      10.236  15.142  32.212  1.00  0.00     0.053 C 
BRANCH   2   3
ATOM      3  C   UNL     1      11.305  16.037  31.669  1.00  0.00     0.041 C 
ATOM      4  O   UNL     1      12.100  15.614  30.789  1.00  0.00    -0.550 OA
ATOM      5  O   UNL     1      11.454  17.324  32.169  1.00  0.00    -0.550 OA
ENDBRANCH   2   3
ENDBRANCH   1   2
BRANCH   1   6
ATOM      6  C   UNL     1       9.069  12.925  31.884  1.00  0.00     0.000 C 
BRANCH   6   7
ATOM      7  C   UNL     1       7.827  12.628  31.032  1.00  0.00    -0.000 C 
BRANCH   7   8
ATOM      8  C   UNL     1       6.665  12.055  31.860  1.00  0.00    -0.003 C 
ATOM      9  C   UNL     1       6.847  10.574  32.187  1.00  0.00     0.004 C 
ENDBRANCH   7   8
ENDBRANCH   6   7
ENDBRANCH   1   6
TORSDOF 5
ENDMDL
MODEL 9
REMARK VINA RESULT:    -3.018      2.578      4.104
REMARK INTER + INTRA:          -4.234
REMARK INTER:                  -3.930
REMARK INTRA:                  -0.304
REMARK UNBOUND:                -0.333
REMARK SMILES CCCCCCC(=O)[O-]
REMARK SMILES IDX 5 1 6 2 7 3 8 4 9 5 4 6 3 7 2 8 1 9
REMARK H PARENT
REMARK Flexibility Score: inf
ROOT
ATOM      1  C   UNL     1      11.785  16.727  31.608  1.00  0.00     0.006 C 
ENDROOT
BRANCH   1   2
ATOM      2  C   UNL     1      11.784  15.822  30.372  1.00  0.00     0.053 C 
BRANCH   2   3
ATOM      3  C   UNL     1      11.700  16.642  29.123  1.00  0.00     0.041 C 
ATOM      4  O   UNL     1      11.200  17.797  29.156  1.00  0.00    -0.550 OA
ATOM      5  O   UNL     1      12.129  16.110  27.914  1.00  0.00    -0.550 OA
ENDBRANCH   2   3
ENDBRANCH   1   2
BRANCH   1   6
ATOM      6  C   UNL     1      10.776  16.233  32.653  1.00  0.00     0.000 C 
BRANCH   6   7
ATOM      7  C   UNL     1       9.492  15.727  31.979  1.00  0.00    -0.000 C 
BRANCH   7   8
ATOM      8  C   UNL     1       9.006  14.391  32.561  1.00  0.00    -0.003 C 
ATOM      9  C   UNL     1       9.557  13.182  31.807  1.00  0.00     0.004 C 
ENDBRANCH   7   8
ENDBRANCH   6   7
ENDBRANCH   1   6
TORSDOF 5
ENDMDL
