MODEL 1
REMARK VINA RESULT:    -4.988      0.000      0.000
REMARK INTER + INTRA:          -6.288
REMARK INTER:                  -6.154
REMARK INTRA:                  -0.133
REMARK UNBOUND:                -0.133
REMARK SMILES CCCCC=CC(C)=O
REMARK SMILES IDX 4 1 3 2 2 3 1 4 5 5 6 6 7 7 9 8 8 9
REMARK H PARENT
REMARK Flexibility Score: inf
ROOT
ATOM      1  C   UNL     1      16.554  16.212  30.137  1.00  0.00     0.027 C 
ENDROOT
BRANCH   1   2
ATOM      2  C   UNL     1      18.027  15.791  30.029  1.00  0.00     0.004 C 
BRANCH   2   3
ATOM      3  C   UNL     1      18.237  14.299  30.330  1.00  0.00    -0.003 C 
ATOM      4  C   UNL     1      17.831  13.921  31.754  1.00  0.00     0.004 C 
ENDBRANCH   2   3
ENDBRANCH   1   2
BRANCH   1   5
ATOM      5  C   UNL     1      16.418  17.708  30.148  1.00  0.00    -0.023 C 
ATOM      6  C   UNL     1      15.584  18.338  29.311  1.00  0.00     0.042 C 
BRANCH   6   7
ATOM      7  C   UNL     1      15.425  19.806  29.277  1.00  0.00     0.152 C 
ATOM      8  O   UNL     1      15.308  20.375  28.159  1.00  0.00    -0.295 OA
ATOM      9  C   UNL     1      15.397  20.641  30.523  1.00  0.00     0.093 C 
ENDBRANCH   6   7
ENDBRANCH   1   5
TORSDOF 4
ENDMDL
MODEL 2
REMARK VINA RESULT:    -4.591      1.061      1.233
REMARK INTER + INTRA:          -5.798
REMARK INTER:                  -5.660
REMARK INTRA:                  -0.138
REMARK UNBOUND:                -0.133
REMARK SMILES CCCCC=CC(C)=O
REMARK SMILES IDX 4 1 3 2 2 3 1 4 5 5 6 6 7 7 9 8 8 9
REMARK H PARENT
REMARK Flexibility Score: inf
ROOT
ATOM      1  C   UNL     1      16.218  17.126  29.806  1.00  0.00     0.027 C 
ENDROOT
BRANCH   1   2
ATOM      2  C   UNL     1      17.410  16.595  30.616  1.00  0.00     0.004 C 
BRANCH   2   3
ATOM      3  C   UNL     1      17.693  15.110  30.345  1.00  0.00    -0.003 C 
ATOM      4  C   UNL     1      16.416  14.292  30.149  1.00  0.00     0.004 C 
ENDBRANCH   2   3
ENDBRANCH   1   2
BRANCH   1   5
ATOM      5  C   UNL     1      15.979  18.582  30.084  1.00  0.00    -0.023 C 
ATOM      6  C   UNL     1      15.376  19.373  29.188  1.00  0.00     0.042 C 
BRANCH   6   7
ATOM      7  C   UNL     1      15.129  20.813  29.412  1.00  0.00     0.152 C 
ATOM      8  O   UNL     1      14.849  21.538  28.421  1.00  0.00    -0.295 OA
ATOM      9  C   UNL     1      15.199  21.438  30.773  1.00  0.00     0.093 C 
ENDBRANCH   6   7
ENDBRANCH   1   5
TORSDOF 4
ENDMDL
MODEL 3
REMARK VINA RESULT:    -4.540      2.452      5.479
REMARK INTER + INTRA:          -5.735
REMARK INTER:                  -5.585
REMARK INTRA:                  -0.149
REMARK UNBOUND:                -0.133
REMARK SMILES CCCCC=CC(C)=O
REMARK SMILES IDX 4 1 3 2 2 3 1 4 5 5 6 6 7 7 9 8 8 9
REMARK H PARENT
REMARK Flexibility Score: inf
ROOT
ATOM      1  C   UNL     1      15.912  18.976  30.123  1.00  0.00     0.027 C 
ENDROOT
BRANCH   1   2
ATOM      2  C   UNL     1      15.399  19.664  28.850  1.00  0.00     0.004 C 
BRANCH   2   3
ATOM      3  C   UNL     1      15.017  21.133  29.088  1.00  0.00    -0.003 C 
ATOM      4  C   UNL     1      15.046  21.519  30.567  1.00  0.00     0.004 C 
ENDBRANCH   2   3
ENDBRANCH   1   2
BRANCH   1   5
ATOM      5  C   UNL     1      16.116  17.505  29.898  1.00  0.00    -0.023 C 
ATOM      6  C   UNL     1      17.180  16.864  30.398  1.00  0.00     0.042 C 
BRANCH   6   7
ATOM      7  C   UNL     1      17.428  15.422  30.194  1.00  0.00     0.152 C 
ATOM      8  O   UNL     1      18.620  15.020  30.112  1.00  0.00    -0.295 OA
ATOM      9  C   UNL     1      16.316  14.423  30.082  1.00  0.00     0.093 C 
ENDBRANCH   6   7
ENDBRANCH   1   5
TORSDOF 4
ENDMDL
MODEL 4
REMARK VINA RESULT:    -4.387      2.150      5.441
REMARK INTER + INTRA:          -5.546
REMARK INTER:                  -5.355
REMARK INTRA:                  -0.191
REMARK UNBOUND:                -0.133
REMARK SMILES CCCCC=CC(C)=O
REMARK SMILES IDX 4 1 3 2 2 3 1 4 5 5 6 6 7 7 9 8 8 9
REMARK H PARENT
REMARK Flexibility Score: inf
ROOT
ATOM      1  C   UNL     1      15.433  20.150  30.214  1.00  0.00     0.027 C 
ENDROOT
BRANCH   1   2
ATOM      2  C   UNL     1      15.003  21.072  29.064  1.00  0.00     0.004 C 
BRANCH   2   3
ATOM      3  C   UNL     1      14.967  20.348  27.710  1.00  0.00    -0.003 C 
ATOM      4  C   UNL     1      15.395  21.245  26.548  1.00  0.00     0.004 C 
ENDBRANCH   2   3
ENDBRANCH   1   2
BRANCH   1   5
ATOM      5  C   UNL     1      15.826  18.794  29.703  1.00  0.00    -0.023 C 
ATOM      6  C   UNL     1      16.549  17.950  30.450  1.00  0.00     0.042 C 
BRANCH   6   7
ATOM      7  C   UNL     1      16.969  16.611  29.987  1.00  0.00     0.152 C 
ATOM      8  O   UNL     1      16.085  15.735  29.791  1.00  0.00    -0.295 OA
ATOM      9  C   UNL     1      18.406  16.260  29.742  1.00  0.00     0.093 C 
ENDBRANCH   6   7
ENDBRANCH   1   5
TORSDOF 4
ENDMDL
MODEL 5
REMARK VINA RESULT:    -3.973      1.719      2.813
REMARK INTER + INTRA:          -5.036
REMARK INTER:                  -4.834
REMARK INTRA:                  -0.201
REMARK UNBOUND:                -0.133
REMARK SMILES CCCCC=CC(C)=O
REMARK SMILES IDX 4 1 3 2 2 3 1 4 5 5 6 6 7 7 9 8 8 9
REMARK H PARENT
REMARK Flexibility Score: inf
ROOT
ATOM      1  C   UNL     1      15.896  18.940  30.203  1.00  0.00     0.027 C 
ENDROOT
BRANCH   1   2
ATOM      2  C   UNL     1      15.725  17.634  29.414  1.00  0.00     0.004 C 
BRANCH   2   3
ATOM      3  C   UNL     1      16.525  16.470  30.019  1.00  0.00    -0.003 C 
ATOM      4  C   UNL     1      18.036  16.673  29.910  1.00  0.00     0.004 C 
ENDBRANCH   2   3
ENDBRANCH   1   2
BRANCH   1   5
ATOM      5  C   UNL     1      15.387  20.116  29.421  1.00  0.00    -0.023 C 
ATOM      6  C   UNL     1      15.256  20.065  28.090  1.00  0.00     0.042 C 
BRANCH   6   7
ATOM      7  C   UNL     1      14.771  21.199  27.277  1.00  0.00     0.152 C 
ATOM      8  O   UNL     1      14.386  20.977  26.098  1.00  0.00    -0.295 OA
ATOM      9  C   UNL     1      14.719  22.602  27.805  1.00  0.00     0.093 C 
ENDBRANCH   6   7
ENDBRANCH   1   5
TORSDOF 4
ENDMDL
MODEL 6
REMARK VINA RESULT:    -3.869      4.339      5.849
REMARK INTER + INTRA:          -4.908
REMARK INTER:                  -4.751
REMARK INTRA:                  -0.157
REMARK UNBOUND:                -0.133
REMARK SMILES CCCCC=CC(C)=O
REMARK SMILES IDX 4 1 3 2 2 3 1 4 5 5 6 6 7 7 9 8 8 9
REMARK H PARENT
REMARK Flexibility Score: inf
ROOT
ATOM      1  C   UNL     1      15.346  20.388  29.742  1.00  0.00     0.027 C 
ENDROOT
BRANCH   1   2
ATOM      2  C   UNL     1      14.854  21.132  30.991  1.00  0.00     0.004 C 
BRANCH   2   3
ATOM      3  C   UNL     1      15.302  22.601  31.017  1.00  0.00    -0.003 C 
ATOM      4  C   UNL     1      15.240  23.213  32.417  1.00  0.00     0.004 C 
ENDBRANCH   2   3
ENDBRANCH   1   2
BRANCH   1   5
ATOM      5  C   UNL     1      14.974  21.127  28.489  1.00  0.00    -0.023 C 
ATOM      6  C   UNL     1      15.358  20.692  27.283  1.00  0.00     0.042 C 
BRANCH   6   7
ATOM      7  C   UNL     1      15.026  21.391  26.024  1.00  0.00     0.152 C 
ATOM      8  O   UNL     1      14.140  20.899  25.276  1.00  0.00    -0.295 OA
ATOM      9  C   UNL     1      15.706  22.661  25.607  1.00  0.00     0.093 C 
ENDBRANCH   6   7
ENDBRANCH   1   5
TORSDOF 4
ENDMDL
MODEL 7
REMARK VINA RESULT:    -3.730      5.398      6.334
REMARK INTER + INTRA:          -4.735
REMARK INTER:                  -4.556
REMARK INTRA:                  -0.179
REMARK UNBOUND:                -0.133
REMARK SMILES CCCCC=CC(C)=O
REMARK SMILES IDX 4 1 3 2 2 3 1 4 5 5 6 6 7 7 9 8 8 9
REMARK H PARENT
REMARK Flexibility Score: inf
ROOT
ATOM      1  C   UNL     1      14.994  21.011  26.449  1.00  0.00     0.027 C 
ENDROOT
BRANCH   1   2
ATOM      2  C   UNL     1      15.561  22.219  25.688  1.00  0.00     0.004 C 
BRANCH   2   3
ATOM      3  C   UNL     1      17.041  22.477  26.012  1.00  0.00    -0.003 C 
ATOM      4  C   UNL     1      17.988  21.622  25.170  1.00  0.00     0.004 C 
ENDBRANCH   2   3
ENDBRANCH   1   2
BRANCH   1   5
ATOM      5  C   UNL     1      15.000  21.253  27.931  1.00  0.00    -0.023 C 
ATOM      6  C   UNL     1      14.434  22.344  28.461  1.00  0.00     0.042 C 
BRANCH   6   7
ATOM      7  C   UNL     1      14.424  22.631  29.911  1.00  0.00     0.152 C 
ATOM      8  O   UNL     1      13.878  23.693  30.313  1.00  0.00    -0.295 OA
ATOM      9  C   UNL     1      15.039  21.705  30.917  1.00  0.00     0.093 C 
ENDBRANCH   6   7
ENDBRANCH   1   5
TORSDOF 4
ENDMDL
MODEL 8
REMARK VINA RESULT:    -3.703      9.469     11.274
REMARK INTER + INTRA:          -4.703
REMARK INTER:                  -4.463
REMARK INTRA:                  -0.240
REMARK UNBOUND:                -0.133
REMARK SMILES CCCCC=CC(C)=O
REMARK SMILES IDX 4 1 3 2 2 3 1 4 5 5 6 6 7 7 9 8 8 9
REMARK H PARENT
REMARK Flexibility Score: inf
ROOT
ATOM      1  C   UNL     1      20.734  25.143  28.647  1.00  0.00     0.027 C 
ENDROOT
BRANCH   1   2
ATOM      2  C   UNL     1      19.814  24.979  27.429  1.00  0.00     0.004 C 
BRANCH   2   3
ATOM      3  C   UNL     1      18.412  25.560  27.667  1.00  0.00    -0.003 C 
ATOM      4  C   UNL     1      18.366  27.079  27.501  1.00  0.00     0.004 C 
ENDBRANCH   2   3
ENDBRANCH   1   2
BRANCH   1   5
ATOM      5  C   UNL     1      22.061  25.724  28.250  1.00  0.00    -0.023 C 
ATOM      6  C   UNL     1      22.292  27.041  28.312  1.00  0.00     0.042 C 
BRANCH   6   7
ATOM      7  C   UNL     1      23.576  27.659  27.921  1.00  0.00     0.152 C 
ATOM      8  O   UNL     1      24.004  27.473  26.751  1.00  0.00    -0.295 OA
ATOM      9  C   UNL     1      24.384  28.498  28.865  1.00  0.00     0.093 C 
ENDBRANCH   6   7
ENDBRANCH   1   5
TORSDOF 4
ENDMDL
MODEL 9
REMARK VINA RESULT:    -3.696      4.639      6.397
REMARK INTER + INTRA:          -4.693
REMARK INTER:                  -4.442
REMARK INTRA:                  -0.251
REMARK UNBOUND:                -0.133
REMARK SMILES CCCCC=CC(C)=O
REMARK SMILES IDX 4 1 3 2 2 3 1 4 5 5 6 6 7 7 9 8 8 9
REMARK H PARENT
REMARK Flexibility Score: inf
ROOT
ATOM      1  C   UNL     1      14.732  23.838  29.189  1.00  0.00     0.027 C 
ENDROOT
BRANCH   1   2
ATOM      2  C   UNL     1      13.875  22.751  29.854  1.00  0.00     0.004 C 
BRANCH   2   3
ATOM      3  C   UNL     1      14.575  22.104  31.058  1.00  0.00    -0.003 C 
ATOM      4  C   UNL     1      15.297  20.806  30.694  1.00  0.00     0.004 C 
ENDBRANCH   2   3
ENDBRANCH   1   2
BRANCH   1   5
ATOM      5  C   UNL     1      15.189  23.408  27.824  1.00  0.00    -0.023 C 
ATOM      6  C   UNL     1      14.936  22.178  27.360  1.00  0.00     0.042 C 
BRANCH   6   7
ATOM      7  C   UNL     1      15.375  21.706  26.030  1.00  0.00     0.152 C 
ATOM      8  O   UNL     1      14.548  21.093  25.304  1.00  0.00    -0.295 OA
ATOM      9  C   UNL     1      16.765  21.931  25.517  1.00  0.00     0.093 C 
ENDBRANCH   6   7
ENDBRANCH   1   5
TORSDOF 4
ENDMDL
