MODEL 1
REMARK VINA RESULT:    -4.633      0.000      0.000
REMARK INTER + INTRA:          -5.704
REMARK INTER:                  -5.580
REMARK INTRA:                  -0.123
REMARK UNBOUND:                -0.123
REMARK SMILES NC(=O)C[C@@H]([NH3+])C(=O)[O-]
REMARK SMILES IDX 4 1 5 2 6 3 7 7 8 8 9 9 2 10 3 11 1 12
REMARK H PARENT 6 4 6 5 6 6 1 13 1 14
REMARK Flexibility Score: inf
ROOT
ATOM      1  C   UNL     1      81.390 186.025 189.371  1.00  0.00     0.171 C 
ENDROOT
BRANCH   1   2
ATOM      2  C   UNL     1      80.541 186.033 190.658  1.00  0.00     0.237 C 
BRANCH   2   3
ATOM      3  N   UNL     1      79.411 186.959 190.524  1.00  0.00    -0.350 N 
ATOM      4  H   UNL     1      78.617 186.482 190.039  1.00  0.00     0.345 HD
ATOM      5  H   UNL     1      79.696 187.786 189.951  1.00  0.00     0.345 HD
ATOM      6  H   UNL     1      79.089 187.287 191.465  1.00  0.00     0.345 HD
ENDBRANCH   2   3
BRANCH   2   7
ATOM      7  C   UNL     1      80.045 184.648 190.988  1.00  0.00     0.100 C 
ATOM      8  O   UNL     1      79.197 184.474 191.905  1.00  0.00    -0.544 OA
ATOM      9  O   UNL     1      80.508 183.554 190.267  1.00  0.00    -0.544 OA
ENDBRANCH   2   7
ENDBRANCH   1   2
BRANCH   1  10
ATOM     10  C   UNL     1      82.857 186.132 189.674  1.00  0.00     0.223 C 
ATOM     11  O   UNL     1      83.641 185.222 189.296  1.00  0.00    -0.275 OA
ATOM     12  N   UNL     1      83.375 187.275 190.354  1.00  0.00    -0.369 N 
ATOM     13  H   UNL     1      84.398 187.351 190.550  1.00  0.00     0.159 HD
ATOM     14  H   UNL     1      82.743 188.047 190.660  1.00  0.00     0.159 HD
ENDBRANCH   1  10
TORSDOF 4
ENDMDL
MODEL 2
REMARK VINA RESULT:    -4.606      1.684      2.058
REMARK INTER + INTRA:          -5.671
REMARK INTER:                  -5.225
REMARK INTRA:                  -0.446
REMARK UNBOUND:                -0.123
REMARK SMILES NC(=O)C[C@@H]([NH3+])C(=O)[O-]
REMARK SMILES IDX 4 1 5 2 6 3 7 7 8 8 9 9 2 10 3 11 1 12
REMARK H PARENT 6 4 6 5 6 6 1 13 1 14
REMARK Flexibility Score: inf
ROOT
ATOM      1  C   UNL     1      82.105 186.392 188.931  1.00  0.00     0.171 C 
ENDROOT
BRANCH   1   2
ATOM      2  C   UNL     1      81.376 185.045 189.108  1.00  0.00     0.237 C 
BRANCH   2   3
ATOM      3  N   UNL     1      82.336 183.974 189.399  1.00  0.00    -0.350 N 
ATOM      4  H   UNL     1      82.291 183.245 188.650  1.00  0.00     0.345 HD
ATOM      5  H   UNL     1      82.096 183.521 190.311  1.00  0.00     0.345 HD
ATOM      6  H   UNL     1      83.310 184.354 189.449  1.00  0.00     0.345 HD
ENDBRANCH   2   3
BRANCH   2   7
ATOM      7  C   UNL     1      80.339 185.129 190.199  1.00  0.00     0.100 C 
ATOM      8  O   UNL     1      80.017 184.102 190.854  1.00  0.00    -0.544 OA
ATOM      9  O   UNL     1      79.745 186.348 190.500  1.00  0.00    -0.544 OA
ENDBRANCH   2   7
ENDBRANCH   1   2
BRANCH   1  10
ATOM     10  C   UNL     1      83.124 186.616 190.010  1.00  0.00     0.223 C 
ATOM     11  O   UNL     1      84.300 186.188 189.860  1.00  0.00    -0.275 OA
ATOM     12  N   UNL     1      82.783 187.344 191.190  1.00  0.00    -0.369 N 
ATOM     13  H   UNL     1      83.499 187.509 191.932  1.00  0.00     0.159 HD
ATOM     14  H   UNL     1      81.819 187.721 191.324  1.00  0.00     0.159 HD
ENDBRANCH   1  10
TORSDOF 4
ENDMDL
MODEL 3
REMARK VINA RESULT:    -4.588     12.343     12.760
REMARK INTER + INTRA:          -5.650
REMARK INTER:                  -5.522
REMARK INTRA:                  -0.128
REMARK UNBOUND:                -0.123
REMARK SMILES NC(=O)C[C@@H]([NH3+])C(=O)[O-]
REMARK SMILES IDX 4 1 5 2 6 3 7 7 8 8 9 9 2 10 3 11 1 12
REMARK H PARENT 6 4 6 5 6 6 1 13 1 14
REMARK Flexibility Score: inf
ROOT
ATOM      1  C   UNL     1      85.573 176.943 196.644  1.00  0.00     0.171 C 
ENDROOT
BRANCH   1   2
ATOM      2  C   UNL     1      85.559 176.090 197.929  1.00  0.00     0.237 C 
BRANCH   2   3
ATOM      3  N   UNL     1      84.346 176.357 198.711  1.00  0.00    -0.350 N 
ATOM      4  H   UNL     1      83.894 177.237 198.374  1.00  0.00     0.345 HD
ATOM      5  H   UNL     1      84.594 176.482 199.720  1.00  0.00     0.345 HD
ATOM      6  H   UNL     1      83.666 175.567 198.620  1.00  0.00     0.345 HD
ENDBRANCH   2   3
BRANCH   2   7
ATOM      7  C   UNL     1      85.660 174.622 197.607  1.00  0.00     0.100 C 
ATOM      8  O   UNL     1      85.495 174.213 196.425  1.00  0.00    -0.544 OA
ATOM      9  O   UNL     1      85.955 173.708 198.611  1.00  0.00    -0.544 OA
ENDBRANCH   2   7
ENDBRANCH   1   2
BRANCH   1  10
ATOM     10  C   UNL     1      86.938 177.503 196.366  1.00  0.00     0.223 C 
ATOM     11  O   UNL     1      87.625 177.035 195.419  1.00  0.00    -0.275 OA
ATOM     12  N   UNL     1      87.449 178.588 197.140  1.00  0.00    -0.369 N 
ATOM     13  H   UNL     1      88.393 178.983 196.933  1.00  0.00     0.159 HD
ATOM     14  H   UNL     1      86.886 179.000 197.917  1.00  0.00     0.159 HD
ENDBRANCH   1  10
TORSDOF 4
ENDMDL
MODEL 4
REMARK VINA RESULT:    -4.582      0.203      1.096
REMARK INTER + INTRA:          -5.643
REMARK INTER:                  -5.537
REMARK INTRA:                  -0.106
REMARK UNBOUND:                -0.123
REMARK SMILES NC(=O)C[C@@H]([NH3+])C(=O)[O-]
REMARK SMILES IDX 4 1 5 2 6 3 7 7 8 8 9 9 2 10 3 11 1 12
REMARK H PARENT 6 4 6 5 6 6 1 13 1 14
REMARK Flexibility Score: inf
ROOT
ATOM      1  C   UNL     1      81.485 185.867 189.366  1.00  0.00     0.171 C 
ENDROOT
BRANCH   1   2
ATOM      2  C   UNL     1      80.625 185.836 190.645  1.00  0.00     0.237 C 
BRANCH   2   3
ATOM      3  N   UNL     1      79.596 186.882 190.600  1.00  0.00    -0.350 N 
ATOM      4  H   UNL     1      79.633 187.375 189.679  1.00  0.00     0.345 HD
ATOM      5  H   UNL     1      79.771 187.585 191.355  1.00  0.00     0.345 HD
ATOM      6  H   UNL     1      78.643 186.469 190.729  1.00  0.00     0.345 HD
ENDBRANCH   2   3
BRANCH   2   7
ATOM      7  C   UNL     1      79.987 184.484 190.837  1.00  0.00     0.100 C 
ATOM      8  O   UNL     1      80.292 183.520 190.084  1.00  0.00    -0.544 OA
ATOM      9  O   UNL     1      79.067 184.288 191.859  1.00  0.00    -0.544 OA
ENDBRANCH   2   7
ENDBRANCH   1   2
BRANCH   1  10
ATOM     10  C   UNL     1      82.928 186.142 189.676  1.00  0.00     0.223 C 
ATOM     11  O   UNL     1      83.816 185.341 189.281  1.00  0.00    -0.275 OA
ATOM     12  N   UNL     1      83.306 187.325 190.381  1.00  0.00    -0.369 N 
ATOM     13  H   UNL     1      84.312 187.519 190.581  1.00  0.00     0.159 HD
ATOM     14  H   UNL     1      82.585 188.010 190.700  1.00  0.00     0.159 HD
ENDBRANCH   1  10
TORSDOF 4
ENDMDL
MODEL 5
REMARK VINA RESULT:    -4.434      1.881      2.126
REMARK INTER + INTRA:          -5.465
REMARK INTER:                  -5.248
REMARK INTRA:                  -0.217
REMARK UNBOUND:                -0.123
REMARK SMILES NC(=O)C[C@@H]([NH3+])C(=O)[O-]
REMARK SMILES IDX 4 1 5 2 6 3 7 7 8 8 9 9 2 10 3 11 1 12
REMARK H PARENT 6 4 6 5 6 6 1 13 1 14
REMARK Flexibility Score: inf
ROOT
ATOM      1  C   UNL     1      82.098 186.227 189.175  1.00  0.00     0.171 C 
ENDROOT
BRANCH   1   2
ATOM      2  C   UNL     1      80.849 185.661 189.880  1.00  0.00     0.237 C 
BRANCH   2   3
ATOM      3  N   UNL     1      80.097 186.736 190.538  1.00  0.00    -0.350 N 
ATOM      4  H   UNL     1      80.494 186.915 191.488  1.00  0.00     0.345 HD
ATOM      5  H   UNL     1      79.096 186.453 190.650  1.00  0.00     0.345 HD
ATOM      6  H   UNL     1      80.145 187.617 189.976  1.00  0.00     0.345 HD
ENDBRANCH   2   3
BRANCH   2   7
ATOM      7  C   UNL     1      79.964 184.925 188.907  1.00  0.00     0.100 C 
ATOM      8  O   UNL     1      80.227 183.737 188.574  1.00  0.00    -0.544 OA
ATOM      9  O   UNL     1      78.838 185.548 188.383  1.00  0.00    -0.544 OA
ENDBRANCH   2   7
ENDBRANCH   1   2
BRANCH   1  10
ATOM     10  C   UNL     1      83.134 186.679 190.163  1.00  0.00     0.223 C 
ATOM     11  O   UNL     1      82.775 187.222 191.241  1.00  0.00    -0.275 OA
ATOM     12  N   UNL     1      84.522 186.464 189.907  1.00  0.00    -0.369 N 
ATOM     13  H   UNL     1      85.238 186.767 190.604  1.00  0.00     0.159 HD
ATOM     14  H   UNL     1      84.837 185.999 189.027  1.00  0.00     0.159 HD
ENDBRANCH   1  10
TORSDOF 4
ENDMDL
MODEL 6
REMARK VINA RESULT:    -4.395      1.719      3.673
REMARK INTER + INTRA:          -5.418
REMARK INTER:                  -5.295
REMARK INTRA:                  -0.122
REMARK UNBOUND:                -0.123
REMARK SMILES NC(=O)C[C@@H]([NH3+])C(=O)[O-]
REMARK SMILES IDX 4 1 5 2 6 3 7 7 8 8 9 9 2 10 3 11 1 12
REMARK H PARENT 6 4 6 5 6 6 1 13 1 14
REMARK Flexibility Score: inf
ROOT
ATOM      1  C   UNL     1      80.815 185.960 190.031  1.00  0.00     0.171 C 
ENDROOT
BRANCH   1   2
ATOM      2  C   UNL     1      82.050 186.166 189.132  1.00  0.00     0.237 C 
BRANCH   2   3
ATOM      3  N   UNL     1      82.957 187.159 189.722  1.00  0.00    -0.350 N 
ATOM      4  H   UNL     1      83.674 187.445 189.017  1.00  0.00     0.345 HD
ATOM      5  H   UNL     1      83.453 186.742 190.543  1.00  0.00     0.345 HD
ATOM      6  H   UNL     1      82.426 188.005 190.033  1.00  0.00     0.345 HD
ENDBRANCH   2   3
BRANCH   2   7
ATOM      7  C   UNL     1      82.777 184.866 188.903  1.00  0.00     0.100 C 
ATOM      8  O   UNL     1      83.984 184.739 189.243  1.00  0.00    -0.544 OA
ATOM      9  O   UNL     1      82.111 183.790 188.329  1.00  0.00    -0.544 OA
ENDBRANCH   2   7
ENDBRANCH   1   2
BRANCH   1  10
ATOM     10  C   UNL     1      79.536 186.134 189.264  1.00  0.00     0.223 C 
ATOM     11  O   UNL     1      79.158 185.235 188.466  1.00  0.00    -0.275 OA
ATOM     12  N   UNL     1      78.724 187.292 189.460  1.00  0.00    -0.369 N 
ATOM     13  H   UNL     1      77.828 187.401 188.935  1.00  0.00     0.159 HD
ATOM     14  H   UNL     1      79.013 188.039 190.130  1.00  0.00     0.159 HD
ENDBRANCH   1  10
TORSDOF 4
ENDMDL
MODEL 7
REMARK VINA RESULT:    -4.345     13.444     14.177
REMARK INTER + INTRA:          -5.357
REMARK INTER:                  -5.115
REMARK INTRA:                  -0.242
REMARK UNBOUND:                -0.123
REMARK SMILES NC(=O)C[C@@H]([NH3+])C(=O)[O-]
REMARK SMILES IDX 4 1 5 2 6 3 7 7 8 8 9 9 2 10 3 11 1 12
REMARK H PARENT 6 4 6 5 6 6 1 13 1 14
REMARK Flexibility Score: inf
ROOT
ATOM      1  C   UNL     1      85.574 174.312 198.693  1.00  0.00     0.171 C 
ENDROOT
BRANCH   1   2
ATOM      2  C   UNL     1      84.837 175.384 197.867  1.00  0.00     0.237 C 
BRANCH   2   3
ATOM      3  N   UNL     1      84.252 176.402 198.748  1.00  0.00    -0.350 N 
ATOM      4  H   UNL     1      83.324 176.704 198.373  1.00  0.00     0.345 HD
ATOM      5  H   UNL     1      84.877 177.240 198.787  1.00  0.00     0.345 HD
ATOM      6  H   UNL     1      84.123 176.023 199.715  1.00  0.00     0.345 HD
ENDBRANCH   2   3
BRANCH   2   7
ATOM      7  C   UNL     1      85.762 176.029 196.867  1.00  0.00     0.100 C 
ATOM      8  O   UNL     1      86.704 175.370 196.349  1.00  0.00    -0.544 OA
ATOM      9  O   UNL     1      85.571 177.354 196.497  1.00  0.00    -0.544 OA
ENDBRANCH   2   7
ENDBRANCH   1   2
BRANCH   1  10
ATOM     10  C   UNL     1      85.325 174.478 200.165  1.00  0.00     0.223 C 
ATOM     11  O   UNL     1      84.237 174.085 200.664  1.00  0.00    -0.275 OA
ATOM     12  N   UNL     1      86.327 175.043 201.010  1.00  0.00    -0.369 N 
ATOM     13  H   UNL     1      86.155 175.143 202.035  1.00  0.00     0.159 HD
ATOM     14  H   UNL     1      87.242 175.358 200.617  1.00  0.00     0.159 HD
ENDBRANCH   1  10
TORSDOF 4
ENDMDL
MODEL 8
REMARK VINA RESULT:    -4.331     12.952     13.349
REMARK INTER + INTRA:          -5.340
REMARK INTER:                  -5.238
REMARK INTRA:                  -0.103
REMARK UNBOUND:                -0.123
REMARK SMILES NC(=O)C[C@@H]([NH3+])C(=O)[O-]
REMARK SMILES IDX 4 1 5 2 6 3 7 7 8 8 9 9 2 10 3 11 1 12
REMARK H PARENT 6 4 6 5 6 6 1 13 1 14
REMARK Flexibility Score: inf
ROOT
ATOM      1  C   UNL     1      85.440 175.914 197.000  1.00  0.00     0.171 C 
ENDROOT
BRANCH   1   2
ATOM      2  C   UNL     1      85.371 175.916 198.540  1.00  0.00     0.237 C 
BRANCH   2   3
ATOM      3  N   UNL     1      84.023 176.276 198.995  1.00  0.00    -0.350 N 
ATOM      4  H   UNL     1      84.085 176.965 199.779  1.00  0.00     0.345 HD
ATOM      5  H   UNL     1      83.527 175.424 199.347  1.00  0.00     0.345 HD
ATOM      6  H   UNL     1      83.469 176.697 198.213  1.00  0.00     0.345 HD
ENDBRANCH   2   3
BRANCH   2   7
ATOM      7  C   UNL     1      85.772 174.577 199.103  1.00  0.00     0.100 C 
ATOM      8  O   UNL     1      85.973 174.437 200.340  1.00  0.00    -0.544 OA
ATOM      9  O   UNL     1      85.906 173.481 198.260  1.00  0.00    -0.544 OA
ENDBRANCH   2   7
ENDBRANCH   1   2
BRANCH   1  10
ATOM     10  C   UNL     1      86.563 176.772 196.494  1.00  0.00     0.223 C 
ATOM     11  O   UNL     1      87.422 176.283 195.713  1.00  0.00    -0.275 OA
ATOM     12  N   UNL     1      86.644 178.150 196.860  1.00  0.00    -0.369 N 
ATOM     13  H   UNL     1      87.418 178.747 196.494  1.00  0.00     0.159 HD
ATOM     14  H   UNL     1      85.931 178.577 197.492  1.00  0.00     0.159 HD
ENDBRANCH   1  10
TORSDOF 4
ENDMDL
MODEL 9
REMARK VINA RESULT:    -4.239      1.726      3.958
REMARK INTER + INTRA:          -5.229
REMARK INTER:                  -4.967
REMARK INTRA:                  -0.262
REMARK UNBOUND:                -0.123
REMARK SMILES NC(=O)C[C@@H]([NH3+])C(=O)[O-]
REMARK SMILES IDX 4 1 5 2 6 3 7 7 8 8 9 9 2 10 3 11 1 12
REMARK H PARENT 6 4 6 5 6 6 1 13 1 14
REMARK Flexibility Score: inf
ROOT
ATOM      1  C   UNL     1      80.055 184.449 190.756  1.00  0.00     0.171 C 
ENDROOT
BRANCH   1   2
ATOM      2  C   UNL     1      80.462 185.719 189.981  1.00  0.00     0.237 C 
BRANCH   2   3
ATOM      3  N   UNL     1      79.887 186.913 190.611  1.00  0.00    -0.350 N 
ATOM      4  H   UNL     1      78.893 186.729 190.877  1.00  0.00     0.345 HD
ATOM      5  H   UNL     1      79.902 187.713 189.936  1.00  0.00     0.345 HD
ATOM      6  H   UNL     1      80.427 187.176 191.468  1.00  0.00     0.345 HD
ENDBRANCH   2   3
BRANCH   2   7
ATOM      7  C   UNL     1      81.961 185.844 189.896  1.00  0.00     0.100 C 
ATOM      8  O   UNL     1      82.624 185.094 189.128  1.00  0.00    -0.544 OA
ATOM      9  O   UNL     1      82.623 186.804 190.652  1.00  0.00    -0.544 OA
ENDBRANCH   2   7
ENDBRANCH   1   2
BRANCH   1  10
ATOM     10  C   UNL     1      78.907 184.713 191.687  1.00  0.00     0.223 C 
ATOM     11  O   UNL     1      77.763 184.955 191.219  1.00  0.00    -0.275 OA
ATOM     12  N   UNL     1      79.094 184.654 193.102  1.00  0.00    -0.369 N 
ATOM     13  H   UNL     1      78.289 184.824 193.746  1.00  0.00     0.159 HD
ATOM     14  H   UNL     1      80.031 184.437 193.508  1.00  0.00     0.159 HD
ENDBRANCH   1  10
TORSDOF 4
ENDMDL
