MODEL 1
REMARK VINA RESULT:    -4.401      0.000      0.000
REMARK INTER + INTRA:          -5.071
REMARK INTER:                  -4.787
REMARK INTRA:                  -0.284
REMARK UNBOUND:                -0.284
REMARK SMILES CC(=O)c1cc(C)ccc1O
REMARK SMILES IDX 7 1 6 2 5 3 4 4 10 5 9 6 8 7 2 8 3 9 1 10 11 11
REMARK H PARENT 11 12
REMARK Flexibility Score: inf
ROOT
ATOM      1  C   UNL     1     -17.917 -37.332 208.824  1.00  0.00     0.044 C 
ATOM      2  C   UNL     1     -17.475 -37.994 210.095  1.00  0.00    -0.050 A 
ATOM      3  C   UNL     1     -17.851 -39.317 210.371  1.00  0.00     0.019 A 
ATOM      4  C   UNL     1     -17.472 -39.944 211.576  1.00  0.00     0.059 A 
ATOM      5  C   UNL     1     -16.714 -39.206 212.515  1.00  0.00     0.126 A 
ATOM      6  C   UNL     1     -16.354 -37.880 212.240  1.00  0.00     0.047 A 
ATOM      7  C   UNL     1     -16.737 -37.275 211.043  1.00  0.00     0.007 A 
ENDROOT
BRANCH   4   8
ATOM      8  C   UNL     1     -17.867 -41.358 211.843  1.00  0.00     0.163 C 
ATOM      9  O   UNL     1     -17.085 -42.125 212.469  1.00  0.00    -0.294 OA
ATOM     10  C   UNL     1     -19.170 -41.919 211.357  1.00  0.00     0.093 C 
ENDBRANCH   4   8
BRANCH   5  11
ATOM     11  O   UNL     1     -16.328 -39.778 213.728  1.00  0.00    -0.507 OA
ATOM     12  H   UNL     1     -15.517 -40.382 213.800  1.00  0.00     0.293 HD
ENDBRANCH   5  11
TORSDOF 2
ENDMDL
MODEL 2
REMARK VINA RESULT:    -4.274     12.071     13.501
REMARK INTER + INTRA:          -4.933
REMARK INTER:                  -4.643
REMARK INTRA:                  -0.290
REMARK UNBOUND:                -0.284
REMARK SMILES CC(=O)c1cc(C)ccc1O
REMARK SMILES IDX 7 1 6 2 5 3 4 4 10 5 9 6 8 7 2 8 3 9 1 10 11 11
REMARK H PARENT 11 12
REMARK Flexibility Score: inf
ROOT
ATOM      1  C   UNL     1      -3.545 -38.000 215.251  1.00  0.00     0.044 C 
ATOM      2  C   UNL     1      -4.633 -38.761 215.949  1.00  0.00    -0.050 A 
ATOM      3  C   UNL     1      -4.663 -38.824 217.351  1.00  0.00     0.019 A 
ATOM      4  C   UNL     1      -5.660 -39.562 218.023  1.00  0.00     0.059 A 
ATOM      5  C   UNL     1      -6.625 -40.255 217.255  1.00  0.00     0.126 A 
ATOM      6  C   UNL     1      -6.580 -40.200 215.855  1.00  0.00     0.047 A 
ATOM      7  C   UNL     1      -5.588 -39.465 215.206  1.00  0.00     0.007 A 
ENDROOT
BRANCH   4   8
ATOM      8  C   UNL     1      -5.686 -39.602 219.514  1.00  0.00     0.163 C 
ATOM      9  O   UNL     1      -5.500 -40.691 220.121  1.00  0.00    -0.294 OA
ATOM     10  C   UNL     1      -5.964 -38.375 220.331  1.00  0.00     0.093 C 
ENDBRANCH   4   8
BRANCH   5  11
ATOM     11  O   UNL     1      -7.621 -41.011 217.875  1.00  0.00    -0.507 OA
ATOM     12  H   UNL     1      -8.323 -41.509 217.341  1.00  0.00     0.293 HD
ENDBRANCH   5  11
TORSDOF 2
ENDMDL
MODEL 3
REMARK VINA RESULT:    -4.237      2.872      4.070
REMARK INTER + INTRA:          -4.892
REMARK INTER:                  -4.586
REMARK INTRA:                  -0.306
REMARK UNBOUND:                -0.284
REMARK SMILES CC(=O)c1cc(C)ccc1O
REMARK SMILES IDX 7 1 6 2 5 3 4 4 10 5 9 6 8 7 2 8 3 9 1 10 11 11
REMARK H PARENT 11 12
REMARK Flexibility Score: inf
ROOT
ATOM      1  C   UNL     1     -16.370 -41.722 213.427  1.00  0.00     0.044 C 
ATOM      2  C   UNL     1     -16.310 -40.479 212.588  1.00  0.00    -0.050 A 
ATOM      3  C   UNL     1     -15.892 -40.551 211.250  1.00  0.00     0.019 A 
ATOM      4  C   UNL     1     -15.798 -39.388 210.457  1.00  0.00     0.059 A 
ATOM      5  C   UNL     1     -16.120 -38.141 211.040  1.00  0.00     0.126 A 
ATOM      6  C   UNL     1     -16.522 -38.075 212.381  1.00  0.00     0.047 A 
ATOM      7  C   UNL     1     -16.611 -39.234 213.152  1.00  0.00     0.007 A 
ENDROOT
BRANCH   4   8
ATOM      8  C   UNL     1     -15.369 -39.487 209.030  1.00  0.00     0.163 C 
ATOM      9  O   UNL     1     -16.067 -38.958 208.123  1.00  0.00    -0.294 OA
ATOM     10  C   UNL     1     -14.132 -40.233 208.628  1.00  0.00     0.093 C 
ENDBRANCH   4   8
BRANCH   5  11
ATOM     11  O   UNL     1     -16.028 -36.962 210.298  1.00  0.00    -0.507 OA
ATOM     12  H   UNL     1     -16.724 -36.711 209.606  1.00  0.00     0.293 HD
ENDBRANCH   5  11
TORSDOF 2
ENDMDL
MODEL 4
REMARK VINA RESULT:    -4.222      2.156      3.715
REMARK INTER + INTRA:          -4.876
REMARK INTER:                  -4.581
REMARK INTRA:                  -0.295
REMARK UNBOUND:                -0.284
REMARK SMILES CC(=O)c1cc(C)ccc1O
REMARK SMILES IDX 7 1 6 2 5 3 4 4 10 5 9 6 8 7 2 8 3 9 1 10 11 11
REMARK H PARENT 11 12
REMARK Flexibility Score: inf
ROOT
ATOM      1  C   UNL     1     -19.027 -36.368 206.806  1.00  0.00     0.044 C 
ATOM      2  C   UNL     1     -19.018 -37.205 208.051  1.00  0.00    -0.050 A 
ATOM      3  C   UNL     1     -17.888 -37.222 208.881  1.00  0.00     0.019 A 
ATOM      4  C   UNL     1     -17.849 -38.029 210.038  1.00  0.00     0.059 A 
ATOM      5  C   UNL     1     -18.971 -38.836 210.340  1.00  0.00     0.126 A 
ATOM      6  C   UNL     1     -20.091 -38.825 209.498  1.00  0.00     0.047 A 
ATOM      7  C   UNL     1     -20.113 -38.021 208.358  1.00  0.00     0.007 A 
ENDROOT
BRANCH   4   8
ATOM      8  C   UNL     1     -16.644 -38.020 210.919  1.00  0.00     0.163 C 
ATOM      9  O   UNL     1     -16.744 -37.658 212.123  1.00  0.00    -0.294 OA
ATOM     10  C   UNL     1     -15.288 -38.403 210.406  1.00  0.00     0.093 C 
ENDBRANCH   4   8
BRANCH   5  11
ATOM     11  O   UNL     1     -18.973 -39.662 211.465  1.00  0.00    -0.507 OA
ATOM     12  H   UNL     1     -18.411 -39.452 212.282  1.00  0.00     0.293 HD
ENDBRANCH   5  11
TORSDOF 2
ENDMDL
MODEL 5
REMARK VINA RESULT:    -4.212     11.284     12.482
REMARK INTER + INTRA:          -4.865
REMARK INTER:                  -4.557
REMARK INTRA:                  -0.307
REMARK UNBOUND:                -0.284
REMARK SMILES CC(=O)c1cc(C)ccc1O
REMARK SMILES IDX 7 1 6 2 5 3 4 4 10 5 9 6 8 7 2 8 3 9 1 10 11 11
REMARK H PARENT 11 12
REMARK Flexibility Score: inf
ROOT
ATOM      1  C   UNL     1      -3.466 -37.970 215.327  1.00  0.00     0.044 C 
ATOM      2  C   UNL     1      -4.493 -38.767 216.076  1.00  0.00    -0.050 A 
ATOM      3  C   UNL     1      -5.449 -39.520 215.377  1.00  0.00     0.019 A 
ATOM      4  C   UNL     1      -6.443 -40.248 216.065  1.00  0.00     0.059 A 
ATOM      5  C   UNL     1      -6.468 -40.194 217.478  1.00  0.00     0.126 A 
ATOM      6  C   UNL     1      -5.519 -39.428 218.168  1.00  0.00     0.047 A 
ATOM      7  C   UNL     1      -4.543 -38.714 217.474  1.00  0.00     0.007 A 
ENDROOT
BRANCH   4   8
ATOM      8  C   UNL     1      -7.440 -41.058 215.305  1.00  0.00     0.163 C 
ATOM      9  O   UNL     1      -8.671 -40.938 215.551  1.00  0.00    -0.294 OA
ATOM     10  C   UNL     1      -7.020 -42.051 214.262  1.00  0.00     0.093 C 
ENDBRANCH   4   8
BRANCH   5  11
ATOM     11  O   UNL     1      -7.441 -40.886 218.201  1.00  0.00    -0.507 OA
ATOM     12  H   UNL     1      -7.931 -41.682 217.810  1.00  0.00     0.293 HD
ENDBRANCH   5  11
TORSDOF 2
ENDMDL
MODEL 6
REMARK VINA RESULT:    -4.155     11.495     12.642
REMARK INTER + INTRA:          -4.803
REMARK INTER:                  -4.503
REMARK INTRA:                  -0.300
REMARK UNBOUND:                -0.284
REMARK SMILES CC(=O)c1cc(C)ccc1O
REMARK SMILES IDX 7 1 6 2 5 3 4 4 10 5 9 6 8 7 2 8 3 9 1 10 11 11
REMARK H PARENT 11 12
REMARK Flexibility Score: inf
ROOT
ATOM      1  C   UNL     1      -2.152 -38.895 215.184  1.00  0.00     0.044 C 
ATOM      2  C   UNL     1      -3.633 -38.990 214.960  1.00  0.00    -0.050 A 
ATOM      3  C   UNL     1      -4.189 -40.150 214.402  1.00  0.00     0.019 A 
ATOM      4  C   UNL     1      -5.575 -40.244 214.154  1.00  0.00     0.059 A 
ATOM      5  C   UNL     1      -6.396 -39.136 214.466  1.00  0.00     0.126 A 
ATOM      6  C   UNL     1      -5.831 -37.974 215.010  1.00  0.00     0.047 A 
ATOM      7  C   UNL     1      -4.460 -37.898 215.249  1.00  0.00     0.007 A 
ENDROOT
BRANCH   4   8
ATOM      8  C   UNL     1      -6.151 -41.494 213.576  1.00  0.00     0.163 C 
ATOM      9  O   UNL     1      -7.046 -42.125 214.201  1.00  0.00    -0.294 OA
ATOM     10  C   UNL     1      -5.672 -42.053 212.270  1.00  0.00     0.093 C 
ENDBRANCH   4   8
BRANCH   5  11
ATOM     11  O   UNL     1      -7.770 -39.176 214.225  1.00  0.00    -0.507 OA
ATOM     12  H   UNL     1      -8.365 -38.373 214.390  1.00  0.00     0.293 HD
ENDBRANCH   5  11
TORSDOF 2
ENDMDL
MODEL 7
REMARK VINA RESULT:    -4.145     13.207     14.352
REMARK INTER + INTRA:          -4.793
REMARK INTER:                  -4.495
REMARK INTRA:                  -0.298
REMARK UNBOUND:                -0.284
REMARK SMILES CC(=O)c1cc(C)ccc1O
REMARK SMILES IDX 7 1 6 2 5 3 4 4 10 5 9 6 8 7 2 8 3 9 1 10 11 11
REMARK H PARENT 11 12
REMARK Flexibility Score: inf
ROOT
ATOM      1  C   UNL     1      -6.990 -39.866 214.919  1.00  0.00     0.044 C 
ATOM      2  C   UNL     1      -5.554 -39.435 214.907  1.00  0.00    -0.050 A 
ATOM      3  C   UNL     1      -4.617 -40.122 214.121  1.00  0.00     0.019 A 
ATOM      4  C   UNL     1      -3.256 -39.751 214.123  1.00  0.00     0.059 A 
ATOM      5  C   UNL     1      -2.847 -38.678 214.948  1.00  0.00     0.126 A 
ATOM      6  C   UNL     1      -3.786 -38.005 215.742  1.00  0.00     0.047 A 
ATOM      7  C   UNL     1      -5.127 -38.384 215.728  1.00  0.00     0.007 A 
ENDROOT
BRANCH   4   8
ATOM      8  C   UNL     1      -2.277 -40.483 213.266  1.00  0.00     0.163 C 
ATOM      9  O   UNL     1      -1.622 -39.863 212.385  1.00  0.00    -0.294 OA
ATOM     10  C   UNL     1      -2.066 -41.962 213.395  1.00  0.00     0.093 C 
ENDBRANCH   4   8
BRANCH   5  11
ATOM     11  O   UNL     1      -1.509 -38.284 214.995  1.00  0.00    -0.507 OA
ATOM     12  H   UNL     1      -1.121 -37.805 215.799  1.00  0.00     0.293 HD
ENDBRANCH   5  11
TORSDOF 2
ENDMDL
MODEL 8
REMARK VINA RESULT:    -4.080      3.457      4.617
REMARK INTER + INTRA:          -4.721
REMARK INTER:                  -4.422
REMARK INTRA:                  -0.299
REMARK UNBOUND:                -0.284
REMARK SMILES CC(=O)c1cc(C)ccc1O
REMARK SMILES IDX 7 1 6 2 5 3 4 4 10 5 9 6 8 7 2 8 3 9 1 10 11 11
REMARK H PARENT 11 12
REMARK Flexibility Score: inf
ROOT
ATOM      1  C   UNL     1     -17.144 -37.596 212.503  1.00  0.00     0.044 C 
ATOM      2  C   UNL     1     -16.877 -37.938 211.067  1.00  0.00    -0.050 A 
ATOM      3  C   UNL     1     -17.820 -37.615 210.079  1.00  0.00     0.019 A 
ATOM      4  C   UNL     1     -17.601 -37.958 208.728  1.00  0.00     0.059 A 
ATOM      5  C   UNL     1     -16.416 -38.651 208.388  1.00  0.00     0.126 A 
ATOM      6  C   UNL     1     -15.487 -38.984 209.382  1.00  0.00     0.047 A 
ATOM      7  C   UNL     1     -15.718 -38.637 210.713  1.00  0.00     0.007 A 
ENDROOT
BRANCH   4   8
ATOM      8  C   UNL     1     -18.606 -37.589 207.688  1.00  0.00     0.163 C 
ATOM      9  O   UNL     1     -19.173 -38.488 207.010  1.00  0.00    -0.294 OA
ATOM     10  C   UNL     1     -18.948 -36.159 207.394  1.00  0.00     0.093 C 
ENDBRANCH   4   8
BRANCH   5  11
ATOM     11  O   UNL     1     -16.163 -39.024 207.066  1.00  0.00    -0.507 OA
ATOM     12  H   UNL     1     -16.894 -39.385 206.464  1.00  0.00     0.293 HD
ENDBRANCH   5  11
TORSDOF 2
ENDMDL
MODEL 9
REMARK VINA RESULT:    -4.016      2.496      3.499
REMARK INTER + INTRA:          -4.652
REMARK INTER:                  -4.365
REMARK INTRA:                  -0.287
REMARK UNBOUND:                -0.284
REMARK SMILES CC(=O)c1cc(C)ccc1O
REMARK SMILES IDX 7 1 6 2 5 3 4 4 10 5 9 6 8 7 2 8 3 9 1 10 11 11
REMARK H PARENT 11 12
REMARK Flexibility Score: inf
ROOT
ATOM      1  C   UNL     1     -16.272 -40.950 213.454  1.00  0.00     0.044 C 
ATOM      2  C   UNL     1     -16.699 -39.885 212.487  1.00  0.00    -0.050 A 
ATOM      3  C   UNL     1     -17.398 -40.230 211.321  1.00  0.00     0.019 A 
ATOM      4  C   UNL     1     -17.778 -39.245 210.385  1.00  0.00     0.059 A 
ATOM      5  C   UNL     1     -17.426 -37.898 210.637  1.00  0.00     0.126 A 
ATOM      6  C   UNL     1     -16.715 -37.563 211.796  1.00  0.00     0.047 A 
ATOM      7  C   UNL     1     -16.347 -38.549 212.712  1.00  0.00     0.007 A 
ENDROOT
BRANCH   4   8
ATOM      8  C   UNL     1     -18.538 -39.629 209.159  1.00  0.00     0.163 C 
ATOM      9  O   UNL     1     -18.018 -39.480 208.020  1.00  0.00    -0.294 OA
ATOM     10  C   UNL     1     -19.937 -40.165 209.233  1.00  0.00     0.093 C 
ENDBRANCH   4   8
BRANCH   5  11
ATOM     11  O   UNL     1     -17.768 -36.891 209.732  1.00  0.00    -0.507 OA
ATOM     12  H   UNL     1     -17.409 -36.880 208.785  1.00  0.00     0.293 HD
ENDBRANCH   5  11
TORSDOF 2
ENDMDL
