MODEL 1
REMARK VINA RESULT:    -3.204      0.000      0.000
REMARK INTER + INTRA:          -9.168
REMARK INTER:                  -6.201
REMARK INTRA:                  -2.967
REMARK UNBOUND:                -2.967
REMARK SMILES CCCCCCCCCCCCCCCCCC(=O)[O-]
REMARK SMILES IDX 10 1 11 2 12 3 13 4 14 5 15 6 16 7 17 8 18 9 19 10 20 11
REMARK SMILES IDX 9 12 8 13 7 14 6 15 5 16 4 17 3 18 2 19 1 20
REMARK H PARENT
REMARK Flexibility Score: inf
ROOT
ATOM      1  C   UNL     1      59.208  25.281  50.765  1.00  0.00     0.000 C 
ENDROOT
BRANCH   1   2
ATOM      2  C   UNL     1      57.793  25.323  51.360  1.00  0.00     0.000 C 
BRANCH   2   3
ATOM      3  C   UNL     1      56.789  25.890  50.349  1.00  0.00     0.000 C 
BRANCH   3   4
ATOM      4  C   UNL     1      55.368  25.903  50.932  1.00  0.00     0.000 C 
BRANCH   4   5
ATOM      5  C   UNL     1      54.285  25.804  49.848  1.00  0.00     0.000 C 
BRANCH   5   6
ATOM      6  C   UNL     1      53.309  26.993  49.877  1.00  0.00     0.000 C 
BRANCH   6   7
ATOM      7  C   UNL     1      53.598  27.983  51.019  1.00  0.00     0.006 C 
BRANCH   7   8
ATOM      8  C   UNL     1      53.740  29.445  50.556  1.00  0.00     0.053 C 
BRANCH   8   9
ATOM      9  C   UNL     1      53.686  30.420  51.692  1.00  0.00     0.041 C 
ATOM     10  O   UNL     1      52.882  30.244  52.645  1.00  0.00    -0.550 OA
ATOM     11  O   UNL     1      54.548  31.510  51.714  1.00  0.00    -0.550 OA
ENDBRANCH   8   9
ENDBRANCH   7   8
ENDBRANCH   6   7
ENDBRANCH   5   6
ENDBRANCH   4   5
ENDBRANCH   3   4
ENDBRANCH   2   3
ENDBRANCH   1   2
BRANCH   1  12
ATOM     12  C   UNL     1      60.243  26.003  51.644  1.00  0.00     0.000 C 
BRANCH  12  13
ATOM     13  C   UNL     1      60.685  27.350  51.052  1.00  0.00    -0.000 C 
BRANCH  13  14
ATOM     14  C   UNL     1      60.056  27.573  49.668  1.00  0.00    -0.000 C 
BRANCH  14  15
ATOM     15  C   UNL     1      59.145  28.811  49.630  1.00  0.00    -0.000 C 
BRANCH  15  16
ATOM     16  C   UNL     1      58.797  29.333  51.035  1.00  0.00    -0.000 C 
BRANCH  16  17
ATOM     17  C   UNL     1      57.283  29.264  51.321  1.00  0.00    -0.000 C 
BRANCH  17  18
ATOM     18  C   UNL     1      56.947  28.948  52.789  1.00  0.00    -0.000 C 
BRANCH  18  19
ATOM     19  C   UNL     1      58.192  28.663  53.641  1.00  0.00    -0.003 C 
ATOM     20  C   UNL     1      58.071  27.325  54.363  1.00  0.00     0.004 C 
ENDBRANCH  18  19
ENDBRANCH  17  18
ENDBRANCH  16  17
ENDBRANCH  15  16
ENDBRANCH  14  15
ENDBRANCH  13  14
ENDBRANCH  12  13
ENDBRANCH   1  12
TORSDOF 16
ENDMDL
MODEL 2
REMARK VINA RESULT:    -3.121      2.511      4.698
REMARK INTER + INTRA:          -9.007
REMARK INTER:                  -6.477
REMARK INTRA:                  -2.530
REMARK UNBOUND:                -2.967
REMARK SMILES CCCCCCCCCCCCCCCCCC(=O)[O-]
REMARK SMILES IDX 10 1 11 2 12 3 13 4 14 5 15 6 16 7 17 8 18 9 19 10 20 11
REMARK SMILES IDX 9 12 8 13 7 14 6 15 5 16 4 17 3 18 2 19 1 20
REMARK H PARENT
REMARK Flexibility Score: inf
ROOT
ATOM      1  C   UNL     1      54.398  30.346  50.855  1.00  0.00     0.000 C 
ENDROOT
BRANCH   1   2
ATOM      2  C   UNL     1      53.394  29.284  50.384  1.00  0.00     0.000 C 
BRANCH   2   3
ATOM      3  C   UNL     1      53.804  27.888  50.869  1.00  0.00     0.000 C 
BRANCH   3   4
ATOM      4  C   UNL     1      53.563  26.833  49.779  1.00  0.00     0.000 C 
BRANCH   4   5
ATOM      5  C   UNL     1      54.504  25.626  49.908  1.00  0.00     0.000 C 
BRANCH   5   6
ATOM      6  C   UNL     1      55.875  26.004  50.494  1.00  0.00     0.000 C 
BRANCH   6   7
ATOM      7  C   UNL     1      56.161  25.328  51.847  1.00  0.00     0.006 C 
BRANCH   7   8
ATOM      8  C   UNL     1      56.355  26.319  53.010  1.00  0.00     0.053 C 
BRANCH   8   9
ATOM      9  C   UNL     1      57.381  25.857  53.999  1.00  0.00     0.041 C 
ATOM     10  O   UNL     1      57.259  24.740  54.569  1.00  0.00    -0.550 OA
ATOM     11  O   UNL     1      58.491  26.648  54.269  1.00  0.00    -0.550 OA
ENDBRANCH   8   9
ENDBRANCH   7   8
ENDBRANCH   6   7
ENDBRANCH   5   6
ENDBRANCH   4   5
ENDBRANCH   3   4
ENDBRANCH   2   3
ENDBRANCH   1   2
BRANCH   1  12
ATOM     12  C   UNL     1      55.641  29.733  51.521  1.00  0.00     0.000 C 
BRANCH  12  13
ATOM     13  C   UNL     1      56.943  30.096  50.790  1.00  0.00    -0.000 C 
BRANCH  13  14
ATOM     14  C   UNL     1      57.980  28.972  50.929  1.00  0.00    -0.000 C 
BRANCH  14  15
ATOM     15  C   UNL     1      58.924  28.890  49.718  1.00  0.00    -0.000 C 
BRANCH  15  16
ATOM     16  C   UNL     1      59.878  27.685  49.791  1.00  0.00    -0.000 C 
BRANCH  16  17
ATOM     17  C   UNL     1      59.628  26.821  51.045  1.00  0.00    -0.000 C 
BRANCH  17  18
ATOM     18  C   UNL     1      59.544  25.314  50.748  1.00  0.00    -0.000 C 
BRANCH  18  19
ATOM     19  C   UNL     1      60.370  24.464  51.723  1.00  0.00    -0.003 C 
ATOM     20  C   UNL     1      59.545  23.311  52.286  1.00  0.00     0.004 C 
ENDBRANCH  18  19
ENDBRANCH  17  18
ENDBRANCH  16  17
ENDBRANCH  15  16
ENDBRANCH  14  15
ENDBRANCH  13  14
ENDBRANCH  12  13
ENDBRANCH   1  12
TORSDOF 16
ENDMDL
MODEL 3
REMARK VINA RESULT:    -3.088      1.174      2.747
REMARK INTER + INTRA:          -8.943
REMARK INTER:                  -5.743
REMARK INTRA:                  -3.200
REMARK UNBOUND:                -2.967
REMARK SMILES CCCCCCCCCCCCCCCCCC(=O)[O-]
REMARK SMILES IDX 10 1 11 2 12 3 13 4 14 5 15 6 16 7 17 8 18 9 19 10 20 11
REMARK SMILES IDX 9 12 8 13 7 14 6 15 5 16 4 17 3 18 2 19 1 20
REMARK H PARENT
REMARK Flexibility Score: inf
ROOT
ATOM      1  C   UNL     1      56.547  27.084  53.630  1.00  0.00     0.000 C 
ENDROOT
BRANCH   1   2
ATOM      2  C   UNL     1      55.448  26.314  52.884  1.00  0.00     0.000 C 
BRANCH   2   3
ATOM      3  C   UNL     1      55.999  25.670  51.606  1.00  0.00     0.000 C 
BRANCH   3   4
ATOM      4  C   UNL     1      55.483  26.399  50.356  1.00  0.00     0.000 C 
BRANCH   4   5
ATOM      5  C   UNL     1      53.964  26.263  50.178  1.00  0.00     0.000 C 
BRANCH   5   6
ATOM      6  C   UNL     1      53.267  27.621  49.987  1.00  0.00     0.000 C 
BRANCH   6   7
ATOM      7  C   UNL     1      54.150  28.815  50.393  1.00  0.00     0.006 C 
BRANCH   7   8
ATOM      8  C   UNL     1      53.566  29.660  51.540  1.00  0.00     0.053 C 
BRANCH   8   9
ATOM      9  C   UNL     1      54.252  30.984  51.691  1.00  0.00     0.041 C 
ATOM     10  O   UNL     1      53.972  31.739  52.659  1.00  0.00    -0.550 OA
ATOM     11  O   UNL     1      55.224  31.371  50.776  1.00  0.00    -0.550 OA
ENDBRANCH   8   9
ENDBRANCH   7   8
ENDBRANCH   6   7
ENDBRANCH   5   6
ENDBRANCH   4   5
ENDBRANCH   3   4
ENDBRANCH   2   3
ENDBRANCH   1   2
BRANCH   1  12
ATOM     12  C   UNL     1      56.716  28.524  53.115  1.00  0.00     0.000 C 
BRANCH  12  13
ATOM     13  C   UNL     1      58.094  28.766  52.481  1.00  0.00    -0.000 C 
BRANCH  13  14
ATOM     14  C   UNL     1      57.952  29.369  51.075  1.00  0.00    -0.000 C 
BRANCH  14  15
ATOM     15  C   UNL     1      58.683  28.543  50.005  1.00  0.00    -0.000 C 
BRANCH  15  16
ATOM     16  C   UNL     1      59.578  27.449  50.612  1.00  0.00    -0.000 C 
BRANCH  16  17
ATOM     17  C   UNL     1      59.246  26.050  50.052  1.00  0.00    -0.000 C 
BRANCH  17  18
ATOM     18  C   UNL     1      59.466  24.913  51.065  1.00  0.00    -0.000 C 
BRANCH  18  19
ATOM     19  C   UNL     1      59.653  25.418  52.503  1.00  0.00    -0.003 C 
ATOM     20  C   UNL     1      59.171  24.386  53.517  1.00  0.00     0.004 C 
ENDBRANCH  18  19
ENDBRANCH  17  18
ENDBRANCH  16  17
ENDBRANCH  15  16
ENDBRANCH  14  15
ENDBRANCH  13  14
ENDBRANCH  12  13
ENDBRANCH   1  12
TORSDOF 16
ENDMDL
MODEL 4
REMARK VINA RESULT:    -2.978      3.567      6.332
REMARK INTER + INTRA:          -8.730
REMARK INTER:                  -5.469
REMARK INTRA:                  -3.261
REMARK UNBOUND:                -2.967
REMARK SMILES CCCCCCCCCCCCCCCCCC(=O)[O-]
REMARK SMILES IDX 10 1 11 2 12 3 13 4 14 5 15 6 16 7 17 8 18 9 19 10 20 11
REMARK SMILES IDX 9 12 8 13 7 14 6 15 5 16 4 17 3 18 2 19 1 20
REMARK H PARENT
REMARK Flexibility Score: inf
ROOT
ATOM      1  C   UNL     1      57.782  28.909  52.930  1.00  0.00     0.000 C 
ENDROOT
BRANCH   1   2
ATOM      2  C   UNL     1      58.381  29.721  51.772  1.00  0.00     0.000 C 
BRANCH   2   3
ATOM      3  C   UNL     1      57.994  29.113  50.418  1.00  0.00     0.000 C 
BRANCH   3   4
ATOM      4  C   UNL     1      59.238  28.641  49.650  1.00  0.00     0.000 C 
BRANCH   4   5
ATOM      5  C   UNL     1      59.546  27.154  49.882  1.00  0.00     0.000 C 
BRANCH   5   6
ATOM      6  C   UNL     1      60.911  26.931  50.556  1.00  0.00     0.000 C 
BRANCH   6   7
ATOM      7  C   UNL     1      61.769  28.209  50.618  1.00  0.00     0.006 C 
BRANCH   7   8
ATOM      8  C   UNL     1      62.133  28.646  52.048  1.00  0.00     0.053 C 
BRANCH   8   9
ATOM      9  C   UNL     1      63.518  28.237  52.445  1.00  0.00     0.041 C 
ATOM     10  O   UNL     1      63.696  27.271  53.232  1.00  0.00    -0.550 OA
ATOM     11  O   UNL     1      64.617  28.906  51.918  1.00  0.00    -0.550 OA
ENDBRANCH   8   9
ENDBRANCH   7   8
ENDBRANCH   6   7
ENDBRANCH   5   6
ENDBRANCH   4   5
ENDBRANCH   3   4
ENDBRANCH   2   3
ENDBRANCH   1   2
BRANCH   1  12
ATOM     12  C   UNL     1      58.762  27.865  53.490  1.00  0.00     0.000 C 
BRANCH  12  13
ATOM     13  C   UNL     1      58.256  26.425  53.313  1.00  0.00    -0.000 C 
BRANCH  13  14
ATOM     14  C   UNL     1      56.828  26.411  52.748  1.00  0.00    -0.000 C 
BRANCH  14  15
ATOM     15  C   UNL     1      56.681  25.465  51.545  1.00  0.00    -0.000 C 
BRANCH  15  16
ATOM     16  C   UNL     1      55.945  26.120  50.364  1.00  0.00    -0.000 C 
BRANCH  16  17
ATOM     17  C   UNL     1      54.593  26.730  50.788  1.00  0.00    -0.000 C 
BRANCH  17  18
ATOM     18  C   UNL     1      54.399  28.183  50.320  1.00  0.00    -0.000 C 
BRANCH  18  19
ATOM     19  C   UNL     1      54.392  29.190  51.478  1.00  0.00    -0.003 C 
ATOM     20  C   UNL     1      54.731  30.595  50.989  1.00  0.00     0.004 C 
ENDBRANCH  18  19
ENDBRANCH  17  18
ENDBRANCH  16  17
ENDBRANCH  15  16
ENDBRANCH  14  15
ENDBRANCH  13  14
ENDBRANCH  12  13
ENDBRANCH   1  12
TORSDOF 16
ENDMDL
MODEL 5
REMARK VINA RESULT:    -2.948      1.611      4.737
REMARK INTER + INTRA:          -8.673
REMARK INTER:                  -6.117
REMARK INTRA:                  -2.556
REMARK UNBOUND:                -2.967
REMARK SMILES CCCCCCCCCCCCCCCCCC(=O)[O-]
REMARK SMILES IDX 10 1 11 2 12 3 13 4 14 5 15 6 16 7 17 8 18 9 19 10 20 11
REMARK SMILES IDX 9 12 8 13 7 14 6 15 5 16 4 17 3 18 2 19 1 20
REMARK H PARENT
REMARK Flexibility Score: inf
ROOT
ATOM      1  C   UNL     1      58.404  25.515  51.454  1.00  0.00     0.000 C 
ENDROOT
BRANCH   1   2
ATOM      2  C   UNL     1      58.911  25.884  50.052  1.00  0.00     0.000 C 
BRANCH   2   3
ATOM      3  C   UNL     1      59.905  27.049  50.116  1.00  0.00     0.000 C 
BRANCH   3   4
ATOM      4  C   UNL     1      59.321  28.308  49.456  1.00  0.00     0.000 C 
BRANCH   4   5
ATOM      5  C   UNL     1      58.704  29.276  50.476  1.00  0.00     0.000 C 
BRANCH   5   6
ATOM      6  C   UNL     1      59.290  29.102  51.888  1.00  0.00     0.000 C 
BRANCH   6   7
ATOM      7  C   UNL     1      58.309  29.507  53.003  1.00  0.00     0.006 C 
BRANCH   7   8
ATOM      8  C   UNL     1      58.347  31.006  53.352  1.00  0.00     0.053 C 
BRANCH   8   9
ATOM      9  C   UNL     1      57.055  31.498  53.931  1.00  0.00     0.041 C 
ATOM     10  O   UNL     1      56.700  32.695  53.768  1.00  0.00    -0.550 OA
ATOM     11  O   UNL     1      56.227  30.624  54.625  1.00  0.00    -0.550 OA
ENDBRANCH   8   9
ENDBRANCH   7   8
ENDBRANCH   6   7
ENDBRANCH   5   6
ENDBRANCH   4   5
ENDBRANCH   3   4
ENDBRANCH   2   3
ENDBRANCH   1   2
BRANCH   1  12
ATOM     12  C   UNL     1      56.885  25.707  51.604  1.00  0.00     0.000 C 
BRANCH  12  13
ATOM     13  C   UNL     1      56.252  26.394  50.384  1.00  0.00    -0.000 C 
BRANCH  13  14
ATOM     14  C   UNL     1      55.003  25.634  49.914  1.00  0.00    -0.000 C 
BRANCH  14  15
ATOM     15  C   UNL     1      53.783  26.554  49.748  1.00  0.00    -0.000 C 
BRANCH  15  16
ATOM     16  C   UNL     1      53.009  26.754  51.063  1.00  0.00    -0.000 C 
BRANCH  16  17
ATOM     17  C   UNL     1      52.941  28.239  51.477  1.00  0.00    -0.000 C 
BRANCH  17  18
ATOM     18  C   UNL     1      53.772  29.168  50.576  1.00  0.00    -0.000 C 
BRANCH  18  19
ATOM     19  C   UNL     1      55.025  29.716  51.273  1.00  0.00    -0.003 C 
ATOM     20  C   UNL     1      55.390  31.100  50.743  1.00  0.00     0.004 C 
ENDBRANCH  18  19
ENDBRANCH  17  18
ENDBRANCH  16  17
ENDBRANCH  15  16
ENDBRANCH  14  15
ENDBRANCH  13  14
ENDBRANCH  12  13
ENDBRANCH   1  12
TORSDOF 16
ENDMDL
MODEL 6
REMARK VINA RESULT:    -2.941      3.052      5.665
REMARK INTER + INTRA:          -8.659
REMARK INTER:                  -5.844
REMARK INTRA:                  -2.816
REMARK UNBOUND:                -2.967
REMARK SMILES CCCCCCCCCCCCCCCCCC(=O)[O-]
REMARK SMILES IDX 10 1 11 2 12 3 13 4 14 5 15 6 16 7 17 8 18 9 19 10 20 11
REMARK SMILES IDX 9 12 8 13 7 14 6 15 5 16 4 17 3 18 2 19 1 20
REMARK H PARENT
REMARK Flexibility Score: inf
ROOT
ATOM      1  C   UNL     1      53.336  27.868  50.033  1.00  0.00     0.000 C 
ENDROOT
BRANCH   1   2
ATOM      2  C   UNL     1      53.677  28.937  51.081  1.00  0.00     0.000 C 
BRANCH   2   3
ATOM      3  C   UNL     1      55.024  29.600  50.771  1.00  0.00     0.000 C 
BRANCH   3   4
ATOM      4  C   UNL     1      55.851  29.794  52.052  1.00  0.00     0.000 C 
BRANCH   4   5
ATOM      5  C   UNL     1      57.363  29.810  51.781  1.00  0.00     0.000 C 
BRANCH   5   6
ATOM      6  C   UNL     1      57.708  29.435  50.330  1.00  0.00     0.000 C 
BRANCH   6   7
ATOM      7  C   UNL     1      59.203  29.126  50.126  1.00  0.00     0.006 C 
BRANCH   7   8
ATOM      8  C   UNL     1      59.504  27.634  49.894  1.00  0.00     0.053 C 
BRANCH   8   9
ATOM      9  C   UNL     1      60.910  27.264  50.259  1.00  0.00     0.041 C 
ATOM     10  O   UNL     1      61.877  27.960  49.853  1.00  0.00    -0.550 OA
ATOM     11  O   UNL     1      61.149  26.165  51.075  1.00  0.00    -0.550 OA
ENDBRANCH   8   9
ENDBRANCH   7   8
ENDBRANCH   6   7
ENDBRANCH   5   6
ENDBRANCH   4   5
ENDBRANCH   3   4
ENDBRANCH   2   3
ENDBRANCH   1   2
BRANCH   1  12
ATOM     12  C   UNL     1      53.618  26.440  50.528  1.00  0.00     0.000 C 
BRANCH  12  13
ATOM     13  C   UNL     1      54.801  25.785  49.800  1.00  0.00    -0.000 C 
BRANCH  13  14
ATOM     14  C   UNL     1      56.133  26.167  50.463  1.00  0.00    -0.000 C 
BRANCH  14  15
ATOM     15  C   UNL     1      56.359  25.430  51.793  1.00  0.00    -0.000 C 
BRANCH  15  16
ATOM     16  C   UNL     1      56.024  26.301  53.017  1.00  0.00    -0.000 C 
BRANCH  16  17
ATOM     17  C   UNL     1      57.211  26.409  53.996  1.00  0.00    -0.000 C 
BRANCH  17  18
ATOM     18  C   UNL     1      58.526  26.843  53.326  1.00  0.00    -0.000 C 
BRANCH  18  19
ATOM     19  C   UNL     1      59.549  27.407  54.321  1.00  0.00    -0.003 C 
ATOM     20  C   UNL     1      60.427  28.468  53.666  1.00  0.00     0.004 C 
ENDBRANCH  18  19
ENDBRANCH  17  18
ENDBRANCH  16  17
ENDBRANCH  15  16
ENDBRANCH  14  15
ENDBRANCH  13  14
ENDBRANCH  12  13
ENDBRANCH   1  12
TORSDOF 16
ENDMDL
MODEL 7
REMARK VINA RESULT:    -2.940      3.091      5.917
REMARK INTER + INTRA:          -8.657
REMARK INTER:                  -6.018
REMARK INTRA:                  -2.638
REMARK UNBOUND:                -2.967
REMARK SMILES CCCCCCCCCCCCCCCCCC(=O)[O-]
REMARK SMILES IDX 10 1 11 2 12 3 13 4 14 5 15 6 16 7 17 8 18 9 19 10 20 11
REMARK SMILES IDX 9 12 8 13 7 14 6 15 5 16 4 17 3 18 2 19 1 20
REMARK H PARENT
REMARK Flexibility Score: inf
ROOT
ATOM      1  C   UNL     1      58.000  28.493  52.020  1.00  0.00     0.000 C 
ENDROOT
BRANCH   1   2
ATOM      2  C   UNL     1      57.849  29.116  50.625  1.00  0.00     0.000 C 
BRANCH   2   3
ATOM      3  C   UNL     1      59.187  29.119  49.877  1.00  0.00     0.000 C 
BRANCH   3   4
ATOM      4  C   UNL     1      59.678  27.686  49.621  1.00  0.00     0.000 C 
BRANCH   4   5
ATOM      5  C   UNL     1      60.987  27.370  50.360  1.00  0.00     0.000 C 
BRANCH   5   6
ATOM      6  C   UNL     1      60.838  26.210  51.360  1.00  0.00     0.000 C 
BRANCH   6   7
ATOM      7  C   UNL     1      59.648  25.287  51.039  1.00  0.00     0.006 C 
BRANCH   7   8
ATOM      8  C   UNL     1      59.791  23.865  51.611  1.00  0.00     0.053 C 
BRANCH   8   9
ATOM      9  C   UNL     1      58.888  23.617  52.780  1.00  0.00     0.041 C 
ATOM     10  O   UNL     1      58.420  22.467  52.991  1.00  0.00    -0.550 OA
ATOM     11  O   UNL     1      58.587  24.652  53.657  1.00  0.00    -0.550 OA
ENDBRANCH   8   9
ENDBRANCH   7   8
ENDBRANCH   6   7
ENDBRANCH   5   6
ENDBRANCH   4   5
ENDBRANCH   3   4
ENDBRANCH   2   3
ENDBRANCH   1   2
BRANCH   1  12
ATOM     12  C   UNL     1      56.872  27.502  52.352  1.00  0.00     0.000 C 
BRANCH  12  13
ATOM     13  C   UNL     1      56.279  26.840  51.098  1.00  0.00    -0.000 C 
BRANCH  13  14
ATOM     14  C   UNL     1      54.747  26.771  51.187  1.00  0.00    -0.000 C 
BRANCH  14  15
ATOM     15  C   UNL     1      54.057  27.613  50.102  1.00  0.00    -0.000 C 
BRANCH  15  16
ATOM     16  C   UNL     1      53.336  28.845  50.679  1.00  0.00    -0.000 C 
BRANCH  16  17
ATOM     17  C   UNL     1      54.259  30.079  50.748  1.00  0.00    -0.000 C 
BRANCH  17  18
ATOM     18  C   UNL     1      54.613  30.504  52.184  1.00  0.00    -0.000 C 
BRANCH  18  19
ATOM     19  C   UNL     1      55.663  31.622  52.237  1.00  0.00    -0.003 C 
ATOM     20  C   UNL     1      56.474  31.555  53.527  1.00  0.00     0.004 C 
ENDBRANCH  18  19
ENDBRANCH  17  18
ENDBRANCH  16  17
ENDBRANCH  15  16
ENDBRANCH  14  15
ENDBRANCH  13  14
ENDBRANCH  12  13
ENDBRANCH   1  12
TORSDOF 16
ENDMDL
MODEL 8
REMARK VINA RESULT:    -2.886      3.470      6.429
REMARK INTER + INTRA:          -8.552
REMARK INTER:                  -6.381
REMARK INTRA:                  -2.171
REMARK UNBOUND:                -2.967
REMARK SMILES CCCCCCCCCCCCCCCCCC(=O)[O-]
REMARK SMILES IDX 10 1 11 2 12 3 13 4 14 5 15 6 16 7 17 8 18 9 19 10 20 11
REMARK SMILES IDX 9 12 8 13 7 14 6 15 5 16 4 17 3 18 2 19 1 20
REMARK H PARENT
REMARK Flexibility Score: inf
ROOT
ATOM      1  C   UNL     1      57.985  27.858  51.796  1.00  0.00     0.000 C 
ENDROOT
BRANCH   1   2
ATOM      2  C   UNL     1      57.872  28.624  50.470  1.00  0.00     0.000 C 
BRANCH   2   3
ATOM      3  C   UNL     1      59.258  28.890  49.870  1.00  0.00     0.000 C 
BRANCH   3   4
ATOM      4  C   UNL     1      60.020  27.576  49.640  1.00  0.00     0.000 C 
BRANCH   4   5
ATOM      5  C   UNL     1      61.485  27.656  50.095  1.00  0.00     0.000 C 
BRANCH   5   6
ATOM      6  C   UNL     1      61.652  28.424  51.418  1.00  0.00     0.000 C 
BRANCH   6   7
ATOM      7  C   UNL     1      62.758  29.494  51.359  1.00  0.00     0.006 C 
BRANCH   7   8
ATOM      8  C   UNL     1      62.253  30.892  50.959  1.00  0.00     0.053 C 
BRANCH   8   9
ATOM      9  C   UNL     1      63.111  31.542  49.918  1.00  0.00     0.041 C 
ATOM     10  O   UNL     1      64.115  30.940  49.452  1.00  0.00    -0.550 OA
ATOM     11  O   UNL     1      62.785  32.804  49.437  1.00  0.00    -0.550 OA
ENDBRANCH   8   9
ENDBRANCH   7   8
ENDBRANCH   6   7
ENDBRANCH   5   6
ENDBRANCH   4   5
ENDBRANCH   3   4
ENDBRANCH   2   3
ENDBRANCH   1   2
BRANCH   1  12
ATOM     12  C   UNL     1      57.242  26.512  51.767  1.00  0.00     0.000 C 
BRANCH  12  13
ATOM     13  C   UNL     1      56.635  26.201  50.391  1.00  0.00    -0.000 C 
BRANCH  13  14
ATOM     14  C   UNL     1      55.105  26.101  50.476  1.00  0.00    -0.000 C 
BRANCH  14  15
ATOM     15  C   UNL     1      54.415  27.459  50.272  1.00  0.00    -0.000 C 
BRANCH  15  16
ATOM     16  C   UNL     1      53.658  27.933  51.525  1.00  0.00    -0.000 C 
BRANCH  16  17
ATOM     17  C   UNL     1      53.574  29.471  51.606  1.00  0.00    -0.000 C 
BRANCH  17  18
ATOM     18  C   UNL     1      54.630  30.192  50.751  1.00  0.00    -0.000 C 
BRANCH  18  19
ATOM     19  C   UNL     1      55.482  31.181  51.558  1.00  0.00    -0.003 C 
ATOM     20  C   UNL     1      55.791  30.636  52.948  1.00  0.00     0.004 C 
ENDBRANCH  18  19
ENDBRANCH  17  18
ENDBRANCH  16  17
ENDBRANCH  15  16
ENDBRANCH  14  15
ENDBRANCH  13  14
ENDBRANCH  12  13
ENDBRANCH   1  12
TORSDOF 16
ENDMDL
MODEL 9
REMARK VINA RESULT:    -2.851      3.367      6.732
REMARK INTER + INTRA:          -8.486
REMARK INTER:                  -6.086
REMARK INTRA:                  -2.400
REMARK UNBOUND:                -2.967
REMARK SMILES CCCCCCCCCCCCCCCCCC(=O)[O-]
REMARK SMILES IDX 10 1 11 2 12 3 13 4 14 5 15 6 16 7 17 8 18 9 19 10 20 11
REMARK SMILES IDX 9 12 8 13 7 14 6 15 5 16 4 17 3 18 2 19 1 20
REMARK H PARENT
REMARK Flexibility Score: inf
ROOT
ATOM      1  C   UNL     1      58.102  29.327  51.114  1.00  0.00     0.000 C 
ENDROOT
BRANCH   1   2
ATOM      2  C   UNL     1      59.098  29.262  49.946  1.00  0.00     0.000 C 
BRANCH   2   3
ATOM      3  C   UNL     1      59.591  27.827  49.724  1.00  0.00     0.000 C 
BRANCH   3   4
ATOM      4  C   UNL     1      60.055  27.194  51.045  1.00  0.00     0.000 C 
BRANCH   4   5
ATOM      5  C   UNL     1      61.553  27.412  51.309  1.00  0.00     0.000 C 
BRANCH   5   6
ATOM      6  C   UNL     1      62.369  27.546  50.012  1.00  0.00     0.000 C 
BRANCH   6   7
ATOM      7  C   UNL     1      63.363  28.722  50.043  1.00  0.00     0.006 C 
BRANCH   7   8
ATOM      8  C   UNL     1      62.721  30.070  50.419  1.00  0.00     0.053 C 
BRANCH   8   9
ATOM      9  C   UNL     1      63.391  30.723  51.590  1.00  0.00     0.041 C 
ATOM     10  O   UNL     1      64.641  30.663  51.723  1.00  0.00    -0.550 OA
ATOM     11  O   UNL     1      62.634  31.427  52.518  1.00  0.00    -0.550 OA
ENDBRANCH   8   9
ENDBRANCH   7   8
ENDBRANCH   6   7
ENDBRANCH   5   6
ENDBRANCH   4   5
ENDBRANCH   3   4
ENDBRANCH   2   3
ENDBRANCH   1   2
BRANCH   1  12
ATOM     12  C   UNL     1      56.769  29.983  50.720  1.00  0.00     0.000 C 
BRANCH  12  13
ATOM     13  C   UNL     1      55.631  29.641  51.694  1.00  0.00    -0.000 C 
BRANCH  13  14
ATOM     14  C   UNL     1      54.320  29.383  50.937  1.00  0.00    -0.000 C 
BRANCH  14  15
ATOM     15  C   UNL     1      53.773  27.966  51.176  1.00  0.00    -0.000 C 
BRANCH  15  16
ATOM     16  C   UNL     1      53.834  27.088  49.914  1.00  0.00    -0.000 C 
BRANCH  16  17
ATOM     17  C   UNL     1      54.736  25.851  50.110  1.00  0.00    -0.000 C 
BRANCH  17  18
ATOM     18  C   UNL     1      56.218  26.199  50.331  1.00  0.00    -0.000 C 
BRANCH  18  19
ATOM     19  C   UNL     1      56.836  25.460  51.527  1.00  0.00    -0.003 C 
ATOM     20  C   UNL     1      56.726  26.289  52.803  1.00  0.00     0.004 C 
ENDBRANCH  18  19
ENDBRANCH  17  18
ENDBRANCH  16  17
ENDBRANCH  15  16
ENDBRANCH  14  15
ENDBRANCH  13  14
ENDBRANCH  12  13
ENDBRANCH   1  12
TORSDOF 16
ENDMDL
