MODEL 1
REMARK VINA RESULT:    -4.248      0.000      0.000
REMARK INTER + INTRA:          -6.921
REMARK INTER:                  -6.484
REMARK INTRA:                  -0.438
REMARK UNBOUND:                -0.438
REMARK SMILES O=C([O-])CCCCCCCCC(=O)[O-]
REMARK SMILES IDX 7 1 6 2 5 3 4 4 2 5 1 6 3 7 8 8 9 9 10 10 11 11 12 12 13 13
REMARK SMILES IDX 14 14
REMARK H PARENT
REMARK Flexibility Score: inf
ROOT
ATOM      1  C   UNL     1      44.000  66.605  48.532  1.00  0.00     0.000 C 
ENDROOT
BRANCH   1   2
ATOM      2  C   UNL     1      42.527  66.933  48.237  1.00  0.00     0.000 C 
BRANCH   2   3
ATOM      3  C   UNL     1      42.249  67.100  46.734  1.00  0.00     0.006 C 
BRANCH   3   4
ATOM      4  C   UNL     1      41.071  66.243  46.252  1.00  0.00     0.053 C 
BRANCH   4   5
ATOM      5  C   UNL     1      41.404  64.788  46.365  1.00  0.00     0.041 C 
ATOM      6  O   UNL     1      40.612  64.000  46.946  1.00  0.00    -0.550 OA
ATOM      7  O   UNL     1      42.613  64.311  45.875  1.00  0.00    -0.550 OA
ENDBRANCH   4   5
ENDBRANCH   3   4
ENDBRANCH   2   3
ENDBRANCH   1   2
BRANCH   1   8
ATOM      8  C   UNL     1      44.388  66.893  49.991  1.00  0.00     0.000 C 
BRANCH   8   9
ATOM      9  C   UNL     1      45.429  65.900  50.537  1.00  0.00     0.000 C 
BRANCH   9  10
ATOM     10  C   UNL     1      44.989  65.226  51.850  1.00  0.00     0.006 C 
BRANCH  10  11
ATOM     11  C   UNL     1      43.994  66.061  52.675  1.00  0.00     0.053 C 
BRANCH  11  12
ATOM     12  C   UNL     1      43.207  65.228  53.641  1.00  0.00     0.041 C 
ATOM     13  O   UNL     1      43.767  64.294  54.274  1.00  0.00    -0.550 OA
ATOM     14  O   UNL     1      41.848  65.459  53.817  1.00  0.00    -0.550 OA
ENDBRANCH  11  12
ENDBRANCH  10  11
ENDBRANCH   9  10
ENDBRANCH   8   9
ENDBRANCH   1   8
TORSDOF 9
ENDMDL
MODEL 2
REMARK VINA RESULT:    -4.231      0.468      6.268
REMARK INTER + INTRA:          -6.895
REMARK INTER:                  -6.463
REMARK INTRA:                  -0.432
REMARK UNBOUND:                -0.438
REMARK SMILES O=C([O-])CCCCCCCCC(=O)[O-]
REMARK SMILES IDX 7 1 6 2 5 3 4 4 2 5 1 6 3 7 8 8 9 9 10 10 11 11 12 12 13 13
REMARK SMILES IDX 14 14
REMARK H PARENT
REMARK Flexibility Score: inf
ROOT
ATOM      1  C   UNL     1      44.364  66.805  50.004  1.00  0.00     0.000 C 
ENDROOT
BRANCH   1   2
ATOM      2  C   UNL     1      45.411  65.854  50.607  1.00  0.00     0.000 C 
BRANCH   2   3
ATOM      3  C   UNL     1      44.977  65.285  51.968  1.00  0.00     0.006 C 
BRANCH   3   4
ATOM      4  C   UNL     1      43.878  66.121  52.636  1.00  0.00     0.053 C 
BRANCH   4   5
ATOM      5  C   UNL     1      43.133  65.297  53.639  1.00  0.00     0.041 C 
ATOM      6  O   UNL     1      41.950  65.597  53.952  1.00  0.00    -0.550 OA
ATOM      7  O   UNL     1      43.761  64.229  54.265  1.00  0.00    -0.550 OA
ENDBRANCH   4   5
ENDBRANCH   3   4
ENDBRANCH   2   3
ENDBRANCH   1   2
BRANCH   1   8
ATOM      8  C   UNL     1      44.146  66.565  48.501  1.00  0.00     0.000 C 
BRANCH   8   9
ATOM      9  C   UNL     1      43.085  67.502  47.897  1.00  0.00     0.000 C 
BRANCH   9  10
ATOM     10  C   UNL     1      41.655  66.940  48.003  1.00  0.00     0.006 C 
BRANCH  10  11
ATOM     11  C   UNL     1      41.122  66.345  46.688  1.00  0.00     0.053 C 
BRANCH  11  12
ATOM     12  C   UNL     1      41.421  64.882  46.556  1.00  0.00     0.041 C 
ATOM     13  O   UNL     1      42.496  64.503  46.019  1.00  0.00    -0.550 OA
ATOM     14  O   UNL     1      40.500  63.938  46.992  1.00  0.00    -0.550 OA
ENDBRANCH  11  12
ENDBRANCH  10  11
ENDBRANCH   9  10
ENDBRANCH   8   9
ENDBRANCH   1   8
TORSDOF 9
ENDMDL
MODEL 3
REMARK VINA RESULT:    -4.058      1.314      6.874
REMARK INTER + INTRA:          -6.631
REMARK INTER:                  -6.261
REMARK INTRA:                  -0.369
REMARK UNBOUND:                -0.438
REMARK SMILES O=C([O-])CCCCCCCCC(=O)[O-]
REMARK SMILES IDX 7 1 6 2 5 3 4 4 2 5 1 6 3 7 8 8 9 9 10 10 11 11 12 12 13 13
REMARK SMILES IDX 14 14
REMARK H PARENT
REMARK Flexibility Score: inf
ROOT
ATOM      1  C   UNL     1      44.816  65.558  51.912  1.00  0.00     0.000 C 
ENDROOT
BRANCH   1   2
ATOM      2  C   UNL     1      43.909  66.665  52.473  1.00  0.00     0.000 C 
BRANCH   2   3
ATOM      3  C   UNL     1      42.931  66.143  53.538  1.00  0.00     0.006 C 
BRANCH   3   4
ATOM      4  C   UNL     1      43.259  64.716  53.995  1.00  0.00     0.053 C 
BRANCH   4   5
ATOM      5  C   UNL     1      43.268  64.636  55.490  1.00  0.00     0.041 C 
ATOM      6  O   UNL     1      42.676  65.512  56.175  1.00  0.00    -0.550 OA
ATOM      7  O   UNL     1      43.973  63.623  56.127  1.00  0.00    -0.550 OA
ENDBRANCH   4   5
ENDBRANCH   3   4
ENDBRANCH   2   3
ENDBRANCH   1   2
BRANCH   1   8
ATOM      8  C   UNL     1      45.337  65.881  50.502  1.00  0.00     0.000 C 
BRANCH   8   9
ATOM      9  C   UNL     1      44.306  66.636  49.645  1.00  0.00     0.000 C 
BRANCH   9  10
ATOM     10  C   UNL     1      44.374  66.264  48.152  1.00  0.00     0.006 C 
BRANCH  10  11
ATOM     11  C   UNL     1      43.009  66.285  47.442  1.00  0.00     0.053 C 
BRANCH  11  12
ATOM     12  C   UNL     1      42.832  65.130  46.503  1.00  0.00     0.041 C 
ATOM     13  O   UNL     1      43.787  64.758  45.771  1.00  0.00    -0.550 OA
ATOM     14  O   UNL     1      41.604  64.488  46.411  1.00  0.00    -0.550 OA
ENDBRANCH  11  12
ENDBRANCH  10  11
ENDBRANCH   9  10
ENDBRANCH   8   9
ENDBRANCH   1   8
TORSDOF 9
ENDMDL
MODEL 4
REMARK VINA RESULT:    -3.973      1.337      2.283
REMARK INTER + INTRA:          -6.502
REMARK INTER:                  -6.127
REMARK INTRA:                  -0.375
REMARK UNBOUND:                -0.438
REMARK SMILES O=C([O-])CCCCCCCCC(=O)[O-]
REMARK SMILES IDX 7 1 6 2 5 3 4 4 2 5 1 6 3 7 8 8 9 9 10 10 11 11 12 12 13 13
REMARK SMILES IDX 14 14
REMARK H PARENT
REMARK Flexibility Score: inf
ROOT
ATOM      1  C   UNL     1      45.386  65.630  50.455  1.00  0.00     0.000 C 
ENDROOT
BRANCH   1   2
ATOM      2  C   UNL     1      44.444  66.615  49.744  1.00  0.00     0.000 C 
BRANCH   2   3
ATOM      3  C   UNL     1      44.422  66.415  48.219  1.00  0.00     0.006 C 
BRANCH   3   4
ATOM      4  C   UNL     1      42.998  66.327  47.655  1.00  0.00     0.053 C 
BRANCH   4   5
ATOM      5  C   UNL     1      42.975  65.467  46.430  1.00  0.00     0.041 C 
ATOM      6  O   UNL     1      42.118  64.552  46.315  1.00  0.00    -0.550 OA
ATOM      7  O   UNL     1      43.931  65.643  45.439  1.00  0.00    -0.550 OA
ENDBRANCH   4   5
ENDBRANCH   3   4
ENDBRANCH   2   3
ENDBRANCH   1   2
BRANCH   1   8
ATOM      8  C   UNL     1      45.033  65.444  51.939  1.00  0.00     0.000 C 
BRANCH   8   9
ATOM      9  C   UNL     1      44.063  66.520  52.459  1.00  0.00     0.000 C 
BRANCH   9  10
ATOM     10  C   UNL     1      42.990  65.956  53.408  1.00  0.00     0.006 C 
BRANCH  10  11
ATOM     11  C   UNL     1      43.387  64.628  54.078  1.00  0.00     0.053 C 
BRANCH  11  12
ATOM     12  C   UNL     1      43.250  64.674  55.570  1.00  0.00     0.041 C 
ATOM     13  O   UNL     1      43.937  63.904  56.292  1.00  0.00    -0.550 OA
ATOM     14  O   UNL     1      42.339  65.541  56.162  1.00  0.00    -0.550 OA
ENDBRANCH  11  12
ENDBRANCH  10  11
ENDBRANCH   9  10
ENDBRANCH   8   9
ENDBRANCH   1   8
TORSDOF 9
ENDMDL
MODEL 5
REMARK VINA RESULT:    -3.929      1.611      6.993
REMARK INTER + INTRA:          -6.433
REMARK INTER:                  -6.022
REMARK INTRA:                  -0.411
REMARK UNBOUND:                -0.438
REMARK SMILES O=C([O-])CCCCCCCCC(=O)[O-]
REMARK SMILES IDX 7 1 6 2 5 3 4 4 2 5 1 6 3 7 8 8 9 9 10 10 11 11 12 12 13 13
REMARK SMILES IDX 14 14
REMARK H PARENT
REMARK Flexibility Score: inf
ROOT
ATOM      1  C   UNL     1      44.429  66.639  49.761  1.00  0.00     0.000 C 
ENDROOT
BRANCH   1   2
ATOM      2  C   UNL     1      45.514  65.857  50.520  1.00  0.00     0.000 C 
BRANCH   2   3
ATOM      3  C   UNL     1      45.003  65.278  51.849  1.00  0.00     0.006 C 
BRANCH   3   4
ATOM      4  C   UNL     1      43.887  66.125  52.475  1.00  0.00     0.053 C 
BRANCH   4   5
ATOM      5  C   UNL     1      43.312  65.430  53.669  1.00  0.00     0.041 C 
ATOM      6  O   UNL     1      43.770  64.315  54.035  1.00  0.00    -0.550 OA
ATOM      7  O   UNL     1      42.237  65.990  54.347  1.00  0.00    -0.550 OA
ENDBRANCH   4   5
ENDBRANCH   3   4
ENDBRANCH   2   3
ENDBRANCH   1   2
BRANCH   1   8
ATOM      8  C   UNL     1      44.367  66.266  48.271  1.00  0.00     0.000 C 
BRANCH   8   9
ATOM      9  C   UNL     1      42.984  66.530  47.649  1.00  0.00     0.000 C 
BRANCH   9  10
ATOM     10  C   UNL     1      42.507  65.387  46.734  1.00  0.00     0.006 C 
BRANCH  10  11
ATOM     11  C   UNL     1      43.631  64.746  45.901  1.00  0.00     0.053 C 
BRANCH  11  12
ATOM     12  C   UNL     1      43.876  65.471  44.612  1.00  0.00     0.041 C 
ATOM     13  O   UNL     1      43.267  65.124  43.566  1.00  0.00    -0.550 OA
ATOM     14  O   UNL     1      44.802  66.505  44.557  1.00  0.00    -0.550 OA
ENDBRANCH  11  12
ENDBRANCH  10  11
ENDBRANCH   9  10
ENDBRANCH   8   9
ENDBRANCH   1   8
TORSDOF 9
ENDMDL
MODEL 6
REMARK VINA RESULT:    -3.923      9.345     11.259
REMARK INTER + INTRA:          -6.425
REMARK INTER:                  -6.044
REMARK INTRA:                  -0.382
REMARK UNBOUND:                -0.438
REMARK SMILES O=C([O-])CCCCCCCCC(=O)[O-]
REMARK SMILES IDX 7 1 6 2 5 3 4 4 2 5 1 6 3 7 8 8 9 9 10 10 11 11 12 12 13 13
REMARK SMILES IDX 14 14
REMARK H PARENT
REMARK Flexibility Score: inf
ROOT
ATOM      1  C   UNL     1      36.129  64.365  54.743  1.00  0.00     0.000 C 
ENDROOT
BRANCH   1   2
ATOM      2  C   UNL     1      37.057  64.141  55.948  1.00  0.00     0.000 C 
BRANCH   2   3
ATOM      3  C   UNL     1      37.260  62.651  56.268  1.00  0.00     0.006 C 
BRANCH   3   4
ATOM      4  C   UNL     1      36.234  61.750  55.567  1.00  0.00     0.053 C 
BRANCH   4   5
ATOM      5  C   UNL     1      36.473  60.315  55.920  1.00  0.00     0.041 C 
ATOM      6  O   UNL     1      35.931  59.815  56.941  1.00  0.00    -0.550 OA
ATOM      7  O   UNL     1      37.335  59.545  55.150  1.00  0.00    -0.550 OA
ENDBRANCH   4   5
ENDBRANCH   3   4
ENDBRANCH   2   3
ENDBRANCH   1   2
BRANCH   1   8
ATOM      8  C   UNL     1      35.476  65.757  54.752  1.00  0.00     0.000 C 
BRANCH   8   9
ATOM      9  C   UNL     1      34.236  65.826  55.662  1.00  0.00     0.000 C 
BRANCH   9  10
ATOM     10  C   UNL     1      32.996  66.393  54.947  1.00  0.00     0.006 C 
BRANCH  10  11
ATOM     11  C   UNL     1      33.308  67.549  53.980  1.00  0.00     0.053 C 
BRANCH  11  12
ATOM     12  C   UNL     1      32.593  67.411  52.670  1.00  0.00     0.041 C 
ATOM     13  O   UNL     1      31.334  67.428  52.632  1.00  0.00    -0.550 OA
ATOM     14  O   UNL     1      33.313  67.229  51.496  1.00  0.00    -0.550 OA
ENDBRANCH  11  12
ENDBRANCH  10  11
ENDBRANCH   9  10
ENDBRANCH   8   9
ENDBRANCH   1   8
TORSDOF 9
ENDMDL
MODEL 7
REMARK VINA RESULT:    -3.766      9.767     10.626
REMARK INTER + INTRA:          -6.184
REMARK INTER:                  -5.769
REMARK INTRA:                  -0.415
REMARK UNBOUND:                -0.438
REMARK SMILES O=C([O-])CCCCCCCCC(=O)[O-]
REMARK SMILES IDX 7 1 6 2 5 3 4 4 2 5 1 6 3 7 8 8 9 9 10 10 11 11 12 12 13 13
REMARK SMILES IDX 14 14
REMARK H PARENT
REMARK Flexibility Score: inf
ROOT
ATOM      1  C   UNL     1      36.147  63.477  55.526  1.00  0.00     0.000 C 
ENDROOT
BRANCH   1   2
ATOM      2  C   UNL     1      36.053  64.612  54.492  1.00  0.00     0.000 C 
BRANCH   2   3
ATOM      3  C   UNL     1      35.995  66.002  55.145  1.00  0.00     0.006 C 
BRANCH   3   4
ATOM      4  C   UNL     1      34.749  66.797  54.737  1.00  0.00     0.053 C 
BRANCH   4   5
ATOM      5  C   UNL     1      33.588  66.431  55.608  1.00  0.00     0.041 C 
ATOM      6  O   UNL     1      33.673  66.547  56.859  1.00  0.00    -0.550 OA
ATOM      7  O   UNL     1      32.430  65.915  55.042  1.00  0.00    -0.550 OA
ENDBRANCH   4   5
ENDBRANCH   3   4
ENDBRANCH   2   3
ENDBRANCH   1   2
BRANCH   1   8
ATOM      8  C   UNL     1      37.579  63.270  56.045  1.00  0.00     0.000 C 
BRANCH   8   9
ATOM      9  C   UNL     1      38.017  61.795  56.010  1.00  0.00     0.000 C 
BRANCH   9  10
ATOM     10  C   UNL     1      36.837  60.820  55.843  1.00  0.00     0.006 C 
BRANCH  10  11
ATOM     11  C   UNL     1      37.240  59.445  55.284  1.00  0.00     0.053 C 
BRANCH  11  12
ATOM     12  C   UNL     1      37.343  58.398  56.352  1.00  0.00     0.041 C 
ATOM     13  O   UNL     1      37.648  57.214  56.050  1.00  0.00    -0.550 OA
ATOM     14  O   UNL     1      37.069  58.720  57.676  1.00  0.00    -0.550 OA
ENDBRANCH  11  12
ENDBRANCH  10  11
ENDBRANCH   9  10
ENDBRANCH   8   9
ENDBRANCH   1   8
TORSDOF 9
ENDMDL
MODEL 8
REMARK VINA RESULT:    -3.753      9.670     10.716
REMARK INTER + INTRA:          -6.166
REMARK INTER:                  -5.814
REMARK INTRA:                  -0.352
REMARK UNBOUND:                -0.438
REMARK SMILES O=C([O-])CCCCCCCCC(=O)[O-]
REMARK SMILES IDX 7 1 6 2 5 3 4 4 2 5 1 6 3 7 8 8 9 9 10 10 11 11 12 12 13 13
REMARK SMILES IDX 14 14
REMARK H PARENT
REMARK Flexibility Score: inf
ROOT
ATOM      1  C   UNL     1      35.730  65.083  54.698  1.00  0.00     0.000 C 
ENDROOT
BRANCH   1   2
ATOM      2  C   UNL     1      34.528  65.519  55.552  1.00  0.00     0.000 C 
BRANCH   2   3
ATOM      3  C   UNL     1      33.809  66.749  54.975  1.00  0.00     0.006 C 
BRANCH   3   4
ATOM      4  C   UNL     1      32.287  66.568  54.908  1.00  0.00     0.053 C 
BRANCH   4   5
ATOM      5  C   UNL     1      31.740  67.198  53.666  1.00  0.00     0.041 C 
ATOM      6  O   UNL     1      30.560  67.635  53.644  1.00  0.00    -0.550 OA
ATOM      7  O   UNL     1      32.518  67.255  52.516  1.00  0.00    -0.550 OA
ENDBRANCH   4   5
ENDBRANCH   3   4
ENDBRANCH   2   3
ENDBRANCH   1   2
BRANCH   1   8
ATOM      8  C   UNL     1      36.284  63.711  55.117  1.00  0.00     0.000 C 
BRANCH   8   9
ATOM      9  C   UNL     1      36.501  63.596  56.636  1.00  0.00     0.000 C 
BRANCH   9  10
ATOM     10  C   UNL     1      37.100  62.242  57.058  1.00  0.00     0.006 C 
BRANCH  10  11
ATOM     11  C   UNL     1      37.533  61.357  55.876  1.00  0.00     0.053 C 
BRANCH  11  12
ATOM     12  C   UNL     1      36.817  60.040  55.851  1.00  0.00     0.041 C 
ATOM     13  O   UNL     1      35.820  59.848  56.597  1.00  0.00    -0.550 OA
ATOM     14  O   UNL     1      37.269  59.014  55.032  1.00  0.00    -0.550 OA
ENDBRANCH  11  12
ENDBRANCH  10  11
ENDBRANCH   9  10
ENDBRANCH   8   9
ENDBRANCH   1   8
TORSDOF 9
ENDMDL
MODEL 9
REMARK VINA RESULT:    -3.736      9.763     11.489
REMARK INTER + INTRA:          -6.140
REMARK INTER:                  -5.829
REMARK INTRA:                  -0.312
REMARK UNBOUND:                -0.438
REMARK SMILES O=C([O-])CCCCCCCCC(=O)[O-]
REMARK SMILES IDX 7 1 6 2 5 3 4 4 2 5 1 6 3 7 8 8 9 9 10 10 11 11 12 12 13 13
REMARK SMILES IDX 14 14
REMARK H PARENT
REMARK Flexibility Score: inf
ROOT
ATOM      1  C   UNL     1      36.161  63.019  55.463  1.00  0.00     0.000 C 
ENDROOT
BRANCH   1   2
ATOM      2  C   UNL     1      37.220  62.882  56.570  1.00  0.00     0.000 C 
BRANCH   2   3
ATOM      3  C   UNL     1      38.059  61.601  56.429  1.00  0.00     0.006 C 
BRANCH   3   4
ATOM      4  C   UNL     1      37.370  60.534  55.567  1.00  0.00     0.053 C 
BRANCH   4   5
ATOM      5  C   UNL     1      37.062  59.320  56.386  1.00  0.00     0.041 C 
ATOM      6  O   UNL     1      36.319  59.411  57.398  1.00  0.00    -0.550 OA
ATOM      7  O   UNL     1      37.638  58.099  56.062  1.00  0.00    -0.550 OA
ENDBRANCH   4   5
ENDBRANCH   3   4
ENDBRANCH   2   3
ENDBRANCH   1   2
BRANCH   1   8
ATOM      8  C   UNL     1      36.071  64.449  54.908  1.00  0.00     0.000 C 
BRANCH   8   9
ATOM      9  C   UNL     1      35.120  65.344  55.722  1.00  0.00     0.000 C 
BRANCH   9  10
ATOM     10  C   UNL     1      34.386  66.387  54.858  1.00  0.00     0.006 C 
BRANCH  10  11
ATOM     11  C   UNL     1      32.857  66.377  55.036  1.00  0.00     0.053 C 
BRANCH  11  12
ATOM     12  C   UNL     1      32.142  67.027  53.890  1.00  0.00     0.041 C 
ATOM     13  O   UNL     1      30.939  67.379  54.014  1.00  0.00    -0.550 OA
ATOM     14  O   UNL     1      32.790  67.214  52.676  1.00  0.00    -0.550 OA
ENDBRANCH  11  12
ENDBRANCH  10  11
ENDBRANCH   9  10
ENDBRANCH   8   9
ENDBRANCH   1   8
TORSDOF 9
ENDMDL
