MODEL 1
REMARK VINA RESULT:    -4.496      0.000      0.000
REMARK INTER + INTRA:          -4.628
REMARK INTER:                  -4.628
REMARK INTRA:                   0.000
REMARK UNBOUND:                 0.000
REMARK SMILES Nc1ncnc2nc[nH]c12
REMARK SMILES IDX 8 1 7 2 6 3 5 4 4 5 3 6 2 7 10 8 9 9 1 11
REMARK H PARENT 9 10 1 12 1 13
REMARK Flexibility Score: inf
ROOT
ATOM      1  C   UNL     1     -13.748 -30.707 -12.835  1.00  0.00     0.199 A 
ATOM      2  N   UNL     1     -13.994 -30.170 -11.609  1.00  0.00    -0.217 NA
ATOM      3  C   UNL     1     -14.037 -28.854 -11.878  1.00  0.00     0.182 A 
ATOM      4  N   UNL     1     -14.255 -27.855 -10.990  1.00  0.00    -0.215 NA
ATOM      5  C   UNL     1     -14.262 -26.569 -11.454  1.00  0.00     0.226 A 
ATOM      6  N   UNL     1     -14.053 -26.308 -12.786  1.00  0.00    -0.217 NA
ATOM      7  C   UNL     1     -13.832 -27.315 -13.682  1.00  0.00     0.152 A 
ATOM      8  C   UNL     1     -13.828 -28.618 -13.193  1.00  0.00     0.127 A 
ATOM      9  N   UNL     1     -13.641 -29.785 -13.824  1.00  0.00    -0.340 N 
ATOM     10  H   UNL     1     -13.456 -29.956 -14.837  1.00  0.00     0.168 HD
ENDROOT
BRANCH   7  11
ATOM     11  N   UNL     1     -13.615 -27.020 -15.062  1.00  0.00    -0.382 N 
ATOM     12  H   UNL     1     -13.943 -26.112 -15.460  1.00  0.00     0.158 HD
ATOM     13  H   UNL     1     -13.133 -27.697 -15.694  1.00  0.00     0.158 HD
ENDBRANCH   7  11
TORSDOF 1
ENDMDL
MODEL 2
REMARK VINA RESULT:    -4.388      1.555      3.291
REMARK INTER + INTRA:          -4.516
REMARK INTER:                  -4.516
REMARK INTRA:                   0.000
REMARK UNBOUND:                 0.000
REMARK SMILES Nc1ncnc2nc[nH]c12
REMARK SMILES IDX 8 1 7 2 6 3 5 4 4 5 3 6 2 7 10 8 9 9 1 11
REMARK H PARENT 9 10 1 12 1 13
REMARK Flexibility Score: inf
ROOT
ATOM      1  C   UNL     1     -14.707 -26.196 -12.928  1.00  0.00     0.199 A 
ATOM      2  N   UNL     1     -14.312 -26.133 -11.627  1.00  0.00    -0.217 NA
ATOM      3  C   UNL     1     -14.433 -27.410 -11.229  1.00  0.00     0.182 A 
ATOM      4  N   UNL     1     -14.162 -27.902  -9.996  1.00  0.00    -0.215 NA
ATOM      5  C   UNL     1     -14.348 -29.239  -9.780  1.00  0.00     0.226 A 
ATOM      6  N   UNL     1     -14.798 -30.052 -10.791  1.00  0.00    -0.217 NA
ATOM      7  C   UNL     1     -15.073 -29.557 -12.034  1.00  0.00     0.152 A 
ATOM      8  C   UNL     1     -14.878 -28.194 -12.238  1.00  0.00     0.127 A 
ATOM      9  N   UNL     1     -15.060 -27.442 -13.331  1.00  0.00    -0.340 N 
ATOM     10  H   UNL     1     -15.394 -27.734 -14.276  1.00  0.00     0.168 HD
ENDROOT
BRANCH   7  11
ATOM     11  N   UNL     1     -15.541 -30.421 -13.069  1.00  0.00    -0.382 N 
ATOM     12  H   UNL     1     -15.974 -30.019 -13.930  1.00  0.00     0.158 HD
ATOM     13  H   UNL     1     -15.462 -31.459 -12.989  1.00  0.00     0.158 HD
ENDBRANCH   7  11
TORSDOF 1
ENDMDL
MODEL 3
REMARK VINA RESULT:    -4.292      1.746      1.963
REMARK INTER + INTRA:          -4.417
REMARK INTER:                  -4.417
REMARK INTRA:                   0.000
REMARK UNBOUND:                 0.000
REMARK SMILES Nc1ncnc2nc[nH]c12
REMARK SMILES IDX 8 1 7 2 6 3 5 4 4 5 3 6 2 7 10 8 9 9 1 11
REMARK H PARENT 9 10 1 12 1 13
REMARK Flexibility Score: inf
ROOT
ATOM      1  C   UNL     1     -15.534 -29.637 -12.487  1.00  0.00     0.199 A 
ATOM      2  N   UNL     1     -14.934 -29.871 -11.288  1.00  0.00    -0.217 NA
ATOM      3  C   UNL     1     -14.418 -28.668 -10.988  1.00  0.00     0.182 A 
ATOM      4  N   UNL     1     -13.707 -28.347  -9.880  1.00  0.00    -0.215 NA
ATOM      5  C   UNL     1     -13.261 -27.062  -9.749  1.00  0.00     0.226 A 
ATOM      6  N   UNL     1     -13.532 -26.129 -10.719  1.00  0.00    -0.217 NA
ATOM      7  C   UNL     1     -14.247 -26.451 -11.837  1.00  0.00     0.152 A 
ATOM      8  C   UNL     1     -14.694 -27.764 -11.955  1.00  0.00     0.127 A 
ATOM      9  N   UNL     1     -15.405 -28.358 -12.922  1.00  0.00    -0.340 N 
ATOM     10  H   UNL     1     -15.777 -27.946 -13.805  1.00  0.00     0.168 HD
ENDROOT
BRANCH   7  11
ATOM     11  N   UNL     1     -14.516 -25.464 -12.833  1.00  0.00    -0.382 N 
ATOM     12  H   UNL     1     -14.905 -25.749 -13.759  1.00  0.00     0.158 HD
ATOM     13  H   UNL     1     -14.331 -24.451 -12.660  1.00  0.00     0.158 HD
ENDBRANCH   7  11
TORSDOF 1
ENDMDL
MODEL 4
REMARK VINA RESULT:    -4.286      1.867      2.829
REMARK INTER + INTRA:          -4.411
REMARK INTER:                  -4.411
REMARK INTRA:                   0.000
REMARK UNBOUND:                 0.000
REMARK SMILES Nc1ncnc2nc[nH]c12
REMARK SMILES IDX 8 1 7 2 6 3 5 4 4 5 3 6 2 7 10 8 9 9 1 11
REMARK H PARENT 9 10 1 12 1 13
REMARK Flexibility Score: inf
ROOT
ATOM      1  C   UNL     1     -11.984 -27.193 -10.264  1.00  0.00     0.199 A 
ATOM      2  N   UNL     1     -12.611 -28.400 -10.316  1.00  0.00    -0.217 NA
ATOM      3  C   UNL     1     -13.612 -28.164 -11.180  1.00  0.00     0.182 A 
ATOM      4  N   UNL     1     -14.552 -29.049 -11.590  1.00  0.00    -0.215 NA
ATOM      5  C   UNL     1     -15.497 -28.622 -12.480  1.00  0.00     0.226 A 
ATOM      6  N   UNL     1     -15.486 -27.328 -12.940  1.00  0.00    -0.217 NA
ATOM      7  C   UNL     1     -14.540 -26.433 -12.526  1.00  0.00     0.152 A 
ATOM      8  C   UNL     1     -13.585 -26.885 -11.620  1.00  0.00     0.127 A 
ATOM      9  N   UNL     1     -12.555 -26.246 -11.049  1.00  0.00    -0.340 N 
ATOM     10  H   UNL     1     -12.254 -25.254 -11.173  1.00  0.00     0.168 HD
ENDROOT
BRANCH   7  11
ATOM     11  N   UNL     1     -14.549 -25.093 -13.017  1.00  0.00    -0.382 N 
ATOM     12  H   UNL     1     -15.267 -24.416 -12.675  1.00  0.00     0.158 HD
ATOM     13  H   UNL     1     -13.849 -24.765 -13.718  1.00  0.00     0.158 HD
ENDBRANCH   7  11
TORSDOF 1
ENDMDL
MODEL 5
REMARK VINA RESULT:    -4.149      2.202      3.914
REMARK INTER + INTRA:          -4.271
REMARK INTER:                  -4.271
REMARK INTRA:                   0.000
REMARK UNBOUND:                 0.000
REMARK SMILES Nc1ncnc2nc[nH]c12
REMARK SMILES IDX 8 1 7 2 6 3 5 4 4 5 3 6 2 7 10 8 9 9 1 11
REMARK H PARENT 9 10 1 12 1 13
REMARK Flexibility Score: inf
ROOT
ATOM      1  C   UNL     1     -14.800 -27.004  -7.711  1.00  0.00     0.199 A 
ATOM      2  N   UNL     1     -14.548 -28.317  -7.969  1.00  0.00    -0.217 NA
ATOM      3  C   UNL     1     -14.258 -28.299  -9.281  1.00  0.00     0.182 A 
ATOM      4  N   UNL     1     -13.929 -29.364 -10.050  1.00  0.00    -0.215 NA
ATOM      5  C   UNL     1     -13.665 -29.147 -11.374  1.00  0.00     0.226 A 
ATOM      6  N   UNL     1     -13.735 -27.881 -11.900  1.00  0.00    -0.217 NA
ATOM      7  C   UNL     1     -14.068 -26.806 -11.125  1.00  0.00     0.152 A 
ATOM      8  C   UNL     1     -14.333 -27.044  -9.779  1.00  0.00     0.127 A 
ATOM      9  N   UNL     1     -14.678 -26.201  -8.797  1.00  0.00    -0.340 N 
ATOM     10  H   UNL     1     -14.821 -25.168  -8.845  1.00  0.00     0.168 HD
ENDROOT
BRANCH   7  11
ATOM     11  N   UNL     1     -14.135 -25.498 -11.694  1.00  0.00    -0.382 N 
ATOM     12  H   UNL     1     -14.584 -24.720 -11.162  1.00  0.00     0.158 HD
ATOM     13  H   UNL     1     -13.744 -25.295 -12.640  1.00  0.00     0.158 HD
ENDBRANCH   7  11
TORSDOF 1
ENDMDL
MODEL 6
REMARK VINA RESULT:    -4.122      1.545      3.817
REMARK INTER + INTRA:          -4.242
REMARK INTER:                  -4.242
REMARK INTRA:                   0.000
REMARK UNBOUND:                 0.000
REMARK SMILES Nc1ncnc2nc[nH]c12
REMARK SMILES IDX 8 1 7 2 6 3 5 4 4 5 3 6 2 7 10 8 9 9 1 11
REMARK H PARENT 9 10 1 12 1 13
REMARK Flexibility Score: inf
ROOT
ATOM      1  C   UNL     1     -14.367 -25.732 -13.303  1.00  0.00     0.199 A 
ATOM      2  N   UNL     1     -14.480 -27.047 -13.636  1.00  0.00    -0.217 NA
ATOM      3  C   UNL     1     -14.479 -27.646 -12.434  1.00  0.00     0.182 A 
ATOM      4  N   UNL     1     -14.570 -28.977 -12.193  1.00  0.00    -0.215 NA
ATOM      5  C   UNL     1     -14.551 -29.400 -10.894  1.00  0.00     0.226 A 
ATOM      6  N   UNL     1     -14.443 -28.495  -9.867  1.00  0.00    -0.217 NA
ATOM      7  C   UNL     1     -14.350 -27.154 -10.108  1.00  0.00     0.152 A 
ATOM      8  C   UNL     1     -14.371 -26.739 -11.437  1.00  0.00     0.127 A 
ATOM      9  N   UNL     1     -14.298 -25.511 -11.967  1.00  0.00    -0.340 N 
ATOM     10  H   UNL     1     -14.208 -24.593 -11.477  1.00  0.00     0.168 HD
ENDROOT
BRANCH   7  11
ATOM     11  N   UNL     1     -14.237 -26.231  -9.025  1.00  0.00    -0.382 N 
ATOM     12  H   UNL     1     -13.557 -26.411  -8.253  1.00  0.00     0.158 HD
ATOM     13  H   UNL     1     -14.825 -25.369  -8.981  1.00  0.00     0.158 HD
ENDBRANCH   7  11
TORSDOF 1
ENDMDL
MODEL 7
REMARK VINA RESULT:    -4.114      1.822      2.993
REMARK INTER + INTRA:          -4.234
REMARK INTER:                  -4.234
REMARK INTRA:                   0.000
REMARK UNBOUND:                 0.000
REMARK SMILES Nc1ncnc2nc[nH]c12
REMARK SMILES IDX 8 1 7 2 6 3 5 4 4 5 3 6 2 7 10 8 9 9 1 11
REMARK H PARENT 9 10 1 12 1 13
REMARK Flexibility Score: inf
ROOT
ATOM      1  C   UNL     1     -13.880 -28.178  -9.088  1.00  0.00     0.199 A 
ATOM      2  N   UNL     1     -13.701 -26.872  -9.428  1.00  0.00    -0.217 NA
ATOM      3  C   UNL     1     -14.129 -26.847 -10.701  1.00  0.00     0.182 A 
ATOM      4  N   UNL     1     -14.164 -25.769 -11.521  1.00  0.00    -0.215 NA
ATOM      5  C   UNL     1     -14.636 -25.941 -12.792  1.00  0.00     0.226 A 
ATOM      6  N   UNL     1     -15.059 -27.176 -13.217  1.00  0.00    -0.217 NA
ATOM      7  C   UNL     1     -15.023 -28.264 -12.392  1.00  0.00     0.152 A 
ATOM      8  C   UNL     1     -14.541 -28.072 -11.101  1.00  0.00     0.127 A 
ATOM      9  N   UNL     1     -14.391 -28.937 -10.089  1.00  0.00    -0.340 N 
ATOM     10  H   UNL     1     -14.612 -29.957 -10.065  1.00  0.00     0.168 HD
ENDROOT
BRANCH   7  11
ATOM     11  N   UNL     1     -15.468 -29.539 -12.856  1.00  0.00    -0.382 N 
ATOM     12  H   UNL     1     -14.866 -30.382 -12.725  1.00  0.00     0.158 HD
ATOM     13  H   UNL     1     -16.391 -29.654 -13.330  1.00  0.00     0.158 HD
ENDBRANCH   7  11
TORSDOF 1
ENDMDL
MODEL 8
REMARK VINA RESULT:    -4.061      2.579      4.336
REMARK INTER + INTRA:          -4.180
REMARK INTER:                  -4.180
REMARK INTRA:                   0.000
REMARK UNBOUND:                 0.000
REMARK SMILES Nc1ncnc2nc[nH]c12
REMARK SMILES IDX 8 1 7 2 6 3 5 4 4 5 3 6 2 7 10 8 9 9 1 11
REMARK H PARENT 9 10 1 12 1 13
REMARK Flexibility Score: inf
ROOT
ATOM      1  C   UNL     1     -14.321 -28.118 -11.877  1.00  0.00     0.199 A 
ATOM      2  N   UNL     1     -14.444 -26.910 -11.260  1.00  0.00    -0.217 NA
ATOM      3  C   UNL     1     -14.480 -27.255  -9.963  1.00  0.00     0.182 A 
ATOM      4  N   UNL     1     -14.596 -26.415  -8.906  1.00  0.00    -0.215 NA
ATOM      5  C   UNL     1     -14.614 -26.956  -7.651  1.00  0.00     0.226 A 
ATOM      6  N   UNL     1     -14.516 -28.314  -7.476  1.00  0.00    -0.217 NA
ATOM      7  C   UNL     1     -14.400 -29.162  -8.540  1.00  0.00     0.152 A 
ATOM      8  C   UNL     1     -14.382 -28.595  -9.811  1.00  0.00     0.127 A 
ATOM      9  N   UNL     1     -14.280 -29.167 -11.018  1.00  0.00    -0.340 N 
ATOM     10  H   UNL     1     -14.191 -30.180 -11.255  1.00  0.00     0.168 HD
ENDROOT
BRANCH   7  11
ATOM     11  N   UNL     1     -14.300 -30.571  -8.334  1.00  0.00    -0.382 N 
ATOM     12  H   UNL     1     -13.383 -30.998  -8.073  1.00  0.00     0.158 HD
ATOM     13  H   UNL     1     -15.129 -31.197  -8.440  1.00  0.00     0.158 HD
ENDBRANCH   7  11
TORSDOF 1
ENDMDL
MODEL 9
REMARK VINA RESULT:    -3.987      1.874      2.262
REMARK INTER + INTRA:          -4.104
REMARK INTER:                  -4.104
REMARK INTRA:                   0.000
REMARK UNBOUND:                 0.000
REMARK SMILES Nc1ncnc2nc[nH]c12
REMARK SMILES IDX 8 1 7 2 6 3 5 4 4 5 3 6 2 7 10 8 9 9 1 11
REMARK H PARENT 9 10 1 12 1 13
REMARK Flexibility Score: inf
ROOT
ATOM      1  C   UNL     1     -14.657 -32.007 -13.225  1.00  0.00     0.199 A 
ATOM      2  N   UNL     1     -13.726 -31.993 -12.232  1.00  0.00    -0.217 NA
ATOM      3  C   UNL     1     -13.769 -30.716 -11.819  1.00  0.00     0.182 A 
ATOM      4  N   UNL     1     -13.026 -30.161 -10.831  1.00  0.00    -0.215 NA
ATOM      5  C   UNL     1     -13.211 -28.835 -10.552  1.00  0.00     0.226 A 
ATOM      6  N   UNL     1     -14.126 -28.096 -11.259  1.00  0.00    -0.217 NA
ATOM      7  C   UNL     1     -14.875 -28.653 -12.255  1.00  0.00     0.152 A 
ATOM      8  C   UNL     1     -14.675 -30.004 -12.527  1.00  0.00     0.127 A 
ATOM      9  N   UNL     1     -15.254 -30.806 -13.430  1.00  0.00    -0.340 N 
ATOM     10  H   UNL     1     -15.992 -30.573 -14.131  1.00  0.00     0.168 HD
ENDROOT
BRANCH   7  11
ATOM     11  N   UNL     1     -15.821 -27.865 -12.978  1.00  0.00    -0.382 N 
ATOM     12  H   UNL     1     -16.840 -27.949 -12.768  1.00  0.00     0.158 HD
ATOM     13  H   UNL     1     -15.518 -27.197 -13.721  1.00  0.00     0.158 HD
ENDBRANCH   7  11
TORSDOF 1
ENDMDL
