MODEL 1
REMARK VINA RESULT:    -4.790      0.000      0.000
REMARK INTER + INTRA:          -4.790
REMARK INTER:                  -4.790
REMARK INTRA:                   0.000
REMARK UNBOUND:                 0.000
REMARK SMILES CC1=CC(=O)[C@H]2C[C@@H]1C2(C)C
REMARK SMILES IDX 1 1 2 2 3 3 4 4 5 5 6 6 7 7 8 8 9 9 10 10 11 11
REMARK H PARENT
REMARK Flexibility Score: inf
ROOT
ATOM      1  C   UNL     1      -2.417  -0.317  25.662  1.00  0.00     0.040 C 
ATOM      2  C   UNL     1      -2.147   0.063  27.082  1.00  0.00    -0.066 C 
ATOM      3  C   UNL     1      -2.900  -0.432  28.104  1.00  0.00     0.047 C 
ATOM      4  C   UNL     1      -2.549   0.050  29.479  1.00  0.00     0.159 C 
ATOM      5  O   UNL     1      -3.195  -0.304  30.500  1.00  0.00    -0.295 OA
ATOM      6  C   UNL     1      -1.355   1.001  29.555  1.00  0.00     0.067 C 
ATOM      7  C   UNL     1      -0.287   0.340  28.657  1.00  0.00     0.021 C 
ATOM      8  C   UNL     1      -0.996   1.018  27.464  1.00  0.00     0.022 C 
ATOM      9  C   UNL     1      -1.521   2.092  28.459  1.00  0.00    -0.019 C 
ATOM     10  C   UNL     1      -2.937   2.688  28.219  1.00  0.00     0.012 C 
ATOM     11  C   UNL     1      -0.526   3.266  28.640  1.00  0.00     0.012 C 
ENDROOT
TORSDOF 0
ENDMDL
MODEL 2
REMARK VINA RESULT:    -4.578      2.090      3.267
REMARK INTER + INTRA:          -4.578
REMARK INTER:                  -4.578
REMARK INTRA:                   0.000
REMARK UNBOUND:                 0.000
REMARK SMILES CC1=CC(=O)[C@H]2C[C@@H]1C2(C)C
REMARK SMILES IDX 1 1 2 2 3 3 4 4 5 5 6 6 7 7 8 8 9 9 10 10 11 11
REMARK H PARENT
REMARK Flexibility Score: inf
ROOT
ATOM      1  C   UNL     1       0.110   0.714  28.910  1.00  0.00     0.040 C 
ATOM      2  C   UNL     1      -1.145   0.545  28.114  1.00  0.00    -0.066 C 
ATOM      3  C   UNL     1      -1.121   0.029  26.854  1.00  0.00     0.047 C 
ATOM      4  C   UNL     1      -2.441  -0.060  26.149  1.00  0.00     0.159 C 
ATOM      5  O   UNL     1      -2.544  -0.483  24.968  1.00  0.00    -0.295 OA
ATOM      6  C   UNL     1      -3.650   0.399  26.963  1.00  0.00     0.067 C 
ATOM      7  C   UNL     1      -3.449  -0.263  28.344  1.00  0.00     0.021 C 
ATOM      8  C   UNL     1      -2.527   0.929  28.685  1.00  0.00     0.022 C 
ATOM      9  C   UNL     1      -3.310   1.763  27.629  1.00  0.00    -0.019 C 
ATOM     10  C   UNL     1      -2.526   2.816  26.796  1.00  0.00     0.012 C 
ATOM     11  C   UNL     1      -4.559   2.453  28.231  1.00  0.00     0.012 C 
ENDROOT
TORSDOF 0
ENDMDL
MODEL 3
REMARK VINA RESULT:    -4.565      1.848      3.278
REMARK INTER + INTRA:          -4.565
REMARK INTER:                  -4.565
REMARK INTRA:                   0.000
REMARK UNBOUND:                 0.000
REMARK SMILES CC1=CC(=O)[C@H]2C[C@@H]1C2(C)C
REMARK SMILES IDX 1 1 2 2 3 3 4 4 5 5 6 6 7 7 8 8 9 9 10 10 11 11
REMARK H PARENT
REMARK Flexibility Score: inf
ROOT
ATOM      1  C   UNL     1      -2.868  -0.751  30.151  1.00  0.00     0.040 C 
ATOM      2  C   UNL     1      -2.333   0.028  28.992  1.00  0.00    -0.066 C 
ATOM      3  C   UNL     1      -1.620   1.174  29.177  1.00  0.00     0.047 C 
ATOM      4  C   UNL     1      -1.166   1.880  27.935  1.00  0.00     0.159 C 
ATOM      5  O   UNL     1      -0.533   2.967  27.974  1.00  0.00    -0.295 OA
ATOM      6  C   UNL     1      -1.526   1.188  26.620  1.00  0.00     0.067 C 
ATOM      7  C   UNL     1      -1.163  -0.294  26.861  1.00  0.00     0.021 C 
ATOM      8  C   UNL     1      -2.546  -0.433  27.534  1.00  0.00     0.022 C 
ATOM      9  C   UNL     1      -3.023   0.771  26.673  1.00  0.00    -0.019 C 
ATOM     10  C   UNL     1      -4.044   1.764  27.300  1.00  0.00     0.012 C 
ATOM     11  C   UNL     1      -3.563   0.331  25.290  1.00  0.00     0.012 C 
ENDROOT
TORSDOF 0
ENDMDL
MODEL 4
REMARK VINA RESULT:    -4.500     10.259     11.434
REMARK INTER + INTRA:          -4.500
REMARK INTER:                  -4.500
REMARK INTRA:                   0.000
REMARK UNBOUND:                 0.000
REMARK SMILES CC1=CC(=O)[C@H]2C[C@@H]1C2(C)C
REMARK SMILES IDX 1 1 2 2 3 3 4 4 5 5 6 6 7 7 8 8 9 9 10 10 11 11
REMARK H PARENT
REMARK Flexibility Score: inf
ROOT
ATOM      1  C   UNL     1     -10.549   2.375  26.983  1.00  0.00     0.040 C 
ATOM      2  C   UNL     1     -11.861   1.984  27.584  1.00  0.00    -0.066 C 
ATOM      3  C   UNL     1     -12.996   2.692  27.331  1.00  0.00     0.047 C 
ATOM      4  C   UNL     1     -14.241   2.218  28.017  1.00  0.00     0.159 C 
ATOM      5  O   UNL     1     -15.344   2.811  27.894  1.00  0.00    -0.295 OA
ATOM      6  C   UNL     1     -14.077   0.965  28.878  1.00  0.00     0.067 C 
ATOM      7  C   UNL     1     -13.251   0.005  27.994  1.00  0.00     0.021 C 
ATOM      8  C   UNL     1     -11.998   0.752  28.504  1.00  0.00     0.022 C 
ATOM      9  C   UNL     1     -12.815   1.139  29.770  1.00  0.00    -0.019 C 
ATOM     10  C   UNL     1     -12.554   2.529  30.417  1.00  0.00     0.012 C 
ATOM     11  C   UNL     1     -12.726   0.064  30.882  1.00  0.00     0.012 C 
ENDROOT
TORSDOF 0
ENDMDL
MODEL 5
REMARK VINA RESULT:    -4.492      1.830      2.790
REMARK INTER + INTRA:          -4.492
REMARK INTER:                  -4.492
REMARK INTRA:                   0.000
REMARK UNBOUND:                 0.000
REMARK SMILES CC1=CC(=O)[C@H]2C[C@@H]1C2(C)C
REMARK SMILES IDX 1 1 2 2 3 3 4 4 5 5 6 6 7 7 8 8 9 9 10 10 11 11
REMARK H PARENT
REMARK Flexibility Score: inf
ROOT
ATOM      1  C   UNL     1      -4.841   1.418  28.964  1.00  0.00     0.040 C 
ATOM      2  C   UNL     1      -3.507   1.116  28.361  1.00  0.00    -0.066 C 
ATOM      3  C   UNL     1      -3.319   0.030  27.562  1.00  0.00     0.047 C 
ATOM      4  C   UNL     1      -1.929  -0.181  27.044  1.00  0.00     0.159 C 
ATOM      5  O   UNL     1      -1.621  -1.169  26.328  1.00  0.00    -0.295 OA
ATOM      6  C   UNL     1      -0.911   0.886  27.448  1.00  0.00     0.067 C 
ATOM      7  C   UNL     1      -1.647   2.222  27.205  1.00  0.00     0.021 C 
ATOM      8  C   UNL     1      -2.282   2.026  28.600  1.00  0.00     0.022 C 
ATOM      9  C   UNL     1      -1.052   1.151  28.974  1.00  0.00    -0.019 C 
ATOM     10  C   UNL     1      -1.274  -0.065  29.918  1.00  0.00     0.012 C 
ATOM     11  C   UNL     1       0.121   1.993  29.537  1.00  0.00     0.012 C 
ENDROOT
TORSDOF 0
ENDMDL
MODEL 6
REMARK VINA RESULT:    -4.491      0.883      3.138
REMARK INTER + INTRA:          -4.491
REMARK INTER:                  -4.491
REMARK INTRA:                   0.000
REMARK UNBOUND:                 0.000
REMARK SMILES CC1=CC(=O)[C@H]2C[C@@H]1C2(C)C
REMARK SMILES IDX 1 1 2 2 3 3 4 4 5 5 6 6 7 7 8 8 9 9 10 10 11 11
REMARK H PARENT
REMARK Flexibility Score: inf
ROOT
ATOM      1  C   UNL     1      -0.283   3.255  28.436  1.00  0.00     0.040 C 
ATOM      2  C   UNL     1      -1.222   2.091  28.464  1.00  0.00    -0.066 C 
ATOM      3  C   UNL     1      -1.243   1.222  29.512  1.00  0.00     0.047 C 
ATOM      4  C   UNL     1      -2.207   0.080  29.407  1.00  0.00     0.159 C 
ATOM      5  O   UNL     1      -2.293  -0.810  30.292  1.00  0.00    -0.295 OA
ATOM      6  C   UNL     1      -3.076   0.070  28.149  1.00  0.00     0.067 C 
ATOM      7  C   UNL     1      -3.567   1.528  28.018  1.00  0.00     0.021 C 
ATOM      8  C   UNL     1      -2.222   1.827  27.318  1.00  0.00     0.022 C 
ATOM      9  C   UNL     1      -2.164   0.325  26.915  1.00  0.00    -0.019 C 
ATOM     10  C   UNL     1      -0.773  -0.370  26.869  1.00  0.00     0.012 C 
ATOM     11  C   UNL     1      -2.891   0.045  25.576  1.00  0.00     0.012 C 
ENDROOT
TORSDOF 0
ENDMDL
MODEL 7
REMARK VINA RESULT:    -4.448     15.687     17.244
REMARK INTER + INTRA:          -4.448
REMARK INTER:                  -4.448
REMARK INTRA:                   0.000
REMARK UNBOUND:                 0.000
REMARK SMILES CC1=CC(=O)[C@H]2C[C@@H]1C2(C)C
REMARK SMILES IDX 1 1 2 2 3 3 4 4 5 5 6 6 7 7 8 8 9 9 10 10 11 11
REMARK H PARENT
REMARK Flexibility Score: inf
ROOT
ATOM      1  C   UNL     1     -13.017  10.542  21.597  1.00  0.00     0.040 C 
ATOM      2  C   UNL     1     -12.630  10.683  20.159  1.00  0.00    -0.066 C 
ATOM      3  C   UNL     1     -13.045   9.786  19.222  1.00  0.00     0.047 C 
ATOM      4  C   UNL     1     -12.565  10.019  17.822  1.00  0.00     0.159 C 
ATOM      5  O   UNL     1     -12.848   9.239  16.876  1.00  0.00    -0.295 OA
ATOM      6  C   UNL     1     -11.707  11.269  17.624  1.00  0.00     0.067 C 
ATOM      7  C   UNL     1     -12.466  12.374  18.390  1.00  0.00     0.021 C 
ATOM      8  C   UNL     1     -11.759  11.857  19.663  1.00  0.00     0.022 C 
ATOM      9  C   UNL     1     -10.628  11.312  18.744  1.00  0.00    -0.019 C 
ATOM     10  C   UNL     1      -9.930   9.982  19.147  1.00  0.00     0.012 C 
ATOM     11  C   UNL     1      -9.531  12.370  18.466  1.00  0.00     0.012 C 
ENDROOT
TORSDOF 0
ENDMDL
MODEL 8
REMARK VINA RESULT:    -4.372      1.824      2.792
REMARK INTER + INTRA:          -4.372
REMARK INTER:                  -4.372
REMARK INTRA:                   0.000
REMARK UNBOUND:                 0.000
REMARK SMILES CC1=CC(=O)[C@H]2C[C@@H]1C2(C)C
REMARK SMILES IDX 1 1 2 2 3 3 4 4 5 5 6 6 7 7 8 8 9 9 10 10 11 11
REMARK H PARENT
REMARK Flexibility Score: inf
ROOT
ATOM      1  C   UNL     1      -2.114   3.675  26.611  1.00  0.00     0.040 C 
ATOM      2  C   UNL     1      -1.754   2.330  27.158  1.00  0.00    -0.066 C 
ATOM      3  C   UNL     1      -1.645   1.241  26.347  1.00  0.00     0.047 C 
ATOM      4  C   UNL     1      -1.310  -0.055  27.020  1.00  0.00     0.159 C 
ATOM      5  O   UNL     1      -1.219  -1.138  26.385  1.00  0.00    -0.295 OA
ATOM      6  C   UNL     1      -1.088   0.029  28.530  1.00  0.00     0.067 C 
ATOM      7  C   UNL     1      -0.182   1.266  28.711  1.00  0.00     0.021 C 
ATOM      8  C   UNL     1      -1.474   2.112  28.660  1.00  0.00     0.022 C 
ATOM      9  C   UNL     1      -2.247   0.856  29.155  1.00  0.00    -0.019 C 
ATOM     10  C   UNL     1      -3.690   0.625  28.623  1.00  0.00     0.012 C 
ATOM     11  C   UNL     1      -2.279   0.754  30.701  1.00  0.00     0.012 C 
ENDROOT
TORSDOF 0
ENDMDL
MODEL 9
REMARK VINA RESULT:    -4.287      1.981      3.156
REMARK INTER + INTRA:          -4.287
REMARK INTER:                  -4.287
REMARK INTRA:                   0.000
REMARK UNBOUND:                 0.000
REMARK SMILES CC1=CC(=O)[C@H]2C[C@@H]1C2(C)C
REMARK SMILES IDX 1 1 2 2 3 3 4 4 5 5 6 6 7 7 8 8 9 9 10 10 11 11
REMARK H PARENT
REMARK Flexibility Score: inf
ROOT
ATOM      1  C   UNL     1      -4.429   1.515  29.723  1.00  0.00     0.040 C 
ATOM      2  C   UNL     1      -2.968   1.487  29.405  1.00  0.00    -0.066 C 
ATOM      3  C   UNL     1      -2.155   2.535  29.713  1.00  0.00     0.047 C 
ATOM      4  C   UNL     1      -0.716   2.398  29.315  1.00  0.00     0.159 C 
ATOM      5  O   UNL     1       0.125   3.313  29.510  1.00  0.00    -0.295 OA
ATOM      6  C   UNL     1      -0.343   1.071  28.655  1.00  0.00     0.067 C 
ATOM      7  C   UNL     1      -1.019   0.004  29.544  1.00  0.00     0.021 C 
ATOM      8  C   UNL     1      -2.306   0.266  28.730  1.00  0.00     0.022 C 
ATOM      9  C   UNL     1      -1.400   0.748  27.561  1.00  0.00    -0.019 C 
ATOM     10  C   UNL     1      -1.913   1.910  26.664  1.00  0.00     0.012 C 
ATOM     11  C   UNL     1      -0.958  -0.416  26.638  1.00  0.00     0.012 C 
ENDROOT
TORSDOF 0
ENDMDL
