MODEL 1
REMARK VINA RESULT:    -3.364      0.000      0.000
REMARK INTER + INTRA:          -6.753
REMARK INTER:                  -6.118
REMARK INTRA:                  -0.635
REMARK UNBOUND:                -0.635
REMARK SMILES CCCCCCCCCCCCCCCC(=O)[O-]
REMARK SMILES IDX 9 1 10 2 11 3 12 4 13 5 14 6 15 7 16 8 17 9 18 10 8 11 7 12
REMARK SMILES IDX 6 13 5 14 4 15 3 16 2 17 1 18
REMARK H PARENT
REMARK Flexibility Score: inf
ROOT
ATOM      1  C   UNL     1       1.279 -37.585  19.740  1.00  0.00     0.000 C 
ENDROOT
BRANCH   1   2
ATOM      2  C   UNL     1       2.604 -36.816  19.844  1.00  0.00     0.000 C 
BRANCH   2   3
ATOM      3  C   UNL     1       3.793 -37.725  19.508  1.00  0.00     0.000 C 
BRANCH   3   4
ATOM      4  C   UNL     1       5.124 -37.046  19.865  1.00  0.00     0.000 C 
BRANCH   4   5
ATOM      5  C   UNL     1       4.922 -35.791  20.741  1.00  0.00     0.000 C 
BRANCH   5   6
ATOM      6  C   UNL     1       6.125 -35.469  21.644  1.00  0.00     0.006 C 
BRANCH   6   7
ATOM      7  C   UNL     1       6.040 -36.149  23.015  1.00  0.00     0.053 C 
BRANCH   7   8
ATOM      8  C   UNL     1       5.824 -35.131  24.090  1.00  0.00     0.041 C 
ATOM      9  O   UNL     1       5.902 -35.464  25.302  1.00  0.00    -0.550 OA
ATOM     10  O   UNL     1       5.586 -33.805  23.755  1.00  0.00    -0.550 OA
ENDBRANCH   7   8
ENDBRANCH   6   7
ENDBRANCH   5   6
ENDBRANCH   4   5
ENDBRANCH   3   4
ENDBRANCH   2   3
ENDBRANCH   1   2
BRANCH   1  11
ATOM     11  C   UNL     1       0.660 -37.506  18.336  1.00  0.00     0.000 C 
BRANCH  11  12
ATOM     12  C   UNL     1       1.721 -37.525  17.221  1.00  0.00    -0.000 C 
BRANCH  12  13
ATOM     13  C   UNL     1       1.763 -36.213  16.415  1.00  0.00    -0.000 C 
BRANCH  13  14
ATOM     14  C   UNL     1       3.119 -35.900  15.761  1.00  0.00    -0.000 C 
BRANCH  14  15
ATOM     15  C   UNL     1       3.167 -36.274  14.269  1.00  0.00    -0.000 C 
BRANCH  15  16
ATOM     16  C   UNL     1       4.313 -37.257  13.950  1.00  0.00    -0.000 C 
BRANCH  16  17
ATOM     17  C   UNL     1       3.983 -38.719  14.294  1.00  0.00    -0.003 C 
ATOM     18  C   UNL     1       5.110 -39.686  13.939  1.00  0.00     0.004 C 
ENDBRANCH  16  17
ENDBRANCH  15  16
ENDBRANCH  14  15
ENDBRANCH  13  14
ENDBRANCH  12  13
ENDBRANCH  11  12
ENDBRANCH   1  11
TORSDOF 14
ENDMDL
MODEL 2
REMARK VINA RESULT:    -3.188      1.312      1.697
REMARK INTER + INTRA:          -6.432
REMARK INTER:                  -6.377
REMARK INTRA:                  -0.055
REMARK UNBOUND:                -0.635
REMARK SMILES CCCCCCCCCCCCCCCC(=O)[O-]
REMARK SMILES IDX 9 1 10 2 11 3 12 4 13 5 14 6 15 7 16 8 17 9 18 10 8 11 7 12
REMARK SMILES IDX 6 13 5 14 4 15 3 16 2 17 1 18
REMARK H PARENT
REMARK Flexibility Score: inf
ROOT
ATOM      1  C   UNL     1       2.187 -37.288  19.902  1.00  0.00     0.000 C 
ENDROOT
BRANCH   1   2
ATOM      2  C   UNL     1       3.584 -37.091  20.509  1.00  0.00     0.000 C 
BRANCH   2   3
ATOM      3  C   UNL     1       3.997 -35.614  20.465  1.00  0.00     0.000 C 
BRANCH   3   4
ATOM      4  C   UNL     1       5.527 -35.470  20.468  1.00  0.00     0.000 C 
BRANCH   4   5
ATOM      5  C   UNL     1       6.125 -35.635  21.881  1.00  0.00     0.000 C 
BRANCH   5   6
ATOM      6  C   UNL     1       5.442 -34.757  22.946  1.00  0.00     0.006 C 
BRANCH   6   7
ATOM      7  C   UNL     1       5.903 -35.082  24.371  1.00  0.00     0.053 C 
BRANCH   7   8
ATOM      8  C   UNL     1       5.759 -36.546  24.645  1.00  0.00     0.041 C 
ATOM      9  O   UNL     1       6.057 -37.389  23.758  1.00  0.00    -0.550 OA
ATOM     10  O   UNL     1       5.344 -36.982  25.896  1.00  0.00    -0.550 OA
ENDBRANCH   7   8
ENDBRANCH   6   7
ENDBRANCH   5   6
ENDBRANCH   4   5
ENDBRANCH   3   4
ENDBRANCH   2   3
ENDBRANCH   1   2
BRANCH   1  11
ATOM     11  C   UNL     1       2.238 -37.912  18.498  1.00  0.00     0.000 C 
BRANCH  11  12
ATOM     12  C   UNL     1       3.478 -37.471  17.700  1.00  0.00    -0.000 C 
BRANCH  12  13
ATOM     13  C   UNL     1       3.204 -36.253  16.799  1.00  0.00    -0.000 C 
BRANCH  13  14
ATOM     14  C   UNL     1       2.352 -36.550  15.553  1.00  0.00    -0.000 C 
BRANCH  14  15
ATOM     15  C   UNL     1       3.054 -36.164  14.239  1.00  0.00    -0.000 C 
BRANCH  15  16
ATOM     16  C   UNL     1       4.190 -37.143  13.876  1.00  0.00    -0.000 C 
BRANCH  16  17
ATOM     17  C   UNL     1       3.881 -38.605  14.238  1.00  0.00    -0.003 C 
ATOM     18  C   UNL     1       5.052 -39.549  13.970  1.00  0.00     0.004 C 
ENDBRANCH  16  17
ENDBRANCH  15  16
ENDBRANCH  14  15
ENDBRANCH  13  14
ENDBRANCH  12  13
ENDBRANCH  11  12
ENDBRANCH   1  11
TORSDOF 14
ENDMDL
MODEL 3
REMARK VINA RESULT:    -3.114      2.605      4.275
REMARK INTER + INTRA:          -6.298
REMARK INTER:                  -5.572
REMARK INTRA:                  -0.726
REMARK UNBOUND:                -0.635
REMARK SMILES CCCCCCCCCCCCCCCC(=O)[O-]
REMARK SMILES IDX 9 1 10 2 11 3 12 4 13 5 14 6 15 7 16 8 17 9 18 10 8 11 7 12
REMARK SMILES IDX 6 13 5 14 4 15 3 16 2 17 1 18
REMARK H PARENT
REMARK Flexibility Score: inf
ROOT
ATOM      1  C   UNL     1       4.530 -35.328  21.224  1.00  0.00     0.000 C 
ENDROOT
BRANCH   1   2
ATOM      2  C   UNL     1       5.652 -34.945  22.200  1.00  0.00     0.000 C 
BRANCH   2   3
ATOM      3  C   UNL     1       5.138 -34.922  23.645  1.00  0.00     0.000 C 
BRANCH   3   4
ATOM      4  C   UNL     1       6.125 -35.621  24.593  1.00  0.00     0.000 C 
BRANCH   4   5
ATOM      5  C   UNL     1       5.780 -37.112  24.798  1.00  0.00     0.000 C 
BRANCH   5   6
ATOM      6  C   UNL     1       5.761 -37.925  23.492  1.00  0.00     0.006 C 
BRANCH   6   7
ATOM      7  C   UNL     1       5.322 -39.379  23.701  1.00  0.00     0.053 C 
BRANCH   7   8
ATOM      8  C   UNL     1       5.729 -40.220  22.533  1.00  0.00     0.041 C 
ATOM      9  O   UNL     1       5.911 -39.692  21.404  1.00  0.00    -0.550 OA
ATOM     10  O   UNL     1       5.957 -41.580  22.701  1.00  0.00    -0.550 OA
ENDBRANCH   7   8
ENDBRANCH   6   7
ENDBRANCH   5   6
ENDBRANCH   4   5
ENDBRANCH   3   4
ENDBRANCH   2   3
ENDBRANCH   1   2
BRANCH   1  11
ATOM     11  C   UNL     1       5.069 -35.857  19.886  1.00  0.00     0.000 C 
BRANCH  11  12
ATOM     12  C   UNL     1       4.386 -37.164  19.448  1.00  0.00    -0.000 C 
BRANCH  12  13
ATOM     13  C   UNL     1       3.824 -37.093  18.017  1.00  0.00    -0.000 C 
BRANCH  13  14
ATOM     14  C   UNL     1       2.302 -37.290  17.910  1.00  0.00    -0.000 C 
BRANCH  14  15
ATOM     15  C   UNL     1       1.709 -36.703  16.617  1.00  0.00    -0.000 C 
BRANCH  15  16
ATOM     16  C   UNL     1       2.763 -35.941  15.786  1.00  0.00    -0.000 C 
BRANCH  16  17
ATOM     17  C   UNL     1       3.048 -36.582  14.418  1.00  0.00    -0.003 C 
ATOM     18  C   UNL     1       3.917 -37.834  14.512  1.00  0.00     0.004 C 
ENDBRANCH  16  17
ENDBRANCH  15  16
ENDBRANCH  14  15
ENDBRANCH  13  14
ENDBRANCH  12  13
ENDBRANCH  11  12
ENDBRANCH   1  11
TORSDOF 14
ENDMDL
MODEL 4
REMARK VINA RESULT:    -3.047      3.865      8.145
REMARK INTER + INTRA:          -6.176
REMARK INTER:                  -5.342
REMARK INTRA:                  -0.833
REMARK UNBOUND:                -0.635
REMARK SMILES CCCCCCCCCCCCCCCC(=O)[O-]
REMARK SMILES IDX 9 1 10 2 11 3 12 4 13 5 14 6 15 7 16 8 17 9 18 10 8 11 7 12
REMARK SMILES IDX 6 13 5 14 4 15 3 16 2 17 1 18
REMARK H PARENT
REMARK Flexibility Score: inf
ROOT
ATOM      1  C   UNL     1       3.510 -37.506  20.179  1.00  0.00     0.000 C 
ENDROOT
BRANCH   1   2
ATOM      2  C   UNL     1       3.938 -37.529  18.704  1.00  0.00     0.000 C 
BRANCH   2   3
ATOM      3  C   UNL     1       2.748 -37.233  17.783  1.00  0.00     0.000 C 
BRANCH   3   4
ATOM      4  C   UNL     1       3.010 -35.981  16.931  1.00  0.00     0.000 C 
BRANCH   4   5
ATOM      5  C   UNL     1       2.095 -35.919  15.690  1.00  0.00     0.000 C 
BRANCH   5   6
ATOM      6  C   UNL     1       2.849 -36.092  14.359  1.00  0.00     0.006 C 
BRANCH   6   7
ATOM      7  C   UNL     1       2.928 -37.554  13.904  1.00  0.00     0.053 C 
BRANCH   7   8
ATOM      8  C   UNL     1       4.332 -38.058  14.010  1.00  0.00     0.041 C 
ATOM      9  O   UNL     1       5.302 -37.265  13.876  1.00  0.00    -0.550 OA
ATOM     10  O   UNL     1       4.572 -39.393  14.305  1.00  0.00    -0.550 OA
ENDBRANCH   7   8
ENDBRANCH   6   7
ENDBRANCH   5   6
ENDBRANCH   4   5
ENDBRANCH   3   4
ENDBRANCH   2   3
ENDBRANCH   1   2
BRANCH   1  11
ATOM     11  C   UNL     1       3.397 -36.078  20.737  1.00  0.00     0.000 C 
BRANCH  11  12
ATOM     12  C   UNL     1       4.556 -35.173  20.284  1.00  0.00    -0.000 C 
BRANCH  12  13
ATOM     13  C   UNL     1       5.936 -35.727  20.684  1.00  0.00    -0.000 C 
BRANCH  13  14
ATOM     14  C   UNL     1       6.102 -36.025  22.185  1.00  0.00    -0.000 C 
BRANCH  14  15
ATOM     15  C   UNL     1       5.695 -34.841  23.080  1.00  0.00    -0.000 C 
BRANCH  15  16
ATOM     16  C   UNL     1       6.125 -35.045  24.548  1.00  0.00    -0.000 C 
BRANCH  16  17
ATOM     17  C   UNL     1       6.091 -36.515  25.000  1.00  0.00    -0.003 C 
ATOM     18  C   UNL     1       4.910 -36.833  25.914  1.00  0.00     0.004 C 
ENDBRANCH  16  17
ENDBRANCH  15  16
ENDBRANCH  14  15
ENDBRANCH  13  14
ENDBRANCH  12  13
ENDBRANCH  11  12
ENDBRANCH   1  11
TORSDOF 14
ENDMDL
MODEL 5
REMARK VINA RESULT:    -2.882      3.961      7.880
REMARK INTER + INTRA:          -5.876
REMARK INTER:                  -4.514
REMARK INTRA:                  -1.362
REMARK UNBOUND:                -0.635
REMARK SMILES CCCCCCCCCCCCCCCC(=O)[O-]
REMARK SMILES IDX 9 1 10 2 11 3 12 4 13 5 14 6 15 7 16 8 17 9 18 10 8 11 7 12
REMARK SMILES IDX 6 13 5 14 4 15 3 16 2 17 1 18
REMARK H PARENT
REMARK Flexibility Score: inf
ROOT
ATOM      1  C   UNL     1       6.105 -35.490  21.051  1.00  0.00     0.000 C 
ENDROOT
BRANCH   1   2
ATOM      2  C   UNL     1       5.414 -35.662  19.690  1.00  0.00     0.000 C 
BRANCH   2   3
ATOM      3  C   UNL     1       3.985 -36.192  19.864  1.00  0.00     0.000 C 
BRANCH   3   4
ATOM      4  C   UNL     1       3.718 -37.376  18.921  1.00  0.00     0.000 C 
BRANCH   4   5
ATOM      5  C   UNL     1       2.258 -37.404  18.421  1.00  0.00     0.000 C 
BRANCH   5   6
ATOM      6  C   UNL     1       2.092 -36.900  16.976  1.00  0.00     0.006 C 
BRANCH   6   7
ATOM      7  C   UNL     1       3.419 -36.833  16.212  1.00  0.00     0.053 C 
BRANCH   7   8
ATOM      8  C   UNL     1       3.178 -36.921  14.738  1.00  0.00     0.041 C 
ATOM      9  O   UNL     1       2.178 -36.353  14.225  1.00  0.00    -0.550 OA
ATOM     10  O   UNL     1       4.083 -37.588  13.923  1.00  0.00    -0.550 OA
ENDBRANCH   7   8
ENDBRANCH   6   7
ENDBRANCH   5   6
ENDBRANCH   4   5
ENDBRANCH   3   4
ENDBRANCH   2   3
ENDBRANCH   1   2
BRANCH   1  11
ATOM     11  C   UNL     1       5.118 -35.126  22.171  1.00  0.00     0.000 C 
BRANCH  11  12
ATOM     12  C   UNL     1       5.827 -34.695  23.467  1.00  0.00    -0.000 C 
BRANCH  12  13
ATOM     13  C   UNL     1       5.636 -35.703  24.615  1.00  0.00    -0.000 C 
BRANCH  13  14
ATOM     14  C   UNL     1       6.125 -37.130  24.310  1.00  0.00    -0.000 C 
BRANCH  14  15
ATOM     15  C   UNL     1       5.151 -38.216  24.798  1.00  0.00    -0.000 C 
BRANCH  15  16
ATOM     16  C   UNL     1       4.997 -39.363  23.777  1.00  0.00    -0.000 C 
BRANCH  16  17
ATOM     17  C   UNL     1       5.351 -38.957  22.337  1.00  0.00    -0.003 C 
ATOM     18  C   UNL     1       6.108 -40.044  21.577  1.00  0.00     0.004 C 
ENDBRANCH  16  17
ENDBRANCH  15  16
ENDBRANCH  14  15
ENDBRANCH  13  14
ENDBRANCH  12  13
ENDBRANCH  11  12
ENDBRANCH   1  11
TORSDOF 14
ENDMDL
MODEL 6
REMARK VINA RESULT:    -2.769      1.407      2.667
REMARK INTER + INTRA:          -5.671
REMARK INTER:                  -5.173
REMARK INTRA:                  -0.498
REMARK UNBOUND:                -0.635
REMARK SMILES CCCCCCCCCCCCCCCC(=O)[O-]
REMARK SMILES IDX 9 1 10 2 11 3 12 4 13 5 14 6 15 7 16 8 17 9 18 10 8 11 7 12
REMARK SMILES IDX 6 13 5 14 4 15 3 16 2 17 1 18
REMARK H PARENT
REMARK Flexibility Score: inf
ROOT
ATOM      1  C   UNL     1       1.444 -36.862  16.875  1.00  0.00     0.000 C 
ENDROOT
BRANCH   1   2
ATOM      2  C   UNL     1       1.900 -37.918  17.892  1.00  0.00     0.000 C 
BRANCH   2   3
ATOM      3  C   UNL     1       1.908 -37.342  19.314  1.00  0.00     0.000 C 
BRANCH   3   4
ATOM      4  C   UNL     1       3.296 -37.480  19.957  1.00  0.00     0.000 C 
BRANCH   4   5
ATOM      5  C   UNL     1       4.417 -36.936  19.046  1.00  0.00     0.000 C 
BRANCH   5   6
ATOM      6  C   UNL     1       5.515 -36.173  19.809  1.00  0.00     0.006 C 
BRANCH   6   7
ATOM      7  C   UNL     1       5.560 -36.525  21.300  1.00  0.00     0.053 C 
BRANCH   7   8
ATOM      8  C   UNL     1       4.883 -35.464  22.108  1.00  0.00     0.041 C 
ATOM      9  O   UNL     1       5.451 -34.980  23.122  1.00  0.00    -0.550 OA
ATOM     10  O   UNL     1       3.646 -34.972  21.713  1.00  0.00    -0.550 OA
ENDBRANCH   7   8
ENDBRANCH   6   7
ENDBRANCH   5   6
ENDBRANCH   4   5
ENDBRANCH   3   4
ENDBRANCH   2   3
ENDBRANCH   1   2
BRANCH   1  11
ATOM     11  C   UNL     1       2.625 -36.142  16.204  1.00  0.00     0.000 C 
BRANCH  11  12
ATOM     12  C   UNL     1       2.439 -35.991  14.684  1.00  0.00    -0.000 C 
BRANCH  12  13
ATOM     13  C   UNL     1       3.381 -36.901  13.875  1.00  0.00    -0.000 C 
BRANCH  13  14
ATOM     14  C   UNL     1       4.239 -37.857  14.722  1.00  0.00    -0.000 C 
BRANCH  14  15
ATOM     15  C   UNL     1       4.978 -38.910  13.876  1.00  0.00    -0.000 C 
BRANCH  15  16
ATOM     16  C   UNL     1       4.623 -40.351  14.298  1.00  0.00    -0.000 C 
BRANCH  16  17
ATOM     17  C   UNL     1       5.754 -41.362  14.047  1.00  0.00    -0.003 C 
ATOM     18  C   UNL     1       5.874 -42.412  15.150  1.00  0.00     0.004 C 
ENDBRANCH  16  17
ENDBRANCH  15  16
ENDBRANCH  14  15
ENDBRANCH  13  14
ENDBRANCH  12  13
ENDBRANCH  11  12
ENDBRANCH   1  11
TORSDOF 14
ENDMDL
MODEL 7
REMARK VINA RESULT:    -2.728      3.771      7.767
REMARK INTER + INTRA:          -5.595
REMARK INTER:                  -4.344
REMARK INTRA:                  -1.251
REMARK UNBOUND:                -0.635
REMARK SMILES CCCCCCCCCCCCCCCC(=O)[O-]
REMARK SMILES IDX 9 1 10 2 11 3 12 4 13 5 14 6 15 7 16 8 17 9 18 10 8 11 7 12
REMARK SMILES IDX 6 13 5 14 4 15 3 16 2 17 1 18
REMARK H PARENT
REMARK Flexibility Score: inf
ROOT
ATOM      1  C   UNL     1       3.559 -37.742  20.249  1.00  0.00     0.000 C 
ENDROOT
BRANCH   1   2
ATOM      2  C   UNL     1       2.535 -36.598  20.255  1.00  0.00     0.000 C 
BRANCH   2   3
ATOM      3  C   UNL     1       1.196 -37.057  19.664  1.00  0.00     0.000 C 
BRANCH   3   4
ATOM      4  C   UNL     1       1.383 -38.294  18.773  1.00  0.00     0.000 C 
BRANCH   4   5
ATOM      5  C   UNL     1       1.440 -37.930  17.274  1.00  0.00     0.000 C 
BRANCH   5   6
ATOM      6  C   UNL     1       1.880 -36.479  17.009  1.00  0.00     0.006 C 
BRANCH   6   7
ATOM      7  C   UNL     1       3.279 -36.384  16.390  1.00  0.00     0.053 C 
BRANCH   7   8
ATOM      8  C   UNL     1       3.241 -36.781  14.949  1.00  0.00     0.041 C 
ATOM      9  O   UNL     1       4.082 -37.602  14.495  1.00  0.00    -0.550 OA
ATOM     10  O   UNL     1       2.246 -36.285  14.116  1.00  0.00    -0.550 OA
ENDBRANCH   7   8
ENDBRANCH   6   7
ENDBRANCH   5   6
ENDBRANCH   4   5
ENDBRANCH   3   4
ENDBRANCH   2   3
ENDBRANCH   1   2
BRANCH   1  11
ATOM     11  C   UNL     1       4.866 -37.359  19.536  1.00  0.00     0.000 C 
BRANCH  11  12
ATOM     12  C   UNL     1       5.231 -35.877  19.728  1.00  0.00    -0.000 C 
BRANCH  12  13
ATOM     13  C   UNL     1       6.077 -35.631  20.991  1.00  0.00    -0.000 C 
BRANCH  13  14
ATOM     14  C   UNL     1       5.270 -35.248  22.244  1.00  0.00    -0.000 C 
BRANCH  14  15
ATOM     15  C   UNL     1       6.125 -34.556  23.321  1.00  0.00    -0.000 C 
BRANCH  15  16
ATOM     16  C   UNL     1       5.920 -35.180  24.718  1.00  0.00    -0.000 C 
BRANCH  16  17
ATOM     17  C   UNL     1       5.665 -36.696  24.684  1.00  0.00    -0.003 C 
ATOM     18  C   UNL     1       4.838 -37.191  25.868  1.00  0.00     0.004 C 
ENDBRANCH  16  17
ENDBRANCH  15  16
ENDBRANCH  14  15
ENDBRANCH  13  14
ENDBRANCH  12  13
ENDBRANCH  11  12
ENDBRANCH   1  11
TORSDOF 14
ENDMDL
MODEL 8
REMARK VINA RESULT:    -2.234      3.906      7.717
REMARK INTER + INTRA:          -4.698
REMARK INTER:                  -3.738
REMARK INTRA:                  -0.960
REMARK UNBOUND:                -0.635
REMARK SMILES CCCCCCCCCCCCCCCC(=O)[O-]
REMARK SMILES IDX 9 1 10 2 11 3 12 4 13 5 14 6 15 7 16 8 17 9 18 10 8 11 7 12
REMARK SMILES IDX 6 13 5 14 4 15 3 16 2 17 1 18
REMARK H PARENT
REMARK Flexibility Score: inf
ROOT
ATOM      1  C   UNL     1       5.247 -34.831  22.286  1.00  0.00     0.000 C 
ENDROOT
BRANCH   1   2
ATOM      2  C   UNL     1       6.122 -35.263  21.099  1.00  0.00     0.000 C 
BRANCH   2   3
ATOM      3  C   UNL     1       5.310 -35.286  19.798  1.00  0.00     0.000 C 
BRANCH   3   4
ATOM      4  C   UNL     1       4.014 -36.093  19.972  1.00  0.00     0.000 C 
BRANCH   4   5
ATOM      5  C   UNL     1       4.043 -37.419  19.182  1.00  0.00     0.000 C 
BRANCH   5   6
ATOM      6  C   UNL     1       3.131 -37.418  17.943  1.00  0.00     0.006 C 
BRANCH   6   7
ATOM      7  C   UNL     1       3.656 -36.520  16.817  1.00  0.00     0.053 C 
BRANCH   7   8
ATOM      8  C   UNL     1       2.561 -36.205  15.848  1.00  0.00     0.041 C 
ATOM      9  O   UNL     1       2.717 -36.433  14.619  1.00  0.00    -0.550 OA
ATOM     10  O   UNL     1       1.349 -35.705  16.305  1.00  0.00    -0.550 OA
ENDBRANCH   7   8
ENDBRANCH   6   7
ENDBRANCH   5   6
ENDBRANCH   4   5
ENDBRANCH   3   4
ENDBRANCH   2   3
ENDBRANCH   1   2
BRANCH   1  11
ATOM     11  C   UNL     1       6.064 -34.600  23.567  1.00  0.00     0.000 C 
BRANCH  11  12
ATOM     12  C   UNL     1       5.855 -35.712  24.610  1.00  0.00    -0.000 C 
BRANCH  12  13
ATOM     13  C   UNL     1       5.998 -37.124  24.012  1.00  0.00    -0.000 C 
BRANCH  13  14
ATOM     14  C   UNL     1       5.112 -38.196  24.671  1.00  0.00    -0.000 C 
BRANCH  14  15
ATOM     15  C   UNL     1       4.703 -39.317  23.700  1.00  0.00    -0.000 C 
BRANCH  15  16
ATOM     16  C   UNL     1       5.707 -39.479  22.539  1.00  0.00    -0.000 C 
BRANCH  16  17
ATOM     17  C   UNL     1       6.125 -40.937  22.286  1.00  0.00    -0.003 C 
ATOM     18  C   UNL     1       5.950 -41.831  23.512  1.00  0.00     0.004 C 
ENDBRANCH  16  17
ENDBRANCH  15  16
ENDBRANCH  14  15
ENDBRANCH  13  14
ENDBRANCH  12  13
ENDBRANCH  11  12
ENDBRANCH   1  11
TORSDOF 14
ENDMDL
MODEL 9
REMARK VINA RESULT:    -2.145      3.890      8.045
REMARK INTER + INTRA:          -4.535
REMARK INTER:                  -3.660
REMARK INTRA:                  -0.875
REMARK UNBOUND:                -0.635
REMARK SMILES CCCCCCCCCCCCCCCC(=O)[O-]
REMARK SMILES IDX 9 1 10 2 11 3 12 4 13 5 14 6 15 7 16 8 17 9 18 10 8 11 7 12
REMARK SMILES IDX 6 13 5 14 4 15 3 16 2 17 1 18
REMARK H PARENT
REMARK Flexibility Score: inf
ROOT
ATOM      1  C   UNL     1       4.899 -38.225  20.721  1.00  0.00     0.000 C 
ENDROOT
BRANCH   1   2
ATOM      2  C   UNL     1       5.529 -36.984  20.072  1.00  0.00     0.000 C 
BRANCH   2   3
ATOM      3  C   UNL     1       4.510 -35.841  19.970  1.00  0.00     0.000 C 
BRANCH   3   4
ATOM      4  C   UNL     1       4.864 -34.889  18.818  1.00  0.00     0.000 C 
BRANCH   4   5
ATOM      5  C   UNL     1       4.196 -35.307  17.490  1.00  0.00     0.000 C 
BRANCH   5   6
ATOM      6  C   UNL     1       3.321 -36.567  17.611  1.00  0.00     0.006 C 
BRANCH   6   7
ATOM      7  C   UNL     1       2.305 -36.699  16.471  1.00  0.00     0.053 C 
BRANCH   7   8
ATOM      8  C   UNL     1       3.005 -36.950  15.173  1.00  0.00     0.041 C 
ATOM      9  O   UNL     1       2.935 -36.106  14.241  1.00  0.00    -0.550 OA
ATOM     10  O   UNL     1       3.778 -38.092  15.009  1.00  0.00    -0.550 OA
ENDBRANCH   7   8
ENDBRANCH   6   7
ENDBRANCH   5   6
ENDBRANCH   4   5
ENDBRANCH   3   4
ENDBRANCH   2   3
ENDBRANCH   1   2
BRANCH   1  11
ATOM     11  C   UNL     1       5.952 -39.206  21.261  1.00  0.00     0.000 C 
BRANCH  11  12
ATOM     12  C   UNL     1       5.426 -40.052  22.432  1.00  0.00    -0.000 C 
BRANCH  12  13
ATOM     13  C   UNL     1       5.177 -39.221  23.704  1.00  0.00    -0.000 C 
BRANCH  13  14
ATOM     14  C   UNL     1       5.987 -37.916  23.791  1.00  0.00    -0.000 C 
BRANCH  14  15
ATOM     15  C   UNL     1       5.732 -37.136  25.093  1.00  0.00    -0.000 C 
BRANCH  15  16
ATOM     16  C   UNL     1       6.088 -35.640  24.957  1.00  0.00    -0.000 C 
BRANCH  16  17
ATOM     17  C   UNL     1       6.018 -35.121  23.511  1.00  0.00    -0.003 C 
ATOM     18  C   UNL     1       5.660 -33.639  23.424  1.00  0.00     0.004 C 
ENDBRANCH  16  17
ENDBRANCH  15  16
ENDBRANCH  14  15
ENDBRANCH  13  14
ENDBRANCH  12  13
ENDBRANCH  11  12
ENDBRANCH   1  11
TORSDOF 14
ENDMDL
