MODEL 1
REMARK VINA RESULT:    -3.187      0.000      0.000
REMARK INTER + INTRA:          -3.391
REMARK INTER:                  -3.373
REMARK INTRA:                  -0.018
REMARK UNBOUND:                -0.018
REMARK SMILES O=C([O-])c1cccnc1
REMARK SMILES IDX 4 1 5 2 9 3 6 4 8 5 7 6 2 7 1 8 3 9
REMARK H PARENT
REMARK Flexibility Score: inf
ROOT
ATOM      1  C   UNL     1      -4.478  -3.151  -4.009  1.00  0.00     0.016 A 
ATOM      2  C   UNL     1      -4.720  -4.354  -4.691  1.00  0.00     0.013 A 
ATOM      3  C   UNL     1      -4.577  -3.146  -2.606  1.00  0.00     0.120 A 
ATOM      4  C   UNL     1      -5.050  -5.509  -3.979  1.00  0.00     0.021 A 
ATOM      5  N   UNL     1      -4.900  -4.285  -1.937  1.00  0.00    -0.264 NA
ATOM      6  C   UNL     1      -5.136  -5.454  -2.587  1.00  0.00     0.111 A 
ENDROOT
BRANCH   1   7
ATOM      7  C   UNL     1      -4.128  -1.921  -4.752  1.00  0.00     0.073 C 
ATOM      8  O   UNL     1      -4.797  -0.865  -4.592  1.00  0.00    -0.545 OA
ATOM      9  O   UNL     1      -3.055  -1.912  -5.636  1.00  0.00    -0.545 OA
ENDBRANCH   1   7
TORSDOF 1
ENDMDL
MODEL 2
REMARK VINA RESULT:    -3.052      1.695      2.320
REMARK INTER + INTRA:          -3.249
REMARK INTER:                  -3.232
REMARK INTRA:                  -0.017
REMARK UNBOUND:                -0.018
REMARK SMILES O=C([O-])c1cccnc1
REMARK SMILES IDX 4 1 5 2 9 3 6 4 8 5 7 6 2 7 1 8 3 9
REMARK H PARENT
REMARK Flexibility Score: inf
ROOT
ATOM      1  C   UNL     1      -4.238  -2.148  -4.961  1.00  0.00     0.016 A 
ATOM      2  C   UNL     1      -5.219  -1.402  -4.290  1.00  0.00     0.013 A 
ATOM      3  C   UNL     1      -3.908  -3.421  -4.463  1.00  0.00     0.120 A 
ATOM      4  C   UNL     1      -5.844  -1.925  -3.156  1.00  0.00     0.021 A 
ATOM      5  N   UNL     1      -4.532  -3.908  -3.357  1.00  0.00    -0.264 NA
ATOM      6  C   UNL     1      -5.484  -3.194  -2.700  1.00  0.00     0.111 A 
ENDROOT
BRANCH   1   7
ATOM      7  C   UNL     1      -3.568  -1.603  -6.162  1.00  0.00     0.073 C 
ATOM      8  O   UNL     1      -4.189  -1.512  -7.255  1.00  0.00    -0.545 OA
ATOM      9  O   UNL     1      -2.244  -1.183  -6.102  1.00  0.00    -0.545 OA
ENDBRANCH   1   7
TORSDOF 1
ENDMDL
MODEL 3
REMARK VINA RESULT:    -3.042      9.054     10.171
REMARK INTER + INTRA:          -3.239
REMARK INTER:                  -3.222
REMARK INTRA:                  -0.016
REMARK UNBOUND:                -0.018
REMARK SMILES O=C([O-])c1cccnc1
REMARK SMILES IDX 4 1 5 2 9 3 6 4 8 5 7 6 2 7 1 8 3 9
REMARK H PARENT
REMARK Flexibility Score: inf
ROOT
ATOM      1  C   UNL     1       4.367  -1.496  -4.774  1.00  0.00     0.016 A 
ATOM      2  C   UNL     1       5.060  -0.644  -3.900  1.00  0.00     0.013 A 
ATOM      3  C   UNL     1       4.520  -1.302  -6.158  1.00  0.00     0.120 A 
ATOM      4  C   UNL     1       5.877   0.368  -4.408  1.00  0.00     0.021 A 
ATOM      5  N   UNL     1       5.322  -0.309  -6.627  1.00  0.00    -0.264 NA
ATOM      6  C   UNL     1       5.997   0.522  -5.790  1.00  0.00     0.111 A 
ENDROOT
BRANCH   1   7
ATOM      7  C   UNL     1       3.499  -2.571  -4.248  1.00  0.00     0.073 C 
ATOM      8  O   UNL     1       3.932  -3.750  -4.141  1.00  0.00    -0.545 OA
ATOM      9  O   UNL     1       2.192  -2.295  -3.861  1.00  0.00    -0.545 OA
ENDBRANCH   1   7
TORSDOF 1
ENDMDL
MODEL 4
REMARK VINA RESULT:    -3.037      2.888      3.727
REMARK INTER + INTRA:          -3.233
REMARK INTER:                  -3.212
REMARK INTRA:                  -0.021
REMARK UNBOUND:                -0.018
REMARK SMILES O=C([O-])c1cccnc1
REMARK SMILES IDX 4 1 5 2 9 3 6 4 8 5 7 6 2 7 1 8 3 9
REMARK H PARENT
REMARK Flexibility Score: inf
ROOT
ATOM      1  C   UNL     1      -4.307  -3.659  -3.248  1.00  0.00     0.016 A 
ATOM      2  C   UNL     1      -5.315  -2.855  -2.694  1.00  0.00     0.013 A 
ATOM      3  C   UNL     1      -3.843  -3.355  -4.540  1.00  0.00     0.120 A 
ATOM      4  C   UNL     1      -5.835  -1.782  -3.421  1.00  0.00     0.021 A 
ATOM      5  N   UNL     1      -4.366  -2.304  -5.227  1.00  0.00    -0.264 NA
ATOM      6  C   UNL     1      -5.342  -1.519  -4.700  1.00  0.00     0.111 A 
ENDROOT
BRANCH   1   7
ATOM      7  C   UNL     1      -3.749  -4.799  -2.487  1.00  0.00     0.073 C 
ATOM      8  O   UNL     1      -4.502  -5.541  -1.802  1.00  0.00    -0.545 OA
ATOM      9  O   UNL     1      -2.386  -5.067  -2.520  1.00  0.00    -0.545 OA
ENDBRANCH   1   7
TORSDOF 1
ENDMDL
MODEL 5
REMARK VINA RESULT:    -3.015      2.734      3.703
REMARK INTER + INTRA:          -3.209
REMARK INTER:                  -3.186
REMARK INTRA:                  -0.023
REMARK UNBOUND:                -0.018
REMARK SMILES O=C([O-])c1cccnc1
REMARK SMILES IDX 4 1 5 2 9 3 6 4 8 5 7 6 2 7 1 8 3 9
REMARK H PARENT
REMARK Flexibility Score: inf
ROOT
ATOM      1  C   UNL     1      -4.788  -2.711  -3.940  1.00  0.00     0.016 A 
ATOM      2  C   UNL     1      -5.097  -1.504  -4.588  1.00  0.00     0.013 A 
ATOM      3  C   UNL     1      -3.751  -3.504  -4.463  1.00  0.00     0.120 A 
ATOM      4  C   UNL     1      -4.383  -1.116  -5.724  1.00  0.00     0.021 A 
ATOM      5  N   UNL     1      -3.072  -3.103  -5.570  1.00  0.00    -0.264 NA
ATOM      6  C   UNL     1      -3.362  -1.937  -6.205  1.00  0.00     0.111 A 
ENDROOT
BRANCH   1   7
ATOM      7  C   UNL     1      -5.537  -3.133  -2.737  1.00  0.00     0.073 C 
ATOM      8  O   UNL     1      -6.651  -2.612  -2.461  1.00  0.00    -0.545 OA
ATOM      9  O   UNL     1      -5.024  -4.112  -1.895  1.00  0.00    -0.545 OA
ENDBRANCH   1   7
TORSDOF 1
ENDMDL
MODEL 6
REMARK VINA RESULT:    -2.927      2.793      3.607
REMARK INTER + INTRA:          -3.116
REMARK INTER:                  -3.097
REMARK INTRA:                  -0.019
REMARK UNBOUND:                -0.018
REMARK SMILES O=C([O-])c1cccnc1
REMARK SMILES IDX 4 1 5 2 9 3 6 4 8 5 7 6 2 7 1 8 3 9
REMARK H PARENT
REMARK Flexibility Score: inf
ROOT
ATOM      1  C   UNL     1      -4.102  -3.822  -3.210  1.00  0.00     0.016 A 
ATOM      2  C   UNL     1      -3.712  -3.644  -4.547  1.00  0.00     0.013 A 
ATOM      3  C   UNL     1      -5.024  -2.915  -2.656  1.00  0.00     0.120 A 
ATOM      4  C   UNL     1      -4.236  -2.587  -5.295  1.00  0.00     0.021 A 
ATOM      5  N   UNL     1      -5.519  -1.896  -3.407  1.00  0.00    -0.264 NA
ATOM      6  C   UNL     1      -5.149  -1.714  -4.702  1.00  0.00     0.111 A 
ENDROOT
BRANCH   1   7
ATOM      7  C   UNL     1      -3.553  -4.936  -2.407  1.00  0.00     0.073 C 
ATOM      8  O   UNL     1      -2.307  -5.094  -2.300  1.00  0.00    -0.545 OA
ATOM      9  O   UNL     1      -4.404  -5.823  -1.759  1.00  0.00    -0.545 OA
ENDBRANCH   1   7
TORSDOF 1
ENDMDL
MODEL 7
REMARK VINA RESULT:    -2.907      8.941      9.396
REMARK INTER + INTRA:          -3.095
REMARK INTER:                  -3.078
REMARK INTRA:                  -0.016
REMARK UNBOUND:                -0.018
REMARK SMILES O=C([O-])c1cccnc1
REMARK SMILES IDX 4 1 5 2 9 3 6 4 8 5 7 6 2 7 1 8 3 9
REMARK H PARENT
REMARK Flexibility Score: inf
ROOT
ATOM      1  C   UNL     1       4.310  -3.090  -3.706  1.00  0.00     0.016 A 
ATOM      2  C   UNL     1       4.962  -2.471  -2.628  1.00  0.00     0.013 A 
ATOM      3  C   UNL     1       4.705  -4.390  -4.068  1.00  0.00     0.120 A 
ATOM      4  C   UNL     1       5.975  -3.143  -1.941  1.00  0.00     0.021 A 
ATOM      5  N   UNL     1       5.693  -5.023  -3.382  1.00  0.00    -0.264 NA
ATOM      6  C   UNL     1       6.330  -4.433  -2.336  1.00  0.00     0.111 A 
ENDROOT
BRANCH   1   7
ATOM      7  C   UNL     1       3.237  -2.387  -4.442  1.00  0.00     0.073 C 
ATOM      8  O   UNL     1       2.083  -2.285  -3.948  1.00  0.00    -0.545 OA
ATOM      9  O   UNL     1       3.488  -1.828  -5.690  1.00  0.00    -0.545 OA
ENDBRANCH   1   7
TORSDOF 1
ENDMDL
MODEL 8
REMARK VINA RESULT:    -2.892      9.097      9.934
REMARK INTER + INTRA:          -3.080
REMARK INTER:                  -3.062
REMARK INTRA:                  -0.018
REMARK UNBOUND:                -0.018
REMARK SMILES O=C([O-])c1cccnc1
REMARK SMILES IDX 4 1 5 2 9 3 6 4 8 5 7 6 2 7 1 8 3 9
REMARK H PARENT
REMARK Flexibility Score: inf
ROOT
ATOM      1  C   UNL     1       4.463  -2.177  -4.183  1.00  0.00     0.016 A 
ATOM      2  C   UNL     1       4.739  -1.114  -5.058  1.00  0.00     0.013 A 
ATOM      3  C   UNL     1       5.458  -2.565  -3.267  1.00  0.00     0.120 A 
ATOM      4  C   UNL     1       5.977  -0.469  -5.009  1.00  0.00     0.021 A 
ATOM      5  N   UNL     1       6.654  -1.920  -3.240  1.00  0.00    -0.264 NA
ATOM      6  C   UNL     1       6.932  -0.890  -4.082  1.00  0.00     0.111 A 
ENDROOT
BRANCH   1   7
ATOM      7  C   UNL     1       3.157  -2.868  -4.226  1.00  0.00     0.073 C 
ATOM      8  O   UNL     1       2.092  -2.243  -3.973  1.00  0.00    -0.545 OA
ATOM      9  O   UNL     1       3.085  -4.219  -4.549  1.00  0.00    -0.545 OA
ENDBRANCH   1   7
TORSDOF 1
ENDMDL
MODEL 9
REMARK VINA RESULT:    -2.870      8.657      9.428
REMARK INTER + INTRA:          -3.056
REMARK INTER:                  -3.036
REMARK INTRA:                  -0.021
REMARK UNBOUND:                -0.018
REMARK SMILES O=C([O-])c1cccnc1
REMARK SMILES IDX 4 1 5 2 9 3 6 4 8 5 7 6 2 7 1 8 3 9
REMARK H PARENT
REMARK Flexibility Score: inf
ROOT
ATOM      1  C   UNL     1       4.638  -2.005  -4.112  1.00  0.00     0.016 A 
ATOM      2  C   UNL     1       4.639  -1.950  -5.514  1.00  0.00     0.013 A 
ATOM      3  C   UNL     1       3.410  -2.195  -3.451  1.00  0.00     0.120 A 
ATOM      4  C   UNL     1       3.443  -2.080  -6.223  1.00  0.00     0.021 A 
ATOM      5  N   UNL     1       2.260  -2.320  -4.165  1.00  0.00    -0.264 NA
ATOM      6  C   UNL     1       2.250  -2.267  -5.523  1.00  0.00     0.111 A 
ENDROOT
BRANCH   1   7
ATOM      7  C   UNL     1       5.898  -1.867  -3.351  1.00  0.00     0.073 C 
ATOM      8  O   UNL     1       6.784  -1.052  -3.723  1.00  0.00    -0.545 OA
ATOM      9  O   UNL     1       6.122  -2.633  -2.213  1.00  0.00    -0.545 OA
ENDBRANCH   1   7
TORSDOF 1
ENDMDL
