MODEL 1
REMARK VINA RESULT:    -4.558      0.000      0.000
REMARK INTER + INTRA:          -6.880
REMARK INTER:                  -6.156
REMARK INTRA:                  -0.723
REMARK UNBOUND:                -0.723
REMARK SMILES CC(=O)CCC=C(C)CCC=C(C)C
REMARK SMILES IDX 7 1 6 2 8 3 9 4 10 5 11 6 13 7 12 8 14 9 5 10 4 11 2 12 3 13
REMARK SMILES IDX 1 14
REMARK H PARENT
REMARK Flexibility Score: inf
ROOT
ATOM      1  C   UNL     1      -0.506  27.436  53.063  1.00  0.00    -0.077 C 
ATOM      2  C   UNL     1       0.184  26.350  53.478  1.00  0.00    -0.028 C 
ATOM      3  C   UNL     1       0.078  28.828  53.133  1.00  0.00     0.039 C 
ENDROOT
BRANCH   1   4
ATOM      4  C   UNL     1      -1.914  27.256  52.532  1.00  0.00     0.034 C 
BRANCH   4   5
ATOM      5  C   UNL     1      -1.951  27.245  50.997  1.00  0.00     0.032 C 
BRANCH   5   6
ATOM      6  C   UNL     1      -2.687  28.443  50.447  1.00  0.00    -0.028 C 
ATOM      7  C   UNL     1      -2.966  30.617  49.337  1.00  0.00     0.039 C 
ATOM      8  C   UNL     1      -2.104  29.463  49.779  1.00  0.00    -0.080 C 
ATOM      9  C   UNL     1      -0.629  29.466  49.453  1.00  0.00     0.039 C 
ENDBRANCH   5   6
ENDBRANCH   4   5
ENDBRANCH   1   4
BRANCH   2  10
ATOM     10  C   UNL     1       1.600  26.385  53.996  1.00  0.00     0.035 C 
BRANCH  10  11
ATOM     11  C   UNL     1       1.624  26.709  55.492  1.00  0.00     0.079 C 
BRANCH  11  12
ATOM     12  C   UNL     1       0.592  25.896  56.229  1.00  0.00     0.130 C 
ATOM     13  O   UNL     1       0.717  24.682  56.293  1.00  0.00    -0.300 OA
ATOM     14  C   UNL     1      -0.585  26.545  56.897  1.00  0.00     0.087 C 
ENDBRANCH  11  12
ENDBRANCH  10  11
ENDBRANCH   2  10
TORSDOF 6
ENDMDL
MODEL 2
REMARK VINA RESULT:    -4.479      1.329      2.069
REMARK INTER + INTRA:          -6.774
REMARK INTER:                  -5.859
REMARK INTRA:                  -0.914
REMARK UNBOUND:                -0.723
REMARK SMILES CC(=O)CCC=C(C)CCC=C(C)C
REMARK SMILES IDX 7 1 6 2 8 3 9 4 10 5 11 6 13 7 12 8 14 9 5 10 4 11 2 12 3 13
REMARK SMILES IDX 1 14
REMARK H PARENT
REMARK Flexibility Score: inf
ROOT
ATOM      1  C   UNL     1      -2.039  26.557  52.167  1.00  0.00    -0.077 C 
ATOM      2  C   UNL     1      -1.200  26.908  53.168  1.00  0.00    -0.028 C 
ATOM      3  C   UNL     1      -1.702  25.452  51.193  1.00  0.00     0.039 C 
ENDROOT
BRANCH   1   4
ATOM      4  C   UNL     1      -3.347  27.306  52.004  1.00  0.00     0.034 C 
BRANCH   4   5
ATOM      5  C   UNL     1      -3.122  28.769  51.599  1.00  0.00     0.032 C 
BRANCH   5   6
ATOM      6  C   UNL     1      -2.312  28.880  50.329  1.00  0.00    -0.028 C 
ATOM      7  C   UNL     1      -0.436  29.548  48.890  1.00  0.00     0.039 C 
ATOM      8  C   UNL     1      -1.099  29.468  50.241  1.00  0.00    -0.080 C 
ATOM      9  C   UNL     1      -0.391  30.027  51.452  1.00  0.00     0.039 C 
ENDBRANCH   5   6
ENDBRANCH   4   5
ENDBRANCH   1   4
BRANCH   2  10
ATOM     10  C   UNL     1       0.113  26.225  53.461  1.00  0.00     0.035 C 
BRANCH  10  11
ATOM     11  C   UNL     1       0.762  26.811  54.717  1.00  0.00     0.079 C 
BRANCH  11  12
ATOM     12  C   UNL     1       0.179  26.186  55.958  1.00  0.00     0.130 C 
ATOM     13  O   UNL     1      -0.572  26.841  56.666  1.00  0.00    -0.300 OA
ATOM     14  C   UNL     1       0.495  24.770  56.341  1.00  0.00     0.087 C 
ENDBRANCH  11  12
ENDBRANCH  10  11
ENDBRANCH   2  10
TORSDOF 6
ENDMDL
MODEL 3
REMARK VINA RESULT:    -4.458      2.127      3.944
REMARK INTER + INTRA:          -6.745
REMARK INTER:                  -5.451
REMARK INTRA:                  -1.295
REMARK UNBOUND:                -0.723
REMARK SMILES CC(=O)CCC=C(C)CCC=C(C)C
REMARK SMILES IDX 7 1 6 2 8 3 9 4 10 5 11 6 13 7 12 8 14 9 5 10 4 11 2 12 3 13
REMARK SMILES IDX 1 14
REMARK H PARENT
REMARK Flexibility Score: inf
ROOT
ATOM      1  C   UNL     1      -2.351  28.958  50.414  1.00  0.00    -0.077 C 
ATOM      2  C   UNL     1      -2.643  27.826  51.093  1.00  0.00    -0.028 C 
ATOM      3  C   UNL     1      -0.963  29.237  49.885  1.00  0.00     0.039 C 
ENDROOT
BRANCH   1   4
ATOM      4  C   UNL     1      -3.442  29.988  50.194  1.00  0.00     0.034 C 
BRANCH   4   5
ATOM      5  C   UNL     1      -3.160  31.293  50.950  1.00  0.00     0.032 C 
BRANCH   5   6
ATOM      6  C   UNL     1      -3.201  31.092  52.447  1.00  0.00    -0.028 C 
ATOM      7  C   UNL     1      -2.348  31.042  54.750  1.00  0.00     0.039 C 
ATOM      8  C   UNL     1      -2.171  31.343  53.284  1.00  0.00    -0.080 C 
ATOM      9  C   UNL     1      -0.867  31.928  52.796  1.00  0.00     0.039 C 
ENDBRANCH   5   6
ENDBRANCH   4   5
ENDBRANCH   1   4
BRANCH   2  10
ATOM     10  C   UNL     1      -1.663  26.709  51.353  1.00  0.00     0.035 C 
BRANCH  10  11
ATOM     11  C   UNL     1      -1.482  26.483  52.856  1.00  0.00     0.079 C 
BRANCH  11  12
ATOM     12  C   UNL     1      -0.118  26.941  53.303  1.00  0.00     0.130 C 
ATOM     13  O   UNL     1       0.758  26.113  53.505  1.00  0.00    -0.300 OA
ATOM     14  C   UNL     1       0.193  28.396  53.498  1.00  0.00     0.087 C 
ENDBRANCH  11  12
ENDBRANCH  10  11
ENDBRANCH   2  10
TORSDOF 6
ENDMDL
MODEL 4
REMARK VINA RESULT:    -4.435      1.783      3.017
REMARK INTER + INTRA:          -6.714
REMARK INTER:                  -5.230
REMARK INTRA:                  -1.484
REMARK UNBOUND:                -0.723
REMARK SMILES CC(=O)CCC=C(C)CCC=C(C)C
REMARK SMILES IDX 7 1 6 2 8 3 9 4 10 5 11 6 13 7 12 8 14 9 5 10 4 11 2 12 3 13
REMARK SMILES IDX 1 14
REMARK H PARENT
REMARK Flexibility Score: inf
ROOT
ATOM      1  C   UNL     1      -2.993  27.650  51.409  1.00  0.00    -0.077 C 
ATOM      2  C   UNL     1      -1.799  27.016  51.397  1.00  0.00    -0.028 C 
ATOM      3  C   UNL     1      -3.988  27.458  52.530  1.00  0.00     0.039 C 
ENDROOT
BRANCH   1   4
ATOM      4  C   UNL     1      -3.352  28.566  50.256  1.00  0.00     0.034 C 
BRANCH   4   5
ATOM      5  C   UNL     1      -2.281  29.640  50.021  1.00  0.00     0.032 C 
BRANCH   5   6
ATOM      6  C   UNL     1      -2.210  30.619  51.169  1.00  0.00    -0.028 C 
ATOM      7  C   UNL     1      -1.225  31.784  53.095  1.00  0.00     0.039 C 
ATOM      8  C   UNL     1      -1.125  30.807  51.953  1.00  0.00    -0.080 C 
ATOM      9  C   UNL     1       0.176  30.082  51.704  1.00  0.00     0.039 C 
ENDBRANCH   5   6
ENDBRANCH   4   5
ENDBRANCH   1   4
BRANCH   2  10
ATOM     10  C   UNL     1      -1.305  26.106  52.494  1.00  0.00     0.035 C 
BRANCH  10  11
ATOM     11  C   UNL     1      -0.106  26.727  53.217  1.00  0.00     0.079 C 
BRANCH  11  12
ATOM     12  C   UNL     1      -0.497  27.188  54.597  1.00  0.00     0.130 C 
ATOM     13  O   UNL     1      -0.118  26.557  55.572  1.00  0.00    -0.300 OA
ATOM     14  C   UNL     1      -1.337  28.415  54.802  1.00  0.00     0.087 C 
ENDBRANCH  11  12
ENDBRANCH  10  11
ENDBRANCH   2  10
TORSDOF 6
ENDMDL
MODEL 5
REMARK VINA RESULT:    -4.419      1.809      3.028
REMARK INTER + INTRA:          -6.692
REMARK INTER:                  -6.130
REMARK INTRA:                  -0.562
REMARK UNBOUND:                -0.723
REMARK SMILES CC(=O)CCC=C(C)CCC=C(C)C
REMARK SMILES IDX 7 1 6 2 8 3 9 4 10 5 11 6 13 7 12 8 14 9 5 10 4 11 2 12 3 13
REMARK SMILES IDX 1 14
REMARK H PARENT
REMARK Flexibility Score: inf
ROOT
ATOM      1  C   UNL     1      -1.677  27.415  51.512  1.00  0.00    -0.077 C 
ATOM      2  C   UNL     1      -0.852  27.846  52.493  1.00  0.00    -0.028 C 
ATOM      3  C   UNL     1      -2.373  26.076  51.583  1.00  0.00     0.039 C 
ENDROOT
BRANCH   1   4
ATOM      4  C   UNL     1      -1.895  28.293  50.295  1.00  0.00     0.034 C 
BRANCH   4   5
ATOM      5  C   UNL     1      -0.828  29.389  50.180  1.00  0.00     0.032 C 
BRANCH   5   6
ATOM      6  C   UNL     1      -0.407  29.611  48.746  1.00  0.00    -0.028 C 
ATOM      7  C   UNL     1       1.093  30.200  46.891  1.00  0.00     0.039 C 
ATOM      8  C   UNL     1       0.839  29.962  48.358  1.00  0.00    -0.080 C 
ATOM      9  C   UNL     1       1.975  30.103  49.342  1.00  0.00     0.039 C 
ENDBRANCH   5   6
ENDBRANCH   4   5
ENDBRANCH   1   4
BRANCH   2  10
ATOM     10  C   UNL     1      -0.574  27.088  53.768  1.00  0.00     0.035 C 
BRANCH  10  11
ATOM     11  C   UNL     1       0.720  26.279  53.647  1.00  0.00     0.079 C 
BRANCH  11  12
ATOM     12  C   UNL     1       1.833  26.938  54.419  1.00  0.00     0.130 C 
ATOM     13  O   UNL     1       2.657  27.618  53.825  1.00  0.00    -0.300 OA
ATOM     14  C   UNL     1       1.950  26.784  55.908  1.00  0.00     0.087 C 
ENDBRANCH  11  12
ENDBRANCH  10  11
ENDBRANCH   2  10
TORSDOF 6
ENDMDL
MODEL 6
REMARK VINA RESULT:    -4.362      3.058      4.266
REMARK INTER + INTRA:          -6.616
REMARK INTER:                  -5.270
REMARK INTRA:                  -1.346
REMARK UNBOUND:                -0.723
REMARK SMILES CC(=O)CCC=C(C)CCC=C(C)C
REMARK SMILES IDX 7 1 6 2 8 3 9 4 10 5 11 6 13 7 12 8 14 9 5 10 4 11 2 12 3 13
REMARK SMILES IDX 1 14
REMARK H PARENT
REMARK Flexibility Score: inf
ROOT
ATOM      1  C   UNL     1      -0.763  27.593  53.473  1.00  0.00    -0.077 C 
ATOM      2  C   UNL     1      -1.880  28.127  54.019  1.00  0.00    -0.028 C 
ATOM      3  C   UNL     1       0.589  28.250  53.620  1.00  0.00     0.039 C 
ENDROOT
BRANCH   1   4
ATOM      4  C   UNL     1      -0.875  26.309  52.675  1.00  0.00     0.034 C 
BRANCH   4   5
ATOM      5  C   UNL     1      -1.844  26.451  51.494  1.00  0.00     0.032 C 
BRANCH   5   6
ATOM      6  C   UNL     1      -1.617  27.737  50.735  1.00  0.00    -0.028 C 
ATOM      7  C   UNL     1      -2.212  29.836  49.606  1.00  0.00     0.039 C 
ATOM      8  C   UNL     1      -2.587  28.620  50.413  1.00  0.00    -0.080 C 
ATOM      9  C   UNL     1      -4.020  28.431  50.853  1.00  0.00     0.039 C 
ENDBRANCH   5   6
ENDBRANCH   4   5
ENDBRANCH   1   4
BRANCH   2  10
ATOM     10  C   UNL     1      -1.904  29.378  54.861  1.00  0.00     0.035 C 
BRANCH  10  11
ATOM     11  C   UNL     1      -3.051  30.299  54.434  1.00  0.00     0.079 C 
BRANCH  11  12
ATOM     12  C   UNL     1      -2.649  31.134  53.247  1.00  0.00     0.130 C 
ATOM     13  O   UNL     1      -3.508  31.538  52.477  1.00  0.00    -0.300 OA
ATOM     14  C   UNL     1      -1.214  31.491  52.992  1.00  0.00     0.087 C 
ENDBRANCH  11  12
ENDBRANCH  10  11
ENDBRANCH   2  10
TORSDOF 6
ENDMDL
MODEL 7
REMARK VINA RESULT:    -4.362      1.878      2.882
REMARK INTER + INTRA:          -6.615
REMARK INTER:                  -5.935
REMARK INTRA:                  -0.680
REMARK UNBOUND:                -0.723
REMARK SMILES CC(=O)CCC=C(C)CCC=C(C)C
REMARK SMILES IDX 7 1 6 2 8 3 9 4 10 5 11 6 13 7 12 8 14 9 5 10 4 11 2 12 3 13
REMARK SMILES IDX 1 14
REMARK H PARENT
REMARK Flexibility Score: inf
ROOT
ATOM      1  C   UNL     1      -1.551  27.058  51.520  1.00  0.00    -0.077 C 
ATOM      2  C   UNL     1      -0.857  27.359  52.641  1.00  0.00    -0.028 C 
ATOM      3  C   UNL     1      -1.873  25.632  51.138  1.00  0.00     0.039 C 
ENDROOT
BRANCH   1   4
ATOM      4  C   UNL     1      -2.003  28.183  50.609  1.00  0.00     0.034 C 
BRANCH   4   5
ATOM      5  C   UNL     1      -2.692  29.311  51.389  1.00  0.00     0.032 C 
BRANCH   5   6
ATOM      6  C   UNL     1      -1.763  30.481  51.616  1.00  0.00    -0.028 C 
ATOM      7  C   UNL     1      -0.611  32.247  52.877  1.00  0.00     0.039 C 
ATOM      8  C   UNL     1      -1.524  31.049  52.818  1.00  0.00    -0.080 C 
ATOM      9  C   UNL     1      -2.128  30.510  54.093  1.00  0.00     0.039 C 
ENDBRANCH   5   6
ENDBRANCH   4   5
ENDBRANCH   1   4
BRANCH   2  10
ATOM     10  C   UNL     1      -0.379  26.342  53.647  1.00  0.00     0.035 C 
BRANCH  10  11
ATOM     11  C   UNL     1      -0.199  26.984  55.025  1.00  0.00     0.079 C 
BRANCH  11  12
ATOM     12  C   UNL     1       0.880  26.278  55.804  1.00  0.00     0.130 C 
ATOM     13  O   UNL     1       1.995  26.774  55.874  1.00  0.00    -0.300 OA
ATOM     14  C   UNL     1       0.613  24.979  56.507  1.00  0.00     0.087 C 
ENDBRANCH  11  12
ENDBRANCH  10  11
ENDBRANCH   2  10
TORSDOF 6
ENDMDL
MODEL 8
REMARK VINA RESULT:    -4.346      2.615      5.634
REMARK INTER + INTRA:          -6.594
REMARK INTER:                  -5.440
REMARK INTRA:                  -1.153
REMARK UNBOUND:                -0.723
REMARK SMILES CC(=O)CCC=C(C)CCC=C(C)C
REMARK SMILES IDX 7 1 6 2 8 3 9 4 10 5 11 6 13 7 12 8 14 9 5 10 4 11 2 12 3 13
REMARK SMILES IDX 1 14
REMARK H PARENT
REMARK Flexibility Score: inf
ROOT
ATOM      1  C   UNL     1      -2.072  28.374  50.629  1.00  0.00    -0.077 C 
ATOM      2  C   UNL     1      -3.273  28.898  50.964  1.00  0.00    -0.028 C 
ATOM      3  C   UNL     1      -1.025  29.180  49.896  1.00  0.00     0.039 C 
ENDROOT
BRANCH   1   4
ATOM      4  C   UNL     1      -1.775  26.930  50.982  1.00  0.00     0.034 C 
BRANCH   4   5
ATOM      5  C   UNL     1      -1.859  26.680  52.494  1.00  0.00     0.032 C 
BRANCH   5   6
ATOM      6  C   UNL     1      -0.522  26.276  53.069  1.00  0.00    -0.028 C 
ATOM      7  C   UNL     1       1.721  26.587  54.023  1.00  0.00     0.039 C 
ATOM      8  C   UNL     1       0.410  27.141  53.526  1.00  0.00    -0.080 C 
ATOM      9  C   UNL     1       0.167  28.631  53.569  1.00  0.00     0.039 C 
ENDBRANCH   5   6
ENDBRANCH   4   5
ENDBRANCH   1   4
BRANCH   2  10
ATOM     10  C   UNL     1      -3.684  30.326  50.702  1.00  0.00     0.035 C 
BRANCH  10  11
ATOM     11  C   UNL     1      -4.105  31.018  52.002  1.00  0.00     0.079 C 
BRANCH  11  12
ATOM     12  C   UNL     1      -2.926  31.175  52.927  1.00  0.00     0.130 C 
ATOM     13  O   UNL     1      -2.966  30.675  54.042  1.00  0.00    -0.300 OA
ATOM     14  C   UNL     1      -1.697  31.926  52.506  1.00  0.00     0.087 C 
ENDBRANCH  11  12
ENDBRANCH  10  11
ENDBRANCH   2  10
TORSDOF 6
ENDMDL
MODEL 9
REMARK VINA RESULT:    -4.337      2.464      3.323
REMARK INTER + INTRA:          -6.582
REMARK INTER:                  -5.600
REMARK INTRA:                  -0.982
REMARK UNBOUND:                -0.723
REMARK SMILES CC(=O)CCC=C(C)CCC=C(C)C
REMARK SMILES IDX 7 1 6 2 8 3 9 4 10 5 11 6 13 7 12 8 14 9 5 10 4 11 2 12 3 13
REMARK SMILES IDX 1 14
REMARK H PARENT
REMARK Flexibility Score: inf
ROOT
ATOM      1  C   UNL     1      -0.657  29.049  52.295  1.00  0.00    -0.077 C 
ATOM      2  C   UNL     1      -0.362  28.586  53.531  1.00  0.00    -0.028 C 
ATOM      3  C   UNL     1      -1.423  28.217  51.292  1.00  0.00     0.039 C 
ENDROOT
BRANCH   1   4
ATOM      4  C   UNL     1      -0.189  30.434  51.896  1.00  0.00     0.034 C 
BRANCH   4   5
ATOM      5  C   UNL     1      -0.874  31.531  52.723  1.00  0.00     0.032 C 
BRANCH   5   6
ATOM      6  C   UNL     1      -2.354  31.606  52.434  1.00  0.00    -0.028 C 
ATOM      7  C   UNL     1      -4.762  31.370  52.867  1.00  0.00     0.039 C 
ATOM      8  C   UNL     1      -3.326  31.296  53.321  1.00  0.00    -0.080 C 
ATOM      9  C   UNL     1      -3.014  30.901  54.744  1.00  0.00     0.039 C 
ENDBRANCH   5   6
ENDBRANCH   4   5
ENDBRANCH   1   4
BRANCH   2  10
ATOM     10  C   UNL     1      -0.794  27.243  54.064  1.00  0.00     0.035 C 
BRANCH  10  11
ATOM     11  C   UNL     1       0.377  26.256  54.067  1.00  0.00     0.079 C 
BRANCH  11  12
ATOM     12  C   UNL     1       0.974  26.143  55.446  1.00  0.00     0.130 C 
ATOM     13  O   UNL     1       1.916  26.857  55.754  1.00  0.00    -0.300 OA
ATOM     14  C   UNL     1       0.430  25.175  56.456  1.00  0.00     0.087 C 
ENDBRANCH  11  12
ENDBRANCH  10  11
ENDBRANCH   2  10
TORSDOF 6
ENDMDL
