MODEL 1
REMARK VINA RESULT:    -4.860      0.000      0.000
REMARK INTER + INTRA:          -7.459
REMARK INTER:                  -7.417
REMARK INTRA:                  -0.042
REMARK UNBOUND:                -0.042
REMARK SMILES CC1=CCC[C@H](C)C(=O)C[C@@H](C(C)C)C(=O)C1
REMARK SMILES IDX 8 1 9 2 6 3 7 4 5 5 4 6 3 7 2 8 1 9 10 11 11 12 15 13 16 14
REMARK SMILES IDX 17 15 12 17 13 18 14 19
REMARK H PARENT
REMARK Flexibility Score: 70.00
ROOT
ATOM      1  C   UNL     1      20.411  28.839 -11.997  1.00  0.00     0.136 C 
ATOM      2  O   UNL     1      20.256  27.787 -11.392  1.00  0.00    -0.299 OA
ENDROOT
BRANCH   1   3
ATOM      3  C   UNL     1      21.620  29.695 -11.625  1.00  0.00     0.053 C 
ATOM      4  C   UNL     1      22.273  29.107 -10.366  1.00  0.00     0.016 C 
BRANCH   3   5
ATOM      5  C   UNL     1      22.700  29.895 -12.723  1.00  0.00     0.015 C 
BRANCH   5   6
ATOM      6  C   UNL     1      22.796  28.734 -13.742  1.00  0.00     0.028 C 
BRANCH   6   7
ATOM      7  C   UNL     1      22.828  29.249 -15.163  1.00  0.00    -0.028 C 
ATOM      8  C   UNL     1      22.039  28.823 -16.176  1.00  0.00    -0.070 CG0
ATOM      9  C   UNL     1      22.263  29.418 -17.543  1.00  0.00     0.039 C 
ATOM     10  G   UNL     1      20.937  27.796 -15.994  1.00  0.00     0.000 G0
ENDBRANCH   6   7
ENDBRANCH   5   6
ENDBRANCH   3   5
ENDBRANCH   1   3
BRANCH   1  11
ATOM     11  C   UNL     1      19.420  29.176 -13.093  1.00  0.00     0.087 C 
BRANCH  11  12
ATOM     12  C   UNL     1      19.146  28.006 -14.081  1.00  0.00     0.066 C 
BRANCH  12  13
ATOM     13  C   UNL     1      19.661  28.369 -15.466  1.00  0.00     0.140 C 
ATOM     14  O   UNL     1      19.020  29.139 -16.167  1.00  0.00    -0.299 OA
BRANCH  13  15
ATOM     15  C   UNL     1      20.932  27.778 -16.016  1.00  0.00     0.106 CG0
ATOM     16  G   UNL     1      22.032  28.812 -16.171  1.00  0.00     0.000 G0
ENDBRANCH  13  15
ENDBRANCH  12  13
BRANCH  12  17
ATOM     17  C   UNL     1      17.657  27.529 -14.137  1.00  0.00    -0.006 C 
ATOM     18  C   UNL     1      17.067  27.267 -12.740  1.00  0.00     0.008 C 
ATOM     19  C   UNL     1      17.525  26.246 -14.979  1.00  0.00     0.008 C 
ENDBRANCH  12  17
ENDBRANCH  11  12
ENDBRANCH   1  11
TORSDOF 1
ENDMDL
MODEL 2
REMARK VINA RESULT:    -4.558      1.679      4.165
REMARK INTER + INTRA:          -6.999
REMARK INTER:                  -6.915
REMARK INTRA:                  -0.084
REMARK UNBOUND:                -0.042
REMARK SMILES CC1=CCC[C@H](C)C(=O)C[C@@H](C(C)C)C(=O)C1
REMARK SMILES IDX 8 1 9 2 6 3 7 4 5 5 4 6 3 7 2 8 1 9 10 11 11 12 15 13 16 14
REMARK SMILES IDX 17 15 12 17 13 18 14 19
REMARK H PARENT
REMARK Flexibility Score: 70.00
ROOT
ATOM      1  C   UNL     1      22.757  28.948 -13.244  1.00  0.00     0.136 C 
ATOM      2  O   UNL     1      23.147  30.105 -13.318  1.00  0.00    -0.299 OA
ENDROOT
BRANCH   1   3
ATOM      3  C   UNL     1      22.299  28.443 -11.878  1.00  0.00     0.053 C 
ATOM      4  C   UNL     1      23.385  28.769 -10.842  1.00  0.00     0.016 C 
BRANCH   3   5
ATOM      5  C   UNL     1      20.925  28.955 -11.367  1.00  0.00     0.015 C 
BRANCH   5   6
ATOM      6  C   UNL     1      19.942  29.371 -12.488  1.00  0.00     0.028 C 
BRANCH   6   7
ATOM      7  C   UNL     1      19.004  28.241 -12.846  1.00  0.00    -0.028 C 
ATOM      8  C   UNL     1      18.643  27.880 -14.099  1.00  0.00    -0.070 CG0
ATOM      9  C   UNL     1      17.646  26.759 -14.252  1.00  0.00     0.039 C 
ATOM     10  G   UNL     1      19.207  28.535 -15.346  1.00  0.00     0.000 G0
ENDBRANCH   6   7
ENDBRANCH   5   6
ENDBRANCH   3   5
ENDBRANCH   1   3
BRANCH   1  11
ATOM     11  C   UNL     1      22.716  28.134 -14.522  1.00  0.00     0.087 C 
BRANCH  11  12
ATOM     12  C   UNL     1      21.828  28.753 -15.639  1.00  0.00     0.066 C 
BRANCH  12  13
ATOM     13  C   UNL     1      20.538  27.957 -15.773  1.00  0.00     0.140 C 
ATOM     14  O   UNL     1      20.569  26.831 -16.249  1.00  0.00    -0.299 OA
BRANCH  13  15
ATOM     15  C   UNL     1      19.209  28.531 -15.360  1.00  0.00     0.106 CG0
ATOM     16  G   UNL     1      18.659  27.876 -14.107  1.00  0.00     0.000 G0
ENDBRANCH  13  15
ENDBRANCH  12  13
BRANCH  12  17
ATOM     17  C   UNL     1      22.536  28.921 -17.025  1.00  0.00    -0.006 C 
ATOM     18  C   UNL     1      23.735  27.970 -17.195  1.00  0.00     0.008 C 
ATOM     19  C   UNL     1      23.021  30.370 -17.218  1.00  0.00     0.008 C 
ENDBRANCH  12  17
ENDBRANCH  11  12
ENDBRANCH   1  11
TORSDOF 1
ENDMDL
MODEL 3
REMARK VINA RESULT:    -4.523      1.852      4.851
REMARK INTER + INTRA:          -6.945
REMARK INTER:                  -7.120
REMARK INTRA:                   0.175
REMARK UNBOUND:                -0.042
REMARK SMILES CC1=CCC[C@H](C)C(=O)C[C@@H](C(C)C)C(=O)C1
REMARK SMILES IDX 8 1 9 2 6 3 7 4 5 5 4 6 3 7 2 8 1 9 10 11 11 12 15 13 16 14
REMARK SMILES IDX 17 15 12 17 13 18 14 19
REMARK H PARENT
REMARK Flexibility Score: 70.00
ROOT
ATOM      1  C   UNL     1      19.836  27.901 -16.127  1.00  0.00     0.136 C 
ATOM      2  O   UNL     1      20.134  26.725 -16.284  1.00  0.00    -0.299 OA
ENDROOT
BRANCH   1   3
ATOM      3  C   UNL     1      18.699  28.219 -15.157  1.00  0.00     0.053 C 
ATOM      4  C   UNL     1      17.954  26.917 -14.828  1.00  0.00     0.016 C 
BRANCH   3   5
ATOM      5  C   UNL     1      19.088  28.941 -13.838  1.00  0.00     0.015 C 
BRANCH   5   6
ATOM      6  C   UNL     1      20.189  28.226 -13.020  1.00  0.00     0.028 C 
BRANCH   6   7
ATOM      7  C   UNL     1      21.270  29.192 -12.590  1.00  0.00    -0.028 C 
ATOM      8  C   UNL     1      22.497  29.305 -13.150  1.00  0.00    -0.070 CG0
ATOM      9  C   UNL     1      23.463  30.290 -12.540  1.00  0.00     0.039 C 
ATOM     10  G   UNL     1      22.932  28.505 -14.364  1.00  0.00     0.000 G0
ENDBRANCH   6   7
ENDBRANCH   5   6
ENDBRANCH   3   5
ENDBRANCH   1   3
BRANCH   1  11
ATOM     11  C   UNL     1      20.650  28.941 -16.871  1.00  0.00     0.087 C 
BRANCH  11  12
ATOM     12  C   UNL     1      22.179  28.654 -16.889  1.00  0.00     0.066 C 
BRANCH  12  13
ATOM     13  C   UNL     1      22.832  29.258 -15.656  1.00  0.00     0.140 C 
ATOM     14  O   UNL     1      23.308  30.383 -15.714  1.00  0.00    -0.299 OA
BRANCH  13  15
ATOM     15  C   UNL     1      22.938  28.494 -14.363  1.00  0.00     0.106 CG0
ATOM     16  G   UNL     1      22.494  29.314 -13.167  1.00  0.00     0.000 G0
ENDBRANCH  13  15
ENDBRANCH  12  13
BRANCH  12  17
ATOM     17  C   UNL     1      22.915  29.100 -18.197  1.00  0.00    -0.006 C 
ATOM     18  C   UNL     1      22.061  28.882 -19.459  1.00  0.00     0.008 C 
ATOM     19  C   UNL     1      24.245  28.340 -18.361  1.00  0.00     0.008 C 
ENDBRANCH  12  17
ENDBRANCH  11  12
ENDBRANCH   1  11
TORSDOF 1
ENDMDL
MODEL 4
REMARK VINA RESULT:    -4.419     15.279     17.390
REMARK INTER + INTRA:          -6.786
REMARK INTER:                  -6.684
REMARK INTRA:                  -0.102
REMARK UNBOUND:                -0.042
REMARK SMILES CC1=CCC[C@H](C)C(=O)C[C@@H](C(C)C)C(=O)C1
REMARK SMILES IDX 8 1 9 2 6 3 7 4 5 5 4 6 3 7 2 8 1 9 10 11 11 12 15 13 16 14
REMARK SMILES IDX 17 15 12 17 13 18 14 19
REMARK H PARENT
REMARK Flexibility Score: 70.00
ROOT
ATOM      1  C   UNL     1      32.063  35.761 -21.156  1.00  0.00     0.136 C 
ATOM      2  O   UNL     1      31.029  35.167 -21.426  1.00  0.00    -0.299 OA
ENDROOT
BRANCH   1   3
ATOM      3  C   UNL     1      33.254  34.928 -20.684  1.00  0.00     0.053 C 
ATOM      4  C   UNL     1      32.782  33.486 -20.445  1.00  0.00     0.016 C 
BRANCH   3   5
ATOM      5  C   UNL     1      34.507  34.919 -21.599  1.00  0.00     0.015 C 
BRANCH   5   6
ATOM      6  C   UNL     1      34.198  35.085 -23.107  1.00  0.00     0.028 C 
BRANCH   6   7
ATOM      7  C   UNL     1      35.112  36.106 -23.747  1.00  0.00    -0.028 C 
ATOM      8  C   UNL     1      34.715  37.169 -24.485  1.00  0.00    -0.070 CG0
ATOM      9  C   UNL     1      35.782  38.044 -25.092  1.00  0.00     0.039 C 
ATOM     10  G   UNL     1      33.257  37.525 -24.710  1.00  0.00     0.000 G0
ENDBRANCH   6   7
ENDBRANCH   5   6
ENDBRANCH   3   5
ENDBRANCH   1   3
BRANCH   1  11
ATOM     11  C   UNL     1      32.089  37.263 -21.361  1.00  0.00     0.087 C 
BRANCH  11  12
ATOM     12  C   UNL     1      31.530  37.724 -22.737  1.00  0.00     0.066 C 
BRANCH  12  13
ATOM     13  C   UNL     1      32.652  38.312 -23.579  1.00  0.00     0.140 C 
ATOM     14  O   UNL     1      33.061  39.439 -23.338  1.00  0.00    -0.299 OA
BRANCH  13  15
ATOM     15  C   UNL     1      33.257  37.553 -24.730  1.00  0.00     0.106 CG0
ATOM     16  G   UNL     1      34.703  37.171 -24.475  1.00  0.00     0.000 G0
ENDBRANCH  13  15
ENDBRANCH  12  13
BRANCH  12  17
ATOM     17  C   UNL     1      30.309  38.701 -22.656  1.00  0.00    -0.006 C 
ATOM     18  C   UNL     1      29.240  38.229 -21.655  1.00  0.00     0.008 C 
ATOM     19  C   UNL     1      29.654  38.872 -24.039  1.00  0.00     0.008 C 
ENDBRANCH  12  17
ENDBRANCH  11  12
ENDBRANCH   1  11
TORSDOF 1
ENDMDL
MODEL 5
REMARK VINA RESULT:    -4.270      2.214      4.867
REMARK INTER + INTRA:          -6.559
REMARK INTER:                  -6.812
REMARK INTRA:                   0.254
REMARK UNBOUND:                -0.042
REMARK SMILES CC1=CCC[C@H](C)C(=O)C[C@@H](C(C)C)C(=O)C1
REMARK SMILES IDX 8 1 9 2 6 3 7 4 5 5 4 6 3 7 2 8 1 9 10 11 11 12 15 13 16 14
REMARK SMILES IDX 17 15 12 17 13 18 14 19
REMARK H PARENT
REMARK Flexibility Score: 70.00
ROOT
ATOM      1  C   UNL     1      18.933  27.952 -13.794  1.00  0.00     0.136 C 
ATOM      2  O   UNL     1      18.585  27.294 -14.764  1.00  0.00    -0.299 OA
ENDROOT
BRANCH   1   3
ATOM      3  C   UNL     1      18.250  27.659 -12.459  1.00  0.00     0.053 C 
ATOM      4  C   UNL     1      17.213  26.546 -12.670  1.00  0.00     0.016 C 
BRANCH   3   5
ATOM      5  C   UNL     1      19.175  27.286 -11.269  1.00  0.00     0.015 C 
BRANCH   5   6
ATOM      6  C   UNL     1      19.521  28.470 -10.335  1.00  0.00     0.028 C 
BRANCH   6   7
ATOM      7  C   UNL     1      20.967  28.421  -9.896  1.00  0.00    -0.028 C 
ATOM      8  C   UNL     1      22.023  28.896 -10.596  1.00  0.00    -0.070 CG0
ATOM      9  C   UNL     1      23.401  28.700 -10.017  1.00  0.00     0.039 C 
ATOM     10  G   UNL     1      21.879  29.627 -11.919  1.00  0.00     0.000 G0
ENDBRANCH   6   7
ENDBRANCH   5   6
ENDBRANCH   3   5
ENDBRANCH   1   3
BRANCH   1  11
ATOM     11  C   UNL     1      20.042  28.967 -13.990  1.00  0.00     0.087 C 
BRANCH  11  12
ATOM     12  C   UNL     1      21.449  28.335 -14.196  1.00  0.00     0.066 C 
BRANCH  12  13
ATOM     13  C   UNL     1      22.390  28.802 -13.096  1.00  0.00     0.140 C 
ATOM     14  O   UNL     1      23.569  28.479 -13.132  1.00  0.00    -0.299 OA
BRANCH  13  15
ATOM     15  C   UNL     1      21.903  29.632 -11.939  1.00  0.00     0.106 CG0
ATOM     16  G   UNL     1      22.004  28.896 -10.615  1.00  0.00     0.000 G0
ENDBRANCH  13  15
ENDBRANCH  12  13
BRANCH  12  17
ATOM     17  C   UNL     1      22.072  28.567 -15.613  1.00  0.00    -0.006 C 
ATOM     18  C   UNL     1      21.008  28.854 -16.687  1.00  0.00     0.008 C 
ATOM     19  C   UNL     1      22.902  27.346 -16.051  1.00  0.00     0.008 C 
ENDBRANCH  12  17
ENDBRANCH  11  12
ENDBRANCH   1  11
TORSDOF 1
ENDMDL
MODEL 6
REMARK VINA RESULT:    -4.241      2.026      3.124
REMARK INTER + INTRA:          -6.514
REMARK INTER:                  -7.063
REMARK INTRA:                   0.549
REMARK UNBOUND:                -0.042
REMARK SMILES CC1=CCC[C@H](C)C(=O)C[C@@H](C(C)C)C(=O)C1
REMARK SMILES IDX 8 1 9 2 6 3 7 4 5 5 4 6 3 7 2 8 1 9 10 11 11 12 15 13 16 14
REMARK SMILES IDX 17 15 12 17 13 18 14 19
REMARK H PARENT
REMARK Flexibility Score: 70.00
ROOT
ATOM      1  C   UNL     1      19.889  28.381 -11.510  1.00  0.00     0.136 C 
ATOM      2  O   UNL     1      18.972  27.576 -11.430  1.00  0.00    -0.299 OA
ENDROOT
BRANCH   1   3
ATOM      3  C   UNL     1      20.848  28.480 -10.326  1.00  0.00     0.053 C 
ATOM      4  C   UNL     1      20.146  27.930  -9.076  1.00  0.00     0.016 C 
BRANCH   3   5
ATOM      5  C   UNL     1      22.231  27.794 -10.488  1.00  0.00     0.015 C 
BRANCH   5   6
ATOM      6  C   UNL     1      23.438  28.708 -10.168  1.00  0.00     0.028 C 
BRANCH   6   7
ATOM      7  C   UNL     1      23.433  29.950 -11.030  1.00  0.00    -0.028 C 
ATOM      8  C   UNL     1      23.346  29.974 -12.380  1.00  0.00    -0.070 CG0
ATOM      9  C   UNL     1      23.417  31.314 -13.068  1.00  0.00     0.039 C 
ATOM     10  G   UNL     1      23.164  28.726 -13.223  1.00  0.00     0.000 G0
ENDBRANCH   6   7
ENDBRANCH   5   6
ENDBRANCH   3   5
ENDBRANCH   1   3
BRANCH   1  11
ATOM     11  C   UNL     1      20.021  29.173 -12.796  1.00  0.00     0.087 C 
BRANCH  11  12
ATOM     12  C   UNL     1      20.640  28.369 -13.975  1.00  0.00     0.066 C 
BRANCH  12  13
ATOM     13  C   UNL     1      22.047  28.871 -14.260  1.00  0.00     0.140 C 
ATOM     14  O   UNL     1      22.297  29.392 -15.338  1.00  0.00    -0.299 OA
BRANCH  13  15
ATOM     15  C   UNL     1      23.159  28.717 -13.257  1.00  0.00     0.106 CG0
ATOM     16  G   UNL     1      23.333  29.950 -12.390  1.00  0.00     0.000 G0
ENDBRANCH  13  15
ENDBRANCH  12  13
BRANCH  12  17
ATOM     17  C   UNL     1      19.773  28.342 -15.278  1.00  0.00    -0.006 C 
ATOM     18  C   UNL     1      18.263  28.390 -14.984  1.00  0.00     0.008 C 
ATOM     19  C   UNL     1      20.076  27.081 -16.110  1.00  0.00     0.008 C 
ENDBRANCH  12  17
ENDBRANCH  11  12
ENDBRANCH   1  11
TORSDOF 1
ENDMDL
MODEL 7
REMARK VINA RESULT:    -4.222      2.043      5.058
REMARK INTER + INTRA:          -6.486
REMARK INTER:                  -6.413
REMARK INTRA:                  -0.073
REMARK UNBOUND:                -0.042
REMARK SMILES CC1=CCC[C@H](C)C(=O)C[C@@H](C(C)C)C(=O)C1
REMARK SMILES IDX 8 1 9 2 6 3 7 4 5 5 4 6 3 7 2 8 1 9 10 11 11 12 15 13 16 14
REMARK SMILES IDX 17 15 12 17 13 18 14 19
REMARK H PARENT
REMARK Flexibility Score: 70.00
ROOT
ATOM      1  C   UNL     1      22.758  28.499 -14.088  1.00  0.00     0.136 C 
ATOM      2  O   UNL     1      23.630  27.760 -13.655  1.00  0.00    -0.299 OA
ENDROOT
BRANCH   1   3
ATOM      3  C   UNL     1      22.348  28.329 -15.550  1.00  0.00     0.053 C 
ATOM      4  C   UNL     1      23.539  27.757 -16.332  1.00  0.00     0.016 C 
BRANCH   3   5
ATOM      5  C   UNL     1      21.085  27.468 -15.825  1.00  0.00     0.015 C 
BRANCH   5   6
ATOM      6  C   UNL     1      19.746  28.212 -15.608  1.00  0.00     0.028 C 
BRANCH   6   7
ATOM      7  C   UNL     1      18.885  27.508 -14.583  1.00  0.00    -0.028 C 
ATOM      8  C   UNL     1      18.712  27.892 -13.298  1.00  0.00    -0.070 CG0
ATOM      9  C   UNL     1      17.859  27.023 -12.409  1.00  0.00     0.039 C 
ATOM     10  G   UNL     1      19.320  29.158 -12.721  1.00  0.00     0.000 G0
ENDBRANCH   6   7
ENDBRANCH   5   6
ENDBRANCH   3   5
ENDBRANCH   1   3
BRANCH   1  11
ATOM     11  C   UNL     1      22.127  29.486 -13.125  1.00  0.00     0.087 C 
BRANCH  11  12
ATOM     12  C   UNL     1      21.740  28.869 -11.750  1.00  0.00     0.066 C 
BRANCH  12  13
ATOM     13  C   UNL     1      20.232  28.933 -11.562  1.00  0.00     0.140 C 
ATOM     14  O   UNL     1      19.753  28.756 -10.451  1.00  0.00    -0.299 OA
BRANCH  13  15
ATOM     15  C   UNL     1      19.301  29.179 -12.720  1.00  0.00     0.106 CG0
ATOM     16  G   UNL     1      18.724  27.893 -13.282  1.00  0.00     0.000 G0
ENDBRANCH  13  15
ENDBRANCH  12  13
BRANCH  12  17
ATOM     17  C   UNL     1      22.491  29.483 -10.522  1.00  0.00    -0.006 C 
ATOM     18  C   UNL     1      23.512  30.559 -10.930  1.00  0.00     0.008 C 
ATOM     19  C   UNL     1      23.221  28.385  -9.724  1.00  0.00     0.008 C 
ENDBRANCH  12  17
ENDBRANCH  11  12
ENDBRANCH   1  11
TORSDOF 1
ENDMDL
MODEL 8
REMARK VINA RESULT:    -4.212      9.442     12.090
REMARK INTER + INTRA:          -6.471
REMARK INTER:                  -6.262
REMARK INTRA:                  -0.209
REMARK UNBOUND:                -0.042
REMARK SMILES CC1=CCC[C@H](C)C(=O)C[C@@H](C(C)C)C(=O)C1
REMARK SMILES IDX 8 1 9 2 6 3 7 4 5 5 4 6 3 7 2 8 1 9 10 11 11 12 15 13 16 14
REMARK SMILES IDX 17 15 12 17 13 18 14 19
REMARK H PARENT
REMARK Flexibility Score: 70.00
ROOT
ATOM      1  C   UNL     1      22.002  25.799 -23.105  1.00  0.00     0.136 C 
ATOM      2  O   UNL     1      22.839  26.484 -22.534  1.00  0.00    -0.299 OA
ENDROOT
BRANCH   1   3
ATOM      3  C   UNL     1      20.706  26.480 -23.539  1.00  0.00     0.053 C 
ATOM      4  C   UNL     1      20.028  27.083 -22.300  1.00  0.00     0.016 C 
BRANCH   3   5
ATOM      5  C   UNL     1      20.822  27.564 -24.645  1.00  0.00     0.015 C 
BRANCH   5   6
ATOM      6  C   UNL     1      20.566  27.042 -26.079  1.00  0.00     0.028 C 
BRANCH   6   7
ATOM      7  C   UNL     1      19.389  26.094 -26.118  1.00  0.00    -0.028 C 
ATOM      8  C   UNL     1      19.443  24.779 -26.433  1.00  0.00    -0.070 CG0
ATOM      9  C   UNL     1      18.147  24.009 -26.476  1.00  0.00     0.039 C 
ATOM     10  G   UNL     1      20.741  24.049 -26.726  1.00  0.00     0.000 G0
ENDBRANCH   6   7
ENDBRANCH   5   6
ENDBRANCH   3   5
ENDBRANCH   1   3
BRANCH   1  11
ATOM     11  C   UNL     1      22.345  24.347 -23.376  1.00  0.00     0.087 C 
BRANCH  11  12
ATOM     12  C   UNL     1      22.611  24.028 -24.875  1.00  0.00     0.066 C 
BRANCH  12  13
ATOM     13  C   UNL     1      21.363  23.429 -25.504  1.00  0.00     0.140 C 
ATOM     14  O   UNL     1      20.860  22.426 -25.016  1.00  0.00    -0.299 OA
BRANCH  13  15
ATOM     15  C   UNL     1      20.739  24.021 -26.740  1.00  0.00     0.106 CG0
ATOM     16  G   UNL     1      19.463  24.784 -26.437  1.00  0.00     0.000 G0
ENDBRANCH  13  15
ENDBRANCH  12  13
BRANCH  12  17
ATOM     17  C   UNL     1      23.867  23.133 -25.143  1.00  0.00    -0.006 C 
ATOM     18  C   UNL     1      24.943  23.282 -24.053  1.00  0.00     0.008 C 
ATOM     19  C   UNL     1      24.494  23.467 -26.510  1.00  0.00     0.008 C 
ENDBRANCH  12  17
ENDBRANCH  11  12
ENDBRANCH   1  11
TORSDOF 1
ENDMDL
MODEL 9
REMARK VINA RESULT:    -4.003     15.717     17.712
REMARK INTER + INTRA:          -6.151
REMARK INTER:                  -6.116
REMARK INTRA:                  -0.035
REMARK UNBOUND:                -0.042
REMARK SMILES CC1=CCC[C@H](C)C(=O)C[C@@H](C(C)C)C(=O)C1
REMARK SMILES IDX 8 1 9 2 6 3 7 4 5 5 4 6 3 7 2 8 1 9 10 11 11 12 15 13 16 14
REMARK SMILES IDX 17 15 12 17 13 18 14 19
REMARK H PARENT
REMARK Flexibility Score: 70.00
ROOT
ATOM      1  C   UNL     1      31.197  36.894 -22.311  1.00  0.00     0.136 C 
ATOM      2  O   UNL     1      31.394  37.140 -21.130  1.00  0.00    -0.299 OA
ENDROOT
BRANCH   1   3
ATOM      3  C   UNL     1      30.312  37.860 -23.097  1.00  0.00     0.053 C 
ATOM      4  C   UNL     1      29.309  38.505 -22.131  1.00  0.00     0.016 C 
BRANCH   3   5
ATOM      5  C   UNL     1      31.037  38.967 -23.909  1.00  0.00     0.015 C 
BRANCH   5   6
ATOM      6  C   UNL     1      31.742  38.462 -25.190  1.00  0.00     0.028 C 
BRANCH   6   7
ATOM      7  C   UNL     1      33.232  38.707 -25.132  1.00  0.00    -0.028 C 
ATOM      8  C   UNL     1      34.183  37.759 -24.963  1.00  0.00    -0.070 CG0
ATOM      9  C   UNL     1      35.620  38.208 -24.870  1.00  0.00     0.039 C 
ATOM     10  G   UNL     1      33.871  36.276 -24.881  1.00  0.00     0.000 G0
ENDBRANCH   6   7
ENDBRANCH   5   6
ENDBRANCH   3   5
ENDBRANCH   1   3
BRANCH   1  11
ATOM     11  C   UNL     1      31.887  35.680 -22.904  1.00  0.00     0.087 C 
BRANCH  11  12
ATOM     12  C   UNL     1      33.350  35.482 -22.414  1.00  0.00     0.066 C 
BRANCH  12  13
ATOM     13  C   UNL     1      34.311  35.655 -23.580  1.00  0.00     0.140 C 
ATOM     14  O   UNL     1      35.481  35.321 -23.454  1.00  0.00    -0.299 OA
BRANCH  13  15
ATOM     15  C   UNL     1      33.869  36.259 -24.886  1.00  0.00     0.106 CG0
ATOM     16  G   UNL     1      34.170  37.744 -24.969  1.00  0.00     0.000 G0
ENDBRANCH  13  15
ENDBRANCH  12  13
BRANCH  12  17
ATOM     17  C   UNL     1      33.612  34.137 -21.657  1.00  0.00    -0.006 C 
ATOM     18  C   UNL     1      32.586  33.047 -22.014  1.00  0.00     0.008 C 
ATOM     19  C   UNL     1      33.593  34.356 -20.133  1.00  0.00     0.008 C 
ENDBRANCH  12  17
ENDBRANCH  11  12
ENDBRANCH   1  11
TORSDOF 1
ENDMDL
