MODEL 1
REMARK VINA RESULT:    -4.047      0.000      0.000
REMARK INTER + INTRA:          -6.144
REMARK INTER:                  -5.821
REMARK INTRA:                  -0.322
REMARK UNBOUND:                -0.322
REMARK SMILES O=C(CO)[C@H](O)[C@@H](O)[C@@H](O)CO
REMARK SMILES IDX 7 1 9 2 11 3 12 4 10 6 5 8 2 9 1 10 3 11 4 12 6 14 8 16
REMARK H PARENT 12 5 10 7 4 13 6 15 8 17
REMARK Flexibility Score: inf
ROOT
ATOM      1  C   UNL     1     -21.078   1.146   8.233  1.00  0.00     0.181 C 
ENDROOT
BRANCH   1   2
ATOM      2  C   UNL     1     -22.081   1.697   9.286  1.00  0.00     0.171 C 
BRANCH   2   3
ATOM      3  C   UNL     1     -22.830   2.935   8.761  1.00  0.00     0.190 C 
BRANCH   3   4
ATOM      4  O   UNL     1     -21.943   4.007   8.586  1.00  0.00    -0.394 OA
ATOM      5  H   UNL     1     -22.498   4.818   8.441  1.00  0.00     0.210 HD
ENDBRANCH   3   4
ENDBRANCH   2   3
BRANCH   2   6
ATOM      6  O   UNL     1     -21.424   2.003  10.493  1.00  0.00    -0.388 OA
ATOM      7  H   UNL     1     -20.900   1.202  10.759  1.00  0.00     0.211 HD
ENDBRANCH   2   6
ENDBRANCH   1   2
BRANCH   1   8
ATOM      8  C   UNL     1     -21.351  -0.338   7.887  1.00  0.00     0.214 C 
BRANCH   8   9
ATOM      9  C   UNL     1     -20.845  -1.255   8.987  1.00  0.00     0.189 C 
ATOM     10  O   UNL     1     -20.954  -0.882  10.146  1.00  0.00    -0.294 OA
BRANCH   9  11
ATOM     11  C   UNL     1     -20.177  -2.587   8.737  1.00  0.00     0.234 C 
BRANCH  11  12
ATOM     12  O   UNL     1     -20.624  -3.187   7.553  1.00  0.00    -0.388 OA
ATOM     13  H   UNL     1     -21.606  -3.043   7.524  1.00  0.00     0.211 HD
ENDBRANCH  11  12
ENDBRANCH   9  11
ENDBRANCH   8   9
BRANCH   8  14
ATOM     14  O   UNL     1     -20.785  -0.669   6.644  1.00  0.00    -0.382 OA
ATOM     15  H   UNL     1     -21.058  -1.603   6.444  1.00  0.00     0.211 HD
ENDBRANCH   8  14
ENDBRANCH   1   8
BRANCH   1  16
ATOM     16  O   UNL     1     -21.081   1.941   7.072  1.00  0.00    -0.387 OA
ATOM     17  H   UNL     1     -22.012   2.249   6.919  1.00  0.00     0.211 HD
ENDBRANCH   1  16
TORSDOF 10
ENDMDL
MODEL 2
REMARK VINA RESULT:    -4.010      1.787      4.324
REMARK INTER + INTRA:          -6.090
REMARK INTER:                  -5.564
REMARK INTRA:                  -0.526
REMARK UNBOUND:                -0.322
REMARK SMILES O=C(CO)[C@H](O)[C@@H](O)[C@@H](O)CO
REMARK SMILES IDX 7 1 9 2 11 3 12 4 10 6 5 8 2 9 1 10 3 11 4 12 6 14 8 16
REMARK H PARENT 12 5 10 7 4 13 6 15 8 17
REMARK Flexibility Score: inf
ROOT
ATOM      1  C   UNL     1     -20.804  -0.762   8.758  1.00  0.00     0.181 C 
ENDROOT
BRANCH   1   2
ATOM      2  C   UNL     1     -20.877  -2.132   9.491  1.00  0.00     0.171 C 
BRANCH   2   3
ATOM      3  C   UNL     1     -20.316  -2.039  10.922  1.00  0.00     0.190 C 
BRANCH   3   4
ATOM      4  O   UNL     1     -21.118  -1.199  11.709  1.00  0.00    -0.394 OA
ATOM      5  H   UNL     1     -21.939  -1.011  11.182  1.00  0.00     0.210 HD
ENDBRANCH   3   4
ENDBRANCH   2   3
BRANCH   2   6
ATOM      6  O   UNL     1     -20.194  -3.126   8.766  1.00  0.00    -0.388 OA
ATOM      7  H   UNL     1     -20.450  -4.006   9.150  1.00  0.00     0.211 HD
ENDBRANCH   2   6
ENDBRANCH   1   2
BRANCH   1   8
ATOM      8  C   UNL     1     -20.886  -0.919   7.219  1.00  0.00     0.214 C 
BRANCH   8   9
ATOM      9  C   UNL     1     -21.202   0.410   6.554  1.00  0.00     0.189 C 
ATOM     10  O   UNL     1     -21.972   0.413   5.606  1.00  0.00    -0.294 OA
BRANCH   9  11
ATOM     11  C   UNL     1     -20.590   1.729   6.968  1.00  0.00     0.234 C 
BRANCH  11  12
ATOM     12  O   UNL     1     -21.522   2.568   7.590  1.00  0.00    -0.388 OA
ATOM     13  H   UNL     1     -21.387   2.455   8.567  1.00  0.00     0.211 HD
ENDBRANCH  11  12
ENDBRANCH   9  11
ENDBRANCH   8   9
BRANCH   8  14
ATOM     14  O   UNL     1     -21.826  -1.902   6.870  1.00  0.00    -0.382 OA
ATOM     15  H   UNL     1     -21.339  -2.594   6.350  1.00  0.00     0.211 HD
ENDBRANCH   8  14
ENDBRANCH   1   8
BRANCH   1  16
ATOM     16  O   UNL     1     -21.802   0.112   9.226  1.00  0.00    -0.387 OA
ATOM     17  H   UNL     1     -22.679  -0.338   9.107  1.00  0.00     0.211 HD
ENDBRANCH   1  16
TORSDOF 10
ENDMDL
MODEL 3
REMARK VINA RESULT:    -3.938      1.470      2.708
REMARK INTER + INTRA:          -5.987
REMARK INTER:                  -5.537
REMARK INTRA:                  -0.450
REMARK UNBOUND:                -0.322
REMARK SMILES O=C(CO)[C@H](O)[C@@H](O)[C@@H](O)CO
REMARK SMILES IDX 7 1 9 2 11 3 12 4 10 6 5 8 2 9 1 10 3 11 4 12 6 14 8 16
REMARK H PARENT 12 5 10 7 4 13 6 15 8 17
REMARK Flexibility Score: inf
ROOT
ATOM      1  C   UNL     1     -21.709   0.617   8.730  1.00  0.00     0.181 C 
ENDROOT
BRANCH   1   2
ATOM      2  C   UNL     1     -21.720   1.878   9.639  1.00  0.00     0.171 C 
BRANCH   2   3
ATOM      3  C   UNL     1     -22.480   1.622  10.954  1.00  0.00     0.190 C 
BRANCH   3   4
ATOM      4  O   UNL     1     -21.758   0.741  11.773  1.00  0.00    -0.394 OA
ATOM      5  H   UNL     1     -20.798   0.869  11.554  1.00  0.00     0.210 HD
ENDBRANCH   3   4
ENDBRANCH   2   3
BRANCH   2   6
ATOM      6  O   UNL     1     -22.278   2.979   8.963  1.00  0.00    -0.388 OA
ATOM      7  H   UNL     1     -22.098   2.858   7.994  1.00  0.00     0.211 HD
ENDBRANCH   2   6
ENDBRANCH   1   2
BRANCH   1   8
ATOM      8  C   UNL     1     -21.362   0.960   7.260  1.00  0.00     0.214 C 
BRANCH   8   9
ATOM      9  C   UNL     1     -20.874  -0.271   6.516  1.00  0.00     0.189 C 
ATOM     10  O   UNL     1     -19.938  -0.145   5.741  1.00  0.00    -0.294 OA
BRANCH   9  11
ATOM     11  C   UNL     1     -21.501  -1.640   6.644  1.00  0.00     0.234 C 
BRANCH  11  12
ATOM     12  O   UNL     1     -20.679  -2.532   7.344  1.00  0.00    -0.388 OA
ATOM     13  H   UNL     1     -19.994  -1.977   7.801  1.00  0.00     0.211 HD
ENDBRANCH  11  12
ENDBRANCH   9  11
ENDBRANCH   8   9
BRANCH   8  14
ATOM     14  O   UNL     1     -20.419   2.000   7.203  1.00  0.00    -0.382 OA
ATOM     15  H   UNL     1     -20.930   2.851   7.221  1.00  0.00     0.211 HD
ENDBRANCH   8  14
ENDBRANCH   1   8
BRANCH   1  16
ATOM     16  O   UNL     1     -20.833  -0.361   9.236  1.00  0.00    -0.387 OA
ATOM     17  H   UNL     1     -19.906  -0.066   9.042  1.00  0.00     0.211 HD
ENDBRANCH   1  16
TORSDOF 10
ENDMDL
MODEL 4
REMARK VINA RESULT:    -3.934      0.996      4.587
REMARK INTER + INTRA:          -5.981
REMARK INTER:                  -5.550
REMARK INTRA:                  -0.431
REMARK UNBOUND:                -0.322
REMARK SMILES O=C(CO)[C@H](O)[C@@H](O)[C@@H](O)CO
REMARK SMILES IDX 7 1 9 2 11 3 12 4 10 6 5 8 2 9 1 10 3 11 4 12 6 14 8 16
REMARK H PARENT 12 5 10 7 4 13 6 15 8 17
REMARK Flexibility Score: inf
ROOT
ATOM      1  C   UNL     1     -21.358  -1.122   8.160  1.00  0.00     0.181 C 
ENDROOT
BRANCH   1   2
ATOM      2  C   UNL     1     -20.507  -1.880   9.219  1.00  0.00     0.171 C 
BRANCH   2   3
ATOM      3  C   UNL     1     -19.721  -3.044   8.587  1.00  0.00     0.190 C 
BRANCH   3   4
ATOM      4  O   UNL     1     -20.599  -4.047   8.151  1.00  0.00    -0.394 OA
ATOM      5  H   UNL     1     -20.333  -4.882   8.618  1.00  0.00     0.210 HD
ENDBRANCH   3   4
ENDBRANCH   2   3
BRANCH   2   6
ATOM      6  O   UNL     1     -21.317  -2.355  10.267  1.00  0.00    -0.388 OA
ATOM      7  H   UNL     1     -22.252  -2.384   9.933  1.00  0.00     0.211 HD
ENDBRANCH   2   6
ENDBRANCH   1   2
BRANCH   1   8
ATOM      8  C   UNL     1     -20.991   0.380   8.082  1.00  0.00     0.214 C 
BRANCH   8   9
ATOM      9  C   UNL     1     -21.687   1.167   9.180  1.00  0.00     0.189 C 
ATOM     10  O   UNL     1     -21.695   0.700  10.309  1.00  0.00    -0.294 OA
BRANCH   9  11
ATOM     11  C   UNL     1     -22.406   2.477   8.955  1.00  0.00     0.234 C 
BRANCH  11  12
ATOM     12  O   UNL     1     -21.757   3.278   8.007  1.00  0.00    -0.388 OA
ATOM     13  H   UNL     1     -21.770   2.766   7.157  1.00  0.00     0.211 HD
ENDBRANCH  11  12
ENDBRANCH   9  11
ENDBRANCH   8   9
BRANCH   8  14
ATOM     14  O   UNL     1     -21.291   0.898   6.812  1.00  0.00    -0.382 OA
ATOM     15  H   UNL     1     -21.769   1.757   6.958  1.00  0.00     0.211 HD
ENDBRANCH   8  14
ENDBRANCH   1   8
BRANCH   1  16
ATOM     16  O   UNL     1     -21.247  -1.731   6.897  1.00  0.00    -0.387 OA
ATOM     17  H   UNL     1     -20.551  -2.435   6.960  1.00  0.00     0.211 HD
ENDBRANCH   1  16
TORSDOF 10
ENDMDL
MODEL 5
REMARK VINA RESULT:    -3.770      0.930      2.229
REMARK INTER + INTRA:          -5.746
REMARK INTER:                  -5.456
REMARK INTRA:                  -0.290
REMARK UNBOUND:                -0.322
REMARK SMILES O=C(CO)[C@H](O)[C@@H](O)[C@@H](O)CO
REMARK SMILES IDX 7 1 9 2 11 3 12 4 10 6 5 8 2 9 1 10 3 11 4 12 6 14 8 16
REMARK H PARENT 12 5 10 7 4 13 6 15 8 17
REMARK Flexibility Score: inf
ROOT
ATOM      1  C   UNL     1     -22.166   1.228   9.180  1.00  0.00     0.181 C 
ENDROOT
BRANCH   1   2
ATOM      2  C   UNL     1     -21.612   2.537   8.550  1.00  0.00     0.171 C 
BRANCH   2   3
ATOM      3  C   UNL     1     -22.603   3.706   8.709  1.00  0.00     0.190 C 
BRANCH   3   4
ATOM      4  O   UNL     1     -21.971   4.925   8.425  1.00  0.00    -0.394 OA
ATOM      5  H   UNL     1     -22.386   5.607   9.015  1.00  0.00     0.210 HD
ENDBRANCH   3   4
ENDBRANCH   2   3
BRANCH   2   6
ATOM      6  O   UNL     1     -21.301   2.347   7.191  1.00  0.00    -0.388 OA
ATOM      7  H   UNL     1     -22.149   2.144   6.715  1.00  0.00     0.211 HD
ENDBRANCH   2   6
ENDBRANCH   1   2
BRANCH   1   8
ATOM      8  C   UNL     1     -21.052   0.178   9.419  1.00  0.00     0.214 C 
BRANCH   8   9
ATOM      9  C   UNL     1     -21.046  -0.867   8.317  1.00  0.00     0.189 C 
ATOM     10  O   UNL     1     -21.455  -0.544   7.212  1.00  0.00    -0.294 OA
BRANCH   9  11
ATOM     11  C   UNL     1     -20.599  -2.298   8.512  1.00  0.00     0.234 C 
BRANCH  11  12
ATOM     12  O   UNL     1     -20.664  -3.036   7.323  1.00  0.00    -0.388 OA
ATOM     13  H   UNL     1     -21.525  -3.529   7.350  1.00  0.00     0.211 HD
ENDBRANCH  11  12
ENDBRANCH   9  11
ENDBRANCH   8   9
BRANCH   8  14
ATOM     14  O   UNL     1     -21.193  -0.414  10.685  1.00  0.00    -0.382 OA
ATOM     15  H   UNL     1     -21.423   0.316  11.319  1.00  0.00     0.211 HD
ENDBRANCH   8  14
ENDBRANCH   1   8
BRANCH   1  16
ATOM     16  O   UNL     1     -22.863   1.499  10.372  1.00  0.00    -0.387 OA
ATOM     17  H   UNL     1     -23.033   2.476  10.408  1.00  0.00     0.211 HD
ENDBRANCH   1  16
TORSDOF 10
ENDMDL
MODEL 6
REMARK VINA RESULT:    -3.613      1.245      1.818
REMARK INTER + INTRA:          -5.520
REMARK INTER:                  -5.399
REMARK INTRA:                  -0.121
REMARK UNBOUND:                -0.322
REMARK SMILES O=C(CO)[C@H](O)[C@@H](O)[C@@H](O)CO
REMARK SMILES IDX 7 1 9 2 11 3 12 4 10 6 5 8 2 9 1 10 3 11 4 12 6 14 8 16
REMARK H PARENT 12 5 10 7 4 13 6 15 8 17
REMARK Flexibility Score: inf
ROOT
ATOM      1  C   UNL     1     -20.752   0.189   7.906  1.00  0.00     0.181 C 
ENDROOT
BRANCH   1   2
ATOM      2  C   UNL     1     -21.732   1.257   8.469  1.00  0.00     0.171 C 
BRANCH   2   3
ATOM      3  C   UNL     1     -21.687   2.558   7.645  1.00  0.00     0.190 C 
BRANCH   3   4
ATOM      4  O   UNL     1     -22.113   3.644   8.422  1.00  0.00    -0.394 OA
ATOM      5  H   UNL     1     -21.778   4.465   7.975  1.00  0.00     0.210 HD
ENDBRANCH   3   4
ENDBRANCH   2   3
BRANCH   2   6
ATOM      6  O   UNL     1     -21.453   1.530   9.821  1.00  0.00    -0.388 OA
ATOM      7  H   UNL     1     -21.859   0.803  10.363  1.00  0.00     0.211 HD
ENDBRANCH   2   6
ENDBRANCH   1   2
BRANCH   1   8
ATOM      8  C   UNL     1     -21.306  -1.249   8.059  1.00  0.00     0.214 C 
BRANCH   8   9
ATOM      9  C   UNL     1     -20.568  -2.002   9.153  1.00  0.00     0.189 C 
ATOM     10  O   UNL     1     -19.966  -3.020   8.850  1.00  0.00    -0.294 OA
BRANCH   9  11
ATOM     11  C   UNL     1     -20.564  -1.589  10.607  1.00  0.00     0.234 C 
BRANCH  11  12
ATOM     12  O   UNL     1     -21.336  -2.448  11.400  1.00  0.00    -0.388 OA
ATOM     13  H   UNL     1     -21.910  -1.864  11.961  1.00  0.00     0.211 HD
ENDBRANCH  11  12
ENDBRANCH   9  11
ENDBRANCH   8   9
BRANCH   8  14
ATOM     14  O   UNL     1     -21.245  -1.937   6.835  1.00  0.00    -0.382 OA
ATOM     15  H   UNL     1     -21.191  -1.247   6.122  1.00  0.00     0.211 HD
ENDBRANCH   8  14
ENDBRANCH   1   8
BRANCH   1  16
ATOM     16  O   UNL     1     -20.429   0.461   6.564  1.00  0.00    -0.387 OA
ATOM     17  H   UNL     1     -20.559   1.433   6.412  1.00  0.00     0.211 HD
ENDBRANCH   1  16
TORSDOF 10
ENDMDL
MODEL 7
REMARK VINA RESULT:    -3.581      1.205      5.214
REMARK INTER + INTRA:          -5.474
REMARK INTER:                  -5.208
REMARK INTRA:                  -0.266
REMARK UNBOUND:                -0.322
REMARK SMILES O=C(CO)[C@H](O)[C@@H](O)[C@@H](O)CO
REMARK SMILES IDX 7 1 9 2 11 3 12 4 10 6 5 8 2 9 1 10 3 11 4 12 6 14 8 16
REMARK H PARENT 12 5 10 7 4 13 6 15 8 17
REMARK Flexibility Score: inf
ROOT
ATOM      1  C   UNL     1     -20.358  -1.460   9.174  1.00  0.00     0.181 C 
ENDROOT
BRANCH   1   2
ATOM      2  C   UNL     1     -20.821  -2.652   8.290  1.00  0.00     0.171 C 
BRANCH   2   3
ATOM      3  C   UNL     1     -19.867  -3.854   8.415  1.00  0.00     0.190 C 
BRANCH   3   4
ATOM      4  O   UNL     1     -20.498  -5.028   7.979  1.00  0.00    -0.394 OA
ATOM      5  H   UNL     1     -20.575  -5.623   8.771  1.00  0.00     0.210 HD
ENDBRANCH   3   4
ENDBRANCH   2   3
BRANCH   2   6
ATOM      6  O   UNL     1     -20.937  -2.263   6.943  1.00  0.00    -0.388 OA
ATOM      7  H   UNL     1     -20.089  -1.814   6.688  1.00  0.00     0.211 HD
ENDBRANCH   2   6
ENDBRANCH   1   2
BRANCH   1   8
ATOM      8  C   UNL     1     -21.487  -0.422   9.393  1.00  0.00     0.214 C 
BRANCH   8   9
ATOM      9  C   UNL     1     -21.344   0.746   8.431  1.00  0.00     0.189 C 
ATOM     10  O   UNL     1     -20.739   0.563   7.386  1.00  0.00    -0.294 OA
BRANCH   9  11
ATOM     11  C   UNL     1     -21.871   2.135   8.705  1.00  0.00     0.234 C 
BRANCH  11  12
ATOM     12  O   UNL     1     -21.622   3.012   7.642  1.00  0.00    -0.388 OA
ATOM     13  H   UNL     1     -21.381   3.883   8.053  1.00  0.00     0.211 HD
ENDBRANCH  11  12
ENDBRANCH   9  11
ENDBRANCH   8   9
BRANCH   8  14
ATOM     14  O   UNL     1     -21.507   0.014  10.728  1.00  0.00    -0.382 OA
ATOM     15  H   UNL     1     -20.595   0.349  10.934  1.00  0.00     0.211 HD
ENDBRANCH   8  14
ENDBRANCH   1   8
BRANCH   1  16
ATOM     16  O   UNL     1     -19.850  -1.914  10.406  1.00  0.00    -0.387 OA
ATOM     17  H   UNL     1     -18.988  -2.371  10.227  1.00  0.00     0.211 HD
ENDBRANCH   1  16
TORSDOF 10
ENDMDL
MODEL 8
REMARK VINA RESULT:    -3.560      1.186      4.375
REMARK INTER + INTRA:          -5.444
REMARK INTER:                  -5.072
REMARK INTRA:                  -0.372
REMARK UNBOUND:                -0.322
REMARK SMILES O=C(CO)[C@H](O)[C@@H](O)[C@@H](O)CO
REMARK SMILES IDX 7 1 9 2 11 3 12 4 10 6 5 8 2 9 1 10 3 11 4 12 6 14 8 16
REMARK H PARENT 12 5 10 7 4 13 6 15 8 17
REMARK Flexibility Score: inf
ROOT
ATOM      1  C   UNL     1     -21.803  -0.059   6.956  1.00  0.00     0.181 C 
ENDROOT
BRANCH   1   2
ATOM      2  C   UNL     1     -21.198  -1.483   6.806  1.00  0.00     0.171 C 
BRANCH   2   3
ATOM      3  C   UNL     1     -20.711  -2.037   8.159  1.00  0.00     0.190 C 
BRANCH   3   4
ATOM      4  O   UNL     1     -20.357  -3.389   8.035  1.00  0.00    -0.394 OA
ATOM      5  H   UNL     1     -20.425  -3.615   7.071  1.00  0.00     0.210 HD
ENDBRANCH   3   4
ENDBRANCH   2   3
BRANCH   2   6
ATOM      6  O   UNL     1     -20.143  -1.485   5.874  1.00  0.00    -0.388 OA
ATOM      7  H   UNL     1     -19.608  -2.308   6.029  1.00  0.00     0.211 HD
ENDBRANCH   2   6
ENDBRANCH   1   2
BRANCH   1   8
ATOM      8  C   UNL     1     -20.930   0.855   7.852  1.00  0.00     0.214 C 
BRANCH   8   9
ATOM      9  C   UNL     1     -21.795   1.778   8.693  1.00  0.00     0.189 C 
ATOM     10  O   UNL     1     -22.182   2.823   8.192  1.00  0.00    -0.294 OA
BRANCH   9  11
ATOM     11  C   UNL     1     -22.177   1.503  10.129  1.00  0.00     0.234 C 
BRANCH  11  12
ATOM     12  O   UNL     1     -21.573   0.340  10.621  1.00  0.00    -0.388 OA
ATOM     13  H   UNL     1     -21.896   0.233  11.553  1.00  0.00     0.211 HD
ENDBRANCH  11  12
ENDBRANCH   9  11
ENDBRANCH   8   9
BRANCH   8  14
ATOM     14  O   UNL     1     -20.013   1.581   7.074  1.00  0.00    -0.382 OA
ATOM     15  H   UNL     1     -20.485   2.397   6.762  1.00  0.00     0.211 HD
ENDBRANCH   8  14
ENDBRANCH   1   8
BRANCH   1  16
ATOM     16  O   UNL     1     -22.017   0.532   5.697  1.00  0.00    -0.387 OA
ATOM     17  H   UNL     1     -22.558  -0.100   5.155  1.00  0.00     0.211 HD
ENDBRANCH   1  16
TORSDOF 10
ENDMDL
MODEL 9
REMARK VINA RESULT:    -3.381      2.000      3.541
REMARK INTER + INTRA:          -5.186
REMARK INTER:                  -4.339
REMARK INTRA:                  -0.848
REMARK UNBOUND:                -0.322
REMARK SMILES O=C(CO)[C@H](O)[C@@H](O)[C@@H](O)CO
REMARK SMILES IDX 7 1 9 2 11 3 12 4 10 6 5 8 2 9 1 10 3 11 4 12 6 14 8 16
REMARK H PARENT 12 5 10 7 4 13 6 15 8 17
REMARK Flexibility Score: inf
ROOT
ATOM      1  C   UNL     1     -21.379  -0.980   8.756  1.00  0.00     0.181 C 
ENDROOT
BRANCH   1   2
ATOM      2  C   UNL     1     -20.877  -0.896   7.287  1.00  0.00     0.171 C 
BRANCH   2   3
ATOM      3  C   UNL     1     -21.210   0.467   6.651  1.00  0.00     0.190 C 
BRANCH   3   4
ATOM      4  O   UNL     1     -20.348   1.459   7.140  1.00  0.00    -0.394 OA
ATOM      5  H   UNL     1     -20.334   2.185   6.463  1.00  0.00     0.210 HD
ENDBRANCH   3   4
ENDBRANCH   2   3
BRANCH   2   6
ATOM      6  O   UNL     1     -21.418  -1.938   6.511  1.00  0.00    -0.388 OA
ATOM      7  H   UNL     1     -21.560  -2.715   7.112  1.00  0.00     0.211 HD
ENDBRANCH   2   6
ENDBRANCH   1   2
BRANCH   1   8
ATOM      8  C   UNL     1     -20.985  -2.316   9.432  1.00  0.00     0.214 C 
BRANCH   8   9
ATOM      9  C   UNL     1     -20.307  -2.069  10.769  1.00  0.00     0.189 C 
ATOM     10  O   UNL     1     -19.087  -2.004  10.796  1.00  0.00    -0.294 OA
BRANCH   9  11
ATOM     11  C   UNL     1     -21.047  -1.936  12.080  1.00  0.00     0.234 C 
BRANCH  11  12
ATOM     12  O   UNL     1     -21.372  -0.605  12.369  1.00  0.00    -0.388 OA
ATOM     13  H   UNL     1     -22.349  -0.519  12.216  1.00  0.00     0.211 HD
ENDBRANCH  11  12
ENDBRANCH   9  11
ENDBRANCH   8   9
BRANCH   8  14
ATOM     14  O   UNL     1     -20.171  -3.081   8.580  1.00  0.00    -0.382 OA
ATOM     15  H   UNL     1     -20.779  -3.562   7.959  1.00  0.00     0.211 HD
ENDBRANCH   8  14
ENDBRANCH   1   8
BRANCH   1  16
ATOM     16  O   UNL     1     -20.920   0.117   9.508  1.00  0.00    -0.387 OA
ATOM     17  H   UNL     1     -20.005  -0.097   9.828  1.00  0.00     0.211 HD
ENDBRANCH   1  16
TORSDOF 10
ENDMDL
