MODEL 1
REMARK VINA RESULT:    -4.009      0.000      0.000
REMARK INTER + INTRA:          -8.609
REMARK INTER:                  -6.821
REMARK INTRA:                  -1.787
REMARK UNBOUND:                -1.787
REMARK SMILES CCCCCCCCCCCCCC(=O)[O-]
REMARK SMILES IDX 8 1 9 2 10 3 11 4 12 5 13 6 14 7 15 8 16 9 7 10 6 11 5 12
REMARK SMILES IDX 4 13 3 14 2 15 1 16
REMARK H PARENT
REMARK Flexibility Score: inf
ROOT
ATOM      1  C   UNL     1      52.511  25.503  36.000  1.00  0.00     0.000 C 
ENDROOT
BRANCH   1   2
ATOM      2  C   UNL     1      53.758  25.053  35.224  1.00  0.00     0.000 C 
BRANCH   2   3
ATOM      3  C   UNL     1      54.190  26.127  34.214  1.00  0.00     0.000 C 
BRANCH   3   4
ATOM      4  C   UNL     1      53.098  27.180  33.962  1.00  0.00     0.000 C 
BRANCH   4   5
ATOM      5  C   UNL     1      53.525  28.591  34.403  1.00  0.00     0.006 C 
BRANCH   5   6
ATOM      6  C   UNL     1      52.638  29.138  35.530  1.00  0.00     0.053 C 
BRANCH   6   7
ATOM      7  C   UNL     1      53.432  29.891  36.552  1.00  0.00     0.041 C 
ATOM      8  O   UNL     1      54.175  29.272  37.359  1.00  0.00    -0.550 OA
ATOM      9  O   UNL     1      53.377  31.278  36.594  1.00  0.00    -0.550 OA
ENDBRANCH   6   7
ENDBRANCH   5   6
ENDBRANCH   4   5
ENDBRANCH   3   4
ENDBRANCH   2   3
ENDBRANCH   1   2
BRANCH   1  10
ATOM     10  C   UNL     1      51.552  24.342  36.309  1.00  0.00     0.000 C 
BRANCH  10  11
ATOM     11  C   UNL     1      50.073  24.752  36.199  1.00  0.00    -0.000 C 
BRANCH  11  12
ATOM     12  C   UNL     1      49.897  26.223  35.787  1.00  0.00    -0.000 C 
BRANCH  12  13
ATOM     13  C   UNL     1      48.987  26.392  34.556  1.00  0.00    -0.000 C 
BRANCH  13  14
ATOM     14  C   UNL     1      49.758  26.203  33.233  1.00  0.00    -0.000 C 
BRANCH  14  15
ATOM     15  C   UNL     1      49.876  24.734  32.794  1.00  0.00    -0.003 C 
ATOM     16  C   UNL     1      51.304  24.331  32.432  1.00  0.00     0.004 C 
ENDBRANCH  14  15
ENDBRANCH  13  14
ENDBRANCH  12  13
ENDBRANCH  11  12
ENDBRANCH  10  11
ENDBRANCH   1  10
TORSDOF 12
ENDMDL
MODEL 2
REMARK VINA RESULT:    -3.979      1.285      2.837
REMARK INTER + INTRA:          -8.558
REMARK INTER:                  -7.131
REMARK INTRA:                  -1.427
REMARK UNBOUND:                -1.787
REMARK SMILES CCCCCCCCCCCCCC(=O)[O-]
REMARK SMILES IDX 8 1 9 2 10 3 11 4 12 5 13 6 14 7 15 8 16 9 7 10 6 11 5 12
REMARK SMILES IDX 4 13 3 14 2 15 1 16
REMARK H PARENT
REMARK Flexibility Score: inf
ROOT
ATOM      1  C   UNL     1      50.979  26.140  33.236  1.00  0.00     0.000 C 
ENDROOT
BRANCH   1   2
ATOM      2  C   UNL     1      52.360  26.550  33.770  1.00  0.00     0.000 C 
BRANCH   2   3
ATOM      3  C   UNL     1      52.226  27.615  34.869  1.00  0.00     0.000 C 
BRANCH   3   4
ATOM      4  C   UNL     1      53.217  28.778  34.693  1.00  0.00     0.000 C 
BRANCH   4   5
ATOM      5  C   UNL     1      52.807  30.030  35.489  1.00  0.00     0.006 C 
BRANCH   5   6
ATOM      6  C   UNL     1      53.205  29.932  36.968  1.00  0.00     0.053 C 
BRANCH   6   7
ATOM      7  C   UNL     1      54.566  30.503  37.220  1.00  0.00     0.041 C 
ATOM      8  O   UNL     1      55.585  29.768  37.138  1.00  0.00    -0.550 OA
ATOM      9  O   UNL     1      54.712  31.852  37.515  1.00  0.00    -0.550 OA
ENDBRANCH   6   7
ENDBRANCH   5   6
ENDBRANCH   4   5
ENDBRANCH   3   4
ENDBRANCH   2   3
ENDBRANCH   1   2
BRANCH   1  10
ATOM     10  C   UNL     1      49.826  26.869  33.944  1.00  0.00     0.000 C 
BRANCH  10  11
ATOM     11  C   UNL     1      48.862  25.902  34.653  1.00  0.00    -0.000 C 
BRANCH  11  12
ATOM     12  C   UNL     1      49.531  25.146  35.813  1.00  0.00    -0.000 C 
BRANCH  12  13
ATOM     13  C   UNL     1      49.801  23.666  35.483  1.00  0.00    -0.000 C 
BRANCH  13  14
ATOM     14  C   UNL     1      51.261  23.263  35.776  1.00  0.00    -0.000 C 
BRANCH  14  15
ATOM     15  C   UNL     1      52.001  24.253  36.692  1.00  0.00    -0.003 C 
ATOM     16  C   UNL     1      53.501  24.318  36.413  1.00  0.00     0.004 C 
ENDBRANCH  14  15
ENDBRANCH  13  14
ENDBRANCH  12  13
ENDBRANCH  11  12
ENDBRANCH  10  11
ENDBRANCH   1  10
TORSDOF 12
ENDMDL
MODEL 3
REMARK VINA RESULT:    -3.922      1.010      1.946
REMARK INTER + INTRA:          -8.461
REMARK INTER:                  -6.318
REMARK INTRA:                  -2.143
REMARK UNBOUND:                -1.787
REMARK SMILES CCCCCCCCCCCCCC(=O)[O-]
REMARK SMILES IDX 8 1 9 2 10 3 11 4 12 5 13 6 14 7 15 8 16 9 7 10 6 11 5 12
REMARK SMILES IDX 4 13 3 14 2 15 1 16
REMARK H PARENT
REMARK Flexibility Score: inf
ROOT
ATOM      1  C   UNL     1      50.556  24.545  36.245  1.00  0.00     0.000 C 
ENDROOT
BRANCH   1   2
ATOM      2  C   UNL     1      52.040  24.204  36.037  1.00  0.00     0.000 C 
BRANCH   2   3
ATOM      3  C   UNL     1      52.906  25.471  36.105  1.00  0.00     0.000 C 
BRANCH   3   4
ATOM      4  C   UNL     1      53.813  25.637  34.875  1.00  0.00     0.000 C 
BRANCH   4   5
ATOM      5  C   UNL     1      54.106  27.113  34.551  1.00  0.00     0.006 C 
BRANCH   5   6
ATOM      6  C   UNL     1      52.823  27.951  34.464  1.00  0.00     0.053 C 
BRANCH   6   7
ATOM      7  C   UNL     1      52.910  29.194  35.294  1.00  0.00     0.041 C 
ATOM      8  O   UNL     1      53.335  29.136  36.478  1.00  0.00    -0.550 OA
ATOM      9  O   UNL     1      52.551  30.422  34.752  1.00  0.00    -0.550 OA
ENDBRANCH   6   7
ENDBRANCH   5   6
ENDBRANCH   4   5
ENDBRANCH   3   4
ENDBRANCH   2   3
ENDBRANCH   1   2
BRANCH   1  10
ATOM     10  C   UNL     1      50.262  26.045  36.085  1.00  0.00     0.000 C 
BRANCH  10  11
ATOM     11  C   UNL     1      49.036  26.316  35.196  1.00  0.00    -0.000 C 
BRANCH  11  12
ATOM     12  C   UNL     1      49.421  26.696  33.757  1.00  0.00    -0.000 C 
BRANCH  12  13
ATOM     13  C   UNL     1      49.610  25.469  32.846  1.00  0.00    -0.000 C 
BRANCH  13  14
ATOM     14  C   UNL     1      51.097  25.206  32.527  1.00  0.00    -0.000 C 
BRANCH  14  15
ATOM     15  C   UNL     1      51.437  23.714  32.366  1.00  0.00    -0.003 C 
ATOM     16  C   UNL     1      50.349  22.791  32.909  1.00  0.00     0.004 C 
ENDBRANCH  14  15
ENDBRANCH  13  14
ENDBRANCH  12  13
ENDBRANCH  11  12
ENDBRANCH  10  11
ENDBRANCH   1  10
TORSDOF 12
ENDMDL
MODEL 4
REMARK VINA RESULT:    -3.885      1.301      2.094
REMARK INTER + INTRA:          -8.398
REMARK INTER:                  -6.661
REMARK INTRA:                  -1.736
REMARK UNBOUND:                -1.787
REMARK SMILES CCCCCCCCCCCCCC(=O)[O-]
REMARK SMILES IDX 8 1 9 2 10 3 11 4 12 5 13 6 14 7 15 8 16 9 7 10 6 11 5 12
REMARK SMILES IDX 4 13 3 14 2 15 1 16
REMARK H PARENT
REMARK Flexibility Score: inf
ROOT
ATOM      1  C   UNL     1      52.797  24.872  33.282  1.00  0.00     0.000 C 
ENDROOT
BRANCH   1   2
ATOM      2  C   UNL     1      53.362  25.731  34.424  1.00  0.00     0.000 C 
BRANCH   2   3
ATOM      3  C   UNL     1      53.229  27.227  34.100  1.00  0.00     0.000 C 
BRANCH   3   4
ATOM      4  C   UNL     1      52.515  28.014  35.211  1.00  0.00     0.000 C 
BRANCH   4   5
ATOM      5  C   UNL     1      52.947  29.491  35.261  1.00  0.00     0.006 C 
BRANCH   5   6
ATOM      6  C   UNL     1      53.164  29.982  36.699  1.00  0.00     0.053 C 
BRANCH   6   7
ATOM      7  C   UNL     1      54.454  29.481  37.272  1.00  0.00     0.041 C 
ATOM      8  O   UNL     1      54.552  29.255  38.507  1.00  0.00    -0.550 OA
ATOM      9  O   UNL     1      55.538  29.236  36.439  1.00  0.00    -0.550 OA
ENDBRANCH   6   7
ENDBRANCH   5   6
ENDBRANCH   4   5
ENDBRANCH   3   4
ENDBRANCH   2   3
ENDBRANCH   1   2
BRANCH   1  10
ATOM     10  C   UNL     1      52.017  23.648  33.788  1.00  0.00     0.000 C 
BRANCH  10  11
ATOM     11  C   UNL     1      51.792  23.678  35.310  1.00  0.00    -0.000 C 
BRANCH  11  12
ATOM     12  C   UNL     1      50.325  23.940  35.686  1.00  0.00    -0.000 C 
BRANCH  12  13
ATOM     13  C   UNL     1      50.076  25.388  36.148  1.00  0.00    -0.000 C 
BRANCH  13  14
ATOM     14  C   UNL     1      48.976  26.081  35.318  1.00  0.00    -0.000 C 
BRANCH  14  15
ATOM     15  C   UNL     1      49.483  26.668  33.991  1.00  0.00    -0.003 C 
ATOM     16  C   UNL     1      49.037  25.864  32.771  1.00  0.00     0.004 C 
ENDBRANCH  14  15
ENDBRANCH  13  14
ENDBRANCH  12  13
ENDBRANCH  11  12
ENDBRANCH  10  11
ENDBRANCH   1  10
TORSDOF 12
ENDMDL
MODEL 5
REMARK VINA RESULT:    -3.878      1.268      2.489
REMARK INTER + INTRA:          -8.385
REMARK INTER:                  -6.736
REMARK INTRA:                  -1.650
REMARK UNBOUND:                -1.787
REMARK SMILES CCCCCCCCCCCCCC(=O)[O-]
REMARK SMILES IDX 8 1 9 2 10 3 11 4 12 5 13 6 14 7 15 8 16 9 7 10 6 11 5 12
REMARK SMILES IDX 4 13 3 14 2 15 1 16
REMARK H PARENT
REMARK Flexibility Score: inf
ROOT
ATOM      1  C   UNL     1      53.643  25.510  35.100  1.00  0.00     0.000 C 
ENDROOT
BRANCH   1   2
ATOM      2  C   UNL     1      54.029  26.958  35.438  1.00  0.00     0.000 C 
BRANCH   2   3
ATOM      3  C   UNL     1      53.703  27.898  34.267  1.00  0.00     0.000 C 
BRANCH   3   4
ATOM      4  C   UNL     1      53.089  29.230  34.728  1.00  0.00     0.000 C 
BRANCH   4   5
ATOM      5  C   UNL     1      52.743  29.235  36.228  1.00  0.00     0.006 C 
BRANCH   5   6
ATOM      6  C   UNL     1      53.213  30.519  36.925  1.00  0.00     0.053 C 
BRANCH   6   7
ATOM      7  C   UNL     1      54.615  30.396  37.437  1.00  0.00     0.041 C 
ATOM      8  O   UNL     1      55.055  29.278  37.814  1.00  0.00    -0.550 OA
ATOM      9  O   UNL     1      55.445  31.509  37.470  1.00  0.00    -0.550 OA
ENDBRANCH   6   7
ENDBRANCH   5   6
ENDBRANCH   4   5
ENDBRANCH   3   4
ENDBRANCH   2   3
ENDBRANCH   1   2
BRANCH   1  10
ATOM     10  C   UNL     1      53.258  25.326  33.623  1.00  0.00     0.000 C 
BRANCH  10  11
ATOM     11  C   UNL     1      52.315  24.130  33.403  1.00  0.00    -0.000 C 
BRANCH  11  12
ATOM     12  C   UNL     1      51.015  24.528  32.686  1.00  0.00    -0.000 C 
BRANCH  12  13
ATOM     13  C   UNL     1      50.693  26.027  32.821  1.00  0.00    -0.000 C 
BRANCH  13  14
ATOM     14  C   UNL     1      49.250  26.270  33.308  1.00  0.00    -0.000 C 
BRANCH  14  15
ATOM     15  C   UNL     1      49.046  25.970  34.803  1.00  0.00    -0.003 C 
ATOM     16  C   UNL     1      50.093  26.634  35.695  1.00  0.00     0.004 C 
ENDBRANCH  14  15
ENDBRANCH  13  14
ENDBRANCH  12  13
ENDBRANCH  11  12
ENDBRANCH  10  11
ENDBRANCH   1  10
TORSDOF 12
ENDMDL
MODEL 6
REMARK VINA RESULT:    -3.863      1.255      2.399
REMARK INTER + INTRA:          -8.360
REMARK INTER:                  -6.870
REMARK INTRA:                  -1.489
REMARK UNBOUND:                -1.787
REMARK SMILES CCCCCCCCCCCCCC(=O)[O-]
REMARK SMILES IDX 8 1 9 2 10 3 11 4 12 5 13 6 14 7 15 8 16 9 7 10 6 11 5 12
REMARK SMILES IDX 4 13 3 14 2 15 1 16
REMARK H PARENT
REMARK Flexibility Score: inf
ROOT
ATOM      1  C   UNL     1      52.411  25.172  33.427  1.00  0.00     0.000 C 
ENDROOT
BRANCH   1   2
ATOM      2  C   UNL     1      52.798  26.272  34.427  1.00  0.00     0.000 C 
BRANCH   2   3
ATOM      3  C   UNL     1      54.052  27.024  33.953  1.00  0.00     0.000 C 
BRANCH   3   4
ATOM      4  C   UNL     1      53.981  28.534  34.235  1.00  0.00     0.000 C 
BRANCH   4   5
ATOM      5  C   UNL     1      53.119  28.866  35.466  1.00  0.00     0.006 C 
BRANCH   5   6
ATOM      6  C   UNL     1      53.940  28.871  36.763  1.00  0.00     0.053 C 
BRANCH   6   7
ATOM      7  C   UNL     1      54.566  30.206  37.023  1.00  0.00     0.041 C 
ATOM      8  O   UNL     1      53.842  31.221  37.201  1.00  0.00    -0.550 OA
ATOM      9  O   UNL     1      55.948  30.325  37.100  1.00  0.00    -0.550 OA
ENDBRANCH   6   7
ENDBRANCH   5   6
ENDBRANCH   4   5
ENDBRANCH   3   4
ENDBRANCH   2   3
ENDBRANCH   1   2
BRANCH   1  10
ATOM     10  C   UNL     1      51.047  25.425  32.763  1.00  0.00     0.000 C 
BRANCH  10  11
ATOM     11  C   UNL     1      50.288  26.602  33.401  1.00  0.00    -0.000 C 
BRANCH  11  12
ATOM     12  C   UNL     1      49.076  26.143  34.229  1.00  0.00    -0.000 C 
BRANCH  12  13
ATOM     13  C   UNL     1      49.373  26.083  35.738  1.00  0.00    -0.000 C 
BRANCH  13  14
ATOM     14  C   UNL     1      49.896  24.697  36.172  1.00  0.00    -0.000 C 
BRANCH  14  15
ATOM     15  C   UNL     1      49.300  23.533  35.362  1.00  0.00    -0.003 C 
ATOM     16  C   UNL     1      50.319  22.440  35.047  1.00  0.00     0.004 C 
ENDBRANCH  14  15
ENDBRANCH  13  14
ENDBRANCH  12  13
ENDBRANCH  11  12
ENDBRANCH  10  11
ENDBRANCH   1  10
TORSDOF 12
ENDMDL
MODEL 7
REMARK VINA RESULT:    -3.811      2.860      5.452
REMARK INTER + INTRA:          -8.272
REMARK INTER:                  -6.356
REMARK INTRA:                  -1.916
REMARK UNBOUND:                -1.787
REMARK SMILES CCCCCCCCCCCCCC(=O)[O-]
REMARK SMILES IDX 8 1 9 2 10 3 11 4 12 5 13 6 14 7 15 8 16 9 7 10 6 11 5 12
REMARK SMILES IDX 4 13 3 14 2 15 1 16
REMARK H PARENT
REMARK Flexibility Score: inf
ROOT
ATOM      1  C   UNL     1      52.621  25.195  34.357  1.00  0.00     0.000 C 
ENDROOT
BRANCH   1   2
ATOM      2  C   UNL     1      52.669  25.191  35.893  1.00  0.00     0.000 C 
BRANCH   2   3
ATOM      3  C   UNL     1      51.546  24.317  36.472  1.00  0.00     0.000 C 
BRANCH   3   4
ATOM      4  C   UNL     1      50.926  23.376  35.427  1.00  0.00     0.000 C 
BRANCH   4   5
ATOM      5  C   UNL     1      49.400  23.546  35.309  1.00  0.00     0.006 C 
BRANCH   5   6
ATOM      6  C   UNL     1      48.986  24.110  33.943  1.00  0.00     0.053 C 
BRANCH   6   7
ATOM      7  C   UNL     1      48.943  25.607  33.947  1.00  0.00     0.041 C 
ATOM      8  O   UNL     1      48.821  26.234  35.032  1.00  0.00    -0.550 OA
ATOM      9  O   UNL     1      49.069  26.311  32.756  1.00  0.00    -0.550 OA
ENDBRANCH   6   7
ENDBRANCH   5   6
ENDBRANCH   4   5
ENDBRANCH   3   4
ENDBRANCH   2   3
ENDBRANCH   1   2
BRANCH   1  10
ATOM     10  C   UNL     1      52.476  26.608  33.770  1.00  0.00     0.000 C 
BRANCH  10  11
ATOM     11  C   UNL     1      52.110  27.656  34.836  1.00  0.00    -0.000 C 
BRANCH  11  12
ATOM     12  C   UNL     1      53.132  28.802  34.913  1.00  0.00    -0.000 C 
BRANCH  12  13
ATOM     13  C   UNL     1      54.113  28.649  36.090  1.00  0.00    -0.000 C 
BRANCH  13  14
ATOM     14  C   UNL     1      55.573  28.506  35.614  1.00  0.00    -0.000 C 
BRANCH  14  15
ATOM     15  C   UNL     1      55.919  27.097  35.104  1.00  0.00    -0.003 C 
ATOM     16  C   UNL     1      56.201  27.056  33.604  1.00  0.00     0.004 C 
ENDBRANCH  14  15
ENDBRANCH  13  14
ENDBRANCH  12  13
ENDBRANCH  11  12
ENDBRANCH  10  11
ENDBRANCH   1  10
TORSDOF 12
ENDMDL
MODEL 8
REMARK VINA RESULT:    -3.792      2.913      5.650
REMARK INTER + INTRA:          -8.239
REMARK INTER:                  -6.602
REMARK INTRA:                  -1.638
REMARK UNBOUND:                -1.787
REMARK SMILES CCCCCCCCCCCCCC(=O)[O-]
REMARK SMILES IDX 8 1 9 2 10 3 11 4 12 5 13 6 14 7 15 8 16 9 7 10 6 11 5 12
REMARK SMILES IDX 4 13 3 14 2 15 1 16
REMARK H PARENT
REMARK Flexibility Score: inf
ROOT
ATOM      1  C   UNL     1      53.467  25.951  33.802  1.00  0.00     0.000 C 
ENDROOT
BRANCH   1   2
ATOM      2  C   UNL     1      52.899  24.847  34.706  1.00  0.00     0.000 C 
BRANCH   2   3
ATOM      3  C   UNL     1      52.286  25.446  35.981  1.00  0.00     0.000 C 
BRANCH   3   4
ATOM      4  C   UNL     1      50.788  25.131  36.125  1.00  0.00     0.000 C 
BRANCH   4   5
ATOM      5  C   UNL     1      49.899  26.366  35.891  1.00  0.00     0.006 C 
BRANCH   5   6
ATOM      6  C   UNL     1      49.793  26.727  34.403  1.00  0.00     0.053 C 
BRANCH   6   7
ATOM      7  C   UNL     1      49.401  25.548  33.568  1.00  0.00     0.041 C 
ATOM      8  O   UNL     1      48.291  24.983  33.752  1.00  0.00    -0.550 OA
ATOM      9  O   UNL     1      50.248  25.091  32.566  1.00  0.00    -0.550 OA
ENDBRANCH   6   7
ENDBRANCH   5   6
ENDBRANCH   4   5
ENDBRANCH   3   4
ENDBRANCH   2   3
ENDBRANCH   1   2
BRANCH   1  10
ATOM     10  C   UNL     1      54.639  26.706  34.450  1.00  0.00     0.000 C 
BRANCH  10  11
ATOM     11  C   UNL     1      54.510  28.233  34.306  1.00  0.00    -0.000 C 
BRANCH  11  12
ATOM     12  C   UNL     1      53.060  28.720  34.458  1.00  0.00    -0.000 C 
BRANCH  12  13
ATOM     13  C   UNL     1      52.694  29.061  35.915  1.00  0.00    -0.000 C 
BRANCH  13  14
ATOM     14  C   UNL     1      53.080  30.507  36.287  1.00  0.00    -0.000 C 
BRANCH  14  15
ATOM     15  C   UNL     1      54.001  30.601  37.516  1.00  0.00    -0.003 C 
ATOM     16  C   UNL     1      54.641  29.265  37.888  1.00  0.00     0.004 C 
ENDBRANCH  14  15
ENDBRANCH  13  14
ENDBRANCH  12  13
ENDBRANCH  11  12
ENDBRANCH  10  11
ENDBRANCH   1  10
TORSDOF 12
ENDMDL
MODEL 9
REMARK VINA RESULT:    -3.768      1.261      2.020
REMARK INTER + INTRA:          -8.198
REMARK INTER:                  -6.361
REMARK INTRA:                  -1.837
REMARK UNBOUND:                -1.787
REMARK SMILES CCCCCCCCCCCCCC(=O)[O-]
REMARK SMILES IDX 8 1 9 2 10 3 11 4 12 5 13 6 14 7 15 8 16 9 7 10 6 11 5 12
REMARK SMILES IDX 4 13 3 14 2 15 1 16
REMARK H PARENT
REMARK Flexibility Score: inf
ROOT
ATOM      1  C   UNL     1      52.237  24.162  35.291  1.00  0.00     0.000 C 
ENDROOT
BRANCH   1   2
ATOM      2  C   UNL     1      53.081  24.376  34.025  1.00  0.00     0.000 C 
BRANCH   2   3
ATOM      3  C   UNL     1      53.197  25.871  33.692  1.00  0.00     0.000 C 
BRANCH   3   4
ATOM      4  C   UNL     1      53.322  26.751  34.946  1.00  0.00     0.000 C 
BRANCH   4   5
ATOM      5  C   UNL     1      53.395  28.252  34.611  1.00  0.00     0.006 C 
BRANCH   5   6
ATOM      6  C   UNL     1      52.569  29.103  35.585  1.00  0.00     0.053 C 
BRANCH   6   7
ATOM      7  C   UNL     1      53.402  29.627  36.714  1.00  0.00     0.041 C 
ATOM      8  O   UNL     1      52.859  30.249  37.666  1.00  0.00    -0.550 OA
ATOM      9  O   UNL     1      54.773  29.405  36.731  1.00  0.00    -0.550 OA
ENDBRANCH   6   7
ENDBRANCH   5   6
ENDBRANCH   4   5
ENDBRANCH   3   4
ENDBRANCH   2   3
ENDBRANCH   1   2
BRANCH   1  10
ATOM     10  C   UNL     1      51.579  22.774  35.341  1.00  0.00     0.000 C 
BRANCH  10  11
ATOM     11  C   UNL     1      50.045  22.843  35.250  1.00  0.00    -0.000 C 
BRANCH  11  12
ATOM     12  C   UNL     1      49.551  23.182  33.834  1.00  0.00    -0.000 C 
BRANCH  12  13
ATOM     13  C   UNL     1      48.706  24.468  33.789  1.00  0.00    -0.000 C 
BRANCH  13  14
ATOM     14  C   UNL     1      49.467  25.641  33.136  1.00  0.00    -0.000 C 
BRANCH  14  15
ATOM     15  C   UNL     1      49.641  26.854  34.065  1.00  0.00    -0.003 C 
ATOM     16  C   UNL     1      49.550  26.492  35.546  1.00  0.00     0.004 C 
ENDBRANCH  14  15
ENDBRANCH  13  14
ENDBRANCH  12  13
ENDBRANCH  11  12
ENDBRANCH  10  11
ENDBRANCH   1  10
TORSDOF 12
ENDMDL
