MODEL 1
REMARK VINA RESULT:    24.497      0.000      0.000
REMARK INTER + INTRA:          38.690
REMARK INTER:                  36.669
REMARK INTRA:                   2.021
REMARK UNBOUND:                 2.021
REMARK SMILES COC(=O)C1=CO[C@H](O[C@@H]2O[C@H](CO)[C@H](O)[C@H](O)[C@H]2O)[C@H]2C(CO)=CC[C@H]12
REMARK SMILES IDX 9 1 8 2 5 3 6 4 27 5 7 6 21 7 26 8 22 9 25 10 3 11 4 12 2 13
REMARK SMILES IDX 1 14 23 15 24 16 10 18 19 19 11 20 17 21 12 22 15 23 20 24
REMARK SMILES IDX 18 26 13 28 14 29 16 31
REMARK H PARENT 24 17 20 25 18 27 14 30 16 32
REMARK Flexibility Score: inf
ROOT
ATOM      1  O   UNL     1     -22.693 -18.996  -1.673  1.00  0.00    -0.310 OA
ENDROOT
BRANCH   1   2
ATOM      2  C   UNL     1     -23.794 -18.664  -0.840  1.00  0.00     0.316 C 
ATOM      3  C   UNL     1     -24.856 -15.944  -0.484  1.00  0.00     0.076 C 
ATOM      4  C   UNL     1     -23.709 -16.319   0.123  1.00  0.00     0.202 C 
ATOM      5  C   UNL     1     -25.734 -17.089  -0.887  1.00  0.00     0.047 C 
ATOM      6  O   UNL     1     -23.318 -17.678   0.113  1.00  0.00    -0.471 OA
ATOM      7  C   UNL     1     -24.906 -18.049  -1.722  1.00  0.00     0.094 C 
ATOM      8  C   UNL     1     -26.996 -16.887  -1.718  1.00  0.00     0.037 C 
ATOM      9  C   UNL     1     -25.975 -18.916  -2.325  1.00  0.00    -0.039 C 
ATOM     10  C   UNL     1     -27.125 -18.235  -2.364  1.00  0.00    -0.024 C 
BRANCH   3  11
ATOM     11  C   UNL     1     -25.296 -14.531  -0.594  1.00  0.00     0.337 C 
ATOM     12  O   UNL     1     -24.431 -13.617  -0.558  1.00  0.00    -0.246 OA
BRANCH  11  13
ATOM     13  O   UNL     1     -26.647 -14.170  -0.550  1.00  0.00    -0.466 OA
ATOM     14  C   UNL     1     -27.125 -12.997   0.101  1.00  0.00     0.282 C 
ENDBRANCH  11  13
ENDBRANCH   3  11
BRANCH   9  15
ATOM     15  C   UNL     1     -25.755 -20.201  -3.063  1.00  0.00     0.187 C 
BRANCH  15  16
ATOM     16  O   UNL     1     -25.743 -21.267  -2.148  1.00  0.00    -0.392 OA
ATOM     17  H   UNL     1     -26.631 -21.705  -2.236  1.00  0.00     0.211 HD
ENDBRANCH  15  16
ENDBRANCH   9  15
ENDBRANCH   1   2
BRANCH   1  18
ATOM     18  C   UNL     1     -23.079 -19.569  -2.902  1.00  0.00     0.286 C 
ATOM     19  C   UNL     1     -21.963 -19.220  -3.932  1.00  0.00     0.202 C 
ATOM     20  O   UNL     1     -23.302 -20.973  -2.701  1.00  0.00    -0.341 OA
ATOM     21  C   UNL     1     -20.815 -20.236  -3.828  1.00  0.00     0.179 C 
ATOM     22  C   UNL     1     -22.900 -21.748  -3.822  1.00  0.00     0.178 C 
ATOM     23  C   UNL     1     -21.347 -21.689  -3.971  1.00  0.00     0.177 C 
BRANCH  19  24
ATOM     24  O   UNL     1     -22.473 -19.192  -5.240  1.00  0.00    -0.385 OA
ATOM     25  H   UNL     1     -21.826 -18.673  -5.793  1.00  0.00     0.211 HD
ENDBRANCH  19  24
BRANCH  21  26
ATOM     26  O   UNL     1     -20.170 -20.080  -2.589  1.00  0.00    -0.387 OA
ATOM     27  H   UNL     1     -20.872 -20.005  -1.892  1.00  0.00     0.211 HD
ENDBRANCH  21  26
BRANCH  22  28
ATOM     28  C   UNL     1     -23.428 -23.182  -3.677  1.00  0.00     0.191 C 
BRANCH  28  29
ATOM     29  O   UNL     1     -24.553 -23.385  -4.504  1.00  0.00    -0.394 OA
ATOM     30  H   UNL     1     -24.325 -24.137  -5.113  1.00  0.00     0.210 HD
ENDBRANCH  28  29
ENDBRANCH  22  28
BRANCH  23  31
ATOM     31  O   UNL     1     -20.705 -22.551  -3.051  1.00  0.00    -0.387 OA
ATOM     32  H   UNL     1     -20.061 -22.009  -2.519  1.00  0.00     0.211 HD
ENDBRANCH  23  31
ENDBRANCH   1  18
TORSDOF 11
ENDMDL
