MODEL 1
REMARK VINA RESULT:    -3.897      0.000      0.000
REMARK INTER + INTRA:          -4.386
REMARK INTER:                  -4.353
REMARK INTRA:                  -0.033
REMARK UNBOUND:                -0.033
REMARK SMILES CCCC(=O)[O-]
REMARK SMILES IDX 3 1 4 2 5 3 6 4 2 5 1 6
REMARK H PARENT
REMARK Flexibility Score: inf
ROOT
ATOM      1  C   UNL     1      14.567   6.556 -20.637  1.00  0.00     0.052 C 
ENDROOT
BRANCH   1   2
ATOM      2  C   UNL     1      15.541   7.486 -21.294  1.00  0.00     0.041 C 
ATOM      3  O   UNL     1      15.574   7.586 -22.549  1.00  0.00    -0.550 OA
ATOM      4  O   UNL     1      16.390   8.267 -20.520  1.00  0.00    -0.550 OA
ENDBRANCH   1   2
BRANCH   1   5
ATOM      5  C   UNL     1      13.288   7.284 -20.206  1.00  0.00     0.003 C 
ATOM      6  C   UNL     1      13.165   7.397 -18.688  1.00  0.00     0.004 C 
ENDBRANCH   1   5
TORSDOF 2
ENDMDL
MODEL 2
REMARK VINA RESULT:    -3.894      1.109      1.540
REMARK INTER + INTRA:          -4.383
REMARK INTER:                  -4.336
REMARK INTRA:                  -0.047
REMARK UNBOUND:                -0.033
REMARK SMILES CCCC(=O)[O-]
REMARK SMILES IDX 3 1 4 2 5 3 6 4 2 5 1 6
REMARK H PARENT
REMARK Flexibility Score: inf
ROOT
ATOM      1  C   UNL     1      15.442   7.282 -21.821  1.00  0.00     0.052 C 
ENDROOT
BRANCH   1   2
ATOM      2  C   UNL     1      16.205   8.525 -21.474  1.00  0.00     0.041 C 
ATOM      3  O   UNL     1      16.266   9.479 -22.292  1.00  0.00    -0.550 OA
ATOM      4  O   UNL     1      16.820   8.641 -20.234  1.00  0.00    -0.550 OA
ENDBRANCH   1   2
BRANCH   1   5
ATOM      5  C   UNL     1      14.867   6.602 -20.573  1.00  0.00     0.003 C 
ATOM      6  C   UNL     1      13.512   7.180 -20.166  1.00  0.00     0.004 C 
ENDBRANCH   1   5
TORSDOF 2
ENDMDL
MODEL 3
REMARK VINA RESULT:    -3.858      0.475      1.368
REMARK INTER + INTRA:          -4.342
REMARK INTER:                  -4.314
REMARK INTRA:                  -0.028
REMARK UNBOUND:                -0.033
REMARK SMILES CCCC(=O)[O-]
REMARK SMILES IDX 3 1 4 2 5 3 6 4 2 5 1 6
REMARK H PARENT
REMARK Flexibility Score: inf
ROOT
ATOM      1  C   UNL     1      14.904   6.780 -20.780  1.00  0.00     0.052 C 
ENDROOT
BRANCH   1   2
ATOM      2  C   UNL     1      15.702   7.920 -21.336  1.00  0.00     0.041 C 
ATOM      3  O   UNL     1      16.644   8.419 -20.667  1.00  0.00    -0.550 OA
ATOM      4  O   UNL     1      15.425   8.410 -22.606  1.00  0.00    -0.550 OA
ENDBRANCH   1   2
BRANCH   1   5
ATOM      5  C   UNL     1      13.482   7.213 -20.402  1.00  0.00     0.003 C 
ATOM      6  C   UNL     1      13.300   7.359 -18.892  1.00  0.00     0.004 C 
ENDBRANCH   1   5
TORSDOF 2
ENDMDL
MODEL 4
REMARK VINA RESULT:    -3.745      3.112      3.780
REMARK INTER + INTRA:          -4.216
REMARK INTER:                  -4.210
REMARK INTRA:                  -0.005
REMARK UNBOUND:                -0.033
REMARK SMILES CCCC(=O)[O-]
REMARK SMILES IDX 3 1 4 2 5 3 6 4 2 5 1 6
REMARK H PARENT
REMARK Flexibility Score: inf
ROOT
ATOM      1  C   UNL     1      17.393   8.940 -20.615  1.00  0.00     0.052 C 
ENDROOT
BRANCH   1   2
ATOM      2  C   UNL     1      17.704   9.749 -19.392  1.00  0.00     0.041 C 
ATOM      3  O   UNL     1      17.746  11.005 -19.458  1.00  0.00    -0.550 OA
ATOM      4  O   UNL     1      17.914   9.116 -18.173  1.00  0.00    -0.550 OA
ENDBRANCH   1   2
BRANCH   1   5
ATOM      5  C   UNL     1      16.130   8.091 -20.428  1.00  0.00     0.003 C 
ATOM      6  C   UNL     1      15.617   7.511 -21.746  1.00  0.00     0.004 C 
ENDBRANCH   1   5
TORSDOF 2
ENDMDL
MODEL 5
REMARK VINA RESULT:    -3.683      2.180      3.069
REMARK INTER + INTRA:          -4.147
REMARK INTER:                  -4.105
REMARK INTRA:                  -0.042
REMARK UNBOUND:                -0.033
REMARK SMILES CCCC(=O)[O-]
REMARK SMILES IDX 3 1 4 2 5 3 6 4 2 5 1 6
REMARK H PARENT
REMARK Flexibility Score: inf
ROOT
ATOM      1  C   UNL     1      14.750   6.552 -20.438  1.00  0.00     0.052 C 
ENDROOT
BRANCH   1   2
ATOM      2  C   UNL     1      13.551   7.251 -19.872  1.00  0.00     0.041 C 
ATOM      3  O   UNL     1      12.782   7.901 -20.627  1.00  0.00    -0.550 OA
ATOM      4  O   UNL     1      13.265   7.156 -18.516  1.00  0.00    -0.550 OA
ENDBRANCH   1   2
BRANCH   1   5
ATOM      5  C   UNL     1      15.359   7.330 -21.611  1.00  0.00     0.003 C 
ATOM      6  C   UNL     1      16.410   8.341 -21.156  1.00  0.00     0.004 C 
ENDBRANCH   1   5
TORSDOF 2
ENDMDL
MODEL 6
REMARK VINA RESULT:    -3.366      5.821      6.658
REMARK INTER + INTRA:          -3.793
REMARK INTER:                  -3.786
REMARK INTRA:                  -0.007
REMARK UNBOUND:                -0.033
REMARK SMILES CCCC(=O)[O-]
REMARK SMILES IDX 3 1 4 2 5 3 6 4 2 5 1 6
REMARK H PARENT
REMARK Flexibility Score: inf
ROOT
ATOM      1  C   UNL     1      18.459  12.710 -21.370  1.00  0.00     0.052 C 
ENDROOT
BRANCH   1   2
ATOM      2  C   UNL     1      17.609  12.515 -20.151  1.00  0.00     0.041 C 
ATOM      3  O   UNL     1      17.700  11.455 -19.479  1.00  0.00    -0.550 OA
ATOM      4  O   UNL     1      16.741  13.519 -19.739  1.00  0.00    -0.550 OA
ENDBRANCH   1   2
BRANCH   1   5
ATOM      5  C   UNL     1      18.483  11.456 -22.252  1.00  0.00     0.003 C 
ATOM      6  C   UNL     1      18.753  11.781 -23.720  1.00  0.00     0.004 C 
ENDBRANCH   1   5
TORSDOF 2
ENDMDL
MODEL 7
REMARK VINA RESULT:    -3.268      7.767      8.386
REMARK INTER + INTRA:          -3.683
REMARK INTER:                  -3.675
REMARK INTRA:                  -0.008
REMARK UNBOUND:                -0.033
REMARK SMILES CCCC(=O)[O-]
REMARK SMILES IDX 3 1 4 2 5 3 6 4 2 5 1 6
REMARK H PARENT
REMARK Flexibility Score: inf
ROOT
ATOM      1  C   UNL     1       9.091  13.805 -19.657  1.00  0.00     0.052 C 
ENDROOT
BRANCH   1   2
ATOM      2  C   UNL     1       8.935  12.561 -20.479  1.00  0.00     0.041 C 
ATOM      3  O   UNL     1       9.826  11.673 -20.457  1.00  0.00    -0.550 OA
ATOM      4  O   UNL     1       7.791  12.370 -21.244  1.00  0.00    -0.550 OA
ENDBRANCH   1   2
BRANCH   1   5
ATOM      5  C   UNL     1       9.713  13.506 -18.288  1.00  0.00     0.003 C 
ATOM      6  C   UNL     1       9.562  14.673 -17.312  1.00  0.00     0.004 C 
ENDBRANCH   1   5
TORSDOF 2
ENDMDL
MODEL 8
REMARK VINA RESULT:    -3.248      2.577      3.618
REMARK INTER + INTRA:          -3.661
REMARK INTER:                  -3.620
REMARK INTRA:                  -0.041
REMARK UNBOUND:                -0.033
REMARK SMILES CCCC(=O)[O-]
REMARK SMILES IDX 3 1 4 2 5 3 6 4 2 5 1 6
REMARK H PARENT
REMARK Flexibility Score: inf
ROOT
ATOM      1  C   UNL     1      16.663   8.359 -20.178  1.00  0.00     0.052 C 
ENDROOT
BRANCH   1   2
ATOM      2  C   UNL     1      16.188   8.469 -21.595  1.00  0.00     0.041 C 
ATOM      3  O   UNL     1      15.665   7.477 -22.167  1.00  0.00    -0.550 OA
ATOM      4  O   UNL     1      16.293   9.678 -22.273  1.00  0.00    -0.550 OA
ENDBRANCH   1   2
BRANCH   1   5
ATOM      5  C   UNL     1      17.664   9.467 -19.827  1.00  0.00     0.003 C 
ATOM      6  C   UNL     1      19.113   9.035 -20.050  1.00  0.00     0.004 C 
ENDBRANCH   1   5
TORSDOF 2
ENDMDL
MODEL 9
REMARK VINA RESULT:    -3.169      2.039      3.065
REMARK INTER + INTRA:          -3.573
REMARK INTER:                  -3.563
REMARK INTRA:                  -0.011
REMARK UNBOUND:                -0.033
REMARK SMILES CCCC(=O)[O-]
REMARK SMILES IDX 3 1 4 2 5 3 6 4 2 5 1 6
REMARK H PARENT
REMARK Flexibility Score: inf
ROOT
ATOM      1  C   UNL     1      15.939   7.888 -20.118  1.00  0.00     0.052 C 
ENDROOT
BRANCH   1   2
ATOM      2  C   UNL     1      15.300   7.135 -21.245  1.00  0.00     0.041 C 
ATOM      3  O   UNL     1      15.563   7.438 -22.438  1.00  0.00    -0.550 OA
ATOM      4  O   UNL     1      14.439   6.077 -20.977  1.00  0.00    -0.550 OA
ENDBRANCH   1   2
BRANCH   1   5
ATOM      5  C   UNL     1      17.052   8.818 -20.615  1.00  0.00     0.003 C 
ATOM      6  C   UNL     1      17.851   9.436 -19.468  1.00  0.00     0.004 C 
ENDBRANCH   1   5
TORSDOF 2
ENDMDL
