MODEL 1
REMARK VINA RESULT:    -4.781      0.000      0.000
REMARK INTER + INTRA:          -8.992
REMARK INTER:                  -8.136
REMARK INTRA:                  -0.856
REMARK UNBOUND:                -0.856
REMARK SMILES CCCCCCCCCCCCCC(=O)[O-]
REMARK SMILES IDX 8 1 9 2 10 3 11 4 12 5 13 6 14 7 15 8 16 9 7 10 6 11 5 12
REMARK SMILES IDX 4 13 3 14 2 15 1 16
REMARK H PARENT
REMARK Flexibility Score: inf
ROOT
ATOM      1  C   UNL     1      24.638  70.274  27.859  1.00  0.00     0.000 C 
ENDROOT
BRANCH   1   2
ATOM      2  C   UNL     1      24.645  69.007  26.985  1.00  0.00     0.000 C 
BRANCH   2   3
ATOM      3  C   UNL     1      23.297  68.267  27.008  1.00  0.00     0.000 C 
BRANCH   3   4
ATOM      4  C   UNL     1      22.244  68.985  27.872  1.00  0.00     0.000 C 
BRANCH   4   5
ATOM      5  C   UNL     1      21.034  68.092  28.189  1.00  0.00     0.006 C 
BRANCH   5   6
ATOM      6  C   UNL     1      21.296  67.132  29.356  1.00  0.00     0.053 C 
BRANCH   6   7
ATOM      7  C   UNL     1      20.900  65.737  28.983  1.00  0.00     0.041 C 
ATOM      8  O   UNL     1      20.976  65.357  27.785  1.00  0.00    -0.550 OA
ATOM      9  O   UNL     1      20.401  64.874  29.949  1.00  0.00    -0.550 OA
ENDBRANCH   6   7
ENDBRANCH   5   6
ENDBRANCH   4   5
ENDBRANCH   3   4
ENDBRANCH   2   3
ENDBRANCH   1   2
BRANCH   1  10
ATOM     10  C   UNL     1      25.730  71.277  27.452  1.00  0.00     0.000 C 
BRANCH  10  11
ATOM     11  C   UNL     1      25.243  72.733  27.491  1.00  0.00    -0.000 C 
BRANCH  11  12
ATOM     12  C   UNL     1      23.848  72.828  28.121  1.00  0.00    -0.000 C 
BRANCH  12  13
ATOM     13  C   UNL     1      23.842  73.816  29.298  1.00  0.00    -0.000 C 
BRANCH  13  14
ATOM     14  C   UNL     1      24.933  74.891  29.173  1.00  0.00    -0.000 C 
BRANCH  14  15
ATOM     15  C   UNL     1      25.276  75.544  30.521  1.00  0.00    -0.003 C 
ATOM     16  C   UNL     1      24.214  75.231  31.570  1.00  0.00     0.004 C 
ENDBRANCH  14  15
ENDBRANCH  13  14
ENDBRANCH  12  13
ENDBRANCH  11  12
ENDBRANCH  10  11
ENDBRANCH   1  10
TORSDOF 12
ENDMDL
MODEL 2
REMARK VINA RESULT:    -4.615      8.654     10.922
REMARK INTER + INTRA:          -8.709
REMARK INTER:                  -6.968
REMARK INTRA:                  -1.741
REMARK UNBOUND:                -0.856
REMARK SMILES CCCCCCCCCCCCCC(=O)[O-]
REMARK SMILES IDX 8 1 9 2 10 3 11 4 12 5 13 6 14 7 15 8 16 9 7 10 6 11 5 12
REMARK SMILES IDX 4 13 3 14 2 15 1 16
REMARK H PARENT
REMARK Flexibility Score: inf
ROOT
ATOM      1  C   UNL     1      17.117  66.082  35.188  1.00  0.00     0.000 C 
ENDROOT
BRANCH   1   2
ATOM      2  C   UNL     1      16.123  67.099  35.775  1.00  0.00     0.000 C 
BRANCH   2   3
ATOM      3  C   UNL     1      16.368  68.528  35.262  1.00  0.00     0.000 C 
BRANCH   3   4
ATOM      4  C   UNL     1      17.526  68.602  34.251  1.00  0.00     0.000 C 
BRANCH   4   5
ATOM      5  C   UNL     1      17.139  69.351  32.965  1.00  0.00     0.006 C 
BRANCH   5   6
ATOM      6  C   UNL     1      15.637  69.650  32.882  1.00  0.00     0.053 C 
BRANCH   6   7
ATOM      7  C   UNL     1      14.984  68.764  31.868  1.00  0.00     0.041 C 
ATOM      8  O   UNL     1      14.906  67.523  32.068  1.00  0.00    -0.550 OA
ATOM      9  O   UNL     1      14.506  69.302  30.680  1.00  0.00    -0.550 OA
ENDBRANCH   6   7
ENDBRANCH   5   6
ENDBRANCH   4   5
ENDBRANCH   3   4
ENDBRANCH   2   3
ENDBRANCH   1   2
BRANCH   1  10
ATOM     10  C   UNL     1      17.536  65.010  36.207  1.00  0.00     0.000 C 
BRANCH  10  11
ATOM     11  C   UNL     1      17.228  65.416  37.656  1.00  0.00    -0.000 C 
BRANCH  11  12
ATOM     12  C   UNL     1      18.446  65.189  38.560  1.00  0.00    -0.000 C 
BRANCH  12  13
ATOM     13  C   UNL     1      19.054  66.526  39.010  1.00  0.00    -0.000 C 
BRANCH  13  14
ATOM     14  C   UNL     1      19.800  67.249  37.878  1.00  0.00    -0.000 C 
BRANCH  14  15
ATOM     15  C   UNL     1      19.239  68.652  37.601  1.00  0.00    -0.003 C 
ATOM     16  C   UNL     1      18.202  69.046  38.648  1.00  0.00     0.004 C 
ENDBRANCH  14  15
ENDBRANCH  13  14
ENDBRANCH  12  13
ENDBRANCH  11  12
ENDBRANCH  10  11
ENDBRANCH   1  10
TORSDOF 12
ENDMDL
MODEL 3
REMARK VINA RESULT:    -4.604     10.116     14.072
REMARK INTER + INTRA:          -8.691
REMARK INTER:                  -7.228
REMARK INTRA:                  -1.463
REMARK UNBOUND:                -0.856
REMARK SMILES CCCCCCCCCCCCCC(=O)[O-]
REMARK SMILES IDX 8 1 9 2 10 3 11 4 12 5 13 6 14 7 15 8 16 9 7 10 6 11 5 12
REMARK SMILES IDX 4 13 3 14 2 15 1 16
REMARK H PARENT
REMARK Flexibility Score: inf
ROOT
ATOM      1  C   UNL     1      13.665  62.378  30.367  1.00  0.00     0.000 C 
ENDROOT
BRANCH   1   2
ATOM      2  C   UNL     1      14.567  62.776  31.550  1.00  0.00     0.000 C 
BRANCH   2   3
ATOM      3  C   UNL     1      15.521  63.931  31.203  1.00  0.00     0.000 C 
BRANCH   3   4
ATOM      4  C   UNL     1      15.880  64.789  32.429  1.00  0.00     0.000 C 
BRANCH   4   5
ATOM      5  C   UNL     1      14.738  65.730  32.845  1.00  0.00     0.006 C 
BRANCH   5   6
ATOM      6  C   UNL     1      14.870  67.130  32.231  1.00  0.00     0.053 C 
BRANCH   6   7
ATOM      7  C   UNL     1      15.483  68.076  33.216  1.00  0.00     0.041 C 
ATOM      8  O   UNL     1      15.951  69.177  32.827  1.00  0.00    -0.550 OA
ATOM      9  O   UNL     1      15.580  67.718  34.554  1.00  0.00    -0.550 OA
ENDBRANCH   6   7
ENDBRANCH   5   6
ENDBRANCH   4   5
ENDBRANCH   3   4
ENDBRANCH   2   3
ENDBRANCH   1   2
BRANCH   1  10
ATOM     10  C   UNL     1      12.274  63.029  30.441  1.00  0.00     0.000 C 
BRANCH  10  11
ATOM     11  C   UNL     1      11.988  63.664  31.810  1.00  0.00    -0.000 C 
BRANCH  11  12
ATOM     12  C   UNL     1      11.115  62.742  32.670  1.00  0.00    -0.000 C 
BRANCH  12  13
ATOM     13  C   UNL     1      11.933  62.115  33.809  1.00  0.00    -0.000 C 
BRANCH  13  14
ATOM     14  C   UNL     1      12.234  60.627  33.572  1.00  0.00    -0.000 C 
BRANCH  14  15
ATOM     15  C   UNL     1      11.190  59.948  32.674  1.00  0.00    -0.003 C 
ATOM     16  C   UNL     1      11.846  59.309  31.454  1.00  0.00     0.004 C 
ENDBRANCH  14  15
ENDBRANCH  13  14
ENDBRANCH  12  13
ENDBRANCH  11  12
ENDBRANCH  10  11
ENDBRANCH   1  10
TORSDOF 12
ENDMDL
MODEL 4
REMARK VINA RESULT:    -4.597      9.595     13.619
REMARK INTER + INTRA:          -8.678
REMARK INTER:                  -7.563
REMARK INTRA:                  -1.115
REMARK UNBOUND:                -0.856
REMARK SMILES CCCCCCCCCCCCCC(=O)[O-]
REMARK SMILES IDX 8 1 9 2 10 3 11 4 12 5 13 6 14 7 15 8 16 9 7 10 6 11 5 12
REMARK SMILES IDX 4 13 3 14 2 15 1 16
REMARK H PARENT
REMARK Flexibility Score: inf
ROOT
ATOM      1  C   UNL     1      14.601  62.816  31.505  1.00  0.00     0.000 C 
ENDROOT
BRANCH   1   2
ATOM      2  C   UNL     1      15.564  64.002  31.313  1.00  0.00     0.000 C 
BRANCH   2   3
ATOM      3  C   UNL     1      15.719  64.849  32.587  1.00  0.00     0.000 C 
BRANCH   3   4
ATOM      4  C   UNL     1      14.864  66.128  32.554  1.00  0.00     0.000 C 
BRANCH   4   5
ATOM      5  C   UNL     1      15.280  67.143  33.630  1.00  0.00     0.006 C 
BRANCH   5   6
ATOM      6  C   UNL     1      15.608  68.524  33.047  1.00  0.00     0.053 C 
BRANCH   6   7
ATOM      7  C   UNL     1      16.474  69.297  33.991  1.00  0.00     0.041 C 
ATOM      8  O   UNL     1      16.964  70.402  33.641  1.00  0.00    -0.550 OA
ATOM      9  O   UNL     1      16.780  68.772  35.240  1.00  0.00    -0.550 OA
ENDBRANCH   6   7
ENDBRANCH   5   6
ENDBRANCH   4   5
ENDBRANCH   3   4
ENDBRANCH   2   3
ENDBRANCH   1   2
BRANCH   1  10
ATOM     10  C   UNL     1      13.701  62.583  30.280  1.00  0.00     0.000 C 
BRANCH  10  11
ATOM     11  C   UNL     1      12.219  62.866  30.570  1.00  0.00    -0.000 C 
BRANCH  11  12
ATOM     12  C   UNL     1      12.059  63.683  31.858  1.00  0.00    -0.000 C 
BRANCH  12  13
ATOM     13  C   UNL     1      11.253  62.902  32.908  1.00  0.00    -0.000 C 
BRANCH  13  14
ATOM     14  C   UNL     1      11.243  61.389  32.641  1.00  0.00    -0.000 C 
BRANCH  14  15
ATOM     15  C   UNL     1      12.197  60.618  33.566  1.00  0.00    -0.003 C 
ATOM     16  C   UNL     1      13.054  59.635  32.776  1.00  0.00     0.004 C 
ENDBRANCH  14  15
ENDBRANCH  13  14
ENDBRANCH  12  13
ENDBRANCH  11  12
ENDBRANCH  10  11
ENDBRANCH   1  10
TORSDOF 12
ENDMDL
MODEL 5
REMARK VINA RESULT:    -4.577      9.292     11.367
REMARK INTER + INTRA:          -8.645
REMARK INTER:                  -6.884
REMARK INTRA:                  -1.760
REMARK UNBOUND:                -0.856
REMARK SMILES CCCCCCCCCCCCCC(=O)[O-]
REMARK SMILES IDX 8 1 9 2 10 3 11 4 12 5 13 6 14 7 15 8 16 9 7 10 6 11 5 12
REMARK SMILES IDX 4 13 3 14 2 15 1 16
REMARK H PARENT
REMARK Flexibility Score: inf
ROOT
ATOM      1  C   UNL     1      19.096  64.340  36.477  1.00  0.00     0.000 C 
ENDROOT
BRANCH   1   2
ATOM      2  C   UNL     1      17.581  64.391  36.211  1.00  0.00     0.000 C 
BRANCH   2   3
ATOM      3  C   UNL     1      17.160  65.651  35.437  1.00  0.00     0.000 C 
BRANCH   3   4
ATOM      4  C   UNL     1      16.409  66.663  36.322  1.00  0.00     0.000 C 
BRANCH   4   5
ATOM      5  C   UNL     1      16.170  68.004  35.610  1.00  0.00     0.006 C 
BRANCH   5   6
ATOM      6  C   UNL     1      16.887  68.093  34.256  1.00  0.00     0.053 C 
BRANCH   6   7
ATOM      7  C   UNL     1      16.629  69.421  33.616  1.00  0.00     0.041 C 
ATOM      8  O   UNL     1      16.070  69.482  32.489  1.00  0.00    -0.550 OA
ATOM      9  O   UNL     1      17.048  70.588  34.241  1.00  0.00    -0.550 OA
ENDBRANCH   6   7
ENDBRANCH   5   6
ENDBRANCH   4   5
ENDBRANCH   3   4
ENDBRANCH   2   3
ENDBRANCH   1   2
BRANCH   1  10
ATOM     10  C   UNL     1      19.500  65.118  37.740  1.00  0.00     0.000 C 
BRANCH  10  11
ATOM     11  C   UNL     1      18.675  64.717  38.973  1.00  0.00    -0.000 C 
BRANCH  11  12
ATOM     12  C   UNL     1      17.877  65.912  39.511  1.00  0.00    -0.000 C 
BRANCH  12  13
ATOM     13  C   UNL     1      18.737  67.185  39.527  1.00  0.00    -0.000 C 
BRANCH  13  14
ATOM     14  C   UNL     1      17.913  68.459  39.280  1.00  0.00    -0.000 C 
BRANCH  14  15
ATOM     15  C   UNL     1      18.655  69.482  38.407  1.00  0.00    -0.003 C 
ATOM     16  C   UNL     1      19.451  68.791  37.304  1.00  0.00     0.004 C 
ENDBRANCH  14  15
ENDBRANCH  13  14
ENDBRANCH  12  13
ENDBRANCH  11  12
ENDBRANCH  10  11
ENDBRANCH   1  10
TORSDOF 12
ENDMDL
MODEL 6
REMARK VINA RESULT:    -4.522      9.218     11.136
REMARK INTER + INTRA:          -8.550
REMARK INTER:                  -7.281
REMARK INTRA:                  -1.269
REMARK UNBOUND:                -0.856
REMARK SMILES CCCCCCCCCCCCCC(=O)[O-]
REMARK SMILES IDX 8 1 9 2 10 3 11 4 12 5 13 6 14 7 15 8 16 9 7 10 6 11 5 12
REMARK SMILES IDX 4 13 3 14 2 15 1 16
REMARK H PARENT
REMARK Flexibility Score: inf
ROOT
ATOM      1  C   UNL     1      17.142  65.304  35.245  1.00  0.00     0.000 C 
ENDROOT
BRANCH   1   2
ATOM      2  C   UNL     1      17.651  64.360  36.349  1.00  0.00     0.000 C 
BRANCH   2   3
ATOM      3  C   UNL     1      19.185  64.349  36.456  1.00  0.00     0.000 C 
BRANCH   3   4
ATOM      4  C   UNL     1      19.688  64.952  37.780  1.00  0.00     0.000 C 
BRANCH   4   5
ATOM      5  C   UNL     1      19.774  66.486  37.733  1.00  0.00     0.006 C 
BRANCH   5   6
ATOM      6  C   UNL     1      19.515  67.136  39.099  1.00  0.00     0.053 C 
BRANCH   6   7
ATOM      7  C   UNL     1      18.064  67.472  39.249  1.00  0.00     0.041 C 
ATOM      8  O   UNL     1      17.221  66.558  39.447  1.00  0.00    -0.550 OA
ATOM      9  O   UNL     1      17.639  68.788  39.123  1.00  0.00    -0.550 OA
ENDBRANCH   6   7
ENDBRANCH   5   6
ENDBRANCH   4   5
ENDBRANCH   3   4
ENDBRANCH   2   3
ENDBRANCH   1   2
BRANCH   1  10
ATOM     10  C   UNL     1      16.653  66.651  35.799  1.00  0.00     0.000 C 
BRANCH  10  11
ATOM     11  C   UNL     1      15.415  67.183  35.061  1.00  0.00    -0.000 C 
BRANCH  11  12
ATOM     12  C   UNL     1      15.708  67.378  33.568  1.00  0.00    -0.000 C 
BRANCH  12  13
ATOM     13  C   UNL     1      15.763  68.870  33.209  1.00  0.00    -0.000 C 
BRANCH  13  14
ATOM     14  C   UNL     1      17.189  69.440  33.263  1.00  0.00    -0.000 C 
BRANCH  14  15
ATOM     15  C   UNL     1      17.384  70.437  34.415  1.00  0.00    -0.003 C 
ATOM     16  C   UNL     1      18.225  69.829  35.533  1.00  0.00     0.004 C 
ENDBRANCH  14  15
ENDBRANCH  13  14
ENDBRANCH  12  13
ENDBRANCH  11  12
ENDBRANCH  10  11
ENDBRANCH   1  10
TORSDOF 12
ENDMDL
MODEL 7
REMARK VINA RESULT:    -4.481      9.121     11.762
REMARK INTER + INTRA:          -8.480
REMARK INTER:                  -7.646
REMARK INTRA:                  -0.834
REMARK UNBOUND:                -0.856
REMARK SMILES CCCCCCCCCCCCCC(=O)[O-]
REMARK SMILES IDX 8 1 9 2 10 3 11 4 12 5 13 6 14 7 15 8 16 9 7 10 6 11 5 12
REMARK SMILES IDX 4 13 3 14 2 15 1 16
REMARK H PARENT
REMARK Flexibility Score: inf
ROOT
ATOM      1  C   UNL     1      16.826  69.361  32.893  1.00  0.00     0.000 C 
ENDROOT
BRANCH   1   2
ATOM      2  C   UNL     1      17.049  70.132  34.207  1.00  0.00     0.000 C 
BRANCH   2   3
ATOM      3  C   UNL     1      17.821  69.308  35.250  1.00  0.00     0.000 C 
BRANCH   3   4
ATOM      4  C   UNL     1      16.966  68.189  35.871  1.00  0.00     0.000 C 
BRANCH   4   5
ATOM      5  C   UNL     1      17.784  67.256  36.777  1.00  0.00     0.006 C 
BRANCH   5   6
ATOM      6  C   UNL     1      17.829  67.733  38.234  1.00  0.00     0.053 C 
BRANCH   6   7
ATOM      7  C   UNL     1      19.244  67.958  38.666  1.00  0.00     0.041 C 
ATOM      8  O   UNL     1      19.995  68.720  38.002  1.00  0.00    -0.550 OA
ATOM      9  O   UNL     1      19.747  67.289  39.774  1.00  0.00    -0.550 OA
ENDBRANCH   6   7
ENDBRANCH   5   6
ENDBRANCH   4   5
ENDBRANCH   3   4
ENDBRANCH   2   3
ENDBRANCH   1   2
BRANCH   1  10
ATOM     10  C   UNL     1      15.339  69.255  32.517  1.00  0.00     0.000 C 
BRANCH  10  11
ATOM     11  C   UNL     1      14.929  67.830  32.112  1.00  0.00    -0.000 C 
BRANCH  11  12
ATOM     12  C   UNL     1      15.259  66.828  33.225  1.00  0.00    -0.000 C 
BRANCH  12  13
ATOM     13  C   UNL     1      15.328  65.396  32.673  1.00  0.00    -0.000 C 
BRANCH  13  14
ATOM     14  C   UNL     1      14.014  64.623  32.869  1.00  0.00    -0.000 C 
BRANCH  14  15
ATOM     15  C   UNL     1      13.719  63.656  31.712  1.00  0.00    -0.003 C 
ATOM     16  C   UNL     1      15.009  63.107  31.111  1.00  0.00     0.004 C 
ENDBRANCH  14  15
ENDBRANCH  13  14
ENDBRANCH  12  13
ENDBRANCH  11  12
ENDBRANCH  10  11
ENDBRANCH   1  10
TORSDOF 12
ENDMDL
MODEL 8
REMARK VINA RESULT:    -4.448      8.998     10.939
REMARK INTER + INTRA:          -8.425
REMARK INTER:                  -7.424
REMARK INTRA:                  -1.001
REMARK UNBOUND:                -0.856
REMARK SMILES CCCCCCCCCCCCCC(=O)[O-]
REMARK SMILES IDX 8 1 9 2 10 3 11 4 12 5 13 6 14 7 15 8 16 9 7 10 6 11 5 12
REMARK SMILES IDX 4 13 3 14 2 15 1 16
REMARK H PARENT
REMARK Flexibility Score: inf
ROOT
ATOM      1  C   UNL     1      16.716  66.345  34.247  1.00  0.00     0.000 C 
ENDROOT
BRANCH   1   2
ATOM      2  C   UNL     1      15.460  65.790  33.552  1.00  0.00     0.000 C 
BRANCH   2   3
ATOM      3  C   UNL     1      15.699  64.412  32.914  1.00  0.00     0.000 C 
BRANCH   3   4
ATOM      4  C   UNL     1      14.475  63.486  33.030  1.00  0.00     0.000 C 
BRANCH   4   5
ATOM      5  C   UNL     1      13.148  64.238  32.837  1.00  0.00     0.006 C 
BRANCH   5   6
ATOM      6  C   UNL     1      11.922  63.362  33.130  1.00  0.00     0.053 C 
BRANCH   6   7
ATOM      7  C   UNL     1      11.458  62.680  31.882  1.00  0.00     0.041 C 
ATOM      8  O   UNL     1      11.708  63.184  30.755  1.00  0.00    -0.550 OA
ATOM      9  O   UNL     1      10.708  61.514  31.964  1.00  0.00    -0.550 OA
ENDBRANCH   6   7
ENDBRANCH   5   6
ENDBRANCH   4   5
ENDBRANCH   3   4
ENDBRANCH   2   3
ENDBRANCH   1   2
BRANCH   1  10
ATOM     10  C   UNL     1      16.377  67.314  35.392  1.00  0.00     0.000 C 
BRANCH  10  11
ATOM     11  C   UNL     1      16.723  68.773  35.057  1.00  0.00    -0.000 C 
BRANCH  11  12
ATOM     12  C   UNL     1      17.502  68.863  33.739  1.00  0.00    -0.000 C 
BRANCH  12  13
ATOM     13  C   UNL     1      16.763  69.746  32.722  1.00  0.00    -0.000 C 
BRANCH  13  14
ATOM     14  C   UNL     1      15.251  69.471  32.687  1.00  0.00    -0.000 C 
BRANCH  14  15
ATOM     15  C   UNL     1      14.835  68.608  31.486  1.00  0.00    -0.003 C 
ATOM     16  C   UNL     1      14.385  69.476  30.315  1.00  0.00     0.004 C 
ENDBRANCH  14  15
ENDBRANCH  13  14
ENDBRANCH  12  13
ENDBRANCH  11  12
ENDBRANCH  10  11
ENDBRANCH   1  10
TORSDOF 12
ENDMDL
MODEL 9
REMARK VINA RESULT:    -4.430     10.147     13.357
REMARK INTER + INTRA:          -8.394
REMARK INTER:                  -6.684
REMARK INTRA:                  -1.710
REMARK UNBOUND:                -0.856
REMARK SMILES CCCCCCCCCCCCCC(=O)[O-]
REMARK SMILES IDX 8 1 9 2 10 3 11 4 12 5 13 6 14 7 15 8 16 9 7 10 6 11 5 12
REMARK SMILES IDX 4 13 3 14 2 15 1 16
REMARK H PARENT
REMARK Flexibility Score: inf
ROOT
ATOM      1  C   UNL     1      15.679  62.489  31.411  1.00  0.00     0.000 C 
ENDROOT
BRANCH   1   2
ATOM      2  C   UNL     1      15.610  64.026  31.424  1.00  0.00     0.000 C 
BRANCH   2   3
ATOM      3  C   UNL     1      15.466  64.599  32.844  1.00  0.00     0.000 C 
BRANCH   3   4
ATOM      4  C   UNL     1      14.523  65.815  32.897  1.00  0.00     0.000 C 
BRANCH   4   5
ATOM      5  C   UNL     1      15.261  67.117  33.246  1.00  0.00     0.006 C 
BRANCH   5   6
ATOM      6  C   UNL     1      16.484  66.884  34.144  1.00  0.00     0.053 C 
BRANCH   6   7
ATOM      7  C   UNL     1      16.695  68.055  35.051  1.00  0.00     0.041 C 
ATOM      8  O   UNL     1      16.805  67.882  36.293  1.00  0.00    -0.550 OA
ATOM      9  O   UNL     1      16.722  69.342  34.530  1.00  0.00    -0.550 OA
ENDBRANCH   6   7
ENDBRANCH   5   6
ENDBRANCH   4   5
ENDBRANCH   3   4
ENDBRANCH   2   3
ENDBRANCH   1   2
BRANCH   1  10
ATOM     10  C   UNL     1      15.278  61.869  32.759  1.00  0.00     0.000 C 
BRANCH  10  11
ATOM     11  C   UNL     1      14.239  60.747  32.611  1.00  0.00    -0.000 C 
BRANCH  11  12
ATOM     12  C   UNL     1      13.158  60.854  33.694  1.00  0.00    -0.000 C 
BRANCH  12  13
ATOM     13  C   UNL     1      12.701  62.310  33.873  1.00  0.00    -0.000 C 
BRANCH  13  14
ATOM     14  C   UNL     1      11.498  62.666  32.986  1.00  0.00    -0.000 C 
BRANCH  14  15
ATOM     15  C   UNL     1      11.869  63.619  31.840  1.00  0.00    -0.003 C 
ATOM     16  C   UNL     1      11.991  62.868  30.518  1.00  0.00     0.004 C 
ENDBRANCH  14  15
ENDBRANCH  13  14
ENDBRANCH  12  13
ENDBRANCH  11  12
ENDBRANCH  10  11
ENDBRANCH   1  10
TORSDOF 12
ENDMDL
