MODEL 1
REMARK VINA RESULT:    -5.399      0.000      0.000
REMARK INTER + INTRA:          -8.238
REMARK INTER:                  -7.293
REMARK INTRA:                  -0.945
REMARK UNBOUND:                -0.945
REMARK SMILES CC(=O)CCC=C(C)CCC=C(C)C
REMARK SMILES IDX 7 1 6 2 8 3 9 4 10 5 11 6 13 7 12 8 14 9 5 10 4 11 2 12 3 13
REMARK SMILES IDX 1 14
REMARK H PARENT
REMARK Flexibility Score: inf
ROOT
ATOM      1  C   UNL     1      14.344 -29.536  22.916  1.00  0.00    -0.077 C 
ATOM      2  C   UNL     1      13.090 -29.465  23.419  1.00  0.00    -0.028 C 
ATOM      3  C   UNL     1      14.972 -28.381  22.172  1.00  0.00     0.039 C 
ENDROOT
BRANCH   1   4
ATOM      4  C   UNL     1      15.146 -30.803  23.120  1.00  0.00     0.034 C 
BRANCH   4   5
ATOM      5  C   UNL     1      14.235 -32.035  23.086  1.00  0.00     0.032 C 
BRANCH   5   6
ATOM      6  C   UNL     1      14.665 -32.989  22.000  1.00  0.00    -0.028 C 
ATOM      7  C   UNL     1      13.292 -31.854  20.238  1.00  0.00     0.039 C 
ATOM      8  C   UNL     1      14.270 -32.905  20.710  1.00  0.00    -0.080 C 
ATOM      9  C   UNL     1      14.814 -33.908  19.726  1.00  0.00     0.039 C 
ENDBRANCH   5   6
ENDBRANCH   4   5
ENDBRANCH   1   4
BRANCH   2  10
ATOM     10  C   UNL     1      12.168 -28.284  23.245  1.00  0.00     0.035 C 
BRANCH  10  11
ATOM     11  C   UNL     1      12.168 -27.409  24.502  1.00  0.00     0.079 C 
BRANCH  11  12
ATOM     12  C   UNL     1      13.072 -26.218  24.322  1.00  0.00     0.130 C 
ATOM     13  O   UNL     1      12.996 -25.555  23.299  1.00  0.00    -0.300 OA
ATOM     14  C   UNL     1      14.075 -25.833  25.368  1.00  0.00     0.087 C 
ENDBRANCH  11  12
ENDBRANCH  10  11
ENDBRANCH   2  10
TORSDOF 6
ENDMDL
MODEL 2
REMARK VINA RESULT:    -5.262      1.167      1.523
REMARK INTER + INTRA:          -8.054
REMARK INTER:                  -7.227
REMARK INTRA:                  -0.826
REMARK UNBOUND:                -0.945
REMARK SMILES CC(=O)CCC=C(C)CCC=C(C)C
REMARK SMILES IDX 7 1 6 2 8 3 9 4 10 5 11 6 13 7 12 8 14 9 5 10 4 11 2 12 3 13
REMARK SMILES IDX 1 14
REMARK H PARENT
REMARK Flexibility Score: inf
ROOT
ATOM      1  C   UNL     1      15.359 -30.806  23.111  1.00  0.00    -0.077 C 
ATOM      2  C   UNL     1      14.065 -30.482  23.333  1.00  0.00    -0.028 C 
ATOM      3  C   UNL     1      16.306 -29.868  22.400  1.00  0.00     0.039 C 
ENDROOT
BRANCH   1   4
ATOM      4  C   UNL     1      15.877 -32.141  23.603  1.00  0.00     0.034 C 
BRANCH   4   5
ATOM      5  C   UNL     1      14.872 -33.258  23.302  1.00  0.00     0.032 C 
BRANCH   5   6
ATOM      6  C   UNL     1      15.358 -34.121  22.164  1.00  0.00    -0.028 C 
ATOM      7  C   UNL     1      14.057 -32.856  20.437  1.00  0.00     0.039 C 
ATOM      8  C   UNL     1      15.020 -33.937  20.869  1.00  0.00    -0.080 C 
ATOM      9  C   UNL     1      15.616 -34.857  19.834  1.00  0.00     0.039 C 
ENDBRANCH   5   6
ENDBRANCH   4   5
ENDBRANCH   1   4
BRANCH   2  10
ATOM     10  C   UNL     1      13.411 -29.210  22.853  1.00  0.00     0.035 C 
BRANCH  10  11
ATOM     11  C   UNL     1      12.368 -28.724  23.864  1.00  0.00     0.079 C 
BRANCH  11  12
ATOM     12  C   UNL     1      12.244 -27.225  23.821  1.00  0.00     0.130 C 
ATOM     13  O   UNL     1      11.304 -26.716  23.228  1.00  0.00    -0.300 OA
ATOM     14  C   UNL     1      13.256 -26.338  24.483  1.00  0.00     0.087 C 
ENDBRANCH  11  12
ENDBRANCH  10  11
ENDBRANCH   2  10
TORSDOF 6
ENDMDL
MODEL 3
REMARK VINA RESULT:    -5.196      2.629      4.805
REMARK INTER + INTRA:          -7.963
REMARK INTER:                  -6.770
REMARK INTRA:                  -1.193
REMARK UNBOUND:                -0.945
REMARK SMILES CC(=O)CCC=C(C)CCC=C(C)C
REMARK SMILES IDX 7 1 6 2 8 3 9 4 10 5 11 6 13 7 12 8 14 9 5 10 4 11 2 12 3 13
REMARK SMILES IDX 1 14
REMARK H PARENT
REMARK Flexibility Score: inf
ROOT
ATOM      1  C   UNL     1      15.004 -33.827  20.738  1.00  0.00    -0.077 C 
ATOM      2  C   UNL     1      14.191 -32.903  20.175  1.00  0.00    -0.028 C 
ATOM      3  C   UNL     1      15.153 -33.951  22.236  1.00  0.00     0.039 C 
ENDROOT
BRANCH   1   4
ATOM      4  C   UNL     1      15.773 -34.772  19.841  1.00  0.00     0.034 C 
BRANCH   4   5
ATOM      5  C   UNL     1      16.804 -34.008  19.002  1.00  0.00     0.032 C 
BRANCH   5   6
ATOM      6  C   UNL     1      18.120 -33.911  19.731  1.00  0.00    -0.028 C 
ATOM      7  C   UNL     1      17.710 -31.559  20.490  1.00  0.00     0.039 C 
ATOM      8  C   UNL     1      18.531 -32.826  20.425  1.00  0.00    -0.080 C 
ATOM      9  C   UNL     1      19.857 -32.889  21.137  1.00  0.00     0.039 C 
ENDBRANCH   5   6
ENDBRANCH   4   5
ENDBRANCH   1   4
BRANCH   2  10
ATOM     10  C   UNL     1      13.408 -31.872  20.950  1.00  0.00     0.035 C 
BRANCH  10  11
ATOM     11  C   UNL     1      14.149 -30.532  20.967  1.00  0.00     0.079 C 
BRANCH  11  12
ATOM     12  C   UNL     1      14.175 -29.956  22.357  1.00  0.00     0.130 C 
ATOM     13  O   UNL     1      14.698 -28.869  22.549  1.00  0.00    -0.300 OA
ATOM     14  C   UNL     1      13.581 -30.695  23.520  1.00  0.00     0.087 C 
ENDBRANCH  11  12
ENDBRANCH  10  11
ENDBRANCH   2  10
TORSDOF 6
ENDMDL
MODEL 4
REMARK VINA RESULT:    -5.147      3.658      6.934
REMARK INTER + INTRA:          -7.898
REMARK INTER:                  -6.781
REMARK INTRA:                  -1.117
REMARK UNBOUND:                -0.945
REMARK SMILES CC(=O)CCC=C(C)CCC=C(C)C
REMARK SMILES IDX 7 1 6 2 8 3 9 4 10 5 11 6 13 7 12 8 14 9 5 10 4 11 2 12 3 13
REMARK SMILES IDX 1 14
REMARK H PARENT
REMARK Flexibility Score: inf
ROOT
ATOM      1  C   UNL     1      15.718 -32.682  21.790  1.00  0.00    -0.077 C 
ATOM      2  C   UNL     1      15.133 -33.760  21.220  1.00  0.00    -0.028 C 
ATOM      3  C   UNL     1      16.544 -31.704  20.987  1.00  0.00     0.039 C 
ENDROOT
BRANCH   1   4
ATOM      4  C   UNL     1      15.526 -32.439  23.271  1.00  0.00     0.034 C 
BRANCH   4   5
ATOM      5  C   UNL     1      14.036 -32.392  23.626  1.00  0.00     0.032 C 
BRANCH   5   6
ATOM      6  C   UNL     1      13.566 -30.967  23.775  1.00  0.00    -0.028 C 
ATOM      7  C   UNL     1      12.585 -30.879  21.472  1.00  0.00     0.039 C 
ATOM      8  C   UNL     1      12.890 -30.282  22.826  1.00  0.00    -0.080 C 
ATOM      9  C   UNL     1      12.450 -28.874  23.133  1.00  0.00     0.039 C 
ENDBRANCH   5   6
ENDBRANCH   4   5
ENDBRANCH   1   4
BRANCH   2  10
ATOM     10  C   UNL     1      15.284 -34.143  19.769  1.00  0.00     0.035 C 
BRANCH  10  11
ATOM     11  C   UNL     1      16.099 -35.432  19.632  1.00  0.00     0.079 C 
BRANCH  11  12
ATOM     12  C   UNL     1      17.570 -35.149  19.784  1.00  0.00     0.130 C 
ATOM     13  O   UNL     1      18.196 -35.685  20.686  1.00  0.00    -0.300 OA
ATOM     14  C   UNL     1      18.285 -34.213  18.855  1.00  0.00     0.087 C 
ENDBRANCH  11  12
ENDBRANCH  10  11
ENDBRANCH   2  10
TORSDOF 6
ENDMDL
MODEL 5
REMARK VINA RESULT:    -5.087      3.576      6.920
REMARK INTER + INTRA:          -7.816
REMARK INTER:                  -6.967
REMARK INTRA:                  -0.849
REMARK UNBOUND:                -0.945
REMARK SMILES CC(=O)CCC=C(C)CCC=C(C)C
REMARK SMILES IDX 7 1 6 2 8 3 9 4 10 5 11 6 13 7 12 8 14 9 5 10 4 11 2 12 3 13
REMARK SMILES IDX 1 14
REMARK H PARENT
REMARK Flexibility Score: inf
ROOT
ATOM      1  C   UNL     1      15.341 -32.132  22.781  1.00  0.00    -0.077 C 
ATOM      2  C   UNL     1      15.567 -32.716  21.582  1.00  0.00    -0.028 C 
ATOM      3  C   UNL     1      14.599 -32.843  23.888  1.00  0.00     0.039 C 
ENDROOT
BRANCH   1   4
ATOM      4  C   UNL     1      15.860 -30.732  23.025  1.00  0.00     0.034 C 
BRANCH   4   5
ATOM      5  C   UNL     1      15.152 -29.723  22.114  1.00  0.00     0.032 C 
BRANCH   5   6
ATOM      6  C   UNL     1      14.129 -28.929  22.889  1.00  0.00    -0.028 C 
ATOM      7  C   UNL     1      12.232 -30.425  22.227  1.00  0.00     0.039 C 
ATOM      8  C   UNL     1      12.818 -29.247  22.969  1.00  0.00    -0.080 C 
ATOM      9  C   UNL     1      11.920 -28.381  23.814  1.00  0.00     0.039 C 
ENDBRANCH   5   6
ENDBRANCH   4   5
ENDBRANCH   1   4
BRANCH   2  10
ATOM     10  C   UNL     1      15.063 -34.084  21.192  1.00  0.00     0.035 C 
BRANCH  10  11
ATOM     11  C   UNL     1      15.212 -34.305  19.684  1.00  0.00     0.079 C 
BRANCH  11  12
ATOM     12  C   UNL     1      16.454 -35.101  19.383  1.00  0.00     0.130 C 
ATOM     13  O   UNL     1      16.416 -36.321  19.444  1.00  0.00    -0.300 OA
ATOM     14  C   UNL     1      17.744 -34.428  19.020  1.00  0.00     0.087 C 
ENDBRANCH  11  12
ENDBRANCH  10  11
ENDBRANCH   2  10
TORSDOF 6
ENDMDL
MODEL 6
REMARK VINA RESULT:    -5.061      3.266      7.282
REMARK INTER + INTRA:          -7.781
REMARK INTER:                  -7.309
REMARK INTRA:                  -0.472
REMARK UNBOUND:                -0.945
REMARK SMILES CC(=O)CCC=C(C)CCC=C(C)C
REMARK SMILES IDX 7 1 6 2 8 3 9 4 10 5 11 6 13 7 12 8 14 9 5 10 4 11 2 12 3 13
REMARK SMILES IDX 1 14
REMARK H PARENT
REMARK Flexibility Score: inf
ROOT
ATOM      1  C   UNL     1      13.987 -32.231  21.329  1.00  0.00    -0.077 C 
ATOM      2  C   UNL     1      14.771 -33.311  21.105  1.00  0.00    -0.028 C 
ATOM      3  C   UNL     1      13.109 -31.646  20.250  1.00  0.00     0.039 C 
ENDROOT
BRANCH   1   4
ATOM      4  C   UNL     1      13.979 -31.603  22.706  1.00  0.00     0.034 C 
BRANCH   4   5
ATOM      5  C   UNL     1      12.910 -30.508  22.797  1.00  0.00     0.032 C 
BRANCH   5   6
ATOM      6  C   UNL     1      13.546 -29.154  22.987  1.00  0.00    -0.028 C 
ATOM      7  C   UNL     1      11.406 -28.072  23.711  1.00  0.00     0.039 C 
ATOM      8  C   UNL     1      12.889 -28.056  23.421  1.00  0.00    -0.080 C 
ATOM      9  C   UNL     1      13.666 -26.777  23.600  1.00  0.00     0.039 C 
ENDBRANCH   5   6
ENDBRANCH   4   5
ENDBRANCH   1   4
BRANCH   2  10
ATOM     10  C   UNL     1      14.910 -34.001  19.771  1.00  0.00     0.035 C 
BRANCH  10  11
ATOM     11  C   UNL     1      16.369 -33.988  19.305  1.00  0.00     0.079 C 
BRANCH  11  12
ATOM     12  C   UNL     1      17.103 -35.196  19.824  1.00  0.00     0.130 C 
ATOM     13  O   UNL     1      17.983 -35.052  20.660  1.00  0.00    -0.300 OA
ATOM     14  C   UNL     1      16.785 -36.576  19.329  1.00  0.00     0.087 C 
ENDBRANCH  11  12
ENDBRANCH  10  11
ENDBRANCH   2  10
TORSDOF 6
ENDMDL
MODEL 7
REMARK VINA RESULT:    -5.045      6.309      7.624
REMARK INTER + INTRA:          -7.760
REMARK INTER:                  -6.964
REMARK INTRA:                  -0.796
REMARK UNBOUND:                -0.945
REMARK SMILES CC(=O)CCC=C(C)CCC=C(C)C
REMARK SMILES IDX 7 1 6 2 8 3 9 4 10 5 11 6 13 7 12 8 14 9 5 10 4 11 2 12 3 13
REMARK SMILES IDX 1 14
REMARK H PARENT
REMARK Flexibility Score: inf
ROOT
ATOM      1  C   UNL     1      19.667 -28.162  20.880  1.00  0.00    -0.077 C 
ATOM      2  C   UNL     1      19.823 -26.847  21.153  1.00  0.00    -0.028 C 
ATOM      3  C   UNL     1      20.849 -29.079  20.670  1.00  0.00     0.039 C 
ENDROOT
BRANCH   1   4
ATOM      4  C   UNL     1      18.268 -28.735  20.798  1.00  0.00     0.034 C 
BRANCH   4   5
ATOM      5  C   UNL     1      18.164 -30.031  21.610  1.00  0.00     0.032 C 
BRANCH   5   6
ATOM      6  C   UNL     1      17.508 -31.119  20.798  1.00  0.00    -0.028 C 
ATOM      7  C   UNL     1      19.582 -32.521  20.706  1.00  0.00     0.039 C 
ATOM      8  C   UNL     1      18.125 -32.256  20.406  1.00  0.00    -0.080 C 
ATOM      9  C   UNL     1      17.330 -33.274  19.630  1.00  0.00     0.039 C 
ENDBRANCH   5   6
ENDBRANCH   4   5
ENDBRANCH   1   4
BRANCH   2  10
ATOM     10  C   UNL     1      21.155 -26.141  21.214  1.00  0.00     0.035 C 
BRANCH  10  11
ATOM     11  C   UNL     1      21.384 -25.307  19.950  1.00  0.00     0.079 C 
BRANCH  11  12
ATOM     12  C   UNL     1      22.783 -25.502  19.430  1.00  0.00     0.130 C 
ATOM     13  O   UNL     1      23.275 -24.658  18.696  1.00  0.00    -0.300 OA
ATOM     14  C   UNL     1      23.587 -26.717  19.787  1.00  0.00     0.087 C 
ENDBRANCH  11  12
ENDBRANCH  10  11
ENDBRANCH   2  10
TORSDOF 6
ENDMDL
MODEL 8
REMARK VINA RESULT:    -5.036      1.972      3.515
REMARK INTER + INTRA:          -7.748
REMARK INTER:                  -7.378
REMARK INTRA:                  -0.369
REMARK UNBOUND:                -0.945
REMARK SMILES CC(=O)CCC=C(C)CCC=C(C)C
REMARK SMILES IDX 7 1 6 2 8 3 9 4 10 5 11 6 13 7 12 8 14 9 5 10 4 11 2 12 3 13
REMARK SMILES IDX 1 14
REMARK H PARENT
REMARK Flexibility Score: inf
ROOT
ATOM      1  C   UNL     1      13.914 -32.206  21.064  1.00  0.00    -0.077 C 
ATOM      2  C   UNL     1      13.791 -31.445  22.176  1.00  0.00    -0.028 C 
ATOM      3  C   UNL     1      13.128 -31.914  19.807  1.00  0.00     0.039 C 
ENDROOT
BRANCH   1   4
ATOM      4  C   UNL     1      14.878 -33.372  21.074  1.00  0.00     0.034 C 
BRANCH   4   5
ATOM      5  C   UNL     1      15.062 -33.938  19.661  1.00  0.00     0.032 C 
BRANCH   5   6
ATOM      6  C   UNL     1      15.692 -35.307  19.711  1.00  0.00    -0.028 C 
ATOM      7  C   UNL     1      17.941 -34.474  18.988  1.00  0.00     0.039 C 
ATOM      8  C   UNL     1      16.991 -35.560  19.436  1.00  0.00    -0.080 C 
ATOM      9  C   UNL     1      17.490 -36.976  19.566  1.00  0.00     0.039 C 
ENDBRANCH   5   6
ENDBRANCH   4   5
ENDBRANCH   1   4
BRANCH   2  10
ATOM     10  C   UNL     1      12.834 -30.288  22.315  1.00  0.00     0.035 C 
BRANCH  10  11
ATOM     11  C   UNL     1      13.059 -29.557  23.642  1.00  0.00     0.079 C 
BRANCH  11  12
ATOM     12  C   UNL     1      12.149 -28.363  23.753  1.00  0.00     0.130 C 
ATOM     13  O   UNL     1      11.109 -28.338  23.112  1.00  0.00    -0.300 OA
ATOM     14  C   UNL     1      12.495 -27.195  24.627  1.00  0.00     0.087 C 
ENDBRANCH  11  12
ENDBRANCH  10  11
ENDBRANCH   2  10
TORSDOF 6
ENDMDL
MODEL 9
REMARK VINA RESULT:    -4.938      3.266      6.310
REMARK INTER + INTRA:          -7.616
REMARK INTER:                  -6.537
REMARK INTRA:                  -1.079
REMARK UNBOUND:                -0.945
REMARK SMILES CC(=O)CCC=C(C)CCC=C(C)C
REMARK SMILES IDX 7 1 6 2 8 3 9 4 10 5 11 6 13 7 12 8 14 9 5 10 4 11 2 12 3 13
REMARK SMILES IDX 1 14
REMARK H PARENT
REMARK Flexibility Score: inf
ROOT
ATOM      1  C   UNL     1      15.094 -32.717  23.285  1.00  0.00    -0.077 C 
ATOM      2  C   UNL     1      14.990 -33.618  22.282  1.00  0.00    -0.028 C 
ATOM      3  C   UNL     1      16.434 -32.274  23.823  1.00  0.00     0.039 C 
ENDROOT
BRANCH   1   4
ATOM      4  C   UNL     1      13.832 -32.124  23.874  1.00  0.00     0.034 C 
BRANCH   4   5
ATOM      5  C   UNL     1      13.127 -31.225  22.852  1.00  0.00     0.032 C 
BRANCH   5   6
ATOM      6  C   UNL     1      13.087 -29.796  23.334  1.00  0.00    -0.028 C 
ATOM      7  C   UNL     1      15.099 -29.122  22.003  1.00  0.00     0.039 C 
ATOM      8  C   UNL     1      13.951 -28.834  22.941  1.00  0.00    -0.080 C 
ATOM      9  C   UNL     1      13.763 -27.439  23.478  1.00  0.00     0.039 C 
ENDBRANCH   5   6
ENDBRANCH   4   5
ENDBRANCH   1   4
BRANCH   2  10
ATOM     10  C   UNL     1      16.162 -34.320  21.642  1.00  0.00     0.035 C 
BRANCH  10  11
ATOM     11  C   UNL     1      16.390 -33.803  20.218  1.00  0.00     0.079 C 
BRANCH  11  12
ATOM     12  C   UNL     1      17.637 -32.963  20.151  1.00  0.00     0.130 C 
ATOM     13  O   UNL     1      18.692 -33.478  19.811  1.00  0.00    -0.300 OA
ATOM     14  C   UNL     1      17.617 -31.505  20.503  1.00  0.00     0.087 C 
ENDBRANCH  11  12
ENDBRANCH  10  11
ENDBRANCH   2  10
TORSDOF 6
ENDMDL
