MODEL 1
REMARK VINA RESULT:    -3.434      0.000      0.000
REMARK INTER + INTRA:          -5.685
REMARK INTER:                  -5.241
REMARK INTRA:                  -0.444
REMARK UNBOUND:                -0.444
REMARK SMILES CC1=CCC[C@@H](C)C(=O)C[C@@H](C(C)C)C(=O)C1
REMARK SMILES IDX 8 1 9 2 6 3 7 4 5 5 4 6 3 7 2 8 1 9 10 11 11 12 15 13 16 14
REMARK SMILES IDX 17 15 12 17 13 18 14 19
REMARK H PARENT
REMARK Flexibility Score: 70.00
ROOT
ATOM      1  C   UNL     1      12.991  -7.455  18.061  1.00  0.00     0.136 C 
ATOM      2  O   UNL     1      11.862  -7.813  17.757  1.00  0.00    -0.299 OA
ENDROOT
BRANCH   1   3
ATOM      3  C   UNL     1      13.882  -8.372  18.871  1.00  0.00     0.053 C 
ATOM      4  C   UNL     1      13.802  -9.791  18.297  1.00  0.00     0.016 C 
BRANCH   3   5
ATOM      5  C   UNL     1      13.521  -8.382  20.375  1.00  0.00     0.015 C 
BRANCH   5   6
ATOM      6  C   UNL     1      14.528  -7.621  21.259  1.00  0.00     0.028 C 
BRANCH   6   7
ATOM      7  C   UNL     1      14.018  -6.246  21.629  1.00  0.00    -0.028 C 
ATOM      8  C   UNL     1      14.550  -5.061  21.248  1.00  0.00    -0.070 CG0
ATOM      9  C   UNL     1      13.902  -3.799  21.763  1.00  0.00     0.039 C 
ATOM     10  G   UNL     1      15.708  -4.929  20.280  1.00  0.00     0.000 G0
ENDBRANCH   6   7
ENDBRANCH   5   6
ENDBRANCH   3   5
ENDBRANCH   1   3
BRANCH   1  11
ATOM     11  C   UNL     1      13.492  -6.108  17.599  1.00  0.00     0.087 C 
BRANCH  11  12
ATOM     12  C   UNL     1      14.990  -5.904  17.922  1.00  0.00     0.066 C 
BRANCH  12  13
ATOM     13  C   UNL     1      15.185  -4.718  18.848  1.00  0.00     0.140 C 
ATOM     14  O   UNL     1      14.874  -3.596  18.475  1.00  0.00    -0.299 OA
BRANCH  13  15
ATOM     15  C   UNL     1      15.713  -4.900  20.245  1.00  0.00     0.106 CG0
ATOM     16  G   UNL     1      14.562  -5.041  21.220  1.00  0.00     0.000 G0
ENDBRANCH  13  15
ENDBRANCH  12  13
BRANCH  12  17
ATOM     17  C   UNL     1      15.868  -5.821  16.637  1.00  0.00    -0.006 C 
ATOM     18  C   UNL     1      17.193  -6.600  16.722  1.00  0.00     0.008 C 
ATOM     19  C   UNL     1      15.077  -6.267  15.397  1.00  0.00     0.008 C 
ENDBRANCH  12  17
ENDBRANCH  11  12
ENDBRANCH   1  11
TORSDOF 1
ENDMDL
MODEL 2
REMARK VINA RESULT:    -3.381      2.708      4.630
REMARK INTER + INTRA:          -5.604
REMARK INTER:                  -5.165
REMARK INTRA:                  -0.439
REMARK UNBOUND:                -0.444
REMARK SMILES CC1=CCC[C@@H](C)C(=O)C[C@@H](C(C)C)C(=O)C1
REMARK SMILES IDX 8 1 9 2 6 3 7 4 5 5 4 6 3 7 2 8 1 9 10 11 11 12 15 13 16 14
REMARK SMILES IDX 17 15 12 17 13 18 14 19
REMARK H PARENT
REMARK Flexibility Score: 70.00
ROOT
ATOM      1  C   UNL     1      15.786  -5.975  18.462  1.00  0.00     0.136 C 
ATOM      2  O   UNL     1      15.653  -4.816  18.832  1.00  0.00    -0.299 OA
ENDROOT
BRANCH   1   3
ATOM      3  C   UNL     1      15.468  -6.351  17.031  1.00  0.00     0.053 C 
ATOM      4  C   UNL     1      16.150  -5.359  16.083  1.00  0.00     0.016 C 
BRANCH   3   5
ATOM      5  C   UNL     1      13.948  -6.402  16.750  1.00  0.00     0.015 C 
BRANCH   5   6
ATOM      6  C   UNL     1      13.344  -7.815  16.862  1.00  0.00     0.028 C 
BRANCH   6   7
ATOM      7  C   UNL     1      12.657  -8.025  18.193  1.00  0.00    -0.028 C 
ATOM      8  C   UNL     1      12.959  -8.972  19.113  1.00  0.00    -0.070 CG0
ATOM      9  C   UNL     1      12.121  -9.029  20.366  1.00  0.00     0.039 C 
ATOM     10  G   UNL     1      14.130  -9.925  18.989  1.00  0.00     0.000 G0
ENDBRANCH   6   7
ENDBRANCH   5   6
ENDBRANCH   3   5
ENDBRANCH   1   3
BRANCH   1  11
ATOM     11  C   UNL     1      16.295  -7.010  19.436  1.00  0.00     0.087 C 
BRANCH  11  12
ATOM     12  C   UNL     1      16.286  -8.431  18.827  1.00  0.00     0.066 C 
BRANCH  12  13
ATOM     13  C   UNL     1      15.373  -9.351  19.617  1.00  0.00     0.140 C 
ATOM     14  O   UNL     1      15.621  -9.594  20.790  1.00  0.00    -0.299 OA
BRANCH  13  15
ATOM     15  C   UNL     1      14.134  -9.937  18.998  1.00  0.00     0.106 CG0
ATOM     16  G   UNL     1      12.982  -8.960  19.119  1.00  0.00     0.000 G0
ENDBRANCH  13  15
ENDBRANCH  12  13
BRANCH  12  17
ATOM     17  C   UNL     1      17.723  -9.008  18.649  1.00  0.00    -0.006 C 
ATOM     18  C   UNL     1      17.992  -9.624  17.264  1.00  0.00     0.008 C 
ATOM     19  C   UNL     1      18.789  -7.948  18.967  1.00  0.00     0.008 C 
ENDBRANCH  12  17
ENDBRANCH  11  12
ENDBRANCH   1  11
TORSDOF 1
ENDMDL
MODEL 3
REMARK VINA RESULT:    -3.344      2.543      4.575
REMARK INTER + INTRA:          -5.547
REMARK INTER:                  -5.321
REMARK INTRA:                  -0.226
REMARK UNBOUND:                -0.444
REMARK SMILES CC1=CCC[C@@H](C)C(=O)C[C@@H](C(C)C)C(=O)C1
REMARK SMILES IDX 8 1 9 2 6 3 7 4 5 5 4 6 3 7 2 8 1 9 10 11 11 12 15 13 16 14
REMARK SMILES IDX 17 15 12 17 13 18 14 19
REMARK H PARENT
REMARK Flexibility Score: 70.00
ROOT
ATOM      1  C   UNL     1      17.245  -6.977  17.589  1.00  0.00     0.136 C 
ATOM      2  O   UNL     1      17.964  -7.141  16.613  1.00  0.00    -0.299 OA
ENDROOT
BRANCH   1   3
ATOM      3  C   UNL     1      17.427  -7.844  18.816  1.00  0.00     0.053 C 
ATOM      4  C   UNL     1      18.888  -7.774  19.273  1.00  0.00     0.016 C 
BRANCH   3   5
ATOM      5  C   UNL     1      17.012  -9.314  18.575  1.00  0.00     0.015 C 
BRANCH   5   6
ATOM      6  C   UNL     1      15.614  -9.661  19.123  1.00  0.00     0.028 C 
BRANCH   6   7
ATOM      7  C   UNL     1      14.633  -9.952  18.009  1.00  0.00    -0.028 C 
ATOM      8  C   UNL     1      13.508  -9.254  17.725  1.00  0.00    -0.070 CG0
ATOM      9  C   UNL     1      12.648  -9.739  16.585  1.00  0.00     0.039 C 
ATOM     10  G   UNL     1      13.106  -7.978  18.436  1.00  0.00     0.000 G0
ENDBRANCH   6   7
ENDBRANCH   5   6
ENDBRANCH   3   5
ENDBRANCH   1   3
BRANCH   1  11
ATOM     11  C   UNL     1      16.202  -5.886  17.566  1.00  0.00     0.087 C 
BRANCH  11  12
ATOM     12  C   UNL     1      15.046  -6.168  18.552  1.00  0.00     0.066 C 
BRANCH  12  13
ATOM     13  C   UNL     1      13.866  -6.798  17.835  1.00  0.00     0.140 C 
ATOM     14  O   UNL     1      13.530  -6.382  16.734  1.00  0.00    -0.299 OA
BRANCH  13  15
ATOM     15  C   UNL     1      13.124  -7.963  18.430  1.00  0.00     0.106 CG0
ATOM     16  G   UNL     1      13.524  -9.245  17.728  1.00  0.00     0.000 G0
ENDBRANCH  13  15
ENDBRANCH  12  13
BRANCH  12  17
ATOM     17  C   UNL     1      14.651  -4.908  19.380  1.00  0.00    -0.006 C 
ATOM     18  C   UNL     1      15.223  -4.881  20.808  1.00  0.00     0.008 C 
ATOM     19  C   UNL     1      15.033  -3.617  18.638  1.00  0.00     0.008 C 
ENDBRANCH  12  17
ENDBRANCH  11  12
ENDBRANCH   1  11
TORSDOF 1
ENDMDL
MODEL 4
REMARK VINA RESULT:    -3.103      1.800      3.920
REMARK INTER + INTRA:          -5.180
REMARK INTER:                  -4.944
REMARK INTRA:                  -0.236
REMARK UNBOUND:                -0.444
REMARK SMILES CC1=CCC[C@@H](C)C(=O)C[C@@H](C(C)C)C(=O)C1
REMARK SMILES IDX 8 1 9 2 6 3 7 4 5 5 4 6 3 7 2 8 1 9 10 11 11 12 15 13 16 14
REMARK SMILES IDX 17 15 12 17 13 18 14 19
REMARK H PARENT
REMARK Flexibility Score: 70.00
ROOT
ATOM      1  C   UNL     1      14.616  -8.527  18.574  1.00  0.00     0.136 C 
ATOM      2  O   UNL     1      15.426  -9.066  17.833  1.00  0.00    -0.299 OA
ENDROOT
BRANCH   1   3
ATOM      3  C   UNL     1      13.281  -8.068  18.028  1.00  0.00     0.053 C 
ATOM      4  C   UNL     1      12.717  -9.146  17.096  1.00  0.00     0.016 C 
BRANCH   3   5
ATOM      5  C   UNL     1      13.372  -6.714  17.286  1.00  0.00     0.015 C 
BRANCH   5   6
ATOM      6  C   UNL     1      14.730  -6.005  17.454  1.00  0.00     0.028 C 
BRANCH   6   7
ATOM      7  C   UNL     1      14.587  -4.691  18.190  1.00  0.00    -0.028 C 
ATOM      8  C   UNL     1      14.863  -4.466  19.496  1.00  0.00    -0.070 CG0
ATOM      9  C   UNL     1      14.614  -3.081  20.040  1.00  0.00     0.039 C 
ATOM     10  G   UNL     1      15.473  -5.501  20.419  1.00  0.00     0.000 G0
ENDBRANCH   6   7
ENDBRANCH   5   6
ENDBRANCH   3   5
ENDBRANCH   1   3
BRANCH   1  11
ATOM     11  C   UNL     1      14.950  -8.352  20.036  1.00  0.00     0.087 C 
BRANCH  11  12
ATOM     12  C   UNL     1      13.867  -7.544  20.786  1.00  0.00     0.066 C 
BRANCH  12  13
ATOM     13  C   UNL     1      14.406  -6.194  21.222  1.00  0.00     0.140 C 
ATOM     14  O   UNL     1      13.991  -5.675  22.248  1.00  0.00    -0.299 OA
BRANCH  13  15
ATOM     15  C   UNL     1      15.485  -5.497  20.438  1.00  0.00     0.106 CG0
ATOM     16  G   UNL     1      14.869  -4.466  19.513  1.00  0.00     0.000 G0
ENDBRANCH  13  15
ENDBRANCH  12  13
BRANCH  12  17
ATOM     17  C   UNL     1      13.230  -8.351  21.958  1.00  0.00    -0.006 C 
ATOM     18  C   UNL     1      11.951  -9.118  21.578  1.00  0.00     0.008 C 
ATOM     19  C   UNL     1      14.251  -9.312  22.587  1.00  0.00     0.008 C 
ENDBRANCH  12  17
ENDBRANCH  11  12
ENDBRANCH   1  11
TORSDOF 1
ENDMDL
MODEL 5
REMARK VINA RESULT:    -3.061      2.630      4.678
REMARK INTER + INTRA:          -5.116
REMARK INTER:                  -5.205
REMARK INTRA:                   0.089
REMARK UNBOUND:                -0.444
REMARK SMILES CC1=CCC[C@@H](C)C(=O)C[C@@H](C(C)C)C(=O)C1
REMARK SMILES IDX 8 1 9 2 6 3 7 4 5 5 4 6 3 7 2 8 1 9 10 11 11 12 15 13 16 14
REMARK SMILES IDX 17 15 12 17 13 18 14 19
REMARK H PARENT
REMARK Flexibility Score: 70.00
ROOT
ATOM      1  C   UNL     1      15.964  -7.737  19.557  1.00  0.00     0.136 C 
ATOM      2  O   UNL     1      16.448  -6.630  19.752  1.00  0.00    -0.299 OA
ENDROOT
BRANCH   1   3
ATOM      3  C   UNL     1      16.869  -8.934  19.366  1.00  0.00     0.053 C 
ATOM      4  C   UNL     1      17.633  -9.204  20.667  1.00  0.00     0.016 C 
BRANCH   3   5
ATOM      5  C   UNL     1      17.860  -8.754  18.192  1.00  0.00     0.015 C 
BRANCH   5   6
ATOM      6  C   UNL     1      17.179  -8.395  16.857  1.00  0.00     0.028 C 
BRANCH   6   7
ATOM      7  C   UNL     1      17.165  -6.900  16.622  1.00  0.00    -0.028 C 
ATOM      8  C   UNL     1      16.109  -6.161  16.206  1.00  0.00    -0.070 CG0
ATOM      9  C   UNL     1      16.322  -4.682  16.000  1.00  0.00     0.039 C 
ATOM     10  G   UNL     1      14.715  -6.720  16.008  1.00  0.00     0.000 G0
ENDBRANCH   6   7
ENDBRANCH   5   6
ENDBRANCH   3   5
ENDBRANCH   1   3
BRANCH   1  11
ATOM     11  C   UNL     1      14.463  -7.896  19.538  1.00  0.00     0.087 C 
BRANCH  11  12
ATOM     12  C   UNL     1      13.919  -8.101  18.106  1.00  0.00     0.066 C 
BRANCH  12  13
ATOM     13  C   UNL     1      13.972  -6.805  17.318  1.00  0.00     0.140 C 
ATOM     14  O   UNL     1      13.444  -5.797  17.768  1.00  0.00    -0.299 OA
BRANCH  13  15
ATOM     15  C   UNL     1      14.705  -6.719  16.007  1.00  0.00     0.106 CG0
ATOM     16  G   UNL     1      16.102  -6.175  16.230  1.00  0.00     0.000 G0
ENDBRANCH  13  15
ENDBRANCH  12  13
BRANCH  12  17
ATOM     17  C   UNL     1      12.507  -8.761  18.096  1.00  0.00    -0.006 C 
ATOM     18  C   UNL     1      12.168  -9.515  16.798  1.00  0.00     0.008 C 
ATOM     19  C   UNL     1      12.323  -9.691  19.305  1.00  0.00     0.008 C 
ENDBRANCH  12  17
ENDBRANCH  11  12
ENDBRANCH   1  11
TORSDOF 1
ENDMDL
MODEL 6
REMARK VINA RESULT:    -2.940      2.615      4.385
REMARK INTER + INTRA:          -4.931
REMARK INTER:                  -5.331
REMARK INTRA:                   0.399
REMARK UNBOUND:                -0.444
REMARK SMILES CC1=CCC[C@@H](C)C(=O)C[C@@H](C(C)C)C(=O)C1
REMARK SMILES IDX 8 1 9 2 6 3 7 4 5 5 4 6 3 7 2 8 1 9 10 11 11 12 15 13 16 14
REMARK SMILES IDX 17 15 12 17 13 18 14 19
REMARK H PARENT
REMARK Flexibility Score: 70.00
ROOT
ATOM      1  C   UNL     1      17.335  -7.212  17.269  1.00  0.00     0.136 C 
ATOM      2  O   UNL     1      16.973  -7.965  16.377  1.00  0.00    -0.299 OA
ENDROOT
BRANCH   1   3
ATOM      3  C   UNL     1      18.701  -7.386  17.898  1.00  0.00     0.053 C 
ATOM      4  C   UNL     1      19.570  -8.258  16.986  1.00  0.00     0.016 C 
BRANCH   3   5
ATOM      5  C   UNL     1      18.632  -7.998  19.316  1.00  0.00     0.015 C 
BRANCH   5   6
ATOM      6  C   UNL     1      17.850  -9.324  19.382  1.00  0.00     0.028 C 
BRANCH   6   7
ATOM      7  C   UNL     1      16.763  -9.280  20.433  1.00  0.00    -0.028 C 
ATOM      8  C   UNL     1      15.436  -9.122  20.213  1.00  0.00    -0.070 CG0
ATOM      9  C   UNL     1      14.524  -9.070  21.413  1.00  0.00     0.039 C 
ATOM     10  G   UNL     1      14.811  -9.068  18.834  1.00  0.00     0.000 G0
ENDBRANCH   6   7
ENDBRANCH   5   6
ENDBRANCH   3   5
ENDBRANCH   1   3
BRANCH   1  11
ATOM     11  C   UNL     1      16.420  -6.096  17.713  1.00  0.00     0.087 C 
BRANCH  11  12
ATOM     12  C   UNL     1      15.486  -6.534  18.864  1.00  0.00     0.066 C 
BRANCH  12  13
ATOM     13  C   UNL     1      14.566  -7.654  18.414  1.00  0.00     0.140 C 
ATOM     14  O   UNL     1      13.641  -7.414  17.650  1.00  0.00    -0.299 OA
BRANCH  13  15
ATOM     15  C   UNL     1      14.796  -9.075  18.853  1.00  0.00     0.106 CG0
ATOM     16  G   UNL     1      15.435  -9.096  20.226  1.00  0.00     0.000 G0
ENDBRANCH  13  15
ENDBRANCH  12  13
BRANCH  12  17
ATOM     17  C   UNL     1      14.718  -5.334  19.495  1.00  0.00    -0.006 C 
ATOM     18  C   UNL     1      14.984  -5.129  20.996  1.00  0.00     0.008 C 
ATOM     19  C   UNL     1      15.002  -4.032  18.729  1.00  0.00     0.008 C 
ENDBRANCH  12  17
ENDBRANCH  11  12
ENDBRANCH   1  11
TORSDOF 1
ENDMDL
MODEL 7
REMARK VINA RESULT:    -2.929      2.393      4.996
REMARK INTER + INTRA:          -4.914
REMARK INTER:                  -4.953
REMARK INTRA:                   0.039
REMARK UNBOUND:                -0.444
REMARK SMILES CC1=CCC[C@@H](C)C(=O)C[C@@H](C(C)C)C(=O)C1
REMARK SMILES IDX 8 1 9 2 6 3 7 4 5 5 4 6 3 7 2 8 1 9 10 11 11 12 15 13 16 14
REMARK SMILES IDX 17 15 12 17 13 18 14 19
REMARK H PARENT
REMARK Flexibility Score: 70.00
ROOT
ATOM      1  C   UNL     1      13.811  -6.165  17.828  1.00  0.00     0.136 C 
ATOM      2  O   UNL     1      12.842  -5.631  17.307  1.00  0.00    -0.299 OA
ENDROOT
BRANCH   1   3
ATOM      3  C   UNL     1      14.956  -5.317  18.339  1.00  0.00     0.053 C 
ATOM      4  C   UNL     1      14.394  -4.070  19.029  1.00  0.00     0.016 C 
BRANCH   3   5
ATOM      5  C   UNL     1      15.944  -4.910  17.220  1.00  0.00     0.015 C 
BRANCH   5   6
ATOM      6  C   UNL     1      16.447  -6.096  16.376  1.00  0.00     0.028 C 
BRANCH   6   7
ATOM      7  C   UNL     1      17.652  -6.760  17.007  1.00  0.00    -0.028 C 
ATOM      8  C   UNL     1      17.660  -7.927  17.693  1.00  0.00    -0.070 CG0
ATOM      9  C   UNL     1      18.972  -8.394  18.273  1.00  0.00     0.039 C 
ATOM     10  G   UNL     1      16.448  -8.823  17.847  1.00  0.00     0.000 G0
ENDBRANCH   6   7
ENDBRANCH   5   6
ENDBRANCH   3   5
ENDBRANCH   1   3
BRANCH   1  11
ATOM     11  C   UNL     1      13.839  -7.667  17.979  1.00  0.00     0.087 C 
BRANCH  11  12
ATOM     12  C   UNL     1      14.412  -8.101  19.348  1.00  0.00     0.066 C 
BRANCH  12  13
ATOM     13  C   UNL     1      15.821  -8.644  19.195  1.00  0.00     0.140 C 
ATOM     14  O   UNL     1      16.456  -8.975  20.186  1.00  0.00    -0.299 OA
BRANCH  13  15
ATOM     15  C   UNL     1      16.441  -8.828  17.837  1.00  0.00     0.106 CG0
ATOM     16  G   UNL     1      17.651  -7.927  17.693  1.00  0.00     0.000 G0
ENDBRANCH  13  15
ENDBRANCH  12  13
BRANCH  12  17
ATOM     17  C   UNL     1      13.463  -9.079  20.104  1.00  0.00    -0.006 C 
ATOM     18  C   UNL     1      13.132  -8.654  21.546  1.00  0.00     0.008 C 
ATOM     19  C   UNL     1      12.165  -9.311  19.315  1.00  0.00     0.008 C 
ENDBRANCH  12  17
ENDBRANCH  11  12
ENDBRANCH   1  11
TORSDOF 1
ENDMDL
MODEL 8
REMARK VINA RESULT:    -2.916      2.228      4.356
REMARK INTER + INTRA:          -4.894
REMARK INTER:                  -4.885
REMARK INTRA:                  -0.009
REMARK UNBOUND:                -0.444
REMARK SMILES CC1=CCC[C@@H](C)C(=O)C[C@@H](C(C)C)C(=O)C1
REMARK SMILES IDX 8 1 9 2 6 3 7 4 5 5 4 6 3 7 2 8 1 9 10 11 11 12 15 13 16 14
REMARK SMILES IDX 17 15 12 17 13 18 14 19
REMARK H PARENT
REMARK Flexibility Score: 70.00
ROOT
ATOM      1  C   UNL     1      17.205  -8.493  18.597  1.00  0.00     0.136 C 
ATOM      2  O   UNL     1      17.945  -8.081  19.479  1.00  0.00    -0.299 OA
ENDROOT
BRANCH   1   3
ATOM      3  C   UNL     1      17.577  -8.289  17.144  1.00  0.00     0.053 C 
ATOM      4  C   UNL     1      18.853  -9.078  16.832  1.00  0.00     0.016 C 
BRANCH   3   5
ATOM      5  C   UNL     1      17.767  -6.798  16.779  1.00  0.00     0.015 C 
BRANCH   5   6
ATOM      6  C   UNL     1      16.453  -6.072  16.432  1.00  0.00     0.028 C 
BRANCH   6   7
ATOM      7  C   UNL     1      16.087  -5.046  17.482  1.00  0.00    -0.028 C 
ATOM      8  C   UNL     1      14.952  -5.019  18.219  1.00  0.00    -0.070 CG0
ATOM      9  C   UNL     1      14.769  -3.881  19.191  1.00  0.00     0.039 C 
ATOM     10  G   UNL     1      13.892  -6.102  18.175  1.00  0.00     0.000 G0
ENDBRANCH   6   7
ENDBRANCH   5   6
ENDBRANCH   3   5
ENDBRANCH   1   3
BRANCH   1  11
ATOM     11  C   UNL     1      15.942  -9.229  18.971  1.00  0.00     0.087 C 
BRANCH  11  12
ATOM     12  C   UNL     1      14.691  -8.606  18.310  1.00  0.00     0.066 C 
BRANCH  12  13
ATOM     13  C   UNL     1      14.315  -7.301  18.987  1.00  0.00     0.140 C 
ATOM     14  O   UNL     1      14.406  -7.198  20.202  1.00  0.00    -0.299 OA
BRANCH  13  15
ATOM     15  C   UNL     1      13.875  -6.107  18.185  1.00  0.00     0.106 CG0
ATOM     16  G   UNL     1      14.949  -5.038  18.216  1.00  0.00     0.000 G0
ENDBRANCH  13  15
ENDBRANCH  12  13
BRANCH  12  17
ATOM     17  C   UNL     1      13.502  -9.611  18.226  1.00  0.00    -0.006 C 
ATOM     18  C   UNL     1      12.422  -9.407  19.303  1.00  0.00     0.008 C 
ATOM     19  C   UNL     1      12.861  -9.594  16.830  1.00  0.00     0.008 C 
ENDBRANCH  12  17
ENDBRANCH  11  12
ENDBRANCH   1  11
TORSDOF 1
ENDMDL
MODEL 9
REMARK VINA RESULT:    -2.796      2.453      3.977
REMARK INTER + INTRA:          -4.710
REMARK INTER:                  -5.458
REMARK INTRA:                   0.748
REMARK UNBOUND:                -0.444
REMARK SMILES CC1=CCC[C@@H](C)C(=O)C[C@@H](C(C)C)C(=O)C1
REMARK SMILES IDX 8 1 9 2 6 3 7 4 5 5 4 6 3 7 2 8 1 9 10 11 11 12 15 13 16 14
REMARK SMILES IDX 17 15 12 17 13 18 14 19
REMARK H PARENT
REMARK Flexibility Score: 70.00
ROOT
ATOM      1  C   UNL     1      13.459  -6.901  17.112  1.00  0.00     0.136 C 
ATOM      2  O   UNL     1      12.752  -5.916  17.271  1.00  0.00    -0.299 OA
ENDROOT
BRANCH   1   3
ATOM      3  C   UNL     1      12.961  -8.266  17.538  1.00  0.00     0.053 C 
ATOM      4  C   UNL     1      11.516  -8.144  18.034  1.00  0.00     0.016 C 
BRANCH   3   5
ATOM      5  C   UNL     1      13.848  -8.913  18.627  1.00  0.00     0.015 C 
BRANCH   5   6
ATOM      6  C   UNL     1      14.771 -10.025  18.093  1.00  0.00     0.028 C 
BRANCH   6   7
ATOM      7  C   UNL     1      16.142  -9.968  18.732  1.00  0.00    -0.028 C 
ATOM      8  C   UNL     1      17.202  -9.246  18.297  1.00  0.00    -0.070 CG0
ATOM      9  C   UNL     1      18.494  -9.361  19.066  1.00  0.00     0.039 C 
ATOM     10  G   UNL     1      17.143  -8.279  17.132  1.00  0.00     0.000 G0
ENDBRANCH   6   7
ENDBRANCH   5   6
ENDBRANCH   3   5
ENDBRANCH   1   3
BRANCH   1  11
ATOM     11  C   UNL     1      14.814  -6.745  16.464  1.00  0.00     0.087 C 
BRANCH  11  12
ATOM     12  C   UNL     1      15.813  -6.002  17.381  1.00  0.00     0.066 C 
BRANCH  12  13
ATOM     13  C   UNL     1      17.048  -6.848  17.630  1.00  0.00     0.140 C 
ATOM     14  O   UNL     1      17.978  -6.392  18.280  1.00  0.00    -0.299 OA
BRANCH  13  15
ATOM     15  C   UNL     1      17.135  -8.265  17.130  1.00  0.00     0.106 CG0
ATOM     16  G   UNL     1      17.193  -9.224  18.300  1.00  0.00     0.000 G0
ENDBRANCH  13  15
ENDBRANCH  12  13
BRANCH  12  17
ATOM     17  C   UNL     1      15.147  -5.497  18.697  1.00  0.00    -0.006 C 
ATOM     18  C   UNL     1      15.736  -6.108  19.981  1.00  0.00     0.008 C 
ATOM     19  C   UNL     1      15.184  -3.963  18.781  1.00  0.00     0.008 C 
ENDBRANCH  12  17
ENDBRANCH  11  12
ENDBRANCH   1  11
TORSDOF 1
ENDMDL
