MODEL 1
REMARK VINA RESULT:    -2.909      0.000      0.000
REMARK INTER + INTRA:          -2.994
REMARK INTER:                  -2.994
REMARK INTRA:                   0.000
REMARK UNBOUND:                 0.000
REMARK SMILES C[C@H]1CC[C@@H]2C(C)(C)[C@H]3C[C@]21CC[C@@]3(C)O
REMARK SMILES IDX 1 1 2 2 3 3 4 4 5 5 11 6 12 7 13 8 14 9 9 10 10 11 6 12 7 13
REMARK SMILES IDX 8 14 15 15 16 16
REMARK H PARENT 16 17
REMARK Flexibility Score: inf
ROOT
ATOM      1  C   UNL     1     130.125 112.918 119.044  1.00  0.00     0.008 C 
ATOM      2  C   UNL     1     128.816 113.542 118.529  1.00  0.00    -0.008 C 
ATOM      3  C   UNL     1     127.866 112.488 117.867  1.00  0.00     0.004 C 
ATOM      4  C   UNL     1     126.622 112.341 118.784  1.00  0.00     0.005 C 
ATOM      5  C   UNL     1     127.118 112.961 120.070  1.00  0.00     0.001 C 
ATOM      6  C   UNL     1     127.926 114.169 119.629  1.00  0.00    -0.023 C 
ATOM      7  C   UNL     1     127.135 115.365 118.969  1.00  0.00     0.010 C 
ATOM      8  C   UNL     1     126.149 116.174 119.852  1.00  0.00     0.036 C 
ATOM      9  C   UNL     1     126.351 116.047 121.396  1.00  0.00     0.065 C 
ATOM     10  C   UNL     1     127.084 114.714 121.756  1.00  0.00     0.027 C 
ATOM     11  C   UNL     1     128.434 114.643 120.978  1.00  0.00     0.014 C 
ATOM     12  C   UNL     1     126.325 113.376 121.332  1.00  0.00    -0.026 C 
ATOM     13  C   UNL     1     126.526 112.333 122.465  1.00  0.00     0.012 C 
ATOM     14  C   UNL     1     124.803 113.421 121.056  1.00  0.00     0.012 C 
ATOM     15  C   UNL     1     127.150 117.268 121.924  1.00  0.00     0.042 C 
ENDROOT
BRANCH   9  16
ATOM     16  O   UNL     1     125.104 116.061 122.051  1.00  0.00    -0.390 OA
ATOM     17  H   UNL     1     125.038 115.247 122.616  1.00  0.00     0.211 HD
ENDBRANCH   9  16
TORSDOF 1
ENDMDL
MODEL 2
REMARK VINA RESULT:    -2.895     11.010     13.366
REMARK INTER + INTRA:          -2.979
REMARK INTER:                  -2.979
REMARK INTRA:                   0.000
REMARK UNBOUND:                 0.000
REMARK SMILES C[C@H]1CC[C@@H]2C(C)(C)[C@H]3C[C@]21CC[C@@]3(C)O
REMARK SMILES IDX 1 1 2 2 3 3 4 4 5 5 11 6 12 7 13 8 14 9 9 10 10 11 6 12 7 13
REMARK SMILES IDX 8 14 15 15 16 16
REMARK H PARENT 16 17
REMARK Flexibility Score: inf
ROOT
ATOM      1  C   UNL     1     126.204 130.125 118.986  1.00  0.00     0.008 C 
ATOM      2  C   UNL     1     125.588 128.808 118.484  1.00  0.00    -0.008 C 
ATOM      3  C   UNL     1     126.650 127.850 117.848  1.00  0.00     0.004 C 
ATOM      4  C   UNL     1     126.788 126.619 118.785  1.00  0.00     0.005 C 
ATOM      5  C   UNL     1     126.154 127.134 120.056  1.00  0.00     0.001 C 
ATOM      6  C   UNL     1     124.950 127.933 119.591  1.00  0.00    -0.023 C 
ATOM      7  C   UNL     1     123.762 127.131 118.930  1.00  0.00     0.010 C 
ATOM      8  C   UNL     1     122.945 126.157 119.819  1.00  0.00     0.036 C 
ATOM      9  C   UNL     1     123.054 126.382 121.360  1.00  0.00     0.065 C 
ATOM     10  C   UNL     1     124.383 127.122 121.724  1.00  0.00     0.027 C 
ATOM     11  C   UNL     1     124.461 128.460 120.926  1.00  0.00     0.014 C 
ATOM     12  C   UNL     1     125.726 126.359 121.325  1.00  0.00    -0.026 C 
ATOM     13  C   UNL     1     126.757 126.579 122.467  1.00  0.00     0.012 C 
ATOM     14  C   UNL     1     125.686 124.833 121.072  1.00  0.00     0.012 C 
ATOM     15  C   UNL     1     121.827 127.188 121.864  1.00  0.00     0.042 C 
ENDROOT
BRANCH   9  16
ATOM     16  O   UNL     1     123.035 125.146 122.034  1.00  0.00    -0.390 OA
ATOM     17  H   UNL     1     122.301 124.593 121.655  1.00  0.00     0.211 HD
ENDBRANCH   9  16
TORSDOF 1
ENDMDL
MODEL 3
REMARK VINA RESULT:    -2.807     11.851     13.745
REMARK INTER + INTRA:          -2.889
REMARK INTER:                  -2.889
REMARK INTRA:                   0.000
REMARK UNBOUND:                 0.000
REMARK SMILES C[C@H]1CC[C@@H]2C(C)(C)[C@H]3C[C@]21CC[C@@]3(C)O
REMARK SMILES IDX 1 1 2 2 3 3 4 4 5 5 11 6 12 7 13 8 14 9 9 10 10 11 6 12 7 13
REMARK SMILES IDX 8 14 15 15 16 16
REMARK H PARENT 16 17
REMARK Flexibility Score: inf
ROOT
ATOM      1  C   UNL     1     129.171 125.192 116.567  1.00  0.00     0.008 C 
ATOM      2  C   UNL     1     128.779 125.277 118.052  1.00  0.00    -0.008 C 
ATOM      3  C   UNL     1     130.022 125.393 118.998  1.00  0.00     0.004 C 
ATOM      4  C   UNL     1     129.997 126.813 119.627  1.00  0.00     0.005 C 
ATOM      5  C   UNL     1     129.037 127.534 118.710  1.00  0.00     0.001 C 
ATOM      6  C   UNL     1     127.940 126.523 118.427  1.00  0.00    -0.023 C 
ATOM      7  C   UNL     1     127.004 126.116 119.631  1.00  0.00     0.010 C 
ATOM      8  C   UNL     1     126.053 127.189 120.221  1.00  0.00     0.036 C 
ATOM      9  C   UNL     1     125.762 128.422 119.308  1.00  0.00     0.065 C 
ATOM     10  C   UNL     1     126.911 128.631 118.269  1.00  0.00     0.027 C 
ATOM     11  C   UNL     1     127.104 127.321 117.445  1.00  0.00     0.014 C 
ATOM     12  C   UNL     1     128.354 128.911 118.887  1.00  0.00    -0.026 C 
ATOM     13  C   UNL     1     129.054 129.980 118.002  1.00  0.00     0.012 C 
ATOM     14  C   UNL     1     128.471 129.419 120.344  1.00  0.00     0.012 C 
ATOM     15  C   UNL     1     124.402 128.233 118.585  1.00  0.00     0.042 C 
ENDROOT
BRANCH   9  16
ATOM     16  O   UNL     1     125.650 129.589 120.089  1.00  0.00    -0.390 OA
ATOM     17  H   UNL     1     126.553 129.829 120.425  1.00  0.00     0.211 HD
ENDBRANCH   9  16
TORSDOF 1
ENDMDL
MODEL 4
REMARK VINA RESULT:    -2.752     10.756     13.756
REMARK INTER + INTRA:          -2.832
REMARK INTER:                  -2.832
REMARK INTRA:                   0.000
REMARK UNBOUND:                 0.000
REMARK SMILES C[C@H]1CC[C@@H]2C(C)(C)[C@H]3C[C@]21CC[C@@]3(C)O
REMARK SMILES IDX 1 1 2 2 3 3 4 4 5 5 11 6 12 7 13 8 14 9 9 10 10 11 6 12 7 13
REMARK SMILES IDX 8 14 15 15 16 16
REMARK H PARENT 16 17
REMARK Flexibility Score: inf
ROOT
ATOM      1  C   UNL     1     124.128 128.144 119.644  1.00  0.00     0.008 C 
ATOM      2  C   UNL     1     125.237 128.363 118.601  1.00  0.00    -0.008 C 
ATOM      3  C   UNL     1     125.812 129.819 118.630  1.00  0.00     0.004 C 
ATOM      4  C   UNL     1     127.274 129.733 119.145  1.00  0.00     0.005 C 
ATOM      5  C   UNL     1     127.296 128.355 119.764  1.00  0.00     0.001 C 
ATOM      6  C   UNL     1     126.498 127.489 118.807  1.00  0.00    -0.023 C 
ATOM      7  C   UNL     1     127.123 127.221 117.383  1.00  0.00     0.010 C 
ATOM      8  C   UNL     1     128.416 126.369 117.293  1.00  0.00     0.036 C 
ATOM      9  C   UNL     1     128.734 125.476 118.534  1.00  0.00     0.065 C 
ATOM     10  C   UNL     1     128.051 126.043 119.821  1.00  0.00     0.027 C 
ATOM     11  C   UNL     1     126.517 126.178 119.570  1.00  0.00     0.014 C 
ATOM     12  C   UNL     1     128.501 127.512 120.247  1.00  0.00    -0.026 C 
ATOM     13  C   UNL     1     128.601 127.550 121.798  1.00  0.00     0.012 C 
ATOM     14  C   UNL     1     129.839 128.081 119.717  1.00  0.00     0.012 C 
ATOM     15  C   UNL     1     128.271 124.019 118.268  1.00  0.00     0.042 C 
ENDROOT
BRANCH   9  16
ATOM     16  O   UNL     1     130.125 125.428 118.753  1.00  0.00    -0.390 OA
ATOM     17  H   UNL     1     130.585 125.577 117.885  1.00  0.00     0.211 HD
ENDBRANCH   9  16
TORSDOF 1
ENDMDL
MODEL 5
REMARK VINA RESULT:    -2.720     12.076     13.806
REMARK INTER + INTRA:          -2.800
REMARK INTER:                  -2.800
REMARK INTRA:                   0.000
REMARK UNBOUND:                 0.000
REMARK SMILES C[C@H]1CC[C@@H]2C(C)(C)[C@H]3C[C@]21CC[C@@]3(C)O
REMARK SMILES IDX 1 1 2 2 3 3 4 4 5 5 11 6 12 7 13 8 14 9 9 10 10 11 6 12 7 13
REMARK SMILES IDX 8 14 15 15 16 16
REMARK H PARENT 16 17
REMARK Flexibility Score: inf
ROOT
ATOM      1  C   UNL     1     130.118 125.137 117.605  1.00  0.00     0.008 C 
ATOM      2  C   UNL     1     129.770 126.565 117.148  1.00  0.00    -0.008 C 
ATOM      3  C   UNL     1     128.876 126.585 115.863  1.00  0.00     0.004 C 
ATOM      4  C   UNL     1     127.479 127.123 116.275  1.00  0.00     0.005 C 
ATOM      5  C   UNL     1     127.526 126.968 117.777  1.00  0.00     0.001 C 
ATOM      6  C   UNL     1     128.934 127.380 118.164  1.00  0.00    -0.023 C 
ATOM      7  C   UNL     1     129.319 128.900 117.977  1.00  0.00     0.010 C 
ATOM      8  C   UNL     1     128.616 129.954 118.872  1.00  0.00     0.036 C 
ATOM      9  C   UNL     1     127.943 129.410 120.171  1.00  0.00     0.065 C 
ATOM     10  C   UNL     1     127.592 127.893 120.026  1.00  0.00     0.027 C 
ATOM     11  C   UNL     1     128.883 127.100 119.654  1.00  0.00     0.014 C 
ATOM     12  C   UNL     1     126.571 127.534 118.855  1.00  0.00    -0.026 C 
ATOM     13  C   UNL     1     125.620 126.419 119.375  1.00  0.00     0.012 C 
ATOM     14  C   UNL     1     125.657 128.641 118.277  1.00  0.00     0.012 C 
ATOM     15  C   UNL     1     128.882 129.637 121.386  1.00  0.00     0.042 C 
ENDROOT
BRANCH   9  16
ATOM     16  O   UNL     1     126.755 130.118 120.437  1.00  0.00    -0.390 OA
ATOM     17  H   UNL     1     126.488 130.602 119.612  1.00  0.00     0.211 HD
ENDBRANCH   9  16
TORSDOF 1
ENDMDL
MODEL 6
REMARK VINA RESULT:    -2.720     11.849     14.175
REMARK INTER + INTRA:          -2.799
REMARK INTER:                  -2.799
REMARK INTRA:                   0.000
REMARK UNBOUND:                 0.000
REMARK SMILES C[C@H]1CC[C@@H]2C(C)(C)[C@H]3C[C@]21CC[C@@]3(C)O
REMARK SMILES IDX 1 1 2 2 3 3 4 4 5 5 11 6 12 7 13 8 14 9 9 10 10 11 6 12 7 13
REMARK SMILES IDX 8 14 15 15 16 16
REMARK H PARENT 16 17
REMARK Flexibility Score: inf
ROOT
ATOM      1  C   UNL     1     123.708 124.929 121.492  1.00  0.00     0.008 C 
ATOM      2  C   UNL     1     123.380 126.258 120.790  1.00  0.00    -0.008 C 
ATOM      3  C   UNL     1     122.718 127.300 121.752  1.00  0.00     0.004 C 
ATOM      4  C   UNL     1     123.733 128.459 121.953  1.00  0.00     0.005 C 
ATOM      5  C   UNL     1     125.016 127.824 121.469  1.00  0.00     0.001 C 
ATOM      6  C   UNL     1     124.613 127.020 120.247  1.00  0.00    -0.023 C 
ATOM      7  C   UNL     1     124.143 127.828 118.974  1.00  0.00     0.010 C 
ATOM      8  C   UNL     1     125.186 128.699 118.227  1.00  0.00     0.036 C 
ATOM      9  C   UNL     1     126.685 128.359 118.503  1.00  0.00     0.065 C 
ATOM     10  C   UNL     1     126.851 127.642 119.883  1.00  0.00     0.027 C 
ATOM     11  C   UNL     1     125.944 126.374 119.914  1.00  0.00     0.014 C 
ATOM     12  C   UNL     1     126.381 128.482 121.154  1.00  0.00    -0.026 C 
ATOM     13  C   UNL     1     127.390 128.213 122.305  1.00  0.00     0.012 C 
ATOM     14  C   UNL     1     126.257 130.021 121.045  1.00  0.00     0.012 C 
ATOM     15  C   UNL     1     127.244 127.473 117.358  1.00  0.00     0.042 C 
ENDROOT
BRANCH   9  16
ATOM     16  O   UNL     1     127.456 129.538 118.519  1.00  0.00    -0.390 OA
ATOM     17  H   UNL     1     128.416 129.286 118.506  1.00  0.00     0.211 HD
ENDBRANCH   9  16
TORSDOF 1
ENDMDL
MODEL 7
REMARK VINA RESULT:    -2.708      2.122      4.352
REMARK INTER + INTRA:          -2.788
REMARK INTER:                  -2.788
REMARK INTRA:                   0.000
REMARK UNBOUND:                 0.000
REMARK SMILES C[C@H]1CC[C@@H]2C(C)(C)[C@H]3C[C@]21CC[C@@]3(C)O
REMARK SMILES IDX 1 1 2 2 3 3 4 4 5 5 11 6 12 7 13 8 14 9 9 10 10 11 6 12 7 13
REMARK SMILES IDX 8 14 15 15 16 16
REMARK H PARENT 16 17
REMARK Flexibility Score: inf
ROOT
ATOM      1  C   UNL     1     124.547 115.467 120.326  1.00  0.00     0.008 C 
ATOM      2  C   UNL     1     126.007 115.689 119.896  1.00  0.00    -0.008 C 
ATOM      3  C   UNL     1     126.820 116.529 120.937  1.00  0.00     0.004 C 
ATOM      4  C   UNL     1     127.880 115.587 121.572  1.00  0.00     0.005 C 
ATOM      5  C   UNL     1     127.342 114.227 121.192  1.00  0.00     0.001 C 
ATOM      6  C   UNL     1     126.845 114.393 119.767  1.00  0.00    -0.023 C 
ATOM      7  C   UNL     1     127.930 114.644 118.648  1.00  0.00     0.010 C 
ATOM      8  C   UNL     1     128.923 113.500 118.315  1.00  0.00     0.036 C 
ATOM      9  C   UNL     1     128.495 112.068 118.767  1.00  0.00     0.065 C 
ATOM     10  C   UNL     1     127.481 112.137 119.956  1.00  0.00     0.027 C 
ATOM     11  C   UNL     1     126.260 113.013 119.538  1.00  0.00     0.014 C 
ATOM     12  C   UNL     1     128.022 112.841 121.281  1.00  0.00    -0.026 C 
ATOM     13  C   UNL     1     127.476 112.047 122.500  1.00  0.00     0.012 C 
ATOM     14  C   UNL     1     129.548 112.971 121.503  1.00  0.00     0.012 C 
ATOM     15  C   UNL     1     127.878 111.299 117.569  1.00  0.00     0.042 C 
ENDROOT
BRANCH   9  16
ATOM     16  O   UNL     1     129.622 111.334 119.186  1.00  0.00    -0.390 OA
ATOM     17  H   UNL     1     130.176 111.127 118.388  1.00  0.00     0.211 HD
ENDBRANCH   9  16
TORSDOF 1
ENDMDL
MODEL 8
REMARK VINA RESULT:    -2.698     11.225     14.114
REMARK INTER + INTRA:          -2.777
REMARK INTER:                  -2.777
REMARK INTRA:                   0.000
REMARK UNBOUND:                 0.000
REMARK SMILES C[C@H]1CC[C@@H]2C(C)(C)[C@H]3C[C@]21CC[C@@]3(C)O
REMARK SMILES IDX 1 1 2 2 3 3 4 4 5 5 11 6 12 7 13 8 14 9 9 10 10 11 6 12 7 13
REMARK SMILES IDX 8 14 15 15 16 16
REMARK H PARENT 16 17
REMARK Flexibility Score: inf
ROOT
ATOM      1  C   UNL     1     125.445 129.404 119.780  1.00  0.00     0.008 C 
ATOM      2  C   UNL     1     126.952 129.603 119.548  1.00  0.00    -0.008 C 
ATOM      3  C   UNL     1     127.766 129.658 120.885  1.00  0.00     0.004 C 
ATOM      4  C   UNL     1     128.650 128.383 120.946  1.00  0.00     0.005 C 
ATOM      5  C   UNL     1     127.992 127.508 119.904  1.00  0.00     0.001 C 
ATOM      6  C   UNL     1     127.642 128.455 118.770  1.00  0.00    -0.023 C 
ATOM      7  C   UNL     1     128.840 129.088 117.961  1.00  0.00     0.010 C 
ATOM      8  C   UNL     1     129.719 128.152 117.091  1.00  0.00     0.036 C 
ATOM      9  C   UNL     1     129.090 126.771 116.723  1.00  0.00     0.065 C 
ATOM     10  C   UNL     1     127.993 126.362 117.759  1.00  0.00     0.027 C 
ATOM     11  C   UNL     1     126.922 127.492 117.845  1.00  0.00     0.014 C 
ATOM     12  C   UNL     1     128.497 126.194 119.263  1.00  0.00    -0.026 C 
ATOM     13  C   UNL     1     127.759 124.973 119.880  1.00  0.00     0.012 C 
ATOM     14  C   UNL     1     130.003 125.969 119.539  1.00  0.00     0.012 C 
ATOM     15  C   UNL     1     128.493 126.829 115.291  1.00  0.00     0.042 C 
ENDROOT
BRANCH   9  16
ATOM     16  O   UNL     1     130.084 125.773 116.710  1.00  0.00    -0.390 OA
ATOM     17  H   UNL     1     129.912 125.149 117.463  1.00  0.00     0.211 HD
ENDBRANCH   9  16
TORSDOF 1
ENDMDL
MODEL 9
REMARK VINA RESULT:    -2.680      2.525      4.646
REMARK INTER + INTRA:          -2.758
REMARK INTER:                  -2.758
REMARK INTRA:                   0.000
REMARK UNBOUND:                 0.000
REMARK SMILES C[C@H]1CC[C@@H]2C(C)(C)[C@H]3C[C@]21CC[C@@]3(C)O
REMARK SMILES IDX 1 1 2 2 3 3 4 4 5 5 11 6 12 7 13 8 14 9 9 10 10 11 6 12 7 13
REMARK SMILES IDX 8 14 15 15 16 16
REMARK H PARENT 16 17
REMARK Flexibility Score: inf
ROOT
ATOM      1  C   UNL     1     124.233 110.605 118.496  1.00  0.00     0.008 C 
ATOM      2  C   UNL     1     125.679 110.183 118.186  1.00  0.00    -0.008 C 
ATOM      3  C   UNL     1     126.106 110.528 116.719  1.00  0.00     0.004 C 
ATOM      4  C   UNL     1     127.184 111.643 116.797  1.00  0.00     0.005 C 
ATOM      5  C   UNL     1     126.995 112.148 118.209  1.00  0.00     0.001 C 
ATOM      6  C   UNL     1     126.756 110.899 119.037  1.00  0.00    -0.023 C 
ATOM      7  C   UNL     1     127.966 109.899 119.203  1.00  0.00     0.010 C 
ATOM      8  C   UNL     1     129.203 110.367 120.014  1.00  0.00     0.036 C 
ATOM      9  C   UNL     1     128.976 111.580 120.970  1.00  0.00     0.065 C 
ATOM     10  C   UNL     1     127.760 112.443 120.499  1.00  0.00     0.027 C 
ATOM     11  C   UNL     1     126.497 111.535 120.390  1.00  0.00     0.014 C 
ATOM     12  C   UNL     1     127.896 113.087 119.046  1.00  0.00    -0.026 C 
ATOM     13  C   UNL     1     127.289 114.516 119.097  1.00  0.00     0.012 C 
ATOM     14  C   UNL     1     129.300 113.240 118.411  1.00  0.00     0.012 C 
ATOM     15  C   UNL     1     128.755 111.075 122.421  1.00  0.00     0.042 C 
ENDROOT
BRANCH   9  16
ATOM     16  O   UNL     1     130.121 112.400 120.994  1.00  0.00    -0.390 OA
ATOM     17  H   UNL     1     130.608 112.234 121.844  1.00  0.00     0.211 HD
ENDBRANCH   9  16
TORSDOF 1
ENDMDL
