MODEL 1
REMARK VINA RESULT:    -2.495      0.000      0.000
REMARK INTER + INTRA:          -8.724
REMARK INTER:                  -6.288
REMARK INTRA:                  -2.435
REMARK UNBOUND:                -2.435
REMARK SMILES CCCCCCCCCCCCCCCCCCCCCCCCCCCC(=O)[O-]
REMARK SMILES IDX 15 1 16 2 17 3 18 4 19 5 20 6 21 7 22 8 23 9 24 10 25 11
REMARK SMILES IDX 26 12 27 13 28 14 29 15 30 16 14 17 13 18 12 19 11 20 10 21
REMARK SMILES IDX 9 22 8 23 7 24 6 25 5 26 4 27 3 28 2 29 1 30
REMARK H PARENT
REMARK Flexibility Score: inf
ROOT
ATOM      1  C   UNL     1      10.851  -5.664   3.621  1.00  0.00     0.000 C 
ENDROOT
BRANCH   1   2
ATOM      2  C   UNL     1       9.516  -5.985   2.926  1.00  0.00     0.000 C 
BRANCH   2   3
ATOM      3  C   UNL     1       8.375  -5.059   3.378  1.00  0.00     0.000 C 
BRANCH   3   4
ATOM      4  C   UNL     1       7.031  -5.793   3.510  1.00  0.00     0.000 C 
BRANCH   4   5
ATOM      5  C   UNL     1       6.588  -5.875   4.979  1.00  0.00     0.000 C 
BRANCH   5   6
ATOM      6  C   UNL     1       6.504  -7.321   5.500  1.00  0.00     0.000 C 
BRANCH   6   7
ATOM      7  C   UNL     1       5.514  -7.537   6.663  1.00  0.00     0.000 C 
BRANCH   7   8
ATOM      8  C   UNL     1       4.620  -8.783   6.525  1.00  0.00     0.000 C 
BRANCH   8   9
ATOM      9  C   UNL     1       4.195  -9.047   5.069  1.00  0.00     0.000 C 
BRANCH   9  10
ATOM     10  C   UNL     1       2.888  -8.332   4.693  1.00  0.00     0.000 C 
BRANCH  10  11
ATOM     11  C   UNL     1       2.879  -7.839   3.235  1.00  0.00     0.000 C 
BRANCH  11  12
ATOM     12  C   UNL     1       3.339  -6.375   3.094  1.00  0.00     0.006 C 
BRANCH  12  13
ATOM     13  C   UNL     1       2.306  -5.343   3.582  1.00  0.00     0.053 C 
BRANCH  13  14
ATOM     14  C   UNL     1       2.889  -3.973   3.739  1.00  0.00     0.041 C 
ATOM     15  O   UNL     1       2.154  -3.007   4.072  1.00  0.00    -0.550 OA
ATOM     16  O   UNL     1       4.249  -3.765   3.537  1.00  0.00    -0.550 OA
ENDBRANCH  13  14
ENDBRANCH  12  13
ENDBRANCH  11  12
ENDBRANCH  10  11
ENDBRANCH   9  10
ENDBRANCH   8   9
ENDBRANCH   7   8
ENDBRANCH   6   7
ENDBRANCH   5   6
ENDBRANCH   4   5
ENDBRANCH   3   4
ENDBRANCH   2   3
ENDBRANCH   1   2
BRANCH   1  17
ATOM     17  C   UNL     1      11.650  -4.564   2.890  1.00  0.00     0.000 C 
BRANCH  17  18
ATOM     18  C   UNL     1      13.175  -4.792   2.890  1.00  0.00     0.000 C 
BRANCH  18  19
ATOM     19  C   UNL     1      13.660  -5.984   3.733  1.00  0.00     0.000 C 
BRANCH  19  20
ATOM     20  C   UNL     1      14.122  -7.210   2.920  1.00  0.00     0.000 C 
BRANCH  20  21
ATOM     21  C   UNL     1      13.274  -8.478   3.169  1.00  0.00     0.000 C 
BRANCH  21  22
ATOM     22  C   UNL     1      13.830  -9.383   4.283  1.00  0.00    -0.000 C 
BRANCH  22  23
ATOM     23  C   UNL     1      15.107 -10.125   3.855  1.00  0.00    -0.000 C 
BRANCH  23  24
ATOM     24  C   UNL     1      16.378  -9.501   4.454  1.00  0.00    -0.000 C 
BRANCH  24  25
ATOM     25  C   UNL     1      17.644  -9.868   3.661  1.00  0.00    -0.000 C 
BRANCH  25  26
ATOM     26  C   UNL     1      18.211  -8.675   2.875  1.00  0.00    -0.000 C 
BRANCH  26  27
ATOM     27  C   UNL     1      17.308  -7.431   2.959  1.00  0.00    -0.000 C 
BRANCH  27  28
ATOM     28  C   UNL     1      18.070  -6.193   3.483  1.00  0.00    -0.000 C 
BRANCH  28  29
ATOM     29  C   UNL     1      17.288  -4.879   3.328  1.00  0.00    -0.003 C 
ATOM     30  C   UNL     1      18.188  -3.646   3.270  1.00  0.00     0.004 C 
ENDBRANCH  28  29
ENDBRANCH  27  28
ENDBRANCH  26  27
ENDBRANCH  25  26
ENDBRANCH  24  25
ENDBRANCH  23  24
ENDBRANCH  22  23
ENDBRANCH  21  22
ENDBRANCH  20  21
ENDBRANCH  19  20
ENDBRANCH  18  19
ENDBRANCH  17  18
ENDBRANCH   1  17
TORSDOF 26
ENDMDL
MODEL 2
REMARK VINA RESULT:    -1.708      1.356      3.007
REMARK INTER + INTRA:          -6.740
REMARK INTER:                  -4.726
REMARK INTRA:                  -2.015
REMARK UNBOUND:                -2.435
REMARK SMILES CCCCCCCCCCCCCCCCCCCCCCCCCCCC(=O)[O-]
REMARK SMILES IDX 15 1 16 2 17 3 18 4 19 5 20 6 21 7 22 8 23 9 24 10 25 11
REMARK SMILES IDX 26 12 27 13 28 14 29 15 30 16 14 17 13 18 12 19 11 20 10 21
REMARK SMILES IDX 9 22 8 23 7 24 6 25 5 26 4 27 3 28 2 29 1 30
REMARK H PARENT
REMARK Flexibility Score: inf
ROOT
ATOM      1  C   UNL     1      10.713  -5.970   2.987  1.00  0.00     0.000 C 
ENDROOT
BRANCH   1   2
ATOM      2  C   UNL     1       9.758  -6.133   4.183  1.00  0.00     0.000 C 
BRANCH   2   3
ATOM      3  C   UNL     1       8.331  -6.511   3.755  1.00  0.00     0.000 C 
BRANCH   3   4
ATOM      4  C   UNL     1       7.958  -7.951   4.138  1.00  0.00     0.000 C 
BRANCH   4   5
ATOM      5  C   UNL     1       6.437  -8.160   4.086  1.00  0.00     0.000 C 
BRANCH   5   6
ATOM      6  C   UNL     1       5.804  -8.308   5.482  1.00  0.00     0.000 C 
BRANCH   6   7
ATOM      7  C   UNL     1       4.310  -8.694   5.482  1.00  0.00     0.000 C 
BRANCH   7   8
ATOM      8  C   UNL     1       3.966  -9.941   4.649  1.00  0.00     0.000 C 
BRANCH   8   9
ATOM      9  C   UNL     1       3.346  -9.590   3.284  1.00  0.00     0.000 C 
BRANCH   9  10
ATOM     10  C   UNL     1       2.255  -8.512   3.388  1.00  0.00     0.000 C 
BRANCH  10  11
ATOM     11  C   UNL     1       2.751  -7.123   2.951  1.00  0.00     0.000 C 
BRANCH  11  12
ATOM     12  C   UNL     1       2.522  -6.039   4.022  1.00  0.00     0.006 C 
BRANCH  12  13
ATOM     13  C   UNL     1       3.786  -5.241   4.388  1.00  0.00     0.053 C 
BRANCH  13  14
ATOM     14  C   UNL     1       3.475  -3.862   4.883  1.00  0.00     0.041 C 
ATOM     15  O   UNL     1       3.857  -3.499   6.026  1.00  0.00    -0.550 OA
ATOM     16  O   UNL     1       2.779  -2.970   4.075  1.00  0.00    -0.550 OA
ENDBRANCH  13  14
ENDBRANCH  12  13
ENDBRANCH  11  12
ENDBRANCH  10  11
ENDBRANCH   9  10
ENDBRANCH   8   9
ENDBRANCH   7   8
ENDBRANCH   6   7
ENDBRANCH   5   6
ENDBRANCH   4   5
ENDBRANCH   3   4
ENDBRANCH   2   3
ENDBRANCH   1   2
BRANCH   1  17
ATOM     17  C   UNL     1      11.978  -5.160   3.345  1.00  0.00     0.000 C 
BRANCH  17  18
ATOM     18  C   UNL     1      12.745  -5.703   4.567  1.00  0.00     0.000 C 
BRANCH  18  19
ATOM     19  C   UNL     1      14.057  -6.439   4.244  1.00  0.00     0.000 C 
BRANCH  19  20
ATOM     20  C   UNL     1      15.340  -5.628   4.513  1.00  0.00     0.000 C 
BRANCH  20  21
ATOM     21  C   UNL     1      15.929  -4.956   3.252  1.00  0.00     0.000 C 
BRANCH  21  22
ATOM     22  C   UNL     1      17.330  -5.469   2.876  1.00  0.00    -0.000 C 
BRANCH  22  23
ATOM     23  C   UNL     1      17.430  -7.003   2.936  1.00  0.00    -0.000 C 
BRANCH  23  24
ATOM     24  C   UNL     1      18.367  -7.487   4.054  1.00  0.00    -0.000 C 
BRANCH  24  25
ATOM     25  C   UNL     1      17.693  -7.468   5.436  1.00  0.00    -0.000 C 
BRANCH  25  26
ATOM     26  C   UNL     1      17.383  -8.880   5.959  1.00  0.00    -0.000 C 
BRANCH  26  27
ATOM     27  C   UNL     1      17.133  -9.888   4.822  1.00  0.00    -0.000 C 
BRANCH  27  28
ATOM     28  C   UNL     1      15.626 -10.123   4.576  1.00  0.00    -0.000 C 
BRANCH  28  29
ATOM     29  C   UNL     1      15.202  -9.912   3.113  1.00  0.00    -0.003 C 
ATOM     30  C   UNL     1      13.725  -9.553   2.960  1.00  0.00     0.004 C 
ENDBRANCH  28  29
ENDBRANCH  27  28
ENDBRANCH  26  27
ENDBRANCH  25  26
ENDBRANCH  24  25
ENDBRANCH  23  24
ENDBRANCH  22  23
ENDBRANCH  21  22
ENDBRANCH  20  21
ENDBRANCH  19  20
ENDBRANCH  18  19
ENDBRANCH  17  18
ENDBRANCH   1  17
TORSDOF 26
ENDMDL
MODEL 3
REMARK VINA RESULT:    -1.494      1.477      2.054
REMARK INTER + INTRA:          -6.200
REMARK INTER:                  -4.020
REMARK INTRA:                  -2.180
REMARK UNBOUND:                -2.435
REMARK SMILES CCCCCCCCCCCCCCCCCCCCCCCCCCCC(=O)[O-]
REMARK SMILES IDX 15 1 16 2 17 3 18 4 19 5 20 6 21 7 22 8 23 9 24 10 25 11
REMARK SMILES IDX 26 12 27 13 28 14 29 15 30 16 14 17 13 18 12 19 11 20 10 21
REMARK SMILES IDX 9 22 8 23 7 24 6 25 5 26 4 27 3 28 2 29 1 30
REMARK H PARENT
REMARK Flexibility Score: inf
ROOT
ATOM      1  C   UNL     1      10.333  -6.646   3.011  1.00  0.00     0.000 C 
ENDROOT
BRANCH   1   2
ATOM      2  C   UNL     1       9.202  -6.759   4.048  1.00  0.00     0.000 C 
BRANCH   2   3
ATOM      3  C   UNL     1       7.862  -7.178   3.421  1.00  0.00     0.000 C 
BRANCH   3   4
ATOM      4  C   UNL     1       7.246  -8.409   4.104  1.00  0.00     0.000 C 
BRANCH   4   5
ATOM      5  C   UNL     1       5.712  -8.370   4.033  1.00  0.00     0.000 C 
BRANCH   5   6
ATOM      6  C   UNL     1       5.040  -8.817   5.344  1.00  0.00     0.000 C 
BRANCH   6   7
ATOM      7  C   UNL     1       3.531  -9.117   5.232  1.00  0.00     0.000 C 
BRANCH   7   8
ATOM      8  C   UNL     1       3.094  -9.738   3.893  1.00  0.00     0.000 C 
BRANCH   8   9
ATOM      9  C   UNL     1       2.614  -8.682   2.881  1.00  0.00     0.000 C 
BRANCH   9  10
ATOM     10  C   UNL     1       1.875  -7.512   3.549  1.00  0.00     0.000 C 
BRANCH  10  11
ATOM     11  C   UNL     1       2.172  -6.160   2.875  1.00  0.00     0.000 C 
BRANCH  11  12
ATOM     12  C   UNL     1       1.998  -4.963   3.829  1.00  0.00     0.006 C 
BRANCH  12  13
ATOM     13  C   UNL     1       3.220  -4.029   3.893  1.00  0.00     0.053 C 
BRANCH  13  14
ATOM     14  C   UNL     1       4.066  -4.267   5.106  1.00  0.00     0.041 C 
ATOM     15  O   UNL     1       3.857  -3.615   6.162  1.00  0.00    -0.550 OA
ATOM     16  O   UNL     1       5.075  -5.224   5.077  1.00  0.00    -0.550 OA
ENDBRANCH  13  14
ENDBRANCH  12  13
ENDBRANCH  11  12
ENDBRANCH  10  11
ENDBRANCH   9  10
ENDBRANCH   8   9
ENDBRANCH   7   8
ENDBRANCH   6   7
ENDBRANCH   5   6
ENDBRANCH   4   5
ENDBRANCH   3   4
ENDBRANCH   2   3
ENDBRANCH   1   2
BRANCH   1  17
ATOM     17  C   UNL     1      11.475  -5.718   3.479  1.00  0.00     0.000 C 
BRANCH  17  18
ATOM     18  C   UNL     1      12.117  -6.139   4.817  1.00  0.00     0.000 C 
BRANCH  18  19
ATOM     19  C   UNL     1      13.479  -6.845   4.696  1.00  0.00     0.000 C 
BRANCH  19  20
ATOM     20  C   UNL     1      13.857  -7.287   3.268  1.00  0.00     0.000 C 
BRANCH  20  21
ATOM     21  C   UNL     1      13.391  -8.718   2.916  1.00  0.00     0.000 C 
BRANCH  21  22
ATOM     22  C   UNL     1      14.489  -9.783   3.083  1.00  0.00    -0.000 C 
BRANCH  22  23
ATOM     23  C   UNL     1      15.384  -9.517   4.305  1.00  0.00    -0.000 C 
BRANCH  23  24
ATOM     24  C   UNL     1      16.881  -9.622   3.972  1.00  0.00    -0.000 C 
BRANCH  24  25
ATOM     25  C   UNL     1      17.319  -8.606   2.904  1.00  0.00    -0.000 C 
BRANCH  25  26
ATOM     26  C   UNL     1      17.863  -7.306   3.517  1.00  0.00    -0.000 C 
BRANCH  26  27
ATOM     27  C   UNL     1      17.052  -6.069   3.091  1.00  0.00    -0.000 C 
BRANCH  27  28
ATOM     28  C   UNL     1      17.016  -4.989   4.195  1.00  0.00    -0.000 C 
BRANCH  28  29
ATOM     29  C   UNL     1      16.744  -5.555   5.599  1.00  0.00    -0.003 C 
ATOM     30  C   UNL     1      17.216  -4.632   6.722  1.00  0.00     0.004 C 
ENDBRANCH  28  29
ENDBRANCH  27  28
ENDBRANCH  26  27
ENDBRANCH  25  26
ENDBRANCH  24  25
ENDBRANCH  23  24
ENDBRANCH  22  23
ENDBRANCH  21  22
ENDBRANCH  20  21
ENDBRANCH  19  20
ENDBRANCH  18  19
ENDBRANCH  17  18
ENDBRANCH   1  17
TORSDOF 26
ENDMDL
MODEL 4
REMARK VINA RESULT:    -1.433      2.099      3.411
REMARK INTER + INTRA:          -6.048
REMARK INTER:                  -4.649
REMARK INTRA:                  -1.399
REMARK UNBOUND:                -2.435
REMARK SMILES CCCCCCCCCCCCCCCCCCCCCCCCCCCC(=O)[O-]
REMARK SMILES IDX 15 1 16 2 17 3 18 4 19 5 20 6 21 7 22 8 23 9 24 10 25 11
REMARK SMILES IDX 26 12 27 13 28 14 29 15 30 16 14 17 13 18 12 19 11 20 10 21
REMARK SMILES IDX 9 22 8 23 7 24 6 25 5 26 4 27 3 28 2 29 1 30
REMARK H PARENT
REMARK Flexibility Score: inf
ROOT
ATOM      1  C   UNL     1      11.027  -6.264   4.248  1.00  0.00     0.000 C 
ENDROOT
BRANCH   1   2
ATOM      2  C   UNL     1      10.359  -5.492   3.096  1.00  0.00     0.000 C 
BRANCH   2   3
ATOM      3  C   UNL     1       8.852  -5.776   2.989  1.00  0.00     0.000 C 
BRANCH   3   4
ATOM      4  C   UNL     1       8.527  -7.277   3.014  1.00  0.00     0.000 C 
BRANCH   4   5
ATOM      5  C   UNL     1       7.009  -7.513   3.044  1.00  0.00     0.000 C 
BRANCH   5   6
ATOM      6  C   UNL     1       6.363  -7.097   4.377  1.00  0.00     0.000 C 
BRANCH   6   7
ATOM      7  C   UNL     1       5.566  -5.777   4.331  1.00  0.00     0.000 C 
BRANCH   7   8
ATOM      8  C   UNL     1       4.064  -5.919   4.638  1.00  0.00     0.000 C 
BRANCH   8   9
ATOM      9  C   UNL     1       3.280  -6.551   3.474  1.00  0.00     0.000 C 
BRANCH   9  10
ATOM     10  C   UNL     1       2.502  -7.808   3.896  1.00  0.00     0.000 C 
BRANCH  10  11
ATOM     11  C   UNL     1       3.146  -9.106   3.378  1.00  0.00     0.000 C 
BRANCH  11  12
ATOM     12  C   UNL     1       3.702  -9.992   4.510  1.00  0.00     0.006 C 
BRANCH  12  13
ATOM     13  C   UNL     1       4.768  -9.302   5.381  1.00  0.00     0.053 C 
BRANCH  13  14
ATOM     14  C   UNL     1       4.267  -8.974   6.754  1.00  0.00     0.041 C 
ATOM     15  O   UNL     1       3.269  -9.580   7.225  1.00  0.00    -0.550 OA
ATOM     16  O   UNL     1       4.914  -8.013   7.523  1.00  0.00    -0.550 OA
ENDBRANCH  13  14
ENDBRANCH  12  13
ENDBRANCH  11  12
ENDBRANCH  10  11
ENDBRANCH   9  10
ENDBRANCH   8   9
ENDBRANCH   7   8
ENDBRANCH   6   7
ENDBRANCH   5   6
ENDBRANCH   4   5
ENDBRANCH   3   4
ENDBRANCH   2   3
ENDBRANCH   1   2
BRANCH   1  17
ATOM     17  C   UNL     1      12.231  -7.107   3.775  1.00  0.00     0.000 C 
BRANCH  17  18
ATOM     18  C   UNL     1      11.865  -8.550   3.371  1.00  0.00     0.000 C 
BRANCH  18  19
ATOM     19  C   UNL     1      13.021  -9.563   3.438  1.00  0.00     0.000 C 
BRANCH  19  20
ATOM     20  C   UNL     1      14.383  -9.027   2.954  1.00  0.00     0.000 C 
BRANCH  20  21
ATOM     21  C   UNL     1      15.551  -9.332   3.918  1.00  0.00     0.000 C 
BRANCH  21  22
ATOM     22  C   UNL     1      16.791  -9.918   3.220  1.00  0.00    -0.000 C 
BRANCH  22  23
ATOM     23  C   UNL     1      17.835  -8.842   2.875  1.00  0.00    -0.000 C 
BRANCH  23  24
ATOM     24  C   UNL     1      17.783  -7.644   3.836  1.00  0.00    -0.000 C 
BRANCH  24  25
ATOM     25  C   UNL     1      18.801  -6.551   3.469  1.00  0.00    -0.000 C 
BRANCH  25  26
ATOM     26  C   UNL     1      18.132  -5.300   2.877  1.00  0.00    -0.000 C 
BRANCH  26  27
ATOM     27  C   UNL     1      16.977  -4.779   3.751  1.00  0.00    -0.000 C 
BRANCH  27  28
ATOM     28  C   UNL     1      15.770  -5.743   3.754  1.00  0.00    -0.000 C 
BRANCH  28  29
ATOM     29  C   UNL     1      15.139  -5.934   5.143  1.00  0.00    -0.003 C 
ATOM     30  C   UNL     1      15.993  -5.367   6.276  1.00  0.00     0.004 C 
ENDBRANCH  28  29
ENDBRANCH  27  28
ENDBRANCH  26  27
ENDBRANCH  25  26
ENDBRANCH  24  25
ENDBRANCH  23  24
ENDBRANCH  22  23
ENDBRANCH  21  22
ENDBRANCH  20  21
ENDBRANCH  19  20
ENDBRANCH  18  19
ENDBRANCH  17  18
ENDBRANCH   1  17
TORSDOF 26
ENDMDL
MODEL 5
REMARK VINA RESULT:    -1.358      1.592      2.136
REMARK INTER + INTRA:          -5.857
REMARK INTER:                  -5.401
REMARK INTRA:                  -0.455
REMARK UNBOUND:                -2.435
REMARK SMILES CCCCCCCCCCCCCCCCCCCCCCCCCCCC(=O)[O-]
REMARK SMILES IDX 15 1 16 2 17 3 18 4 19 5 20 6 21 7 22 8 23 9 24 10 25 11
REMARK SMILES IDX 26 12 27 13 28 14 29 15 30 16 14 17 13 18 12 19 11 20 10 21
REMARK SMILES IDX 9 22 8 23 7 24 6 25 5 26 4 27 3 28 2 29 1 30
REMARK H PARENT
REMARK Flexibility Score: inf
ROOT
ATOM      1  C   UNL     1      10.519  -5.996   5.422  1.00  0.00     0.000 C 
ENDROOT
BRANCH   1   2
ATOM      2  C   UNL     1       9.600  -5.582   4.259  1.00  0.00     0.000 C 
BRANCH   2   3
ATOM      3  C   UNL     1       8.253  -6.322   4.275  1.00  0.00     0.000 C 
BRANCH   3   4
ATOM      4  C   UNL     1       8.187  -7.457   3.241  1.00  0.00     0.000 C 
BRANCH   4   5
ATOM      5  C   UNL     1       6.731  -7.792   2.882  1.00  0.00     0.000 C 
BRANCH   5   6
ATOM      6  C   UNL     1       6.086  -8.790   3.861  1.00  0.00     0.000 C 
BRANCH   6   7
ATOM      7  C   UNL     1       6.430  -8.559   5.347  1.00  0.00     0.000 C 
BRANCH   7   8
ATOM      8  C   UNL     1       5.253  -8.077   6.214  1.00  0.00     0.000 C 
BRANCH   8   9
ATOM      9  C   UNL     1       5.050  -6.552   6.141  1.00  0.00     0.000 C 
BRANCH   9  10
ATOM     10  C   UNL     1       4.604  -6.079   4.749  1.00  0.00     0.000 C 
BRANCH  10  11
ATOM     11  C   UNL     1       3.269  -6.706   4.310  1.00  0.00     0.000 C 
BRANCH  11  12
ATOM     12  C   UNL     1       2.785  -6.187   2.942  1.00  0.00     0.006 C 
BRANCH  12  13
ATOM     13  C   UNL     1       2.201  -4.763   2.981  1.00  0.00     0.053 C 
BRANCH  13  14
ATOM     14  C   UNL     1       3.147  -3.769   3.581  1.00  0.00     0.041 C 
ATOM     15  O   UNL     1       2.900  -3.260   4.705  1.00  0.00    -0.550 OA
ATOM     16  O   UNL     1       4.311  -3.417   2.907  1.00  0.00    -0.550 OA
ENDBRANCH  13  14
ENDBRANCH  12  13
ENDBRANCH  11  12
ENDBRANCH  10  11
ENDBRANCH   9  10
ENDBRANCH   8   9
ENDBRANCH   7   8
ENDBRANCH   6   7
ENDBRANCH   5   6
ENDBRANCH   4   5
ENDBRANCH   3   4
ENDBRANCH   2   3
ENDBRANCH   1   2
BRANCH   1  17
ATOM     17  C   UNL     1      11.870  -6.562   4.936  1.00  0.00     0.000 C 
BRANCH  17  18
ATOM     18  C   UNL     1      12.010  -6.620   3.401  1.00  0.00     0.000 C 
BRANCH  18  19
ATOM     19  C   UNL     1      13.037  -7.638   2.875  1.00  0.00     0.000 C 
BRANCH  19  20
ATOM     20  C   UNL     1      12.953  -9.037   3.516  1.00  0.00     0.000 C 
BRANCH  20  21
ATOM     21  C   UNL     1      14.102  -9.983   3.102  1.00  0.00     0.000 C 
BRANCH  21  22
ATOM     22  C   UNL     1      15.486  -9.309   3.102  1.00  0.00    -0.000 C 
BRANCH  22  23
ATOM     23  C   UNL     1      16.170  -9.374   4.479  1.00  0.00    -0.000 C 
BRANCH  23  24
ATOM     24  C   UNL     1      17.523  -8.646   4.497  1.00  0.00    -0.000 C 
BRANCH  24  25
ATOM     25  C   UNL     1      17.533  -7.397   3.598  1.00  0.00    -0.000 C 
BRANCH  25  26
ATOM     26  C   UNL     1      16.126  -6.818   3.381  1.00  0.00    -0.000 C 
BRANCH  26  27
ATOM     27  C   UNL     1      15.957  -5.426   4.017  1.00  0.00    -0.000 C 
BRANCH  27  28
ATOM     28  C   UNL     1      15.422  -5.509   5.463  1.00  0.00    -0.000 C 
BRANCH  28  29
ATOM     29  C   UNL     1      16.499  -5.266   6.532  1.00  0.00    -0.003 C 
ATOM     30  C   UNL     1      17.562  -4.258   6.099  1.00  0.00     0.004 C 
ENDBRANCH  28  29
ENDBRANCH  27  28
ENDBRANCH  26  27
ENDBRANCH  25  26
ENDBRANCH  24  25
ENDBRANCH  23  24
ENDBRANCH  22  23
ENDBRANCH  21  22
ENDBRANCH  20  21
ENDBRANCH  19  20
ENDBRANCH  18  19
ENDBRANCH  17  18
ENDBRANCH   1  17
TORSDOF 26
ENDMDL
MODEL 6
REMARK VINA RESULT:    -1.261      2.268      3.230
REMARK INTER + INTRA:          -5.612
REMARK INTER:                  -4.209
REMARK INTRA:                  -1.403
REMARK UNBOUND:                -2.435
REMARK SMILES CCCCCCCCCCCCCCCCCCCCCCCCCCCC(=O)[O-]
REMARK SMILES IDX 15 1 16 2 17 3 18 4 19 5 20 6 21 7 22 8 23 9 24 10 25 11
REMARK SMILES IDX 26 12 27 13 28 14 29 15 30 16 14 17 13 18 12 19 11 20 10 21
REMARK SMILES IDX 9 22 8 23 7 24 6 25 5 26 4 27 3 28 2 29 1 30
REMARK H PARENT
REMARK Flexibility Score: inf
ROOT
ATOM      1  C   UNL     1      10.920  -6.346   5.645  1.00  0.00     0.000 C 
ENDROOT
BRANCH   1   2
ATOM      2  C   UNL     1       9.427  -6.014   5.472  1.00  0.00     0.000 C 
BRANCH   2   3
ATOM      3  C   UNL     1       9.140  -5.231   4.180  1.00  0.00     0.000 C 
BRANCH   3   4
ATOM      4  C   UNL     1       7.758  -5.550   3.587  1.00  0.00     0.000 C 
BRANCH   4   5
ATOM      5  C   UNL     1       7.331  -6.987   3.923  1.00  0.00     0.000 C 
BRANCH   5   6
ATOM      6  C   UNL     1       5.857  -7.090   4.354  1.00  0.00     0.000 C 
BRANCH   6   7
ATOM      7  C   UNL     1       5.018  -5.819   4.113  1.00  0.00     0.000 C 
BRANCH   7   8
ATOM      8  C   UNL     1       3.780  -6.022   3.221  1.00  0.00     0.000 C 
BRANCH   8   9
ATOM      9  C   UNL     1       2.538  -6.453   4.021  1.00  0.00     0.000 C 
BRANCH   9  10
ATOM     10  C   UNL     1       2.073  -7.876   3.673  1.00  0.00     0.000 C 
BRANCH  10  11
ATOM     11  C   UNL     1       3.234  -8.792   3.247  1.00  0.00     0.000 C 
BRANCH  11  12
ATOM     12  C   UNL     1       3.592  -9.843   4.315  1.00  0.00     0.006 C 
BRANCH  12  13
ATOM     13  C   UNL     1       4.714  -9.406   5.274  1.00  0.00     0.053 C 
BRANCH  13  14
ATOM     14  C   UNL     1       4.215  -9.138   6.661  1.00  0.00     0.041 C 
ATOM     15  O   UNL     1       4.826  -8.330   7.408  1.00  0.00    -0.550 OA
ATOM     16  O   UNL     1       3.065  -9.767   7.124  1.00  0.00    -0.550 OA
ENDBRANCH  13  14
ENDBRANCH  12  13
ENDBRANCH  11  12
ENDBRANCH  10  11
ENDBRANCH   9  10
ENDBRANCH   8   9
ENDBRANCH   7   8
ENDBRANCH   6   7
ENDBRANCH   5   6
ENDBRANCH   4   5
ENDBRANCH   3   4
ENDBRANCH   2   3
ENDBRANCH   1   2
BRANCH   1  17
ATOM     17  C   UNL     1      11.741  -6.063   4.369  1.00  0.00     0.000 C 
BRANCH  17  18
ATOM     18  C   UNL     1      11.313  -6.903   3.148  1.00  0.00     0.000 C 
BRANCH  18  19
ATOM     19  C   UNL     1      12.169  -8.152   2.879  1.00  0.00     0.000 C 
BRANCH  19  20
ATOM     20  C   UNL     1      13.692  -7.912   2.898  1.00  0.00     0.000 C 
BRANCH  20  21
ATOM     21  C   UNL     1      14.403  -8.518   4.128  1.00  0.00     0.000 C 
BRANCH  21  22
ATOM     22  C   UNL     1      14.821  -9.988   3.938  1.00  0.00    -0.000 C 
BRANCH  22  23
ATOM     23  C   UNL     1      16.188 -10.124   3.246  1.00  0.00    -0.000 C 
BRANCH  23  24
ATOM     24  C   UNL     1      17.298  -9.358   3.983  1.00  0.00    -0.000 C 
BRANCH  24  25
ATOM     25  C   UNL     1      17.643  -9.985   5.344  1.00  0.00    -0.000 C 
BRANCH  25  26
ATOM     26  C   UNL     1      17.341  -9.042   6.519  1.00  0.00    -0.000 C 
BRANCH  26  27
ATOM     27  C   UNL     1      17.877  -7.618   6.286  1.00  0.00    -0.000 C 
BRANCH  27  28
ATOM     28  C   UNL     1      16.740  -6.577   6.197  1.00  0.00    -0.000 C 
BRANCH  28  29
ATOM     29  C   UNL     1      16.685  -5.840   4.848  1.00  0.00    -0.003 C 
ATOM     30  C   UNL     1      15.355  -5.130   4.603  1.00  0.00     0.004 C 
ENDBRANCH  28  29
ENDBRANCH  27  28
ENDBRANCH  26  27
ENDBRANCH  25  26
ENDBRANCH  24  25
ENDBRANCH  23  24
ENDBRANCH  22  23
ENDBRANCH  21  22
ENDBRANCH  20  21
ENDBRANCH  19  20
ENDBRANCH  18  19
ENDBRANCH  17  18
ENDBRANCH   1  17
TORSDOF 26
ENDMDL
MODEL 7
REMARK VINA RESULT:    -1.203      3.371     11.178
REMARK INTER + INTRA:          -5.467
REMARK INTER:                  -3.602
REMARK INTRA:                  -1.865
REMARK UNBOUND:                -2.435
REMARK SMILES CCCCCCCCCCCCCCCCCCCCCCCCCCCC(=O)[O-]
REMARK SMILES IDX 15 1 16 2 17 3 18 4 19 5 20 6 21 7 22 8 23 9 24 10 25 11
REMARK SMILES IDX 26 12 27 13 28 14 29 15 30 16 14 17 13 18 12 19 11 20 10 21
REMARK SMILES IDX 9 22 8 23 7 24 6 25 5 26 4 27 3 28 2 29 1 30
REMARK H PARENT
REMARK Flexibility Score: inf
ROOT
ATOM      1  C   UNL     1      11.120  -6.342   4.726  1.00  0.00     0.000 C 
ENDROOT
BRANCH   1   2
ATOM      2  C   UNL     1      12.425  -6.531   3.932  1.00  0.00     0.000 C 
BRANCH   2   3
ATOM      3  C   UNL     1      13.139  -7.850   4.271  1.00  0.00     0.000 C 
BRANCH   3   4
ATOM      4  C   UNL     1      13.521  -8.657   3.021  1.00  0.00     0.000 C 
BRANCH   4   5
ATOM      5  C   UNL     1      14.865  -9.375   3.216  1.00  0.00     0.000 C 
BRANCH   5   6
ATOM      6  C   UNL     1      15.686  -8.803   4.385  1.00  0.00     0.000 C 
BRANCH   6   7
ATOM      7  C   UNL     1      16.812  -9.723   4.902  1.00  0.00     0.000 C 
BRANCH   7   8
ATOM      8  C   UNL     1      17.860 -10.115   3.845  1.00  0.00     0.000 C 
BRANCH   8   9
ATOM      9  C   UNL     1      18.183  -8.964   2.876  1.00  0.00     0.000 C 
BRANCH   9  10
ATOM     10  C   UNL     1      18.670  -7.699   3.600  1.00  0.00     0.000 C 
BRANCH  10  11
ATOM     11  C   UNL     1      18.258  -6.405   2.875  1.00  0.00     0.000 C 
BRANCH  11  12
ATOM     12  C   UNL     1      17.141  -5.637   3.607  1.00  0.00     0.006 C 
BRANCH  12  13
ATOM     13  C   UNL     1      16.711  -6.274   4.940  1.00  0.00     0.053 C 
BRANCH  13  14
ATOM     14  C   UNL     1      15.823  -5.379   5.749  1.00  0.00     0.041 C 
ATOM     15  O   UNL     1      14.747  -4.946   5.260  1.00  0.00    -0.550 OA
ATOM     16  O   UNL     1      16.174  -5.036   7.050  1.00  0.00    -0.550 OA
ENDBRANCH  13  14
ENDBRANCH  12  13
ENDBRANCH  11  12
ENDBRANCH  10  11
ENDBRANCH   9  10
ENDBRANCH   8   9
ENDBRANCH   7   8
ENDBRANCH   6   7
ENDBRANCH   5   6
ENDBRANCH   4   5
ENDBRANCH   3   4
ENDBRANCH   2   3
ENDBRANCH   1   2
BRANCH   1  17
ATOM     17  C   UNL     1       9.903  -6.981   4.023  1.00  0.00     0.000 C 
BRANCH  17  18
ATOM     18  C   UNL     1       9.273  -6.095   2.929  1.00  0.00     0.000 C 
BRANCH  18  19
ATOM     19  C   UNL     1       9.035  -4.629   3.331  1.00  0.00     0.000 C 
BRANCH  19  20
ATOM     20  C   UNL     1       7.579  -4.143   3.184  1.00  0.00     0.000 C 
BRANCH  20  21
ATOM     21  C   UNL     1       6.573  -5.275   2.875  1.00  0.00     0.000 C 
BRANCH  21  22
ATOM     22  C   UNL     1       5.486  -5.446   3.951  1.00  0.00    -0.000 C 
BRANCH  22  23
ATOM     23  C   UNL     1       6.057  -5.959   5.285  1.00  0.00    -0.000 C 
BRANCH  23  24
ATOM     24  C   UNL     1       4.968  -6.522   6.212  1.00  0.00    -0.000 C 
BRANCH  24  25
ATOM     25  C   UNL     1       5.352  -7.885   6.812  1.00  0.00    -0.000 C 
BRANCH  25  26
ATOM     26  C   UNL     1       4.489  -9.033   6.264  1.00  0.00    -0.000 C 
BRANCH  26  27
ATOM     27  C   UNL     1       3.532  -8.571   5.150  1.00  0.00    -0.000 C 
BRANCH  27  28
ATOM     28  C   UNL     1       4.080  -8.893   3.743  1.00  0.00    -0.000 C 
BRANCH  28  29
ATOM     29  C   UNL     1       5.348  -9.762   3.761  1.00  0.00    -0.003 C 
ATOM     30  C   UNL     1       6.624  -8.973   3.470  1.00  0.00     0.004 C 
ENDBRANCH  28  29
ENDBRANCH  27  28
ENDBRANCH  26  27
ENDBRANCH  25  26
ENDBRANCH  24  25
ENDBRANCH  23  24
ENDBRANCH  22  23
ENDBRANCH  21  22
ENDBRANCH  20  21
ENDBRANCH  19  20
ENDBRANCH  18  19
ENDBRANCH  17  18
ENDBRANCH   1  17
TORSDOF 26
ENDMDL
MODEL 8
REMARK VINA RESULT:    -1.096      3.524     11.125
REMARK INTER + INTRA:          -5.197
REMARK INTER:                  -4.244
REMARK INTRA:                  -0.953
REMARK UNBOUND:                -2.435
REMARK SMILES CCCCCCCCCCCCCCCCCCCCCCCCCCCC(=O)[O-]
REMARK SMILES IDX 15 1 16 2 17 3 18 4 19 5 20 6 21 7 22 8 23 9 24 10 25 11
REMARK SMILES IDX 26 12 27 13 28 14 29 15 30 16 14 17 13 18 12 19 11 20 10 21
REMARK SMILES IDX 9 22 8 23 7 24 6 25 5 26 4 27 3 28 2 29 1 30
REMARK H PARENT
REMARK Flexibility Score: inf
ROOT
ATOM      1  C   UNL     1      11.817  -6.382   4.823  1.00  0.00     0.000 C 
ENDROOT
BRANCH   1   2
ATOM      2  C   UNL     1      13.126  -6.859   4.170  1.00  0.00     0.000 C 
BRANCH   2   3
ATOM      3  C   UNL     1      12.887  -7.660   2.880  1.00  0.00     0.000 C 
BRANCH   3   4
ATOM      4  C   UNL     1      12.577  -9.141   3.150  1.00  0.00     0.000 C 
BRANCH   4   5
ATOM      5  C   UNL     1      13.680  -9.789   4.002  1.00  0.00     0.000 C 
BRANCH   5   6
ATOM      6  C   UNL     1      15.058  -9.135   3.798  1.00  0.00     0.000 C 
BRANCH   6   7
ATOM      7  C   UNL     1      16.110 -10.032   3.112  1.00  0.00     0.000 C 
BRANCH   7   8
ATOM      8  C   UNL     1      17.459 -10.120   3.847  1.00  0.00     0.000 C 
BRANCH   8   9
ATOM      9  C   UNL     1      18.076  -8.736   4.118  1.00  0.00     0.000 C 
BRANCH   9  10
ATOM     10  C   UNL     1      18.076  -7.832   2.876  1.00  0.00     0.000 C 
BRANCH  10  11
ATOM     11  C   UNL     1      17.834  -6.352   3.220  1.00  0.00     0.000 C 
BRANCH  11  12
ATOM     12  C   UNL     1      16.791  -6.158   4.337  1.00  0.00     0.006 C 
BRANCH  12  13
ATOM     13  C   UNL     1      16.823  -4.765   4.991  1.00  0.00     0.053 C 
BRANCH  13  14
ATOM     14  C   UNL     1      16.449  -4.798   6.440  1.00  0.00     0.041 C 
ATOM     15  O   UNL     1      17.281  -4.447   7.317  1.00  0.00    -0.550 OA
ATOM     16  O   UNL     1      15.174  -5.200   6.824  1.00  0.00    -0.550 OA
ENDBRANCH  13  14
ENDBRANCH  12  13
ENDBRANCH  11  12
ENDBRANCH  10  11
ENDBRANCH   9  10
ENDBRANCH   8   9
ENDBRANCH   7   8
ENDBRANCH   6   7
ENDBRANCH   5   6
ENDBRANCH   4   5
ENDBRANCH   3   4
ENDBRANCH   2   3
ENDBRANCH   1   2
BRANCH   1  17
ATOM     17  C   UNL     1      10.798  -5.854   3.790  1.00  0.00     0.000 C 
BRANCH  17  18
ATOM     18  C   UNL     1       9.763  -6.905   3.337  1.00  0.00     0.000 C 
BRANCH  18  19
ATOM     19  C   UNL     1       8.379  -6.344   2.969  1.00  0.00     0.000 C 
BRANCH  19  20
ATOM     20  C   UNL     1       8.298  -4.806   2.899  1.00  0.00     0.000 C 
BRANCH  20  21
ATOM     21  C   UNL     1       7.209  -4.197   3.810  1.00  0.00     0.000 C 
BRANCH  21  22
ATOM     22  C   UNL     1       6.078  -3.495   3.037  1.00  0.00    -0.000 C 
BRANCH  22  23
ATOM     23  C   UNL     1       4.835  -4.387   2.876  1.00  0.00    -0.000 C 
BRANCH  23  24
ATOM     24  C   UNL     1       4.911  -5.660   3.732  1.00  0.00    -0.000 C 
BRANCH  24  25
ATOM     25  C   UNL     1       4.723  -5.374   5.232  1.00  0.00    -0.000 C 
BRANCH  25  26
ATOM     26  C   UNL     1       5.900  -5.884   6.080  1.00  0.00    -0.000 C 
BRANCH  26  27
ATOM     27  C   UNL     1       5.708  -7.342   6.536  1.00  0.00    -0.000 C 
BRANCH  27  28
ATOM     28  C   UNL     1       6.480  -8.337   5.642  1.00  0.00    -0.000 C 
BRANCH  28  29
ATOM     29  C   UNL     1       5.566  -9.245   4.802  1.00  0.00    -0.003 C 
ATOM     30  C   UNL     1       4.147  -8.699   4.653  1.00  0.00     0.004 C 
ENDBRANCH  28  29
ENDBRANCH  27  28
ENDBRANCH  26  27
ENDBRANCH  25  26
ENDBRANCH  24  25
ENDBRANCH  23  24
ENDBRANCH  22  23
ENDBRANCH  21  22
ENDBRANCH  20  21
ENDBRANCH  19  20
ENDBRANCH  18  19
ENDBRANCH  17  18
ENDBRANCH   1  17
TORSDOF 26
ENDMDL
