MODEL 1
REMARK VINA RESULT:    -5.925      0.000      0.000
REMARK INTER + INTRA:          -9.090
REMARK INTER:                  -8.176
REMARK INTRA:                  -0.913
REMARK UNBOUND:                -0.913
REMARK SMILES CCCCc1cccc(O)c1CCCC
REMARK SMILES IDX 5 1 11 2 9 3 8 4 7 5 6 6 4 7 3 8 2 9 1 10 12 11 13 12 14 13
REMARK SMILES IDX 15 14 10 15
REMARK H PARENT 10 16
REMARK Flexibility Score: inf
ROOT
ATOM      1  C   UNL     1      -4.884  68.382 -21.529  1.00  0.00    -0.041 A 
ATOM      2  C   UNL     1      -6.198  68.481 -22.082  1.00  0.00    -0.003 A 
ATOM      3  C   UNL     1      -6.339  68.679 -23.484  1.00  0.00     0.119 A 
ATOM      4  C   UNL     1      -5.214  68.652 -24.311  1.00  0.00     0.046 A 
ATOM      5  C   UNL     1      -3.947  68.451 -23.777  1.00  0.00     0.004 A 
ATOM      6  C   UNL     1      -3.783  68.318 -22.403  1.00  0.00     0.004 A 
ENDROOT
BRANCH   1   7
ATOM      7  C   UNL     1      -4.607  68.299 -20.032  1.00  0.00     0.036 C 
BRANCH   7   8
ATOM      8  C   UNL     1      -3.252  67.644 -19.699  1.00  0.00     0.004 C 
BRANCH   8   9
ATOM      9  C   UNL     1      -2.397  68.512 -18.766  1.00  0.00    -0.003 C 
ATOM     10  C   UNL     1      -1.417  69.372 -19.559  1.00  0.00     0.004 C 
ENDBRANCH   8   9
ENDBRANCH   7   8
ENDBRANCH   1   7
BRANCH   2  11
ATOM     11  C   UNL     1      -7.440  68.346 -21.218  1.00  0.00     0.040 C 
BRANCH  11  12
ATOM     12  C   UNL     1      -7.949  66.898 -21.201  1.00  0.00     0.005 C 
BRANCH  12  13
ATOM     13  C   UNL     1      -8.629  66.527 -19.875  1.00  0.00    -0.003 C 
ATOM     14  C   UNL     1      -7.776  66.881 -18.657  1.00  0.00     0.004 C 
ENDBRANCH  12  13
ENDBRANCH  11  12
ENDBRANCH   2  11
BRANCH   3  15
ATOM     15  O   UNL     1      -7.574  68.909 -24.096  1.00  0.00    -0.508 OA
ATOM     16  H   UNL     1      -7.952  68.339 -24.842  1.00  0.00     0.293 HD
ENDBRANCH   3  15
TORSDOF 7
ENDMDL
MODEL 2
REMARK VINA RESULT:    -5.785     10.269     12.892
REMARK INTER + INTRA:          -8.896
REMARK INTER:                  -7.751
REMARK INTRA:                  -1.145
REMARK UNBOUND:                -0.913
REMARK SMILES CCCCc1cccc(O)c1CCCC
REMARK SMILES IDX 5 1 11 2 9 3 8 4 7 5 6 6 4 7 3 8 2 9 1 10 12 11 13 12 14 13
REMARK SMILES IDX 15 14 10 15
REMARK H PARENT 10 16
REMARK Flexibility Score: inf
ROOT
ATOM      1  C   UNL     1      -2.024  61.171 -10.963  1.00  0.00    -0.041 A 
ATOM      2  C   UNL     1      -1.928  62.589 -11.112  1.00  0.00    -0.003 A 
ATOM      3  C   UNL     1      -1.288  63.344 -10.090  1.00  0.00     0.119 A 
ATOM      4  C   UNL     1      -0.662  62.691  -9.026  1.00  0.00     0.046 A 
ATOM      5  C   UNL     1      -0.670  61.305  -8.942  1.00  0.00     0.004 A 
ATOM      6  C   UNL     1      -1.343  60.552  -9.898  1.00  0.00     0.004 A 
ENDROOT
BRANCH   1   7
ATOM      7  C   UNL     1      -2.797  60.275 -11.926  1.00  0.00     0.036 C 
BRANCH   7   8
ATOM      8  C   UNL     1      -4.307  60.216 -11.624  1.00  0.00     0.004 C 
BRANCH   8   9
ATOM      9  C   UNL     1      -5.162  60.319 -12.895  1.00  0.00    -0.003 C 
ATOM     10  C   UNL     1      -5.819  61.691 -13.007  1.00  0.00     0.004 C 
ENDBRANCH   8   9
ENDBRANCH   7   8
ENDBRANCH   1   7
BRANCH   2  11
ATOM     11  C   UNL     1      -2.459  63.299 -12.346  1.00  0.00     0.040 C 
BRANCH  11  12
ATOM     12  C   UNL     1      -1.554  63.052 -13.560  1.00  0.00     0.005 C 
BRANCH  12  13
ATOM     13  C   UNL     1      -2.322  63.102 -14.889  1.00  0.00    -0.003 C 
ATOM     14  C   UNL     1      -2.855  61.733 -15.312  1.00  0.00     0.004 C 
ENDBRANCH  12  13
ENDBRANCH  11  12
ENDBRANCH   2  11
BRANCH   3  15
ATOM     15  O   UNL     1      -1.255  64.741 -10.089  1.00  0.00    -0.508 OA
ATOM     16  H   UNL     1      -2.042  65.327  -9.845  1.00  0.00     0.293 HD
ENDBRANCH   3  15
TORSDOF 7
ENDMDL
MODEL 3
REMARK VINA RESULT:    -5.761      1.376      4.006
REMARK INTER + INTRA:          -8.863
REMARK INTER:                  -7.965
REMARK INTRA:                  -0.898
REMARK UNBOUND:                -0.913
REMARK SMILES CCCCc1cccc(O)c1CCCC
REMARK SMILES IDX 5 1 11 2 9 3 8 4 7 5 6 6 4 7 3 8 2 9 1 10 12 11 13 12 14 13
REMARK SMILES IDX 15 14 10 15
REMARK H PARENT 10 16
REMARK Flexibility Score: inf
ROOT
ATOM      1  C   UNL     1      -4.510  67.983 -20.708  1.00  0.00    -0.041 A 
ATOM      2  C   UNL     1      -4.701  68.373 -22.070  1.00  0.00    -0.003 A 
ATOM      3  C   UNL     1      -6.007  68.737 -22.502  1.00  0.00     0.119 A 
ATOM      4  C   UNL     1      -7.050  68.827 -21.579  1.00  0.00     0.046 A 
ATOM      5  C   UNL     1      -6.833  68.547 -20.235  1.00  0.00     0.004 A 
ATOM      6  C   UNL     1      -5.579  68.129 -19.804  1.00  0.00     0.004 A 
ENDROOT
BRANCH   1   7
ATOM      7  C   UNL     1      -3.189  67.451 -20.164  1.00  0.00     0.036 C 
BRANCH   7   8
ATOM      8  C   UNL     1      -2.665  68.246 -18.951  1.00  0.00     0.004 C 
BRANCH   8   9
ATOM      9  C   UNL     1      -1.773  69.424 -19.366  1.00  0.00    -0.003 C 
ATOM     10  C   UNL     1      -0.883  69.051 -20.548  1.00  0.00     0.004 C 
ENDBRANCH   8   9
ENDBRANCH   7   8
ENDBRANCH   1   7
BRANCH   2  11
ATOM     11  C   UNL     1      -3.543  68.439 -23.050  1.00  0.00     0.040 C 
BRANCH  11  12
ATOM     12  C   UNL     1      -3.342  67.095 -23.763  1.00  0.00     0.005 C 
BRANCH  12  13
ATOM     13  C   UNL     1      -2.633  67.245 -25.117  1.00  0.00    -0.003 C 
ATOM     14  C   UNL     1      -3.608  67.500 -26.266  1.00  0.00     0.004 C 
ENDBRANCH  12  13
ENDBRANCH  11  12
ENDBRANCH   2  11
BRANCH   3  15
ATOM     15  O   UNL     1      -6.312  69.013 -23.838  1.00  0.00    -0.508 OA
ATOM     16  H   UNL     1      -6.181  69.916 -24.274  1.00  0.00     0.293 HD
ENDBRANCH   3  15
TORSDOF 7
ENDMDL
MODEL 4
REMARK VINA RESULT:    -5.695      2.816      5.805
REMARK INTER + INTRA:          -8.773
REMARK INTER:                  -7.818
REMARK INTRA:                  -0.954
REMARK UNBOUND:                -0.913
REMARK SMILES CCCCc1cccc(O)c1CCCC
REMARK SMILES IDX 5 1 11 2 9 3 8 4 7 5 6 6 4 7 3 8 2 9 1 10 12 11 13 12 14 13
REMARK SMILES IDX 15 14 10 15
REMARK H PARENT 10 16
REMARK Flexibility Score: inf
ROOT
ATOM      1  C   UNL     1      -4.062  67.926 -21.627  1.00  0.00    -0.041 A 
ATOM      2  C   UNL     1      -2.810  67.617 -22.243  1.00  0.00    -0.003 A 
ATOM      3  C   UNL     1      -1.610  68.044 -21.610  1.00  0.00     0.119 A 
ATOM      4  C   UNL     1      -1.659  68.644 -20.350  1.00  0.00     0.046 A 
ATOM      5  C   UNL     1      -2.875  68.847 -19.709  1.00  0.00     0.004 A 
ATOM      6  C   UNL     1      -4.063  68.494 -20.339  1.00  0.00     0.004 A 
ENDROOT
BRANCH   1   7
ATOM      7  C   UNL     1      -5.412  67.636 -22.274  1.00  0.00     0.036 C 
BRANCH   7   8
ATOM      8  C   UNL     1      -6.059  68.878 -22.917  1.00  0.00     0.004 C 
BRANCH   8   9
ATOM      9  C   UNL     1      -6.677  68.572 -24.289  1.00  0.00    -0.003 C 
ATOM     10  C   UNL     1      -6.024  69.407 -25.386  1.00  0.00     0.004 C 
ENDBRANCH   8   9
ENDBRANCH   7   8
ENDBRANCH   1   7
BRANCH   2  11
ATOM     11  C   UNL     1      -2.732  66.819 -23.534  1.00  0.00     0.040 C 
BRANCH  11  12
ATOM     12  C   UNL     1      -2.862  67.734 -24.759  1.00  0.00     0.005 C 
BRANCH  12  13
ATOM     13  C   UNL     1      -2.621  66.988 -26.081  1.00  0.00    -0.003 C 
ATOM     14  C   UNL     1      -3.848  66.995 -26.992  1.00  0.00     0.004 C 
ENDBRANCH  12  13
ENDBRANCH  11  12
ENDBRANCH   2  11
BRANCH   3  15
ATOM     15  O   UNL     1      -0.350  67.895 -22.196  1.00  0.00    -0.508 OA
ATOM     16  H   UNL     1       0.300  67.157 -21.962  1.00  0.00     0.293 HD
ENDBRANCH   3  15
TORSDOF 7
ENDMDL
MODEL 5
REMARK VINA RESULT:    -5.582      1.873      4.437
REMARK INTER + INTRA:          -8.616
REMARK INTER:                  -7.500
REMARK INTRA:                  -1.116
REMARK UNBOUND:                -0.913
REMARK SMILES CCCCc1cccc(O)c1CCCC
REMARK SMILES IDX 5 1 11 2 9 3 8 4 7 5 6 6 4 7 3 8 2 9 1 10 12 11 13 12 14 13
REMARK SMILES IDX 15 14 10 15
REMARK H PARENT 10 16
REMARK Flexibility Score: inf
ROOT
ATOM      1  C   UNL     1      -5.243  68.484 -22.904  1.00  0.00    -0.041 A 
ATOM      2  C   UNL     1      -5.549  68.627 -21.516  1.00  0.00    -0.003 A 
ATOM      3  C   UNL     1      -6.912  68.727 -21.120  1.00  0.00     0.119 A 
ATOM      4  C   UNL     1      -7.928  68.564 -22.063  1.00  0.00     0.046 A 
ATOM      5  C   UNL     1      -7.624  68.320 -23.397  1.00  0.00     0.004 A 
ATOM      6  C   UNL     1      -6.298  68.280 -23.814  1.00  0.00     0.004 A 
ENDROOT
BRANCH   1   7
ATOM      7  C   UNL     1      -3.823  68.496 -23.458  1.00  0.00     0.036 C 
BRANCH   7   8
ATOM      8  C   UNL     1      -3.328  67.104 -23.897  1.00  0.00     0.004 C 
BRANCH   8   9
ATOM      9  C   UNL     1      -2.587  67.144 -25.241  1.00  0.00    -0.003 C 
ATOM     10  C   UNL     1      -3.567  67.222 -26.407  1.00  0.00     0.004 C 
ENDBRANCH   8   9
ENDBRANCH   7   8
ENDBRANCH   1   7
BRANCH   2  11
ATOM     11  C   UNL     1      -4.459  68.641 -20.457  1.00  0.00     0.040 C 
BRANCH  11  12
ATOM     12  C   UNL     1      -4.095  67.216 -20.018  1.00  0.00     0.005 C 
BRANCH  12  13
ATOM     13  C   UNL     1      -2.578  66.971 -20.008  1.00  0.00    -0.003 C 
ATOM     14  C   UNL     1      -1.777  68.233 -20.327  1.00  0.00     0.004 C 
ENDBRANCH  12  13
ENDBRANCH  11  12
ENDBRANCH   2  11
BRANCH   3  15
ATOM     15  O   UNL     1      -7.300  68.992 -19.804  1.00  0.00    -0.508 OA
ATOM     16  H   UNL     1      -7.395  69.921 -19.417  1.00  0.00     0.293 HD
ENDBRANCH   3  15
TORSDOF 7
ENDMDL
MODEL 6
REMARK VINA RESULT:    -5.567      2.074      5.111
REMARK INTER + INTRA:          -8.596
REMARK INTER:                  -7.739
REMARK INTRA:                  -0.856
REMARK UNBOUND:                -0.913
REMARK SMILES CCCCc1cccc(O)c1CCCC
REMARK SMILES IDX 5 1 11 2 9 3 8 4 7 5 6 6 4 7 3 8 2 9 1 10 12 11 13 12 14 13
REMARK SMILES IDX 15 14 10 15
REMARK H PARENT 10 16
REMARK Flexibility Score: inf
ROOT
ATOM      1  C   UNL     1      -4.413  68.255 -21.359  1.00  0.00    -0.041 A 
ATOM      2  C   UNL     1      -3.339  67.918 -22.240  1.00  0.00    -0.003 A 
ATOM      3  C   UNL     1      -2.003  68.025 -21.763  1.00  0.00     0.119 A 
ATOM      4  C   UNL     1      -1.760  68.335 -20.423  1.00  0.00     0.046 A 
ATOM      5  C   UNL     1      -2.814  68.559 -19.546  1.00  0.00     0.004 A 
ATOM      6  C   UNL     1      -4.125  68.520 -20.007  1.00  0.00     0.004 A 
ENDROOT
BRANCH   1   7
ATOM      7  C   UNL     1      -5.874  68.303 -21.796  1.00  0.00     0.036 C 
BRANCH   7   8
ATOM      8  C   UNL     1      -6.840  68.659 -20.649  1.00  0.00     0.004 C 
BRANCH   8   9
ATOM      9  C   UNL     1      -7.741  67.479 -20.256  1.00  0.00    -0.003 C 
ATOM     10  C   UNL     1      -7.549  67.105 -18.790  1.00  0.00     0.004 C 
ENDBRANCH   8   9
ENDBRANCH   7   8
ENDBRANCH   1   7
BRANCH   2  11
ATOM     11  C   UNL     1      -3.592  67.420 -23.652  1.00  0.00     0.040 C 
BRANCH  11  12
ATOM     12  C   UNL     1      -3.503  68.567 -24.668  1.00  0.00     0.005 C 
BRANCH  12  13
ATOM     13  C   UNL     1      -4.577  68.472 -25.762  1.00  0.00    -0.003 C 
ATOM     14  C   UNL     1      -5.852  69.234 -25.402  1.00  0.00     0.004 C 
ENDBRANCH  12  13
ENDBRANCH  11  12
ENDBRANCH   2  11
BRANCH   3  15
ATOM     15  O   UNL     1      -0.888  67.836 -22.585  1.00  0.00    -0.508 OA
ATOM     16  H   UNL     1      -0.766  68.282 -23.485  1.00  0.00     0.293 HD
ENDBRANCH   3  15
TORSDOF 7
ENDMDL
MODEL 7
REMARK VINA RESULT:    -5.541      2.443      4.603
REMARK INTER + INTRA:          -8.559
REMARK INTER:                  -7.466
REMARK INTRA:                  -1.094
REMARK UNBOUND:                -0.913
REMARK SMILES CCCCc1cccc(O)c1CCCC
REMARK SMILES IDX 5 1 11 2 9 3 8 4 7 5 6 6 4 7 3 8 2 9 1 10 12 11 13 12 14 13
REMARK SMILES IDX 15 14 10 15
REMARK H PARENT 10 16
REMARK Flexibility Score: inf
ROOT
ATOM      1  C   UNL     1      -4.659  68.161 -23.828  1.00  0.00    -0.041 A 
ATOM      2  C   UNL     1      -3.549  67.365 -24.249  1.00  0.00    -0.003 A 
ATOM      3  C   UNL     1      -3.371  67.117 -25.639  1.00  0.00     0.119 A 
ATOM      4  C   UNL     1      -4.197  67.745 -26.573  1.00  0.00     0.046 A 
ATOM      5  C   UNL     1      -5.210  68.602 -26.161  1.00  0.00     0.004 A 
ATOM      6  C   UNL     1      -5.440  68.808 -24.804  1.00  0.00     0.004 A 
ENDROOT
BRANCH   1   7
ATOM      7  C   UNL     1      -5.024  68.386 -22.365  1.00  0.00     0.036 C 
BRANCH   7   8
ATOM      8  C   UNL     1      -5.641  67.143 -21.693  1.00  0.00     0.004 C 
BRANCH   8   9
ATOM      9  C   UNL     1      -5.254  67.027 -20.212  1.00  0.00    -0.003 C 
ATOM     10  C   UNL     1      -4.342  68.174 -19.790  1.00  0.00     0.004 C 
ENDBRANCH   8   9
ENDBRANCH   7   8
ENDBRANCH   1   7
BRANCH   2  11
ATOM     11  C   UNL     1      -2.544  66.809 -23.255  1.00  0.00     0.040 C 
BRANCH  11  12
ATOM     12  C   UNL     1      -1.575  67.900 -22.778  1.00  0.00     0.005 C 
BRANCH  12  13
ATOM     13  C   UNL     1      -1.006  67.614 -21.381  1.00  0.00    -0.003 C 
ATOM     14  C   UNL     1      -1.254  66.175 -20.928  1.00  0.00     0.004 C 
ENDBRANCH  12  13
ENDBRANCH  11  12
ENDBRANCH   2  11
BRANCH   3  15
ATOM     15  O   UNL     1      -2.390  66.253 -26.134  1.00  0.00    -0.508 OA
ATOM     16  H   UNL     1      -2.175  66.145 -27.117  1.00  0.00     0.293 HD
ENDBRANCH   3  15
TORSDOF 7
ENDMDL
MODEL 8
REMARK VINA RESULT:    -5.533      1.534      2.003
REMARK INTER + INTRA:          -8.548
REMARK INTER:                  -7.099
REMARK INTRA:                  -1.449
REMARK UNBOUND:                -0.913
REMARK SMILES CCCCc1cccc(O)c1CCCC
REMARK SMILES IDX 5 1 11 2 9 3 8 4 7 5 6 6 4 7 3 8 2 9 1 10 12 11 13 12 14 13
REMARK SMILES IDX 15 14 10 15
REMARK H PARENT 10 16
REMARK Flexibility Score: inf
ROOT
ATOM      1  C   UNL     1      -3.607  66.918 -22.828  1.00  0.00    -0.041 A 
ATOM      2  C   UNL     1      -4.838  67.617 -23.028  1.00  0.00    -0.003 A 
ATOM      3  C   UNL     1      -4.943  68.521 -24.121  1.00  0.00     0.119 A 
ATOM      4  C   UNL     1      -3.902  68.625 -25.046  1.00  0.00     0.046 A 
ATOM      5  C   UNL     1      -2.749  67.863 -24.903  1.00  0.00     0.004 A 
ATOM      6  C   UNL     1      -2.601  67.020 -23.807  1.00  0.00     0.004 A 
ENDROOT
BRANCH   1   7
ATOM      7  C   UNL     1      -3.334  66.026 -21.622  1.00  0.00     0.036 C 
BRANCH   7   8
ATOM      8  C   UNL     1      -2.189  66.543 -20.728  1.00  0.00     0.004 C 
BRANCH   8   9
ATOM      9  C   UNL     1      -2.704  67.320 -19.509  1.00  0.00    -0.003 C 
ATOM     10  C   UNL     1      -2.589  68.825 -19.727  1.00  0.00     0.004 C 
ENDBRANCH   8   9
ENDBRANCH   7   8
ENDBRANCH   1   7
BRANCH   2  11
ATOM     11  C   UNL     1      -6.038  67.391 -22.125  1.00  0.00     0.040 C 
BRANCH  11  12
ATOM     12  C   UNL     1      -6.074  68.418 -20.984  1.00  0.00     0.005 C 
BRANCH  12  13
ATOM     13  C   UNL     1      -6.342  67.772 -19.617  1.00  0.00    -0.003 C 
ATOM     14  C   UNL     1      -6.533  66.258 -19.709  1.00  0.00     0.004 C 
ENDBRANCH  12  13
ENDBRANCH  11  12
ENDBRANCH   2  11
BRANCH   3  15
ATOM     15  O   UNL     1      -6.060  69.337 -24.324  1.00  0.00    -0.508 OA
ATOM     16  H   UNL     1      -6.749  69.184 -25.049  1.00  0.00     0.293 HD
ENDBRANCH   3  15
TORSDOF 7
ENDMDL
MODEL 9
REMARK VINA RESULT:    -5.497      2.269      4.494
REMARK INTER + INTRA:          -8.498
REMARK INTER:                  -7.279
REMARK INTRA:                  -1.220
REMARK UNBOUND:                -0.913
REMARK SMILES CCCCc1cccc(O)c1CCCC
REMARK SMILES IDX 5 1 11 2 9 3 8 4 7 5 6 6 4 7 3 8 2 9 1 10 12 11 13 12 14 13
REMARK SMILES IDX 15 14 10 15
REMARK H PARENT 10 16
REMARK Flexibility Score: inf
ROOT
ATOM      1  C   UNL     1      -4.415  66.956 -22.635  1.00  0.00    -0.041 A 
ATOM      2  C   UNL     1      -3.072  67.111 -22.170  1.00  0.00    -0.003 A 
ATOM      3  C   UNL     1      -2.200  67.988 -22.873  1.00  0.00     0.119 A 
ATOM      4  C   UNL     1      -2.690  68.771 -23.921  1.00  0.00     0.046 A 
ATOM      5  C   UNL     1      -4.025  68.691 -24.300  1.00  0.00     0.004 A 
ATOM      6  C   UNL     1      -4.878  67.795 -23.666  1.00  0.00     0.004 A 
ENDROOT
BRANCH   1   7
ATOM      7  C   UNL     1      -5.398  65.951 -22.043  1.00  0.00     0.036 C 
BRANCH   7   8
ATOM      8  C   UNL     1      -6.751  66.580 -21.654  1.00  0.00     0.004 C 
BRANCH   8   9
ATOM      9  C   UNL     1      -6.696  67.290 -20.294  1.00  0.00    -0.003 C 
ATOM     10  C   UNL     1      -6.823  68.801 -20.457  1.00  0.00     0.004 C 
ENDBRANCH   8   9
ENDBRANCH   7   8
ENDBRANCH   1   7
BRANCH   2  11
ATOM     11  C   UNL     1      -2.569  66.391 -20.931  1.00  0.00     0.040 C 
BRANCH  11  12
ATOM     12  C   UNL     1      -3.052  67.087 -19.651  1.00  0.00     0.005 C 
BRANCH  12  13
ATOM     13  C   UNL     1      -3.073  68.617 -19.783  1.00  0.00    -0.003 C 
ATOM     14  C   UNL     1      -1.768  69.265 -19.321  1.00  0.00     0.004 C 
ENDBRANCH  12  13
ENDBRANCH  11  12
ENDBRANCH   2  11
BRANCH   3  15
ATOM     15  O   UNL     1      -0.842  68.110 -22.568  1.00  0.00    -0.508 OA
ATOM     16  H   UNL     1      -0.120  67.512 -22.949  1.00  0.00     0.293 HD
ENDBRANCH   3  15
TORSDOF 7
ENDMDL
