MODEL 1
REMARK VINA RESULT:    -3.479      0.000      0.000
REMARK INTER + INTRA:          -4.276
REMARK INTER:                  -4.089
REMARK INTRA:                  -0.187
REMARK UNBOUND:                -0.187
REMARK SMILES O=C([O-])CCC(=O)[O-]
REMARK SMILES IDX 4 1 2 2 1 3 3 4 5 5 6 6 7 7 8 8
REMARK H PARENT
REMARK Flexibility Score: inf
ROOT
ATOM      1  C   UNL     1      39.836  17.874  11.405  1.00  0.00     0.059 C 
ENDROOT
BRANCH   1   2
ATOM      2  C   UNL     1      39.574  18.929  10.374  1.00  0.00     0.042 C 
ATOM      3  O   UNL     1      38.592  19.708  10.500  1.00  0.00    -0.550 OA
ATOM      4  O   UNL     1      40.435  19.078   9.294  1.00  0.00    -0.550 OA
ENDBRANCH   1   2
BRANCH   1   5
ATOM      5  C   UNL     1      41.203  18.064  12.073  1.00  0.00     0.059 C 
BRANCH   5   6
ATOM      6  C   UNL     1      41.294  19.382  12.780  1.00  0.00     0.042 C 
ATOM      7  O   UNL     1      40.618  19.590  13.822  1.00  0.00    -0.550 OA
ATOM      8  O   UNL     1      42.158  20.364  12.312  1.00  0.00    -0.550 OA
ENDBRANCH   5   6
ENDBRANCH   1   5
TORSDOF 3
ENDMDL
MODEL 2
REMARK VINA RESULT:    -3.477      0.024      3.168
REMARK INTER + INTRA:          -4.273
REMARK INTER:                  -4.086
REMARK INTRA:                  -0.187
REMARK UNBOUND:                -0.187
REMARK SMILES O=C([O-])CCC(=O)[O-]
REMARK SMILES IDX 4 1 2 2 1 3 3 4 5 5 6 6 7 7 8 8
REMARK H PARENT
REMARK Flexibility Score: inf
ROOT
ATOM      1  C   UNL     1      41.227  18.070  12.055  1.00  0.00     0.059 C 
ENDROOT
BRANCH   1   2
ATOM      2  C   UNL     1      41.304  19.381  12.776  1.00  0.00     0.042 C 
ATOM      3  O   UNL     1      40.624  19.571  13.819  1.00  0.00    -0.550 OA
ATOM      4  O   UNL     1      42.157  20.378  12.320  1.00  0.00    -0.550 OA
ENDBRANCH   1   2
BRANCH   1   5
ATOM      5  C   UNL     1      39.862  17.874  11.385  1.00  0.00     0.059 C 
BRANCH   5   6
ATOM      6  C   UNL     1      39.587  18.941  10.369  1.00  0.00     0.042 C 
ATOM      7  O   UNL     1      38.601  19.712  10.512  1.00  0.00    -0.550 OA
ATOM      8  O   UNL     1      40.441  19.108   9.287  1.00  0.00    -0.550 OA
ENDBRANCH   5   6
ENDBRANCH   1   5
TORSDOF 3
ENDMDL
MODEL 3
REMARK VINA RESULT:    -3.468      0.139      3.332
REMARK INTER + INTRA:          -4.264
REMARK INTER:                  -4.081
REMARK INTRA:                  -0.183
REMARK UNBOUND:                -0.187
REMARK SMILES O=C([O-])CCC(=O)[O-]
REMARK SMILES IDX 4 1 2 2 1 3 3 4 5 5 6 6 7 7 8 8
REMARK H PARENT
REMARK Flexibility Score: inf
ROOT
ATOM      1  C   UNL     1      41.340  18.115  12.120  1.00  0.00     0.059 C 
ENDROOT
BRANCH   1   2
ATOM      2  C   UNL     1      41.318  19.445  12.809  1.00  0.00     0.042 C 
ATOM      3  O   UNL     1      40.625  19.609  13.848  1.00  0.00    -0.550 OA
ATOM      4  O   UNL     1      42.093  20.493  12.328  1.00  0.00    -0.550 OA
ENDBRANCH   1   2
BRANCH   1   5
ATOM      5  C   UNL     1      39.997  17.805  11.449  1.00  0.00     0.059 C 
BRANCH   5   6
ATOM      6  C   UNL     1      39.636  18.841  10.429  1.00  0.00     0.042 C 
ATOM      7  O   UNL     1      40.359  19.005   9.410  1.00  0.00    -0.550 OA
ATOM      8  O   UNL     1      38.481  19.596  10.582  1.00  0.00    -0.550 OA
ENDBRANCH   5   6
ENDBRANCH   1   5
TORSDOF 3
ENDMDL
MODEL 4
REMARK VINA RESULT:    -3.382      2.299      3.832
REMARK INTER + INTRA:          -4.162
REMARK INTER:                  -4.043
REMARK INTRA:                  -0.119
REMARK UNBOUND:                -0.187
REMARK SMILES O=C([O-])CCC(=O)[O-]
REMARK SMILES IDX 4 1 2 2 1 3 3 4 5 5 6 6 7 7 8 8
REMARK H PARENT
REMARK Flexibility Score: inf
ROOT
ATOM      1  C   UNL     1      42.379  17.150  12.516  1.00  0.00     0.059 C 
ENDROOT
BRANCH   1   2
ATOM      2  C   UNL     1      43.838  17.464  12.393  1.00  0.00     0.042 C 
ATOM      3  O   UNL     1      44.687  16.533  12.375  1.00  0.00    -0.550 OA
ATOM      4  O   UNL     1      44.260  18.780  12.258  1.00  0.00    -0.550 OA
ENDBRANCH   1   2
BRANCH   1   5
ATOM      5  C   UNL     1      41.539  17.974  11.533  1.00  0.00     0.059 C 
BRANCH   5   6
ATOM      6  C   UNL     1      40.599  18.896  12.247  1.00  0.00     0.042 C 
ATOM      7  O   UNL     1      39.447  19.108  11.785  1.00  0.00    -0.550 OA
ATOM      8  O   UNL     1      40.980  19.489  13.444  1.00  0.00    -0.550 OA
ENDBRANCH   5   6
ENDBRANCH   1   5
TORSDOF 3
ENDMDL
MODEL 5
REMARK VINA RESULT:    -3.333      1.694      2.273
REMARK INTER + INTRA:          -4.105
REMARK INTER:                  -3.921
REMARK INTRA:                  -0.185
REMARK UNBOUND:                -0.187
REMARK SMILES O=C([O-])CCC(=O)[O-]
REMARK SMILES IDX 4 1 2 2 1 3 3 4 5 5 6 6 7 7 8 8
REMARK H PARENT
REMARK Flexibility Score: inf
ROOT
ATOM      1  C   UNL     1      40.059  18.938  10.215  1.00  0.00     0.059 C 
ENDROOT
BRANCH   1   2
ATOM      2  C   UNL     1      41.358  19.021   9.475  1.00  0.00     0.042 C 
ATOM      3  O   UNL     1      41.768  18.038   8.802  1.00  0.00    -0.550 OA
ATOM      4  O   UNL     1      42.098  20.197   9.494  1.00  0.00    -0.550 OA
ENDBRANCH   1   2
BRANCH   1   5
ATOM      5  C   UNL     1      40.105  17.874  11.318  1.00  0.00     0.059 C 
BRANCH   5   6
ATOM      6  C   UNL     1      41.231  18.119  12.276  1.00  0.00     0.042 C 
ATOM      7  O   UNL     1      41.224  19.140  13.013  1.00  0.00    -0.550 OA
ATOM      8  O   UNL     1      42.265  17.199  12.383  1.00  0.00    -0.550 OA
ENDBRANCH   5   6
ENDBRANCH   1   5
TORSDOF 3
ENDMDL
MODEL 6
REMARK VINA RESULT:    -3.328     15.663     16.341
REMARK INTER + INTRA:          -4.099
REMARK INTER:                  -3.975
REMARK INTRA:                  -0.124
REMARK UNBOUND:                -0.187
REMARK SMILES O=C([O-])CCC(=O)[O-]
REMARK SMILES IDX 4 1 2 2 1 3 3 4 5 5 6 6 7 7 8 8
REMARK H PARENT
REMARK Flexibility Score: inf
ROOT
ATOM      1  C   UNL     1      35.242   5.498  16.490  1.00  0.00     0.059 C 
ENDROOT
BRANCH   1   2
ATOM      2  C   UNL     1      34.864   4.699  15.281  1.00  0.00     0.042 C 
ATOM      3  O   UNL     1      35.605   4.705  14.261  1.00  0.00    -0.550 OA
ATOM      4  O   UNL     1      33.716   3.917  15.291  1.00  0.00    -0.550 OA
ENDBRANCH   1   2
BRANCH   1   5
ATOM      5  C   UNL     1      34.013   6.125  17.159  1.00  0.00     0.059 C 
BRANCH   5   6
ATOM      6  C   UNL     1      33.762   5.540  18.514  1.00  0.00     0.042 C 
ATOM      7  O   UNL     1      33.636   4.295  18.653  1.00  0.00    -0.550 OA
ATOM      8  O   UNL     1      33.708   6.366  19.630  1.00  0.00    -0.550 OA
ENDBRANCH   5   6
ENDBRANCH   1   5
TORSDOF 3
ENDMDL
MODEL 7
REMARK VINA RESULT:    -3.326      2.356      3.148
REMARK INTER + INTRA:          -4.096
REMARK INTER:                  -3.986
REMARK INTRA:                  -0.110
REMARK UNBOUND:                -0.187
REMARK SMILES O=C([O-])CCC(=O)[O-]
REMARK SMILES IDX 4 1 2 2 1 3 3 4 5 5 6 6 7 7 8 8
REMARK H PARENT
REMARK Flexibility Score: inf
ROOT
ATOM      1  C   UNL     1      41.549  17.938  11.486  1.00  0.00     0.059 C 
ENDROOT
BRANCH   1   2
ATOM      2  C   UNL     1      40.617  18.920  12.126  1.00  0.00     0.042 C 
ATOM      3  O   UNL     1      39.559  19.266  11.536  1.00  0.00    -0.550 OA
ATOM      4  O   UNL     1      40.895  19.424  13.390  1.00  0.00    -0.550 OA
ENDBRANCH   1   2
BRANCH   1   5
ATOM      5  C   UNL     1      42.392  17.196  12.530  1.00  0.00     0.059 C 
BRANCH   5   6
ATOM      6  C   UNL     1      43.858  17.428  12.323  1.00  0.00     0.042 C 
ATOM      7  O   UNL     1      44.305  18.600  12.214  1.00  0.00    -0.550 OA
ATOM      8  O   UNL     1      44.735  16.351  12.291  1.00  0.00    -0.550 OA
ENDBRANCH   5   6
ENDBRANCH   1   5
TORSDOF 3
ENDMDL
MODEL 8
REMARK VINA RESULT:    -3.324     15.613     16.046
REMARK INTER + INTRA:          -4.095
REMARK INTER:                  -4.060
REMARK INTRA:                  -0.034
REMARK UNBOUND:                -0.187
REMARK SMILES O=C([O-])CCC(=O)[O-]
REMARK SMILES IDX 4 1 2 2 1 3 3 4 5 5 6 6 7 7 8 8
REMARK H PARENT
REMARK Flexibility Score: inf
ROOT
ATOM      1  C   UNL     1      35.262   5.527  16.662  1.00  0.00     0.059 C 
ENDROOT
BRANCH   1   2
ATOM      2  C   UNL     1      34.096   6.099  17.407  1.00  0.00     0.042 C 
ATOM      3  O   UNL     1      33.026   6.369  16.798  1.00  0.00    -0.550 OA
ATOM      4  O   UNL     1      34.174   6.297  18.780  1.00  0.00    -0.550 OA
ENDBRANCH   1   2
BRANCH   1   5
ATOM      5  C   UNL     1      34.817   4.798  15.388  1.00  0.00     0.059 C 
BRANCH   5   6
ATOM      6  C   UNL     1      35.965   4.113  14.714  1.00  0.00     0.042 C 
ATOM      7  O   UNL     1      35.974   3.977  13.461  1.00  0.00    -0.550 OA
ATOM      8  O   UNL     1      37.044   3.661  15.463  1.00  0.00    -0.550 OA
ENDBRANCH   5   6
ENDBRANCH   1   5
TORSDOF 3
ENDMDL
MODEL 9
REMARK VINA RESULT:    -3.292     15.662     15.941
REMARK INTER + INTRA:          -4.056
REMARK INTER:                  -4.019
REMARK INTRA:                  -0.037
REMARK UNBOUND:                -0.187
REMARK SMILES O=C([O-])CCC(=O)[O-]
REMARK SMILES IDX 4 1 2 2 1 3 3 4 5 5 6 6 7 7 8 8
REMARK H PARENT
REMARK Flexibility Score: inf
ROOT
ATOM      1  C   UNL     1      34.856   4.785  15.345  1.00  0.00     0.059 C 
ENDROOT
BRANCH   1   2
ATOM      2  C   UNL     1      36.030   4.077  14.740  1.00  0.00     0.042 C 
ATOM      3  O   UNL     1      36.980   3.689  15.470  1.00  0.00    -0.550 OA
ATOM      4  O   UNL     1      36.057   3.810  13.377  1.00  0.00    -0.550 OA
ENDBRANCH   1   2
BRANCH   1   5
ATOM      5  C   UNL     1      35.236   5.494  16.650  1.00  0.00     0.059 C 
BRANCH   5   6
ATOM      6  C   UNL     1      34.031   6.042  17.352  1.00  0.00     0.042 C 
ATOM      7  O   UNL     1      32.985   6.305  16.701  1.00  0.00    -0.550 OA
ATOM      8  O   UNL     1      34.049   6.223  18.728  1.00  0.00    -0.550 OA
ENDBRANCH   5   6
ENDBRANCH   1   5
TORSDOF 3
ENDMDL
