MODEL 1
REMARK VINA RESULT:    -3.843      0.000      0.000
REMARK INTER + INTRA:          -6.015
REMARK INTER:                  -5.641
REMARK INTRA:                  -0.374
REMARK UNBOUND:                -0.374
REMARK SMILES O=C([O-])CCCCCCCC(=O)[O-]
REMARK SMILES IDX 7 1 6 2 5 3 4 4 2 5 1 6 3 7 8 8 9 9 10 10 11 11 12 12 13 13
REMARK H PARENT
REMARK Flexibility Score: inf
ROOT
ATOM      1  C   UNL     1       5.933 -22.566 -12.274  1.00  0.00     0.000 C 
ENDROOT
BRANCH   1   2
ATOM      2  C   UNL     1       4.950 -21.407 -12.070  1.00  0.00     0.000 C 
BRANCH   2   3
ATOM      3  C   UNL     1       5.192 -20.294 -13.096  1.00  0.00     0.006 C 
BRANCH   3   4
ATOM      4  C   UNL     1       6.323 -20.670 -14.058  1.00  0.00     0.053 C 
BRANCH   4   5
ATOM      5  C   UNL     1       6.297 -19.790 -15.267  1.00  0.00     0.041 C 
ATOM      6  O   UNL     1       5.950 -20.256 -16.384  1.00  0.00    -0.550 OA
ATOM      7  O   UNL     1       6.704 -18.465 -15.171  1.00  0.00    -0.550 OA
ENDBRANCH   4   5
ENDBRANCH   3   4
ENDBRANCH   2   3
ENDBRANCH   1   2
BRANCH   1   8
ATOM      8  C   UNL     1       5.335 -23.889 -11.780  1.00  0.00     0.000 C 
BRANCH   8   9
ATOM      9  C   UNL     1       5.980 -24.324 -10.456  1.00  0.00     0.006 C 
BRANCH   9  10
ATOM     10  C   UNL     1       5.136 -23.922  -9.240  1.00  0.00     0.053 C 
BRANCH  10  11
ATOM     11  C   UNL     1       5.968 -23.263  -8.181  1.00  0.00     0.041 C 
ATOM     12  O   UNL     1       6.067 -23.781  -7.038  1.00  0.00    -0.550 OA
ATOM     13  O   UNL     1       6.607 -22.059  -8.448  1.00  0.00    -0.550 OA
ENDBRANCH  10  11
ENDBRANCH   9  10
ENDBRANCH   8   9
ENDBRANCH   1   8
TORSDOF 8
ENDMDL
MODEL 2
REMARK VINA RESULT:    -3.787     14.299     15.874
REMARK INTER + INTRA:          -5.933
REMARK INTER:                  -5.580
REMARK INTRA:                  -0.353
REMARK UNBOUND:                -0.374
REMARK SMILES O=C([O-])CCCCCCCC(=O)[O-]
REMARK SMILES IDX 7 1 6 2 5 3 4 4 2 5 1 6 3 7 8 8 9 9 10 10 11 11 12 12 13 13
REMARK H PARENT
REMARK Flexibility Score: inf
ROOT
ATOM      1  C   UNL     1       6.250  -6.596  -7.650  1.00  0.00     0.000 C 
ENDROOT
BRANCH   1   2
ATOM      2  C   UNL     1       5.055  -6.368  -8.585  1.00  0.00     0.000 C 
BRANCH   2   3
ATOM      3  C   UNL     1       5.218  -7.160  -9.888  1.00  0.00     0.006 C 
BRANCH   3   4
ATOM      4  C   UNL     1       5.962  -8.475  -9.641  1.00  0.00     0.053 C 
BRANCH   4   5
ATOM      5  C   UNL     1       5.936  -9.330 -10.868  1.00  0.00     0.041 C 
ATOM      6  O   UNL     1       5.979 -10.584 -10.769  1.00  0.00    -0.550 OA
ATOM      7  O   UNL     1       5.916  -8.740 -12.126  1.00  0.00    -0.550 OA
ENDBRANCH   4   5
ENDBRANCH   3   4
ENDBRANCH   2   3
ENDBRANCH   1   2
BRANCH   1   8
ATOM      8  C   UNL     1       6.305  -5.524  -6.555  1.00  0.00     0.000 C 
BRANCH   8   9
ATOM      9  C   UNL     1       7.758  -5.195  -6.181  1.00  0.00     0.006 C 
BRANCH   9  10
ATOM     10  C   UNL     1       8.721  -6.337  -6.527  1.00  0.00     0.053 C 
BRANCH  10  11
ATOM     11  C   UNL     1      10.126  -5.845  -6.700  1.00  0.00     0.041 C 
ATOM     12  O   UNL     1      10.853  -6.312  -7.616  1.00  0.00    -0.550 OA
ATOM     13  O   UNL     1      10.642  -4.896  -5.829  1.00  0.00    -0.550 OA
ENDBRANCH  10  11
ENDBRANCH   9  10
ENDBRANCH   8   9
ENDBRANCH   1   8
TORSDOF 8
ENDMDL
MODEL 3
REMARK VINA RESULT:    -3.693     13.805     16.013
REMARK INTER + INTRA:          -5.793
REMARK INTER:                  -5.453
REMARK INTRA:                  -0.340
REMARK UNBOUND:                -0.374
REMARK SMILES O=C([O-])CCCCCCCC(=O)[O-]
REMARK SMILES IDX 7 1 6 2 5 3 4 4 2 5 1 6 3 7 8 8 9 9 10 10 11 11 12 12 13 13
REMARK H PARENT
REMARK Flexibility Score: inf
ROOT
ATOM      1  C   UNL     1      20.302 -17.378 -16.610  1.00  0.00     0.000 C 
ENDROOT
BRANCH   1   2
ATOM      2  C   UNL     1      19.672 -16.039 -16.210  1.00  0.00     0.000 C 
BRANCH   2   3
ATOM      3  C   UNL     1      18.651 -16.227 -15.082  1.00  0.00     0.006 C 
BRANCH   3   4
ATOM      4  C   UNL     1      17.220 -16.204 -15.628  1.00  0.00     0.053 C 
BRANCH   4   5
ATOM      5  C   UNL     1      16.830 -14.814 -16.019  1.00  0.00     0.041 C 
ATOM      6  O   UNL     1      17.110 -13.842 -15.269  1.00  0.00    -0.550 OA
ATOM      7  O   UNL     1      16.113 -14.596 -17.189  1.00  0.00    -0.550 OA
ENDBRANCH   4   5
ENDBRANCH   3   4
ENDBRANCH   2   3
ENDBRANCH   1   2
BRANCH   1   8
ATOM      8  C   UNL     1      21.750 -17.188 -17.078  1.00  0.00     0.000 C 
BRANCH   8   9
ATOM      9  C   UNL     1      22.231 -18.402 -17.887  1.00  0.00     0.006 C 
BRANCH   9  10
ATOM     10  C   UNL     1      21.564 -19.705 -17.431  1.00  0.00     0.053 C 
BRANCH  10  11
ATOM     11  C   UNL     1      20.843 -20.383 -18.557  1.00  0.00     0.041 C 
ATOM     12  O   UNL     1      20.274 -19.701 -19.449  1.00  0.00    -0.550 OA
ATOM     13  O   UNL     1      20.773 -21.769 -18.601  1.00  0.00    -0.550 OA
ENDBRANCH  10  11
ENDBRANCH   9  10
ENDBRANCH   8   9
ENDBRANCH   1   8
TORSDOF 8
ENDMDL
MODEL 4
REMARK VINA RESULT:    -3.689      1.489      1.946
REMARK INTER + INTRA:          -5.788
REMARK INTER:                  -5.734
REMARK INTRA:                  -0.053
REMARK UNBOUND:                -0.374
REMARK SMILES O=C([O-])CCCCCCCC(=O)[O-]
REMARK SMILES IDX 7 1 6 2 5 3 4 4 2 5 1 6 3 7 8 8 9 9 10 10 11 11 12 12 13 13
REMARK H PARENT
REMARK Flexibility Score: inf
ROOT
ATOM      1  C   UNL     1       4.980 -20.727 -11.810  1.00  0.00     0.000 C 
ENDROOT
BRANCH   1   2
ATOM      2  C   UNL     1       5.168 -21.266 -13.234  1.00  0.00     0.000 C 
BRANCH   2   3
ATOM      3  C   UNL     1       6.136 -20.383 -14.032  1.00  0.00     0.006 C 
BRANCH   3   4
ATOM      4  C   UNL     1       5.584 -18.962 -14.182  1.00  0.00     0.053 C 
BRANCH   4   5
ATOM      5  C   UNL     1       5.793 -18.464 -15.577  1.00  0.00     0.041 C 
ATOM      6  O   UNL     1       5.522 -19.201 -16.561  1.00  0.00    -0.550 OA
ATOM      7  O   UNL     1       6.335 -17.203 -15.791  1.00  0.00    -0.550 OA
ENDBRANCH   4   5
ENDBRANCH   3   4
ENDBRANCH   2   3
ENDBRANCH   1   2
BRANCH   1   8
ATOM      8  C   UNL     1       4.924 -21.872 -10.792  1.00  0.00     0.000 C 
BRANCH   8   9
ATOM      9  C   UNL     1       5.078 -21.342  -9.358  1.00  0.00     0.006 C 
BRANCH   9  10
ATOM     10  C   UNL     1       6.264 -21.983  -8.627  1.00  0.00     0.053 C 
BRANCH  10  11
ATOM     11  C   UNL     1       6.002 -23.422  -8.298  1.00  0.00     0.041 C 
ATOM     12  O   UNL     1       6.111 -24.306  -9.187  1.00  0.00    -0.550 OA
ATOM     13  O   UNL     1       5.605 -23.780  -7.017  1.00  0.00    -0.550 OA
ENDBRANCH  10  11
ENDBRANCH   9  10
ENDBRANCH   8   9
ENDBRANCH   1   8
TORSDOF 8
ENDMDL
MODEL 5
REMARK VINA RESULT:    -3.655     14.086     16.171
REMARK INTER + INTRA:          -5.738
REMARK INTER:                  -5.445
REMARK INTRA:                  -0.294
REMARK UNBOUND:                -0.374
REMARK SMILES O=C([O-])CCCCCCCC(=O)[O-]
REMARK SMILES IDX 7 1 6 2 5 3 4 4 2 5 1 6 3 7 8 8 9 9 10 10 11 11 12 12 13 13
REMARK H PARENT
REMARK Flexibility Score: inf
ROOT
ATOM      1  C   UNL     1      21.621 -16.812 -16.979  1.00  0.00     0.000 C 
ENDROOT
BRANCH   1   2
ATOM      2  C   UNL     1      22.200 -17.989 -17.774  1.00  0.00     0.000 C 
BRANCH   2   3
ATOM      3  C   UNL     1      21.405 -19.274 -17.511  1.00  0.00     0.006 C 
BRANCH   3   4
ATOM      4  C   UNL     1      21.762 -20.358 -18.532  1.00  0.00     0.053 C 
BRANCH   4   5
ATOM      5  C   UNL     1      20.524 -20.917 -19.158  1.00  0.00     0.041 C 
ATOM      6  O   UNL     1      20.152 -22.090 -18.892  1.00  0.00    -0.550 OA
ATOM      7  O   UNL     1      19.805 -20.159 -20.074  1.00  0.00    -0.550 OA
ENDBRANCH   4   5
ENDBRANCH   3   4
ENDBRANCH   2   3
ENDBRANCH   1   2
BRANCH   1   8
ATOM      8  C   UNL     1      20.154 -17.065 -16.613  1.00  0.00     0.000 C 
BRANCH   8   9
ATOM      9  C   UNL     1      19.508 -15.802 -16.023  1.00  0.00     0.006 C 
BRANCH   9  10
ATOM     10  C   UNL     1      18.136 -16.087 -15.400  1.00  0.00     0.053 C 
BRANCH  10  11
ATOM     11  C   UNL     1      17.118 -15.065 -15.808  1.00  0.00     0.041 C 
ATOM     12  O   UNL     1      16.936 -14.036 -15.106  1.00  0.00    -0.550 OA
ATOM     13  O   UNL     1      16.348 -15.266 -16.946  1.00  0.00    -0.550 OA
ENDBRANCH  10  11
ENDBRANCH   9  10
ENDBRANCH   8   9
ENDBRANCH   1   8
TORSDOF 8
ENDMDL
MODEL 6
REMARK VINA RESULT:    -3.608      0.939      6.909
REMARK INTER + INTRA:          -5.669
REMARK INTER:                  -5.335
REMARK INTRA:                  -0.334
REMARK UNBOUND:                -0.374
REMARK SMILES O=C([O-])CCCCCCCC(=O)[O-]
REMARK SMILES IDX 7 1 6 2 5 3 4 4 2 5 1 6 3 7 8 8 9 9 10 10 11 11 12 12 13 13
REMARK H PARENT
REMARK Flexibility Score: inf
ROOT
ATOM      1  C   UNL     1       5.304 -21.469 -12.022  1.00  0.00     0.000 C 
ENDROOT
BRANCH   1   2
ATOM      2  C   UNL     1       5.613 -22.936 -12.345  1.00  0.00     0.000 C 
BRANCH   2   3
ATOM      3  C   UNL     1       5.764 -23.762 -11.062  1.00  0.00     0.006 C 
BRANCH   3   4
ATOM      4  C   UNL     1       5.156 -23.029  -9.863  1.00  0.00     0.053 C 
BRANCH   4   5
ATOM      5  C   UNL     1       5.860 -23.414  -8.601  1.00  0.00     0.041 C 
ATOM      6  O   UNL     1       5.667 -24.547  -8.086  1.00  0.00    -0.550 OA
ATOM      7  O   UNL     1       6.693 -22.503  -7.964  1.00  0.00    -0.550 OA
ENDBRANCH   4   5
ENDBRANCH   3   4
ENDBRANCH   2   3
ENDBRANCH   1   2
BRANCH   1   8
ATOM      8  C   UNL     1       5.085 -20.658 -13.304  1.00  0.00     0.000 C 
BRANCH   8   9
ATOM      9  C   UNL     1       6.368 -20.602 -14.146  1.00  0.00     0.006 C 
BRANCH   9  10
ATOM     10  C   UNL     1       6.080 -20.316 -15.626  1.00  0.00     0.053 C 
BRANCH  10  11
ATOM     11  C   UNL     1       6.008 -18.845 -15.903  1.00  0.00     0.041 C 
ATOM     12  O   UNL     1       6.694 -18.037 -15.224  1.00  0.00    -0.550 OA
ATOM     13  O   UNL     1       5.158 -18.365 -16.890  1.00  0.00    -0.550 OA
ENDBRANCH  10  11
ENDBRANCH   9  10
ENDBRANCH   8   9
ENDBRANCH   1   8
TORSDOF 8
ENDMDL
MODEL 7
REMARK VINA RESULT:    -3.546      4.508      9.647
REMARK INTER + INTRA:          -5.578
REMARK INTER:                  -5.274
REMARK INTRA:                  -0.305
REMARK UNBOUND:                -0.374
REMARK SMILES O=C([O-])CCCCCCCC(=O)[O-]
REMARK SMILES IDX 7 1 6 2 5 3 4 4 2 5 1 6 3 7 8 8 9 9 10 10 11 11 12 12 13 13
REMARK H PARENT
REMARK Flexibility Score: inf
ROOT
ATOM      1  C   UNL     1       4.898 -17.792 -16.931  1.00  0.00     0.000 C 
ENDROOT
BRANCH   1   2
ATOM      2  C   UNL     1       6.009 -17.305 -15.993  1.00  0.00     0.000 C 
BRANCH   2   3
ATOM      3  C   UNL     1       6.475 -18.430 -15.061  1.00  0.00     0.006 C 
BRANCH   3   4
ATOM      4  C   UNL     1       5.284 -19.093 -14.363  1.00  0.00     0.053 C 
BRANCH   4   5
ATOM      5  C   UNL     1       5.722 -20.324 -13.635  1.00  0.00     0.041 C 
ATOM      6  O   UNL     1       5.149 -20.668 -12.568  1.00  0.00    -0.550 OA
ATOM      7  O   UNL     1       6.797 -21.066 -14.109  1.00  0.00    -0.550 OA
ENDBRANCH   4   5
ENDBRANCH   3   4
ENDBRANCH   2   3
ENDBRANCH   1   2
BRANCH   1   8
ATOM      8  C   UNL     1       5.048 -17.178 -18.328  1.00  0.00     0.000 C 
BRANCH   8   9
ATOM      9  C   UNL     1       5.657 -15.770 -18.247  1.00  0.00     0.006 C 
BRANCH   9  10
ATOM     10  C   UNL     1       5.504 -14.995 -19.562  1.00  0.00     0.053 C 
BRANCH  10  11
ATOM     11  C   UNL     1       6.768 -15.011 -20.367  1.00  0.00     0.041 C 
ATOM     12  O   UNL     1       7.115 -16.053 -20.982  1.00  0.00    -0.550 OA
ATOM     13  O   UNL     1       7.578 -13.884 -20.409  1.00  0.00    -0.550 OA
ENDBRANCH  10  11
ENDBRANCH   9  10
ENDBRANCH   8   9
ENDBRANCH   1   8
TORSDOF 8
ENDMDL
MODEL 8
REMARK VINA RESULT:    -3.542     13.236     14.922
REMARK INTER + INTRA:          -5.573
REMARK INTER:                  -5.357
REMARK INTRA:                  -0.216
REMARK UNBOUND:                -0.374
REMARK SMILES O=C([O-])CCCCCCCC(=O)[O-]
REMARK SMILES IDX 7 1 6 2 5 3 4 4 2 5 1 6 3 7 8 8 9 9 10 10 11 11 12 12 13 13
REMARK H PARENT
REMARK Flexibility Score: inf
ROOT
ATOM      1  C   UNL     1      19.456 -22.068 -19.817  1.00  0.00     0.000 C 
ENDROOT
BRANCH   1   2
ATOM      2  C   UNL     1      20.597 -21.617 -18.896  1.00  0.00     0.000 C 
BRANCH   2   3
ATOM      3  C   UNL     1      20.638 -20.089 -18.779  1.00  0.00     0.006 C 
BRANCH   3   4
ATOM      4  C   UNL     1      21.302 -19.657 -17.469  1.00  0.00     0.053 C 
BRANCH   4   5
ATOM      5  C   UNL     1      21.320 -18.165 -17.357  1.00  0.00     0.041 C 
ATOM      6  O   UNL     1      20.404 -17.565 -16.735  1.00  0.00    -0.550 OA
ATOM      7  O   UNL     1      22.320 -17.433 -17.983  1.00  0.00    -0.550 OA
ENDBRANCH   4   5
ENDBRANCH   3   4
ENDBRANCH   2   3
ENDBRANCH   1   2
BRANCH   1   8
ATOM      8  C   UNL     1      18.743 -23.300 -19.247  1.00  0.00     0.000 C 
BRANCH   8   9
ATOM      9  C   UNL     1      17.258 -23.006 -18.990  1.00  0.00     0.006 C 
BRANCH   9  10
ATOM     10  C   UNL     1      16.716 -23.770 -17.775  1.00  0.00     0.053 C 
BRANCH  10  11
ATOM     11  C   UNL     1      15.245 -23.547 -17.590  1.00  0.00     0.041 C 
ATOM     12  O   UNL     1      14.829 -22.786 -16.677  1.00  0.00    -0.550 OA
ATOM     13  O   UNL     1      14.335 -24.206 -18.405  1.00  0.00    -0.550 OA
ENDBRANCH  10  11
ENDBRANCH   9  10
ENDBRANCH   8   9
ENDBRANCH   1   8
TORSDOF 8
ENDMDL
MODEL 9
REMARK VINA RESULT:    -3.537     13.191     15.228
REMARK INTER + INTRA:          -5.565
REMARK INTER:                  -5.365
REMARK INTRA:                  -0.201
REMARK UNBOUND:                -0.374
REMARK SMILES O=C([O-])CCCCCCCC(=O)[O-]
REMARK SMILES IDX 7 1 6 2 5 3 4 4 2 5 1 6 3 7 8 8 9 9 10 10 11 11 12 12 13 13
REMARK H PARENT
REMARK Flexibility Score: inf
ROOT
ATOM      1  C   UNL     1      19.204 -22.114 -19.620  1.00  0.00     0.000 C 
ENDROOT
BRANCH   1   2
ATOM      2  C   UNL     1      18.472 -23.278 -18.942  1.00  0.00     0.000 C 
BRANCH   2   3
ATOM      3  C   UNL     1      16.952 -23.113 -19.057  1.00  0.00     0.006 C 
BRANCH   3   4
ATOM      4  C   UNL     1      16.245 -23.665 -17.816  1.00  0.00     0.053 C 
BRANCH   4   5
ATOM      5  C   UNL     1      15.007 -22.877 -17.524  1.00  0.00     0.041 C 
ATOM      6  O   UNL     1      14.698 -22.598 -16.336  1.00  0.00    -0.550 OA
ATOM      7  O   UNL     1      14.167 -22.493 -18.562  1.00  0.00    -0.550 OA
ENDBRANCH   4   5
ENDBRANCH   3   4
ENDBRANCH   2   3
ENDBRANCH   1   2
BRANCH   1   8
ATOM      8  C   UNL     1      20.546 -21.832 -18.933  1.00  0.00     0.000 C 
BRANCH   8   9
ATOM      9  C   UNL     1      20.708 -20.335 -18.633  1.00  0.00     0.006 C 
BRANCH   9  10
ATOM     10  C   UNL     1      21.625 -20.079 -17.431  1.00  0.00     0.053 C 
BRANCH  10  11
ATOM     11  C   UNL     1      21.712 -18.620 -17.099  1.00  0.00     0.041 C 
ATOM     12  O   UNL     1      20.666 -17.925 -17.012  1.00  0.00    -0.550 OA
ATOM     13  O   UNL     1      22.952 -18.021 -16.921  1.00  0.00    -0.550 OA
ENDBRANCH  10  11
ENDBRANCH   9  10
ENDBRANCH   8   9
ENDBRANCH   1   8
TORSDOF 8
ENDMDL
