MODEL 1
REMARK VINA RESULT:    -4.617      0.000      0.000
REMARK INTER + INTRA:          -6.365
REMARK INTER:                  -5.967
REMARK INTRA:                  -0.398
REMARK UNBOUND:                -0.398
REMARK SMILES CCO[C@@H]1O[C@@H](CO)[C@@H](O)[C@@H](O)[C@@H]1O
REMARK SMILES IDX 4 1 13 2 11 3 9 4 6 5 5 6 3 7 2 8 1 9 14 10 12 12 7 14 8 15
REMARK SMILES IDX 10 17
REMARK H PARENT 14 11 12 13 8 16 10 18
REMARK Flexibility Score: inf
ROOT
ATOM      1  C   UNL     1      16.841   2.024  -9.655  1.00  0.00     0.281 C 
ATOM      2  C   UNL     1      18.296   2.434  -9.973  1.00  0.00     0.202 C 
ATOM      3  C   UNL     1      19.292   1.676  -9.069  1.00  0.00     0.179 C 
ATOM      4  C   UNL     1      19.000   0.169  -9.123  1.00  0.00     0.177 C 
ATOM      5  C   UNL     1      17.503  -0.068  -8.815  1.00  0.00     0.178 C 
ATOM      6  O   UNL     1      16.681   0.614  -9.752  1.00  0.00    -0.341 OA
ENDROOT
BRANCH   1   7
ATOM      7  O   UNL     1      16.459   2.499  -8.372  1.00  0.00    -0.350 OA
BRANCH   7   8
ATOM      8  C   UNL     1      15.074   2.791  -8.328  1.00  0.00     0.160 C 
ATOM      9  C   UNL     1      14.526   2.527  -6.931  1.00  0.00     0.035 C 
ENDBRANCH   7   8
ENDBRANCH   1   7
BRANCH   2  10
ATOM     10  O   UNL     1      18.462   3.828  -9.868  1.00  0.00    -0.385 OA
ATOM     11  H   UNL     1      19.203   4.000  -9.229  1.00  0.00     0.211 HD
ENDBRANCH   2  10
BRANCH   3  12
ATOM     12  O   UNL     1      20.611   1.914  -9.490  1.00  0.00    -0.387 OA
ATOM     13  H   UNL     1      21.150   2.071  -8.671  1.00  0.00     0.211 HD
ENDBRANCH   3  12
BRANCH   5  14
ATOM     14  C   UNL     1      17.159  -1.561  -8.849  1.00  0.00     0.191 C 
BRANCH  14  15
ATOM     15  O   UNL     1      18.267  -2.309  -8.430  1.00  0.00    -0.394 OA
ATOM     16  H   UNL     1      18.830  -2.442  -9.237  1.00  0.00     0.210 HD
ENDBRANCH  14  15
ENDBRANCH   5  14
BRANCH   4  17
ATOM     17  O   UNL     1      19.324  -0.327 -10.400  1.00  0.00    -0.387 OA
ATOM     18  H   UNL     1      18.723  -1.098 -10.576  1.00  0.00     0.211 HD
ENDBRANCH   4  17
TORSDOF 7
ENDMDL
MODEL 2
REMARK VINA RESULT:    -4.518      8.379      9.695
REMARK INTER + INTRA:          -6.237
REMARK INTER:                  -5.830
REMARK INTRA:                  -0.407
REMARK UNBOUND:                -0.398
REMARK SMILES CCO[C@@H]1O[C@@H](CO)[C@@H](O)[C@@H](O)[C@@H]1O
REMARK SMILES IDX 4 1 13 2 11 3 9 4 6 5 5 6 3 7 2 8 1 9 14 10 12 12 7 14 8 15
REMARK SMILES IDX 10 17
REMARK H PARENT 14 11 12 13 8 16 10 18
REMARK Flexibility Score: inf
ROOT
ATOM      1  C   UNL     1      19.103   1.538 -17.629  1.00  0.00     0.281 C 
ATOM      2  C   UNL     1      17.748   1.998 -17.049  1.00  0.00     0.202 C 
ATOM      3  C   UNL     1      16.574   1.300 -17.769  1.00  0.00     0.179 C 
ATOM      4  C   UNL     1      16.806  -0.219 -17.791  1.00  0.00     0.177 C 
ATOM      5  C   UNL     1      18.212  -0.508 -18.368  1.00  0.00     0.178 C 
ATOM      6  O   UNL     1      19.217   0.120 -17.585  1.00  0.00    -0.341 OA
ENDROOT
BRANCH   1   7
ATOM      7  O   UNL     1      19.269   2.026 -18.953  1.00  0.00    -0.350 OA
BRANCH   7   8
ATOM      8  C   UNL     1      20.594   2.476 -19.169  1.00  0.00     0.160 C 
ATOM      9  C   UNL     1      21.354   1.478 -20.034  1.00  0.00     0.035 C 
ENDBRANCH   7   8
ENDBRANCH   1   7
BRANCH   2  10
ATOM     10  O   UNL     1      17.625   3.399 -17.101  1.00  0.00    -0.385 OA
ATOM     11  H   UNL     1      17.753   3.682 -18.044  1.00  0.00     0.211 HD
ENDBRANCH   2  10
BRANCH   3  12
ATOM     12  O   UNL     1      15.364   1.579 -17.114  1.00  0.00    -0.387 OA
ATOM     13  H   UNL     1      15.361   2.552 -16.916  1.00  0.00     0.211 HD
ENDBRANCH   3  12
BRANCH   5  14
ATOM     14  C   UNL     1      18.493  -2.013 -18.420  1.00  0.00     0.191 C 
BRANCH  14  15
ATOM     15  O   UNL     1      17.334  -2.694 -18.813  1.00  0.00    -0.394 OA
ATOM     16  H   UNL     1      16.705  -2.632 -18.048  1.00  0.00     0.210 HD
ENDBRANCH  14  15
ENDBRANCH   5  14
BRANCH   4  17
ATOM     17  O   UNL     1      16.696  -0.730 -16.485  1.00  0.00    -0.387 OA
ATOM     18  H   UNL     1      16.466  -1.693 -16.566  1.00  0.00     0.211 HD
ENDBRANCH   4  17
TORSDOF 7
ENDMDL
MODEL 3
REMARK VINA RESULT:    -4.362      1.786      3.643
REMARK INTER + INTRA:          -6.035
REMARK INTER:                  -5.627
REMARK INTRA:                  -0.408
REMARK UNBOUND:                -0.398
REMARK SMILES CCO[C@@H]1O[C@@H](CO)[C@@H](O)[C@@H](O)[C@@H]1O
REMARK SMILES IDX 4 1 13 2 11 3 9 4 6 5 5 6 3 7 2 8 1 9 14 10 12 12 7 14 8 15
REMARK SMILES IDX 10 17
REMARK H PARENT 14 11 12 13 8 16 10 18
REMARK Flexibility Score: inf
ROOT
ATOM      1  C   UNL     1      17.168   2.271 -10.107  1.00  0.00     0.281 C 
ATOM      2  C   UNL     1      17.353   1.187  -9.023  1.00  0.00     0.202 C 
ATOM      3  C   UNL     1      18.465   0.193  -9.421  1.00  0.00     0.179 C 
ATOM      4  C   UNL     1      19.735   0.963  -9.812  1.00  0.00     0.177 C 
ATOM      5  C   UNL     1      19.375   2.026 -10.877  1.00  0.00     0.178 C 
ATOM      6  O   UNL     1      18.400   2.930 -10.377  1.00  0.00    -0.341 OA
ENDROOT
BRANCH   1   7
ATOM      7  O   UNL     1      16.617   1.706 -11.288  1.00  0.00    -0.350 OA
BRANCH   7   8
ATOM      8  C   UNL     1      15.541   2.488 -11.774  1.00  0.00     0.160 C 
ATOM      9  C   UNL     1      14.972   3.352 -10.655  1.00  0.00     0.035 C 
ENDBRANCH   7   8
ENDBRANCH   1   7
BRANCH   2  10
ATOM     10  O   UNL     1      16.139   0.524  -8.760  1.00  0.00    -0.385 OA
ATOM     11  H   UNL     1      16.240  -0.422  -9.041  1.00  0.00     0.211 HD
ENDBRANCH   2  10
BRANCH   3  12
ATOM     12  O   UNL     1      18.752  -0.672  -8.352  1.00  0.00    -0.387 OA
ATOM     13  H   UNL     1      19.682  -0.477  -8.065  1.00  0.00     0.211 HD
ENDBRANCH   3  12
BRANCH   5  14
ATOM     14  C   UNL     1      20.612   2.820 -11.310  1.00  0.00     0.191 C 
BRANCH  14  15
ATOM     15  O   UNL     1      20.997   3.687 -10.280  1.00  0.00    -0.394 OA
ATOM     16  H   UNL     1      21.877   4.061 -10.548  1.00  0.00     0.210 HD
ENDBRANCH  14  15
ENDBRANCH   5  14
BRANCH   4  17
ATOM     17  O   UNL     1      20.283   1.576  -8.671  1.00  0.00    -0.387 OA
ATOM     18  H   UNL     1      20.179   2.557  -8.787  1.00  0.00     0.211 HD
ENDBRANCH   4  17
TORSDOF 7
ENDMDL
MODEL 4
REMARK VINA RESULT:    -4.355      1.881      2.846
REMARK INTER + INTRA:          -6.026
REMARK INTER:                  -5.719
REMARK INTRA:                  -0.308
REMARK UNBOUND:                -0.398
REMARK SMILES CCO[C@@H]1O[C@@H](CO)[C@@H](O)[C@@H](O)[C@@H]1O
REMARK SMILES IDX 4 1 13 2 11 3 9 4 6 5 5 6 3 7 2 8 1 9 14 10 12 12 7 14 8 15
REMARK SMILES IDX 10 17
REMARK H PARENT 14 11 12 13 8 16 10 18
REMARK Flexibility Score: inf
ROOT
ATOM      1  C   UNL     1      15.903   1.989  -8.943  1.00  0.00     0.281 C 
ATOM      2  C   UNL     1      15.802   2.707 -10.307  1.00  0.00     0.202 C 
ATOM      3  C   UNL     1      17.088   3.508 -10.605  1.00  0.00     0.179 C 
ATOM      4  C   UNL     1      18.318   2.607 -10.418  1.00  0.00     0.177 C 
ATOM      5  C   UNL     1      18.252   1.943  -9.023  1.00  0.00     0.178 C 
ATOM      6  O   UNL     1      17.066   1.172  -8.887  1.00  0.00    -0.341 OA
ENDROOT
BRANCH   1   7
ATOM      7  O   UNL     1      15.886   2.933  -7.882  1.00  0.00    -0.350 OA
BRANCH   7   8
ATOM      8  C   UNL     1      14.690   2.835  -7.131  1.00  0.00     0.160 C 
ATOM      9  C   UNL     1      14.299   1.374  -6.952  1.00  0.00     0.035 C 
ENDBRANCH   7   8
ENDBRANCH   1   7
BRANCH   2  10
ATOM     10  O   UNL     1      14.659   3.526 -10.363  1.00  0.00    -0.385 OA
ATOM     11  H   UNL     1      14.834   4.251 -11.020  1.00  0.00     0.211 HD
ENDBRANCH   2  10
BRANCH   3  12
ATOM     12  O   UNL     1      17.063   4.000 -11.920  1.00  0.00    -0.387 OA
ATOM     13  H   UNL     1      18.004   4.187 -12.176  1.00  0.00     0.211 HD
ENDBRANCH   3  12
BRANCH   5  14
ATOM     14  C   UNL     1      19.463   1.036  -8.780  1.00  0.00     0.191 C 
BRANCH  14  15
ATOM     15  O   UNL     1      20.613   1.638  -9.306  1.00  0.00    -0.394 OA
ATOM     16  H   UNL     1      20.555   1.531 -10.291  1.00  0.00     0.210 HD
ENDBRANCH  14  15
ENDBRANCH   5  14
BRANCH   4  17
ATOM     17  O   UNL     1      18.341   1.628 -11.428  1.00  0.00    -0.387 OA
ATOM     18  H   UNL     1      17.571   1.022 -11.266  1.00  0.00     0.211 HD
ENDBRANCH   4  17
TORSDOF 7
ENDMDL
MODEL 5
REMARK VINA RESULT:    -4.350      5.813      7.004
REMARK INTER + INTRA:          -6.020
REMARK INTER:                  -5.616
REMARK INTRA:                  -0.405
REMARK UNBOUND:                -0.398
REMARK SMILES CCO[C@@H]1O[C@@H](CO)[C@@H](O)[C@@H](O)[C@@H]1O
REMARK SMILES IDX 4 1 13 2 11 3 9 4 6 5 5 6 3 7 2 8 1 9 14 10 12 12 7 14 8 15
REMARK SMILES IDX 10 17
REMARK H PARENT 14 11 12 13 8 16 10 18
REMARK Flexibility Score: inf
ROOT
ATOM      1  C   UNL     1      15.297   1.657 -13.866  1.00  0.00     0.281 C 
ATOM      2  C   UNL     1      14.231   2.264 -14.804  1.00  0.00     0.202 C 
ATOM      3  C   UNL     1      14.844   3.363 -15.699  1.00  0.00     0.179 C 
ATOM      4  C   UNL     1      16.108   2.827 -16.389  1.00  0.00     0.177 C 
ATOM      5  C   UNL     1      17.053   2.229 -15.320  1.00  0.00     0.178 C 
ATOM      6  O   UNL     1      16.412   1.179 -14.610  1.00  0.00    -0.341 OA
ENDROOT
BRANCH   1   7
ATOM      7  O   UNL     1      15.701   2.608 -12.890  1.00  0.00    -0.350 OA
BRANCH   7   8
ATOM      8  C   UNL     1      15.531   2.098 -11.580  1.00  0.00     0.160 C 
ATOM      9  C   UNL     1      15.031   3.195 -10.650  1.00  0.00     0.035 C 
ENDBRANCH   7   8
ENDBRANCH   1   7
BRANCH   2  10
ATOM     10  O   UNL     1      13.131   2.749 -14.072  1.00  0.00    -0.385 OA
ATOM     11  H   UNL     1      13.359   2.696 -13.107  1.00  0.00     0.211 HD
ENDBRANCH   2  10
BRANCH   3  12
ATOM     12  O   UNL     1      13.918   3.774 -16.671  1.00  0.00    -0.387 OA
ATOM     13  H   UNL     1      13.025   3.459 -16.370  1.00  0.00     0.211 HD
ENDBRANCH   3  12
BRANCH   5  14
ATOM     14  C   UNL     1      18.337   1.686 -15.956  1.00  0.00     0.191 C 
BRANCH  14  15
ATOM     15  O   UNL     1      18.573   2.339 -17.172  1.00  0.00    -0.394 OA
ATOM     16  H   UNL     1      17.706   2.738 -17.443  1.00  0.00     0.210 HD
ENDBRANCH  14  15
ENDBRANCH   5  14
BRANCH   4  17
ATOM     17  O   UNL     1      15.749   1.847 -17.331  1.00  0.00    -0.387 OA
ATOM     18  H   UNL     1      15.574   2.316 -18.190  1.00  0.00     0.211 HD
ENDBRANCH   4  17
TORSDOF 7
ENDMDL
MODEL 6
REMARK VINA RESULT:    -4.317      2.201      4.427
REMARK INTER + INTRA:          -5.977
REMARK INTER:                  -5.653
REMARK INTRA:                  -0.324
REMARK UNBOUND:                -0.398
REMARK SMILES CCO[C@@H]1O[C@@H](CO)[C@@H](O)[C@@H](O)[C@@H]1O
REMARK SMILES IDX 4 1 13 2 11 3 9 4 6 5 5 6 3 7 2 8 1 9 14 10 12 12 7 14 8 15
REMARK SMILES IDX 10 17
REMARK H PARENT 14 11 12 13 8 16 10 18
REMARK Flexibility Score: inf
ROOT
ATOM      1  C   UNL     1      17.557   3.851 -10.811  1.00  0.00     0.281 C 
ATOM      2  C   UNL     1      16.756   2.996  -9.805  1.00  0.00     0.202 C 
ATOM      3  C   UNL     1      17.200   1.519  -9.861  1.00  0.00     0.179 C 
ATOM      4  C   UNL     1      18.729   1.430  -9.737  1.00  0.00     0.177 C 
ATOM      5  C   UNL     1      19.376   2.363 -10.787  1.00  0.00     0.178 C 
ATOM      6  O   UNL     1      18.956   3.707 -10.595  1.00  0.00    -0.341 OA
ENDROOT
BRANCH   1   7
ATOM      7  O   UNL     1      17.205   3.512 -12.145  1.00  0.00    -0.350 OA
BRANCH   7   8
ATOM      8  C   UNL     1      17.675   4.485 -13.060  1.00  0.00     0.160 C 
ATOM      9  C   UNL     1      18.032   3.829 -14.387  1.00  0.00     0.035 C 
ENDBRANCH   7   8
ENDBRANCH   1   7
BRANCH   2  10
ATOM     10  O   UNL     1      15.371   3.127 -10.022  1.00  0.00    -0.385 OA
ATOM     11  H   UNL     1      14.904   2.517  -9.393  1.00  0.00     0.211 HD
ENDBRANCH   2  10
BRANCH   3  12
ATOM     12  O   UNL     1      16.603   0.790  -8.819  1.00  0.00    -0.387 OA
ATOM     13  H   UNL     1      16.676  -0.170  -9.061  1.00  0.00     0.211 HD
ENDBRANCH   3  12
BRANCH   5  14
ATOM     14  C   UNL     1      20.906   2.307 -10.712  1.00  0.00     0.191 C 
BRANCH  14  15
ATOM     15  O   UNL     1      21.379   3.387  -9.957  1.00  0.00    -0.394 OA
ATOM     16  H   UNL     1      22.330   3.508 -10.213  1.00  0.00     0.210 HD
ENDBRANCH  14  15
ENDBRANCH   5  14
BRANCH   4  17
ATOM     17  O   UNL     1      19.118   1.806  -8.438  1.00  0.00    -0.387 OA
ATOM     18  H   UNL     1      19.448   2.741  -8.491  1.00  0.00     0.211 HD
ENDBRANCH   4  17
TORSDOF 7
ENDMDL
MODEL 7
REMARK VINA RESULT:    -4.312      1.371      3.509
REMARK INTER + INTRA:          -5.970
REMARK INTER:                  -5.963
REMARK INTRA:                  -0.007
REMARK UNBOUND:                -0.398
REMARK SMILES CCO[C@@H]1O[C@@H](CO)[C@@H](O)[C@@H](O)[C@@H]1O
REMARK SMILES IDX 4 1 13 2 11 3 9 4 6 5 5 6 3 7 2 8 1 9 14 10 12 12 7 14 8 15
REMARK SMILES IDX 10 17
REMARK H PARENT 14 11 12 13 8 16 10 18
REMARK Flexibility Score: inf
ROOT
ATOM      1  C   UNL     1      17.154   1.731  -9.190  1.00  0.00     0.281 C 
ATOM      2  C   UNL     1      18.020   0.470  -8.972  1.00  0.00     0.202 C 
ATOM      3  C   UNL     1      18.967   0.238 -10.168  1.00  0.00     0.179 C 
ATOM      4  C   UNL     1      19.740   1.529 -10.479  1.00  0.00     0.177 C 
ATOM      5  C   UNL     1      18.736   2.695 -10.637  1.00  0.00     0.178 C 
ATOM      6  O   UNL     1      17.971   2.866  -9.452  1.00  0.00    -0.341 OA
ENDROOT
BRANCH   1   7
ATOM      7  O   UNL     1      16.220   1.517 -10.238  1.00  0.00    -0.350 OA
BRANCH   7   8
ATOM      8  C   UNL     1      15.024   2.241 -10.010  1.00  0.00     0.160 C 
ATOM      9  C   UNL     1      14.360   1.767  -8.723  1.00  0.00     0.035 C 
ENDBRANCH   7   8
ENDBRANCH   1   7
BRANCH   2  10
ATOM     10  O   UNL     1      17.216  -0.658  -8.724  1.00  0.00    -0.385 OA
ATOM     11  H   UNL     1      17.746  -1.467  -8.948  1.00  0.00     0.211 HD
ENDBRANCH   2  10
BRANCH   3  12
ATOM     12  O   UNL     1      19.875  -0.794  -9.880  1.00  0.00    -0.387 OA
ATOM     13  H   UNL     1      19.402  -1.436  -9.288  1.00  0.00     0.211 HD
ENDBRANCH   3  12
BRANCH   5  14
ATOM     14  C   UNL     1      19.456   4.009 -10.956  1.00  0.00     0.191 C 
BRANCH  14  15
ATOM     15  O   UNL     1      20.797   3.918 -10.564  1.00  0.00    -0.394 OA
ATOM     16  H   UNL     1      20.824   3.257  -9.823  1.00  0.00     0.210 HD
ENDBRANCH  14  15
ENDBRANCH   5  14
BRANCH   4  17
ATOM     17  O   UNL     1      20.645   1.797  -9.435  1.00  0.00    -0.387 OA
ATOM     18  H   UNL     1      21.560   1.729  -9.817  1.00  0.00     0.211 HD
ENDBRANCH   4  17
TORSDOF 7
ENDMDL
MODEL 8
REMARK VINA RESULT:    -4.286      2.030      4.584
REMARK INTER + INTRA:          -5.937
REMARK INTER:                  -5.629
REMARK INTRA:                  -0.309
REMARK UNBOUND:                -0.398
REMARK SMILES CCO[C@@H]1O[C@@H](CO)[C@@H](O)[C@@H](O)[C@@H]1O
REMARK SMILES IDX 4 1 13 2 11 3 9 4 6 5 5 6 3 7 2 8 1 9 14 10 12 12 7 14 8 15
REMARK SMILES IDX 10 17
REMARK H PARENT 14 11 12 13 8 16 10 18
REMARK Flexibility Score: inf
ROOT
ATOM      1  C   UNL     1      16.971   2.267 -10.250  1.00  0.00     0.281 C 
ATOM      2  C   UNL     1      16.222   0.970 -10.628  1.00  0.00     0.202 C 
ATOM      3  C   UNL     1      15.717   0.237  -9.367  1.00  0.00     0.179 C 
ATOM      4  C   UNL     1      14.940   1.215  -8.473  1.00  0.00     0.177 C 
ATOM      5  C   UNL     1      15.812   2.467  -8.215  1.00  0.00     0.178 C 
ATOM      6  O   UNL     1      16.154   3.103  -9.438  1.00  0.00    -0.341 OA
ENDROOT
BRANCH   1   7
ATOM      7  O   UNL     1      18.198   1.962  -9.603  1.00  0.00    -0.350 OA
BRANCH   7   8
ATOM      8  C   UNL     1      19.303   2.396 -10.376  1.00  0.00     0.160 C 
ATOM      9  C   UNL     1      19.052   3.800 -10.910  1.00  0.00     0.035 C 
ENDBRANCH   7   8
ENDBRANCH   1   7
BRANCH   2  10
ATOM     10  O   UNL     1      17.029   0.134 -11.422  1.00  0.00    -0.385 OA
ATOM     11  H   UNL     1      16.801   0.302 -12.373  1.00  0.00     0.211 HD
ENDBRANCH   2  10
BRANCH   3  12
ATOM     12  O   UNL     1      14.882  -0.834  -9.726  1.00  0.00    -0.387 OA
ATOM     13  H   UNL     1      15.430  -1.659  -9.666  1.00  0.00     0.211 HD
ENDBRANCH   3  12
BRANCH   5  14
ATOM     14  C   UNL     1      15.085   3.476  -7.319  1.00  0.00     0.191 C 
BRANCH  14  15
ATOM     15  O   UNL     1      14.364   2.793  -6.331  1.00  0.00    -0.394 OA
ATOM     16  H   UNL     1      13.549   3.332  -6.162  1.00  0.00     0.210 HD
ENDBRANCH  14  15
ENDBRANCH   5  14
BRANCH   4  17
ATOM     17  O   UNL     1      13.736   1.576  -9.105  1.00  0.00    -0.387 OA
ATOM     18  H   UNL     1      13.588   0.928  -9.844  1.00  0.00     0.211 HD
ENDBRANCH   4  17
TORSDOF 7
ENDMDL
MODEL 9
REMARK VINA RESULT:    -4.271      2.741      4.037
REMARK INTER + INTRA:          -5.917
REMARK INTER:                  -5.681
REMARK INTRA:                  -0.237
REMARK UNBOUND:                -0.398
REMARK SMILES CCO[C@@H]1O[C@@H](CO)[C@@H](O)[C@@H](O)[C@@H]1O
REMARK SMILES IDX 4 1 13 2 11 3 9 4 6 5 5 6 3 7 2 8 1 9 14 10 12 12 7 14 8 15
REMARK SMILES IDX 10 17
REMARK H PARENT 14 11 12 13 8 16 10 18
REMARK Flexibility Score: inf
ROOT
ATOM      1  C   UNL     1      15.923   1.751 -11.104  1.00  0.00     0.281 C 
ATOM      2  C   UNL     1      17.327   2.377 -11.254  1.00  0.00     0.202 C 
ATOM      3  C   UNL     1      17.459   3.647 -10.387  1.00  0.00     0.179 C 
ATOM      4  C   UNL     1      17.019   3.343  -8.947  1.00  0.00     0.177 C 
ATOM      5  C   UNL     1      15.614   2.696  -8.974  1.00  0.00     0.178 C 
ATOM      6  O   UNL     1      15.627   1.496  -9.736  1.00  0.00    -0.341 OA
ENDROOT
BRANCH   1   7
ATOM      7  O   UNL     1      14.939   2.588 -11.695  1.00  0.00    -0.350 OA
BRANCH   7   8
ATOM      8  C   UNL     1      14.100   1.851 -12.568  1.00  0.00     0.160 C 
ATOM      9  C   UNL     1      14.286   2.329 -14.002  1.00  0.00     0.035 C 
ENDBRANCH   7   8
ENDBRANCH   1   7
BRANCH   2  10
ATOM     10  O   UNL     1      17.620   2.642 -12.605  1.00  0.00    -0.385 OA
ATOM     11  H   UNL     1      17.731   1.771 -13.069  1.00  0.00     0.211 HD
ENDBRANCH   2  10
BRANCH   3  12
ATOM     12  O   UNL     1      18.789   4.100 -10.384  1.00  0.00    -0.387 OA
ATOM     13  H   UNL     1      19.238   3.680 -11.164  1.00  0.00     0.211 HD
ENDBRANCH   3  12
BRANCH   5  14
ATOM     14  C   UNL     1      15.122   2.378  -7.558  1.00  0.00     0.191 C 
BRANCH  14  15
ATOM     15  O   UNL     1      14.715   3.559  -6.926  1.00  0.00    -0.394 OA
ATOM     16  H   UNL     1      14.034   3.293  -6.254  1.00  0.00     0.210 HD
ENDBRANCH  14  15
ENDBRANCH   5  14
BRANCH   4  17
ATOM     17  O   UNL     1      17.949   2.477  -8.344  1.00  0.00    -0.387 OA
ATOM     18  H   UNL     1      18.754   3.017  -8.128  1.00  0.00     0.211 HD
ENDBRANCH   4  17
TORSDOF 7
ENDMDL
