MODEL 1
REMARK VINA RESULT:    -5.517      0.000      0.000
REMARK INTER + INTRA:          -8.381
REMARK INTER:                  -7.452
REMARK INTRA:                  -0.929
REMARK UNBOUND:                -0.929
REMARK SMILES O=c1c(-c2ccc(O)cc2)coc2c([C@@H]3O[C@@H](CO)[C@H](O)[C@@H](O)[C@@H]3O)c(O)ccc12
REMARK SMILES IDX 3 1 11 2 12 3 13 4 30 5 2 6 1 7 29 8 28 9 26 10 14 11 4 12
REMARK SMILES IDX 5 13 6 14 7 15 10 16 9 17 8 18 15 20 24 21 16 22 22 23 17 24
REMARK SMILES IDX 20 25 25 26 23 28 18 30 19 31 21 33 27 35
REMARK H PARENT 8 19 25 27 23 29 19 32 21 34 27 36
REMARK Flexibility Score: inf
ROOT
ATOM      1  C   UNL     1     -22.536 -67.117  57.220  1.00  0.00     0.065 A 
ATOM      2  C   UNL     1     -23.917 -67.192  57.453  1.00  0.00     0.208 A 
ATOM      3  O   UNL     1     -24.787 -66.859  56.508  1.00  0.00    -0.463 OA
ATOM      4  C   UNL     1     -24.423 -66.441  55.297  1.00  0.00     0.147 A 
ATOM      5  C   UNL     1     -23.050 -66.335  54.977  1.00  0.00     0.066 A 
ATOM      6  C   UNL     1     -22.101 -66.687  55.953  1.00  0.00     0.200 A 
ATOM      7  O   UNL     1     -20.867 -66.637  55.689  1.00  0.00    -0.288 OA
ATOM      8  C   UNL     1     -22.668 -65.880  53.706  1.00  0.00     0.020 A 
ATOM      9  C   UNL     1     -23.634 -65.521  52.770  1.00  0.00     0.047 A 
ATOM     10  C   UNL     1     -24.997 -65.616  53.077  1.00  0.00     0.125 A 
ATOM     11  C   UNL     1     -25.410 -66.104  54.340  1.00  0.00     0.069 A 
ENDROOT
BRANCH   1  12
ATOM     12  C   UNL     1     -21.582 -67.490  58.295  1.00  0.00    -0.011 A 
ATOM     13  C   UNL     1     -20.625 -66.564  58.744  1.00  0.00     0.013 A 
ATOM     14  C   UNL     1     -19.719 -66.914  59.750  1.00  0.00     0.047 A 
ATOM     15  C   UNL     1     -19.754 -68.193  60.314  1.00  0.00     0.115 A 
ATOM     16  C   UNL     1     -21.607 -68.777  58.862  1.00  0.00     0.013 A 
ATOM     17  C   UNL     1     -20.699 -69.125  59.866  1.00  0.00     0.047 A 
BRANCH  15  18
ATOM     18  O   UNL     1     -18.845 -68.529  61.315  1.00  0.00    -0.508 OA
ATOM     19  H   UNL     1     -19.059 -68.384  62.295  1.00  0.00     0.293 HD
ENDBRANCH  15  18
ENDBRANCH   1  12
BRANCH  11  20
ATOM     20  C   UNL     1     -26.886 -66.198  54.710  1.00  0.00     0.188 C 
ATOM     21  C   UNL     1     -27.371 -64.865  55.313  1.00  0.00     0.179 C 
ATOM     22  O   UNL     1     -27.655 -66.564  53.573  1.00  0.00    -0.362 OA
ATOM     23  C   UNL     1     -28.853 -64.983  55.715  1.00  0.00     0.177 C 
ATOM     24  C   UNL     1     -29.028 -66.772  53.877  1.00  0.00     0.176 C 
ATOM     25  C   UNL     1     -29.691 -65.537  54.544  1.00  0.00     0.177 C 
BRANCH  21  26
ATOM     26  O   UNL     1     -27.206 -63.825  54.381  1.00  0.00    -0.387 OA
ATOM     27  H   UNL     1     -27.552 -64.160  53.513  1.00  0.00     0.211 HD
ENDBRANCH  21  26
BRANCH  23  28
ATOM     28  O   UNL     1     -28.991 -65.819  56.835  1.00  0.00    -0.387 OA
ATOM     29  H   UNL     1     -29.555 -66.587  56.555  1.00  0.00     0.211 HD
ENDBRANCH  23  28
BRANCH  24  30
ATOM     30  C   UNL     1     -29.267 -68.102  54.628  1.00  0.00     0.191 C 
BRANCH  30  31
ATOM     31  O   UNL     1     -30.379 -67.998  55.477  1.00  0.00    -0.394 OA
ATOM     32  H   UNL     1     -30.063 -68.218  56.392  1.00  0.00     0.210 HD
ENDBRANCH  30  31
ENDBRANCH  24  30
BRANCH  25  33
ATOM     33  O   UNL     1     -29.858 -64.537  53.570  1.00  0.00    -0.388 OA
ATOM     34  H   UNL     1     -29.714 -64.964  52.686  1.00  0.00     0.211 HD
ENDBRANCH  25  33
ENDBRANCH  11  20
BRANCH  10  35
ATOM     35  O   UNL     1     -25.938 -65.218  52.126  1.00  0.00    -0.507 OA
ATOM     36  H   UNL     1     -26.337 -65.872  51.463  1.00  0.00     0.293 HD
ENDBRANCH  10  35
TORSDOF 9
ENDMDL
MODEL 2
REMARK VINA RESULT:    -5.330      3.507      8.663
REMARK INTER + INTRA:          -8.128
REMARK INTER:                  -6.975
REMARK INTRA:                  -1.153
REMARK UNBOUND:                -0.929
REMARK SMILES O=c1c(-c2ccc(O)cc2)coc2c([C@@H]3O[C@@H](CO)[C@H](O)[C@@H](O)[C@@H]3O)c(O)ccc12
REMARK SMILES IDX 3 1 11 2 12 3 13 4 30 5 2 6 1 7 29 8 28 9 26 10 14 11 4 12
REMARK SMILES IDX 5 13 6 14 7 15 10 16 9 17 8 18 15 20 24 21 16 22 22 23 17 24
REMARK SMILES IDX 20 25 25 26 23 28 18 30 19 31 21 33 27 35
REMARK H PARENT 8 19 25 27 23 29 19 32 21 34 27 36
REMARK Flexibility Score: inf
ROOT
ATOM      1  C   UNL     1     -24.940 -65.461  55.829  1.00  0.00     0.065 A 
ATOM      2  C   UNL     1     -24.184 -64.328  55.496  1.00  0.00     0.208 A 
ATOM      3  O   UNL     1     -22.954 -64.166  55.966  1.00  0.00    -0.463 OA
ATOM      4  C   UNL     1     -22.359 -65.046  56.769  1.00  0.00     0.147 A 
ATOM      5  C   UNL     1     -23.050 -66.217  57.158  1.00  0.00     0.066 A 
ATOM      6  C   UNL     1     -24.353 -66.424  56.671  1.00  0.00     0.200 A 
ATOM      7  O   UNL     1     -24.985 -67.475  56.970  1.00  0.00    -0.288 OA
ATOM      8  C   UNL     1     -22.427 -67.136  58.016  1.00  0.00     0.020 A 
ATOM      9  C   UNL     1     -21.143 -66.889  58.495  1.00  0.00     0.047 A 
ATOM     10  C   UNL     1     -20.452 -65.731  58.122  1.00  0.00     0.125 A 
ATOM     11  C   UNL     1     -21.043 -64.804  57.230  1.00  0.00     0.069 A 
ENDROOT
BRANCH   1  12
ATOM     12  C   UNL     1     -26.317 -65.618  55.295  1.00  0.00    -0.011 A 
ATOM     13  C   UNL     1     -27.428 -65.306  56.098  1.00  0.00     0.013 A 
ATOM     14  C   UNL     1     -28.725 -65.461  55.602  1.00  0.00     0.047 A 
ATOM     15  C   UNL     1     -28.930 -65.933  54.302  1.00  0.00     0.115 A 
ATOM     16  C   UNL     1     -26.529 -66.099  53.991  1.00  0.00     0.013 A 
ATOM     17  C   UNL     1     -27.828 -66.254  53.497  1.00  0.00     0.047 A 
BRANCH  15  18
ATOM     18  O   UNL     1     -30.228 -66.083  53.820  1.00  0.00    -0.508 OA
ATOM     19  H   UNL     1     -31.006 -65.575  54.225  1.00  0.00     0.293 HD
ENDBRANCH  15  18
ENDBRANCH   1  12
BRANCH  11  20
ATOM     20  C   UNL     1     -20.322 -63.523  56.824  1.00  0.00     0.188 C 
ATOM     21  C   UNL     1     -20.639 -62.393  57.824  1.00  0.00     0.179 C 
ATOM     22  O   UNL     1     -18.924 -63.756  56.728  1.00  0.00    -0.362 OA
ATOM     23  C   UNL     1     -19.934 -61.096  57.383  1.00  0.00     0.177 C 
ATOM     24  C   UNL     1     -18.207 -62.626  56.250  1.00  0.00     0.176 C 
ATOM     25  C   UNL     1     -18.438 -61.357  57.112  1.00  0.00     0.177 C 
BRANCH  21  26
ATOM     26  O   UNL     1     -20.216 -62.757  59.114  1.00  0.00    -0.387 OA
ATOM     27  H   UNL     1     -20.896 -63.385  59.472  1.00  0.00     0.211 HD
ENDBRANCH  21  26
BRANCH  23  28
ATOM     28  O   UNL     1     -20.543 -60.576  56.230  1.00  0.00    -0.387 OA
ATOM     29  H   UNL     1     -20.450 -59.588  56.274  1.00  0.00     0.211 HD
ENDBRANCH  23  28
BRANCH  24  30
ATOM     30  C   UNL     1     -18.406 -62.405  54.732  1.00  0.00     0.191 C 
BRANCH  30  31
ATOM     31  O   UNL     1     -18.180 -61.062  54.394  1.00  0.00    -0.394 OA
ATOM     32  H   UNL     1     -17.416 -61.051  53.761  1.00  0.00     0.210 HD
ENDBRANCH  30  31
ENDBRANCH  24  30
BRANCH  25  33
ATOM     33  O   UNL     1     -17.758 -61.514  58.333  1.00  0.00    -0.388 OA
ATOM     34  H   UNL     1     -18.424 -61.381  59.057  1.00  0.00     0.211 HD
ENDBRANCH  25  33
ENDBRANCH  11  20
BRANCH  10  35
ATOM     35  O   UNL     1     -19.179 -65.501  58.646  1.00  0.00    -0.507 OA
ATOM     36  H   UNL     1     -18.589 -66.259  58.970  1.00  0.00     0.293 HD
ENDBRANCH  10  35
TORSDOF 9
ENDMDL
MODEL 3
REMARK VINA RESULT:    -5.225      4.919      7.340
REMARK INTER + INTRA:          -7.987
REMARK INTER:                  -7.196
REMARK INTRA:                  -0.791
REMARK UNBOUND:                -0.929
REMARK SMILES O=c1c(-c2ccc(O)cc2)coc2c([C@@H]3O[C@@H](CO)[C@H](O)[C@@H](O)[C@@H]3O)c(O)ccc12
REMARK SMILES IDX 3 1 11 2 12 3 13 4 30 5 2 6 1 7 29 8 28 9 26 10 14 11 4 12
REMARK SMILES IDX 5 13 6 14 7 15 10 16 9 17 8 18 15 20 24 21 16 22 22 23 17 24
REMARK SMILES IDX 20 25 25 26 23 28 18 30 19 31 21 33 27 35
REMARK H PARENT 8 19 25 27 23 29 19 32 21 34 27 36
REMARK Flexibility Score: inf
ROOT
ATOM      1  C   UNL     1     -18.626 -62.141  57.238  1.00  0.00     0.065 A 
ATOM      2  C   UNL     1     -18.585 -63.445  56.725  1.00  0.00     0.208 A 
ATOM      3  O   UNL     1     -19.679 -64.196  56.684  1.00  0.00    -0.463 OA
ATOM      4  C   UNL     1     -20.867 -63.777  57.116  1.00  0.00     0.147 A 
ATOM      5  C   UNL     1     -20.997 -62.475  57.650  1.00  0.00     0.066 A 
ATOM      6  C   UNL     1     -19.860 -61.649  57.701  1.00  0.00     0.200 A 
ATOM      7  O   UNL     1     -19.949 -60.469  58.140  1.00  0.00    -0.288 OA
ATOM      8  C   UNL     1     -22.247 -62.040  58.118  1.00  0.00     0.020 A 
ATOM      9  C   UNL     1     -23.348 -62.891  58.071  1.00  0.00     0.047 A 
ATOM     10  C   UNL     1     -23.230 -64.185  57.549  1.00  0.00     0.125 A 
ATOM     11  C   UNL     1     -21.989 -64.636  57.040  1.00  0.00     0.069 A 
ENDROOT
BRANCH   1  12
ATOM     12  C   UNL     1     -17.388 -61.322  57.278  1.00  0.00    -0.011 A 
ATOM     13  C   UNL     1     -17.373 -60.032  56.721  1.00  0.00     0.013 A 
ATOM     14  C   UNL     1     -16.207 -59.262  56.748  1.00  0.00     0.047 A 
ATOM     15  C   UNL     1     -15.041 -59.772  57.327  1.00  0.00     0.115 A 
ATOM     16  C   UNL     1     -16.209 -61.832  57.852  1.00  0.00     0.013 A 
ATOM     17  C   UNL     1     -15.044 -61.060  57.878  1.00  0.00     0.047 A 
BRANCH  15  18
ATOM     18  O   UNL     1     -13.886 -58.994  57.348  1.00  0.00    -0.508 OA
ATOM     19  H   UNL     1     -13.851 -58.084  56.902  1.00  0.00     0.293 HD
ENDBRANCH  15  18
ENDBRANCH   1  12
BRANCH  11  20
ATOM     20  C   UNL     1     -21.826 -66.048  56.486  1.00  0.00     0.188 C 
ATOM     21  C   UNL     1     -21.549 -67.041  57.631  1.00  0.00     0.179 C 
ATOM     22  O   UNL     1     -22.978 -66.419  55.742  1.00  0.00    -0.362 OA
ATOM     23  C   UNL     1     -21.351 -68.456  57.057  1.00  0.00     0.177 C 
ATOM     24  C   UNL     1     -22.843 -67.686  55.110  1.00  0.00     0.176 C 
ATOM     25  C   UNL     1     -22.512 -68.826  56.110  1.00  0.00     0.177 C 
BRANCH  21  26
ATOM     26  O   UNL     1     -22.619 -67.037  58.543  1.00  0.00    -0.387 OA
ATOM     27  H   UNL     1     -22.254 -67.341  59.415  1.00  0.00     0.211 HD
ENDBRANCH  21  26
BRANCH  23  28
ATOM     28  O   UNL     1     -20.131 -68.538  56.366  1.00  0.00    -0.387 OA
ATOM     29  H   UNL     1     -19.475 -68.951  56.987  1.00  0.00     0.211 HD
ENDBRANCH  23  28
BRANCH  24  30
ATOM     30  C   UNL     1     -21.907 -67.630  53.881  1.00  0.00     0.191 C 
BRANCH  30  31
ATOM     31  O   UNL     1     -21.530 -68.923  53.487  1.00  0.00    -0.394 OA
ATOM     32  H   UNL     1     -22.293 -69.521  53.699  1.00  0.00     0.210 HD
ENDBRANCH  30  31
ENDBRANCH  24  30
BRANCH  25  33
ATOM     33  O   UNL     1     -23.664 -69.108  56.865  1.00  0.00    -0.388 OA
ATOM     34  H   UNL     1     -24.131 -69.859  56.415  1.00  0.00     0.211 HD
ENDBRANCH  25  33
ENDBRANCH  11  20
BRANCH  10  35
ATOM     35  O   UNL     1     -24.347 -65.021  57.546  1.00  0.00    -0.507 OA
ATOM     36  H   UNL     1     -25.094 -64.913  56.870  1.00  0.00     0.293 HD
ENDBRANCH  10  35
TORSDOF 9
ENDMDL
MODEL 4
REMARK VINA RESULT:    -5.194      7.018     10.643
REMARK INTER + INTRA:          -7.945
REMARK INTER:                  -6.973
REMARK INTRA:                  -0.972
REMARK UNBOUND:                -0.929
REMARK SMILES O=c1c(-c2ccc(O)cc2)coc2c([C@@H]3O[C@@H](CO)[C@H](O)[C@@H](O)[C@@H]3O)c(O)ccc12
REMARK SMILES IDX 3 1 11 2 12 3 13 4 30 5 2 6 1 7 29 8 28 9 26 10 14 11 4 12
REMARK SMILES IDX 5 13 6 14 7 15 10 16 9 17 8 18 15 20 24 21 16 22 22 23 17 24
REMARK SMILES IDX 20 25 25 26 23 28 18 30 19 31 21 33 27 35
REMARK H PARENT 8 19 25 27 23 29 19 32 21 34 27 36
REMARK Flexibility Score: inf
ROOT
ATOM      1  C   UNL     1     -26.822 -56.913  54.516  1.00  0.00     0.065 A 
ATOM      2  C   UNL     1     -25.849 -57.433  55.381  1.00  0.00     0.208 A 
ATOM      3  O   UNL     1     -25.844 -58.720  55.708  1.00  0.00    -0.463 OA
ATOM      4  C   UNL     1     -26.740 -59.591  55.249  1.00  0.00     0.147 A 
ATOM      5  C   UNL     1     -27.758 -59.151  54.372  1.00  0.00     0.066 A 
ATOM      6  C   UNL     1     -27.788 -57.796  53.998  1.00  0.00     0.200 A 
ATOM      7  O   UNL     1     -28.662 -57.377  53.190  1.00  0.00    -0.288 OA
ATOM      8  C   UNL     1     -28.710 -60.068  53.901  1.00  0.00     0.020 A 
ATOM      9  C   UNL     1     -28.663 -61.399  54.307  1.00  0.00     0.047 A 
ATOM     10  C   UNL     1     -27.663 -61.845  55.180  1.00  0.00     0.125 A 
ATOM     11  C   UNL     1     -26.671 -60.949  55.643  1.00  0.00     0.069 A 
ENDROOT
BRANCH   1  12
ATOM     12  C   UNL     1     -26.809 -55.469  54.169  1.00  0.00    -0.011 A 
ATOM     13  C   UNL     1     -26.504 -55.058  52.860  1.00  0.00     0.013 A 
ATOM     14  C   UNL     1     -26.482 -53.699  52.533  1.00  0.00     0.047 A 
ATOM     15  C   UNL     1     -26.760 -52.736  53.507  1.00  0.00     0.115 A 
ATOM     16  C   UNL     1     -27.080 -54.495  55.146  1.00  0.00     0.013 A 
ATOM     17  C   UNL     1     -27.057 -53.137  54.816  1.00  0.00     0.047 A 
BRANCH  15  18
ATOM     18  O   UNL     1     -26.735 -51.385  53.167  1.00  0.00    -0.508 OA
ATOM     19  H   UNL     1     -25.943 -50.974  52.686  1.00  0.00     0.293 HD
ENDBRANCH  15  18
ENDBRANCH   1  12
BRANCH  11  20
ATOM     20  C   UNL     1     -25.583 -61.401  56.611  1.00  0.00     0.188 C 
ATOM     21  C   UNL     1     -26.136 -61.451  58.049  1.00  0.00     0.179 C 
ATOM     22  O   UNL     1     -25.062 -62.661  56.210  1.00  0.00    -0.362 OA
ATOM     23  C   UNL     1     -25.020 -61.875  59.022  1.00  0.00     0.177 C 
ATOM     24  C   UNL     1     -23.970 -63.088  57.013  1.00  0.00     0.176 C 
ATOM     25  C   UNL     1     -24.323 -63.158  58.523  1.00  0.00     0.177 C 
BRANCH  21  26
ATOM     26  O   UNL     1     -27.209 -62.357  58.122  1.00  0.00    -0.387 OA
ATOM     27  H   UNL     1     -27.324 -62.740  57.214  1.00  0.00     0.211 HD
ENDBRANCH  21  26
BRANCH  23  28
ATOM     28  O   UNL     1     -24.076 -60.845  59.162  1.00  0.00    -0.387 OA
ATOM     29  H   UNL     1     -23.556 -60.812  58.316  1.00  0.00     0.211 HD
ENDBRANCH  23  28
BRANCH  24  30
ATOM     30  C   UNL     1     -22.673 -62.307  56.702  1.00  0.00     0.191 C 
BRANCH  30  31
ATOM     31  O   UNL     1     -21.810 -62.318  57.809  1.00  0.00    -0.394 OA
ATOM     32  H   UNL     1     -21.218 -63.108  57.702  1.00  0.00     0.210 HD
ENDBRANCH  30  31
ENDBRANCH  24  30
BRANCH  25  33
ATOM     33  O   UNL     1     -25.164 -64.265  58.736  1.00  0.00    -0.388 OA
ATOM     34  H   UNL     1     -24.590 -65.074  58.729  1.00  0.00     0.211 HD
ENDBRANCH  25  33
ENDBRANCH  11  20
BRANCH  10  35
ATOM     35  O   UNL     1     -27.665 -63.179  55.590  1.00  0.00    -0.507 OA
ATOM     36  H   UNL     1     -27.599 -63.943  54.927  1.00  0.00     0.293 HD
ENDBRANCH  10  35
TORSDOF 9
ENDMDL
MODEL 5
REMARK VINA RESULT:    -5.094      5.883      7.410
REMARK INTER + INTRA:          -7.810
REMARK INTER:                  -7.139
REMARK INTRA:                  -0.671
REMARK UNBOUND:                -0.929
REMARK SMILES O=c1c(-c2ccc(O)cc2)coc2c([C@@H]3O[C@@H](CO)[C@H](O)[C@@H](O)[C@@H]3O)c(O)ccc12
REMARK SMILES IDX 3 1 11 2 12 3 13 4 30 5 2 6 1 7 29 8 28 9 26 10 14 11 4 12
REMARK SMILES IDX 5 13 6 14 7 15 10 16 9 17 8 18 15 20 24 21 16 22 22 23 17 24
REMARK SMILES IDX 20 25 25 26 23 28 18 30 19 31 21 33 27 35
REMARK H PARENT 8 19 25 27 23 29 19 32 21 34 27 36
REMARK Flexibility Score: inf
ROOT
ATOM      1  C   UNL     1     -18.500 -61.070  56.932  1.00  0.00     0.065 A 
ATOM      2  C   UNL     1     -19.770 -60.498  57.093  1.00  0.00     0.208 A 
ATOM      3  O   UNL     1     -20.849 -61.258  57.230  1.00  0.00    -0.463 OA
ATOM      4  C   UNL     1     -20.807 -62.589  57.224  1.00  0.00     0.147 A 
ATOM      5  C   UNL     1     -19.568 -63.250  57.063  1.00  0.00     0.066 A 
ATOM      6  C   UNL     1     -18.403 -62.474  56.925  1.00  0.00     0.200 A 
ATOM      7  O   UNL     1     -17.276 -63.031  56.815  1.00  0.00    -0.288 OA
ATOM      8  C   UNL     1     -19.528 -64.652  57.043  1.00  0.00     0.020 A 
ATOM      9  C   UNL     1     -20.703 -65.389  57.163  1.00  0.00     0.047 A 
ATOM     10  C   UNL     1     -21.937 -64.746  57.316  1.00  0.00     0.125 A 
ATOM     11  C   UNL     1     -22.002 -63.333  57.374  1.00  0.00     0.069 A 
ENDROOT
BRANCH   1  12
ATOM     12  C   UNL     1     -17.309 -60.198  56.776  1.00  0.00    -0.011 A 
ATOM     13  C   UNL     1     -16.548 -59.830  57.899  1.00  0.00     0.013 A 
ATOM     14  C   UNL     1     -15.431 -59.002  57.757  1.00  0.00     0.047 A 
ATOM     15  C   UNL     1     -15.063 -58.527  56.495  1.00  0.00     0.115 A 
ATOM     16  C   UNL     1     -16.937 -59.711  55.510  1.00  0.00     0.013 A 
ATOM     17  C   UNL     1     -15.821 -58.882  55.371  1.00  0.00     0.047 A 
BRANCH  15  18
ATOM     18  O   UNL     1     -13.948 -57.702  56.368  1.00  0.00    -0.508 OA
ATOM     19  H   UNL     1     -13.967 -56.734  56.668  1.00  0.00     0.293 HD
ENDBRANCH  15  18
ENDBRANCH   1  12
BRANCH  11  20
ATOM     20  C   UNL     1     -23.334 -62.606  57.519  1.00  0.00     0.188 C 
ATOM     21  C   UNL     1     -23.792 -62.057  56.153  1.00  0.00     0.179 C 
ATOM     22  O   UNL     1     -24.308 -63.472  58.084  1.00  0.00    -0.362 OA
ATOM     23  C   UNL     1     -25.120 -61.294  56.317  1.00  0.00     0.177 C 
ATOM     24  C   UNL     1     -25.544 -62.820  58.342  1.00  0.00     0.176 C 
ATOM     25  C   UNL     1     -26.150 -62.155  57.078  1.00  0.00     0.177 C 
BRANCH  21  26
ATOM     26  O   UNL     1     -23.953 -63.112  55.238  1.00  0.00    -0.387 OA
ATOM     27  H   UNL     1     -24.736 -63.640  55.543  1.00  0.00     0.211 HD
ENDBRANCH  21  26
BRANCH  23  28
ATOM     28  O   UNL     1     -24.910 -60.087  57.004  1.00  0.00    -0.387 OA
ATOM     29  H   UNL     1     -24.917 -59.363  56.325  1.00  0.00     0.211 HD
ENDBRANCH  23  28
BRANCH  24  30
ATOM     30  C   UNL     1     -25.469 -61.888  59.574  1.00  0.00     0.191 C 
BRANCH  30  31
ATOM     31  O   UNL     1     -25.204 -62.625  60.737  1.00  0.00    -0.394 OA
ATOM     32  H   UNL     1     -24.658 -62.042  61.328  1.00  0.00     0.210 HD
ENDBRANCH  30  31
ENDBRANCH  24  30
BRANCH  25  33
ATOM     33  O   UNL     1     -26.638 -63.165  56.229  1.00  0.00    -0.388 OA
ATOM     34  H   UNL     1     -26.016 -63.224  55.458  1.00  0.00     0.211 HD
ENDBRANCH  25  33
ENDBRANCH  11  20
BRANCH  10  35
ATOM     35  O   UNL     1     -23.098 -65.516  57.402  1.00  0.00    -0.507 OA
ATOM     36  H   UNL     1     -23.768 -65.560  56.643  1.00  0.00     0.293 HD
ENDBRANCH  10  35
TORSDOF 9
ENDMDL
MODEL 6
REMARK VINA RESULT:    -5.094     11.172     13.228
REMARK INTER + INTRA:          -7.809
REMARK INTER:                  -6.937
REMARK INTRA:                  -0.872
REMARK UNBOUND:                -0.929
REMARK SMILES O=c1c(-c2ccc(O)cc2)coc2c([C@@H]3O[C@@H](CO)[C@H](O)[C@@H](O)[C@@H]3O)c(O)ccc12
REMARK SMILES IDX 3 1 11 2 12 3 13 4 30 5 2 6 1 7 29 8 28 9 26 10 14 11 4 12
REMARK SMILES IDX 5 13 6 14 7 15 10 16 9 17 8 18 15 20 24 21 16 22 22 23 17 24
REMARK SMILES IDX 20 25 25 26 23 28 18 30 19 31 21 33 27 35
REMARK H PARENT 8 19 25 27 23 29 19 32 21 34 27 36
REMARK Flexibility Score: inf
ROOT
ATOM      1  C   UNL     1     -31.328 -57.191  57.632  1.00  0.00     0.065 A 
ATOM      2  C   UNL     1     -30.011 -56.760  57.420  1.00  0.00     0.208 A 
ATOM      3  O   UNL     1     -29.657 -56.186  56.277  1.00  0.00    -0.463 OA
ATOM      4  C   UNL     1     -30.505 -55.981  55.272  1.00  0.00     0.147 A 
ATOM      5  C   UNL     1     -31.854 -56.387  55.400  1.00  0.00     0.066 A 
ATOM      6  C   UNL     1     -32.265 -56.991  56.601  1.00  0.00     0.200 A 
ATOM      7  O   UNL     1     -33.469 -57.334  56.762  1.00  0.00    -0.288 OA
ATOM      8  C   UNL     1     -32.743 -56.183  54.334  1.00  0.00     0.020 A 
ATOM      9  C   UNL     1     -32.298 -55.599  53.151  1.00  0.00     0.047 A 
ATOM     10  C   UNL     1     -30.964 -55.198  53.009  1.00  0.00     0.125 A 
ATOM     11  C   UNL     1     -30.054 -55.361  54.082  1.00  0.00     0.069 A 
ENDROOT
BRANCH   1  12
ATOM     12  C   UNL     1     -31.698 -57.836  58.918  1.00  0.00    -0.011 A 
ATOM     13  C   UNL     1     -32.430 -57.123  59.883  1.00  0.00     0.013 A 
ATOM     14  C   UNL     1     -32.773 -57.723  61.098  1.00  0.00     0.047 A 
ATOM     15  C   UNL     1     -32.385 -59.040  61.366  1.00  0.00     0.115 A 
ATOM     16  C   UNL     1     -31.305 -59.157  59.197  1.00  0.00     0.013 A 
ATOM     17  C   UNL     1     -31.648 -59.755  60.413  1.00  0.00     0.047 A 
BRANCH  15  18
ATOM     18  O   UNL     1     -32.733 -59.626  62.580  1.00  0.00    -0.508 OA
ATOM     19  H   UNL     1     -32.753 -60.632  62.697  1.00  0.00     0.293 HD
ENDBRANCH  15  18
ENDBRANCH   1  12
BRANCH  11  20
ATOM     20  C   UNL     1     -28.590 -54.954  53.949  1.00  0.00     0.188 C 
ATOM     21  C   UNL     1     -27.770 -56.107  53.339  1.00  0.00     0.179 C 
ATOM     22  O   UNL     1     -28.479 -53.769  53.173  1.00  0.00    -0.362 OA
ATOM     23  C   UNL     1     -26.288 -55.698  53.242  1.00  0.00     0.177 C 
ATOM     24  C   UNL     1     -27.147 -53.279  53.101  1.00  0.00     0.176 C 
ATOM     25  C   UNL     1     -26.147 -54.328  52.545  1.00  0.00     0.177 C 
BRANCH  21  26
ATOM     26  O   UNL     1     -28.264 -56.430  52.063  1.00  0.00    -0.387 OA
ATOM     27  H   UNL     1     -29.078 -56.981  52.201  1.00  0.00     0.211 HD
ENDBRANCH  21  26
BRANCH  23  28
ATOM     28  O   UNL     1     -25.711 -55.641  54.521  1.00  0.00    -0.387 OA
ATOM     29  H   UNL     1     -26.424 -55.879  55.171  1.00  0.00     0.211 HD
ENDBRANCH  23  28
BRANCH  24  30
ATOM     30  C   UNL     1     -26.696 -52.612  54.421  1.00  0.00     0.191 C 
BRANCH  30  31
ATOM     31  O   UNL     1     -25.867 -51.510  54.161  1.00  0.00    -0.394 OA
ATOM     32  H   UNL     1     -26.433 -50.699  54.246  1.00  0.00     0.210 HD
ENDBRANCH  30  31
ENDBRANCH  24  30
BRANCH  25  33
ATOM     33  O   UNL     1     -26.374 -54.477  51.165  1.00  0.00    -0.388 OA
ATOM     34  H   UNL     1     -27.332 -54.706  51.050  1.00  0.00     0.211 HD
ENDBRANCH  25  33
ENDBRANCH  11  20
BRANCH  10  35
ATOM     35  O   UNL     1     -30.545 -54.645  51.799  1.00  0.00    -0.507 OA
ATOM     36  H   UNL     1     -31.124 -54.676  50.968  1.00  0.00     0.293 HD
ENDBRANCH  10  35
TORSDOF 9
ENDMDL
MODEL 7
REMARK VINA RESULT:    -5.091     10.903     12.799
REMARK INTER + INTRA:          -7.805
REMARK INTER:                  -6.937
REMARK INTRA:                  -0.868
REMARK UNBOUND:                -0.929
REMARK SMILES O=c1c(-c2ccc(O)cc2)coc2c([C@@H]3O[C@@H](CO)[C@H](O)[C@@H](O)[C@@H]3O)c(O)ccc12
REMARK SMILES IDX 3 1 11 2 12 3 13 4 30 5 2 6 1 7 29 8 28 9 26 10 14 11 4 12
REMARK SMILES IDX 5 13 6 14 7 15 10 16 9 17 8 18 15 20 24 21 16 22 22 23 17 24
REMARK SMILES IDX 20 25 25 26 23 28 18 30 19 31 21 33 27 35
REMARK H PARENT 8 19 25 27 23 29 19 32 21 34 27 36
REMARK Flexibility Score: inf
ROOT
ATOM      1  C   UNL     1     -31.662 -58.199  59.762  1.00  0.00     0.065 A 
ATOM      2  C   UNL     1     -30.371 -57.743  59.457  1.00  0.00     0.208 A 
ATOM      3  O   UNL     1     -30.126 -57.096  58.325  1.00  0.00    -0.463 OA
ATOM      4  C   UNL     1     -31.064 -56.837  57.417  1.00  0.00     0.147 A 
ATOM      5  C   UNL     1     -32.394 -57.263  57.642  1.00  0.00     0.066 A 
ATOM      6  C   UNL     1     -32.690 -57.944  58.836  1.00  0.00     0.200 A 
ATOM      7  O   UNL     1     -33.873 -58.308  59.085  1.00  0.00    -0.288 OA
ATOM      8  C   UNL     1     -33.378 -57.001  56.677  1.00  0.00     0.020 A 
ATOM      9  C   UNL     1     -33.046 -56.341  55.497  1.00  0.00     0.047 A 
ATOM     10  C   UNL     1     -31.732 -55.920  55.259  1.00  0.00     0.125 A 
ATOM     11  C   UNL     1     -30.727 -56.140  56.231  1.00  0.00     0.069 A 
ENDROOT
BRANCH   1  12
ATOM     12  C   UNL     1     -31.910 -58.926  61.033  1.00  0.00    -0.011 A 
ATOM     13  C   UNL     1     -32.838 -58.428  61.964  1.00  0.00     0.013 A 
ATOM     14  C   UNL     1     -33.067 -59.105  63.166  1.00  0.00     0.047 A 
ATOM     15  C   UNL     1     -32.371 -60.282  63.454  1.00  0.00     0.115 A 
ATOM     16  C   UNL     1     -31.207 -60.107  61.333  1.00  0.00     0.013 A 
ATOM     17  C   UNL     1     -31.438 -60.781  62.535  1.00  0.00     0.047 A 
BRANCH  15  18
ATOM     18  O   UNL     1     -32.609 -60.946  64.655  1.00  0.00    -0.508 OA
ATOM     19  H   UNL     1     -31.851 -61.216  65.272  1.00  0.00     0.293 HD
ENDBRANCH  15  18
ENDBRANCH   1  12
BRANCH  11  20
ATOM     20  C   UNL     1     -29.283 -55.712  55.991  1.00  0.00     0.188 C 
ATOM     21  C   UNL     1     -28.566 -56.737  55.091  1.00  0.00     0.179 C 
ATOM     22  O   UNL     1     -29.245 -54.409  55.426  1.00  0.00    -0.362 OA
ATOM     23  C   UNL     1     -27.100 -56.313  54.884  1.00  0.00     0.177 C 
ATOM     24  C   UNL     1     -27.923 -53.909  55.276  1.00  0.00     0.176 C 
ATOM     25  C   UNL     1     -27.020 -54.842  54.425  1.00  0.00     0.177 C 
BRANCH  21  26
ATOM     26  O   UNL     1     -29.220 -56.832  53.850  1.00  0.00    -0.387 OA
ATOM     27  H   UNL     1     -30.166 -56.574  54.004  1.00  0.00     0.211 HD
ENDBRANCH  21  26
BRANCH  23  28
ATOM     28  O   UNL     1     -26.369 -56.481  56.071  1.00  0.00    -0.387 OA
ATOM     29  H   UNL     1     -25.723 -57.218  55.912  1.00  0.00     0.211 HD
ENDBRANCH  23  28
BRANCH  24  30
ATOM     30  C   UNL     1     -27.301 -53.484  56.626  1.00  0.00     0.191 C 
BRANCH  30  31
ATOM     31  O   UNL     1     -25.901 -53.565  56.573  1.00  0.00    -0.394 OA
ATOM     32  H   UNL     1     -25.559 -52.633  56.599  1.00  0.00     0.210 HD
ENDBRANCH  30  31
ENDBRANCH  24  30
BRANCH  25  33
ATOM     33  O   UNL     1     -27.417 -54.745  53.080  1.00  0.00    -0.388 OA
ATOM     34  H   UNL     1     -28.408 -54.700  53.071  1.00  0.00     0.211 HD
ENDBRANCH  25  33
ENDBRANCH  11  20
BRANCH  10  35
ATOM     35  O   UNL     1     -31.428 -55.288  54.052  1.00  0.00    -0.507 OA
ATOM     36  H   UNL     1     -31.576 -55.743  53.159  1.00  0.00     0.293 HD
ENDBRANCH  10  35
TORSDOF 9
ENDMDL
MODEL 8
REMARK VINA RESULT:    -5.052      4.572      7.404
REMARK INTER + INTRA:          -7.753
REMARK INTER:                  -7.461
REMARK INTRA:                  -0.292
REMARK UNBOUND:                -0.929
REMARK SMILES O=c1c(-c2ccc(O)cc2)coc2c([C@@H]3O[C@@H](CO)[C@H](O)[C@@H](O)[C@@H]3O)c(O)ccc12
REMARK SMILES IDX 3 1 11 2 12 3 13 4 30 5 2 6 1 7 29 8 28 9 26 10 14 11 4 12
REMARK SMILES IDX 5 13 6 14 7 15 10 16 9 17 8 18 15 20 24 21 16 22 22 23 17 24
REMARK SMILES IDX 20 25 25 26 23 28 18 30 19 31 21 33 27 35
REMARK H PARENT 8 19 25 27 23 29 19 32 21 34 27 36
REMARK Flexibility Score: inf
ROOT
ATOM      1  C   UNL     1     -19.059 -62.628  56.958  1.00  0.00     0.065 A 
ATOM      2  C   UNL     1     -19.047 -64.025  56.847  1.00  0.00     0.208 A 
ATOM      3  O   UNL     1     -20.148 -64.735  57.058  1.00  0.00    -0.463 OA
ATOM      4  C   UNL     1     -21.317 -64.188  57.382  1.00  0.00     0.147 A 
ATOM      5  C   UNL     1     -21.419 -62.784  57.517  1.00  0.00     0.066 A 
ATOM      6  C   UNL     1     -20.274 -62.000  57.292  1.00  0.00     0.200 A 
ATOM      7  O   UNL     1     -20.337 -60.742  57.371  1.00  0.00    -0.288 OA
ATOM      8  C   UNL     1     -22.649 -62.210  57.873  1.00  0.00     0.020 A 
ATOM      9  C   UNL     1     -23.758 -63.017  58.108  1.00  0.00     0.047 A 
ATOM     10  C   UNL     1     -23.669 -64.409  57.983  1.00  0.00     0.125 A 
ATOM     11  C   UNL     1     -22.449 -65.011  57.592  1.00  0.00     0.069 A 
ENDROOT
BRANCH   1  12
ATOM     12  C   UNL     1     -17.813 -61.855  56.722  1.00  0.00    -0.011 A 
ATOM     13  C   UNL     1     -17.025 -61.433  57.806  1.00  0.00     0.013 A 
ATOM     14  C   UNL     1     -15.857 -60.697  57.589  1.00  0.00     0.047 A 
ATOM     15  C   UNL     1     -15.464 -60.369  56.288  1.00  0.00     0.115 A 
ATOM     16  C   UNL     1     -17.416 -61.516  55.416  1.00  0.00     0.013 A 
ATOM     17  C   UNL     1     -16.248 -60.779  55.201  1.00  0.00     0.047 A 
BRANCH  15  18
ATOM     18  O   UNL     1     -14.297 -59.636  56.085  1.00  0.00    -0.508 OA
ATOM     19  H   UNL     1     -13.570 -59.590  56.789  1.00  0.00     0.293 HD
ENDBRANCH  15  18
ENDBRANCH   1  12
BRANCH  11  20
ATOM     20  C   UNL     1     -22.317 -66.526  57.469  1.00  0.00     0.188 C 
ATOM     21  C   UNL     1     -22.700 -66.980  56.047  1.00  0.00     0.179 C 
ATOM     22  O   UNL     1     -20.998 -66.932  57.807  1.00  0.00    -0.362 OA
ATOM     23  C   UNL     1     -22.597 -68.513  55.945  1.00  0.00     0.177 C 
ATOM     24  C   UNL     1     -20.840 -68.345  57.814  1.00  0.00     0.176 C 
ATOM     25  C   UNL     1     -21.227 -69.001  56.462  1.00  0.00     0.177 C 
BRANCH  21  26
ATOM     26  O   UNL     1     -21.852 -66.376  55.102  1.00  0.00    -0.387 OA
ATOM     27  H   UNL     1     -21.829 -65.407  55.316  1.00  0.00     0.211 HD
ENDBRANCH  21  26
BRANCH  23  28
ATOM     28  O   UNL     1     -23.626 -69.123  56.679  1.00  0.00    -0.387 OA
ATOM     29  H   UNL     1     -23.195 -69.632  57.415  1.00  0.00     0.211 HD
ENDBRANCH  23  28
BRANCH  24  30
ATOM     30  C   UNL     1     -21.499 -69.002  59.048  1.00  0.00     0.191 C 
BRANCH  30  31
ATOM     31  O   UNL     1     -20.574 -69.125  60.097  1.00  0.00    -0.394 OA
ATOM     32  H   UNL     1     -20.088 -69.978  59.951  1.00  0.00     0.210 HD
ENDBRANCH  30  31
ENDBRANCH  24  30
BRANCH  25  33
ATOM     33  O   UNL     1     -20.232 -68.699  55.515  1.00  0.00    -0.388 OA
ATOM     34  H   UNL     1     -20.630 -68.064  54.866  1.00  0.00     0.211 HD
ENDBRANCH  25  33
ENDBRANCH  11  20
BRANCH  10  35
ATOM     35  O   UNL     1     -24.793 -65.189  58.257  1.00  0.00    -0.507 OA
ATOM     36  H   UNL     1     -25.569 -65.255  57.608  1.00  0.00     0.293 HD
ENDBRANCH  10  35
TORSDOF 9
ENDMDL
MODEL 9
REMARK VINA RESULT:    -5.027      3.099      8.311
REMARK INTER + INTRA:          -7.719
REMARK INTER:                  -7.468
REMARK INTRA:                  -0.251
REMARK UNBOUND:                -0.929
REMARK SMILES O=c1c(-c2ccc(O)cc2)coc2c([C@@H]3O[C@@H](CO)[C@H](O)[C@@H](O)[C@@H]3O)c(O)ccc12
REMARK SMILES IDX 3 1 11 2 12 3 13 4 30 5 2 6 1 7 29 8 28 9 26 10 14 11 4 12
REMARK SMILES IDX 5 13 6 14 7 15 10 16 9 17 8 18 15 20 24 21 16 22 22 23 17 24
REMARK SMILES IDX 20 25 25 26 23 28 18 30 19 31 21 33 27 35
REMARK H PARENT 8 19 25 27 23 29 19 32 21 34 27 36
REMARK Flexibility Score: inf
ROOT
ATOM      1  C   UNL     1     -24.861 -66.139  56.287  1.00  0.00     0.065 A 
ATOM      2  C   UNL     1     -24.164 -64.925  56.211  1.00  0.00     0.208 A 
ATOM      3  O   UNL     1     -22.956 -64.798  56.746  1.00  0.00    -0.463 OA
ATOM      4  C   UNL     1     -22.332 -65.788  57.379  1.00  0.00     0.147 A 
ATOM      5  C   UNL     1     -22.963 -67.047  57.504  1.00  0.00     0.066 A 
ATOM      6  C   UNL     1     -24.240 -67.220  56.941  1.00  0.00     0.200 A 
ATOM      7  O   UNL     1     -24.818 -68.340  57.003  1.00  0.00    -0.288 OA
ATOM      8  C   UNL     1     -22.310 -68.086  58.184  1.00  0.00     0.020 A 
ATOM      9  C   UNL     1     -21.054 -67.875  58.747  1.00  0.00     0.047 A 
ATOM     10  C   UNL     1     -20.421 -66.631  58.636  1.00  0.00     0.125 A 
ATOM     11  C   UNL     1     -21.043 -65.576  57.926  1.00  0.00     0.069 A 
ENDROOT
BRANCH   1  12
ATOM     12  C   UNL     1     -26.213 -66.256  55.684  1.00  0.00    -0.011 A 
ATOM     13  C   UNL     1     -26.384 -66.121  54.296  1.00  0.00     0.013 A 
ATOM     14  C   UNL     1     -27.657 -66.221  53.726  1.00  0.00     0.047 A 
ATOM     15  C   UNL     1     -28.774 -66.452  54.535  1.00  0.00     0.115 A 
ATOM     16  C   UNL     1     -27.341 -66.481  56.493  1.00  0.00     0.013 A 
ATOM     17  C   UNL     1     -28.613 -66.580  55.921  1.00  0.00     0.047 A 
BRANCH  15  18
ATOM     18  O   UNL     1     -30.036 -66.550  53.955  1.00  0.00    -0.508 OA
ATOM     19  H   UNL     1     -30.833 -66.897  54.475  1.00  0.00     0.293 HD
ENDBRANCH  15  18
ENDBRANCH   1  12
BRANCH  11  20
ATOM     20  C   UNL     1     -20.387 -64.205  57.807  1.00  0.00     0.188 C 
ATOM     21  C   UNL     1     -19.458 -64.164  56.577  1.00  0.00     0.179 C 
ATOM     22  O   UNL     1     -21.379 -63.190  57.742  1.00  0.00    -0.362 OA
ATOM     23  C   UNL     1     -18.774 -62.787  56.487  1.00  0.00     0.177 C 
ATOM     24  C   UNL     1     -20.829 -61.879  57.737  1.00  0.00     0.176 C 
ATOM     25  C   UNL     1     -19.818 -61.655  56.581  1.00  0.00     0.177 C 
BRANCH  21  26
ATOM     26  O   UNL     1     -20.194 -64.413  55.407  1.00  0.00    -0.387 OA
ATOM     27  H   UNL     1     -19.634 -64.113  54.645  1.00  0.00     0.211 HD
ENDBRANCH  21  26
BRANCH  23  28
ATOM     28  O   UNL     1     -17.825 -62.644  57.512  1.00  0.00    -0.387 OA
ATOM     29  H   UNL     1     -17.011 -62.251  57.101  1.00  0.00     0.211 HD
ENDBRANCH  23  28
BRANCH  24  30
ATOM     30  C   UNL     1     -20.303 -61.458  59.128  1.00  0.00     0.191 C 
BRANCH  30  31
ATOM     31  O   UNL     1     -19.080 -60.779  59.011  1.00  0.00    -0.394 OA
ATOM     32  H   UNL     1     -18.393 -61.462  58.793  1.00  0.00     0.210 HD
ENDBRANCH  30  31
ENDBRANCH  24  30
BRANCH  25  33
ATOM     33  O   UNL     1     -20.531 -61.570  55.371  1.00  0.00    -0.388 OA
ATOM     34  H   UNL     1     -20.077 -62.169  54.723  1.00  0.00     0.211 HD
ENDBRANCH  25  33
ENDBRANCH  11  20
BRANCH  10  35
ATOM     35  O   UNL     1     -19.176 -66.445  59.239  1.00  0.00    -0.507 OA
ATOM     36  H   UNL     1     -18.588 -65.650  59.017  1.00  0.00     0.293 HD
ENDBRANCH  10  35
TORSDOF 9
ENDMDL
