MODEL 1
REMARK VINA RESULT:    -6.787      0.000      0.000
REMARK INTER + INTRA:          -6.909
REMARK INTER:                  -7.382
REMARK INTRA:                   0.473
REMARK UNBOUND:                 0.473
REMARK SMILES C[C@H]1[C@H]2C3=CC[C@@H]4[C@@]5(C)CC[C@@H](O)C(C)(C)[C@H]5CC[C@]4(C)[C@@]3(C)CC[C@]2(C(=O)[O-])CC[C@@H]1C
REMARK SMILES IDX 26 1 30 2 25 3 3 4 31 5 24 6 4 7 2 8 32 9 22 10 5 11 1 12
REMARK SMILES IDX 33 13 23 14 20 15 6 16 7 17 19 18 21 19 8 20 18 21 17 22
REMARK SMILES IDX 10 23 9 24 14 25 11 26 12 27 15 28 16 29 27 30 28 31 29 32
REMARK SMILES IDX 13 33
REMARK H PARENT 13 34
REMARK Flexibility Score: inf
ROOT
ATOM      1  C   UNL     1      -5.929  37.747 166.303  1.00  0.00     0.017 C 
ATOM      2  C   UNL     1      -7.147  38.578 165.794  1.00  0.00     0.014 C 
ATOM      3  C   UNL     1      -6.348  37.065 167.631  1.00  0.00     0.014 C 
ATOM      4  C   UNL     1      -5.596  36.663 165.222  1.00  0.00     0.030 C 
ATOM      5  C   UNL     1      -6.930  39.202 164.406  1.00  0.00     0.004 C 
ATOM      6  C   UNL     1      -5.361  35.982 168.117  1.00  0.00     0.013 C 
ATOM      7  C   UNL     1      -4.641  35.581 165.773  1.00  0.00    -0.063 C 
ATOM      8  C   UNL     1      -5.296  37.301 163.813  1.00  0.00    -0.003 C 
ATOM      9  C   UNL     1      -6.498  38.172 163.335  1.00  0.00    -0.011 C 
ATOM     10  C   UNL     1      -5.036  34.852 167.075  1.00  0.00    -0.006 C 
ATOM     11  C   UNL     1      -3.510  35.273 165.130  1.00  0.00    -0.027 C 
ATOM     12  C   UNL     1      -3.994  38.140 163.704  1.00  0.00     0.008 C 
ATOM     13  C   UNL     1      -7.690  37.325 162.851  1.00  0.00     0.008 C 
ATOM     14  C   UNL     1      -6.355  34.060 166.797  1.00  0.00     0.017 C 
ATOM     15  C   UNL     1      -3.893  33.825 167.632  1.00  0.00    -0.020 C 
ATOM     16  C   UNL     1      -2.326  34.656 165.783  1.00  0.00     0.032 C 
ATOM     17  C   UNL     1      -2.445  34.368 167.314  1.00  0.00     0.006 C 
ATOM     18  C   UNL     1      -3.976  32.417 166.963  1.00  0.00     0.008 C 
ATOM     19  C   UNL     1      -4.137  33.618 169.163  1.00  0.00     0.012 C 
ATOM     20  C   UNL     1      -1.216  33.440 167.780  1.00  0.00    -0.025 C 
ATOM     21  C   UNL     1      -2.879  31.437 167.417  1.00  0.00     0.005 C 
ATOM     22  C   UNL     1      -1.407  31.939 167.273  1.00  0.00     0.003 C 
ATOM     23  C   UNL     1      -0.980  33.530 169.337  1.00  0.00     0.010 C 
ATOM     24  C   UNL     1       0.092  34.022 167.143  1.00  0.00     0.012 C 
ATOM     25  C   UNL     1      -0.322  30.893 167.843  1.00  0.00    -0.006 C 
ATOM     26  C   UNL     1      -0.733  32.181 170.024  1.00  0.00     0.033 C 
ATOM     27  C   UNL     1       0.271  31.349 169.229  1.00  0.00     0.120 C 
ATOM     28  C   UNL     1       0.848  30.755 166.829  1.00  0.00     0.014 C 
ATOM     29  C   UNL     1      -0.904  29.449 167.974  1.00  0.00     0.014 C 
ENDROOT
BRANCH   1  30
ATOM     30  C   UNL     1      -4.748  38.659 166.617  1.00  0.00     0.048 C 
ATOM     31  O   UNL     1      -3.655  38.182 167.023  1.00  0.00    -0.550 OA
ATOM     32  O   UNL     1      -4.885  40.043 166.555  1.00  0.00    -0.550 OA
ENDBRANCH   1  30
BRANCH  27  33
ATOM     33  O   UNL     1       0.674  30.259 170.021  1.00  0.00    -0.393 OA
ATOM     34  H   UNL     1       0.050  29.511 169.827  1.00  0.00     0.210 HD
ENDBRANCH  27  33
TORSDOF 2
ENDMDL
MODEL 2
REMARK VINA RESULT:    -6.230      4.048      7.859
REMARK INTER + INTRA:          -6.303
REMARK INTER:                  -6.815
REMARK INTRA:                   0.512
REMARK UNBOUND:                 0.473
REMARK SMILES C[C@H]1[C@H]2C3=CC[C@@H]4[C@@]5(C)CC[C@@H](O)C(C)(C)[C@H]5CC[C@]4(C)[C@@]3(C)CC[C@]2(C(=O)[O-])CC[C@@H]1C
REMARK SMILES IDX 26 1 30 2 25 3 3 4 31 5 24 6 4 7 2 8 32 9 22 10 5 11 1 12
REMARK SMILES IDX 33 13 23 14 20 15 6 16 7 17 19 18 21 19 8 20 18 21 17 22
REMARK SMILES IDX 10 23 9 24 14 25 11 26 12 27 15 28 16 29 27 30 28 31 29 32
REMARK SMILES IDX 13 33
REMARK H PARENT 13 34
REMARK Flexibility Score: inf
ROOT
ATOM      1  C   UNL     1     -11.908  38.094 160.725  1.00  0.00     0.017 C 
ATOM      2  C   UNL     1     -12.783  38.015 159.436  1.00  0.00     0.014 C 
ATOM      3  C   UNL     1     -12.072  36.752 161.486  1.00  0.00     0.014 C 
ATOM      4  C   UNL     1     -10.417  38.286 160.288  1.00  0.00     0.030 C 
ATOM      5  C   UNL     1     -12.611  39.224 158.501  1.00  0.00     0.004 C 
ATOM      6  C   UNL     1     -11.055  36.554 162.631  1.00  0.00     0.013 C 
ATOM      7  C   UNL     1      -9.440  38.033 161.459  1.00  0.00    -0.063 C 
ATOM      8  C   UNL     1     -10.220  39.568 159.393  1.00  0.00    -0.003 C 
ATOM      9  C   UNL     1     -11.135  39.506 158.132  1.00  0.00    -0.011 C 
ATOM     10  C   UNL     1      -9.546  36.696 162.222  1.00  0.00    -0.006 C 
ATOM     11  C   UNL     1      -8.518  38.942 161.792  1.00  0.00    -0.027 C 
ATOM     12  C   UNL     1     -10.429  40.936 160.099  1.00  0.00     0.008 C 
ATOM     13  C   UNL     1     -10.619  38.517 157.071  1.00  0.00     0.008 C 
ATOM     14  C   UNL     1      -9.209  35.546 161.218  1.00  0.00     0.017 C 
ATOM     15  C   UNL     1      -8.555  36.592 163.517  1.00  0.00    -0.020 C 
ATOM     16  C   UNL     1      -7.896  39.039 163.138  1.00  0.00     0.032 C 
ATOM     17  C   UNL     1      -8.378  38.003 164.204  1.00  0.00     0.006 C 
ATOM     18  C   UNL     1      -7.116  36.121 163.135  1.00  0.00     0.008 C 
ATOM     19  C   UNL     1      -9.145  35.518 164.490  1.00  0.00     0.012 C 
ATOM     20  C   UNL     1      -7.399  38.058 165.480  1.00  0.00    -0.025 C 
ATOM     21  C   UNL     1      -6.135  36.067 164.320  1.00  0.00     0.005 C 
ATOM     22  C   UNL     1      -5.992  37.380 165.153  1.00  0.00     0.003 C 
ATOM     23  C   UNL     1      -8.086  37.447 166.763  1.00  0.00     0.010 C 
ATOM     24  C   UNL     1      -7.159  39.566 165.835  1.00  0.00     0.012 C 
ATOM     25  C   UNL     1      -5.010  37.221 166.421  1.00  0.00    -0.006 C 
ATOM     26  C   UNL     1      -7.186  36.513 167.583  1.00  0.00     0.033 C 
ATOM     27  C   UNL     1      -5.804  37.133 167.779  1.00  0.00     0.120 C 
ATOM     28  C   UNL     1      -4.052  38.443 166.492  1.00  0.00     0.014 C 
ATOM     29  C   UNL     1      -4.066  35.985 166.289  1.00  0.00     0.014 C 
ENDROOT
BRANCH   1  30
ATOM     30  C   UNL     1     -12.407  39.201 161.648  1.00  0.00     0.048 C 
ATOM     31  O   UNL     1     -11.891  39.372 162.785  1.00  0.00    -0.550 OA
ATOM     32  O   UNL     1     -13.506  39.977 161.294  1.00  0.00    -0.550 OA
ENDBRANCH   1  30
BRANCH  27  33
ATOM     33  O   UNL     1      -5.115  36.389 168.752  1.00  0.00    -0.393 OA
ATOM     34  H   UNL     1      -4.286  36.890 168.970  1.00  0.00     0.210 HD
ENDBRANCH  27  33
TORSDOF 2
ENDMDL
MODEL 3
REMARK VINA RESULT:    -6.200      3.877      9.984
REMARK INTER + INTRA:          -6.271
REMARK INTER:                  -6.866
REMARK INTRA:                   0.594
REMARK UNBOUND:                 0.473
REMARK SMILES C[C@H]1[C@H]2C3=CC[C@@H]4[C@@]5(C)CC[C@@H](O)C(C)(C)[C@H]5CC[C@]4(C)[C@@]3(C)CC[C@]2(C(=O)[O-])CC[C@@H]1C
REMARK SMILES IDX 26 1 30 2 25 3 3 4 31 5 24 6 4 7 2 8 32 9 22 10 5 11 1 12
REMARK SMILES IDX 33 13 23 14 20 15 6 16 7 17 19 18 21 19 8 20 18 21 17 22
REMARK SMILES IDX 10 23 9 24 14 25 11 26 12 27 15 28 16 29 27 30 28 31 29 32
REMARK SMILES IDX 13 33
REMARK H PARENT 13 34
REMARK Flexibility Score: inf
ROOT
ATOM      1  C   UNL     1      -5.475  35.846 165.304  1.00  0.00     0.017 C 
ATOM      2  C   UNL     1      -4.763  35.237 166.551  1.00  0.00     0.014 C 
ATOM      3  C   UNL     1      -6.273  34.708 164.617  1.00  0.00     0.014 C 
ATOM      4  C   UNL     1      -6.452  36.965 165.802  1.00  0.00     0.030 C 
ATOM      5  C   UNL     1      -4.043  36.281 167.420  1.00  0.00     0.004 C 
ATOM      6  C   UNL     1      -7.261  35.200 163.537  1.00  0.00     0.013 C 
ATOM      7  C   UNL     1      -7.446  37.389 164.697  1.00  0.00    -0.063 C 
ATOM      8  C   UNL     1      -5.707  38.080 166.629  1.00  0.00    -0.003 C 
ATOM      9  C   UNL     1      -4.956  37.457 167.844  1.00  0.00    -0.011 C 
ATOM     10  C   UNL     1      -8.286  36.291 164.011  1.00  0.00    -0.006 C 
ATOM     11  C   UNL     1      -7.586  38.674 164.358  1.00  0.00    -0.027 C 
ATOM     12  C   UNL     1      -4.719  38.977 165.834  1.00  0.00     0.008 C 
ATOM     13  C   UNL     1      -5.906  37.051 168.986  1.00  0.00     0.008 C 
ATOM     14  C   UNL     1      -9.208  35.647 165.096  1.00  0.00     0.017 C 
ATOM     15  C   UNL     1      -9.205  36.837 162.774  1.00  0.00    -0.020 C 
ATOM     16  C   UNL     1      -8.098  39.133 163.041  1.00  0.00     0.032 C 
ATOM     17  C   UNL     1      -8.481  38.018 162.015  1.00  0.00     0.006 C 
ATOM     18  C   UNL     1     -10.574  37.415 163.253  1.00  0.00     0.008 C 
ATOM     19  C   UNL     1      -9.523  35.624 161.838  1.00  0.00     0.012 C 
ATOM     20  C   UNL     1      -9.287  38.677 160.787  1.00  0.00    -0.025 C 
ATOM     21  C   UNL     1     -11.444  37.994 162.123  1.00  0.00     0.005 C 
ATOM     22  C   UNL     1     -10.769  39.075 161.222  1.00  0.00     0.003 C 
ATOM     23  C   UNL     1      -9.256  37.750 159.511  1.00  0.00     0.010 C 
ATOM     24  C   UNL     1      -8.523  39.976 160.356  1.00  0.00     0.012 C 
ATOM     25  C   UNL     1     -11.714  39.574 160.015  1.00  0.00    -0.006 C 
ATOM     26  C   UNL     1     -10.604  37.610 158.792  1.00  0.00     0.033 C 
ATOM     27  C   UNL     1     -11.270  38.975 158.628  1.00  0.00     0.120 C 
ATOM     28  C   UNL     1     -11.660  41.125 159.920  1.00  0.00     0.014 C 
ATOM     29  C   UNL     1     -13.219  39.245 160.267  1.00  0.00     0.014 C 
ENDROOT
BRANCH   1  30
ATOM     30  C   UNL     1      -4.452  36.355 164.294  1.00  0.00     0.048 C 
ATOM     31  O   UNL     1      -3.243  36.008 164.372  1.00  0.00    -0.550 OA
ATOM     32  O   UNL     1      -4.813  37.289 163.328  1.00  0.00    -0.550 OA
ENDBRANCH   1  30
BRANCH  27  33
ATOM     33  O   UNL     1     -12.348  38.841 157.735  1.00  0.00    -0.393 OA
ATOM     34  H   UNL     1     -13.168  38.732 158.283  1.00  0.00     0.210 HD
ENDBRANCH  27  33
TORSDOF 2
ENDMDL
MODEL 4
REMARK VINA RESULT:    -6.141      5.308     11.097
REMARK INTER + INTRA:          -6.207
REMARK INTER:                  -6.683
REMARK INTRA:                   0.476
REMARK UNBOUND:                 0.473
REMARK SMILES C[C@H]1[C@H]2C3=CC[C@@H]4[C@@]5(C)CC[C@@H](O)C(C)(C)[C@H]5CC[C@]4(C)[C@@]3(C)CC[C@]2(C(=O)[O-])CC[C@@H]1C
REMARK SMILES IDX 26 1 30 2 25 3 3 4 31 5 24 6 4 7 2 8 32 9 22 10 5 11 1 12
REMARK SMILES IDX 33 13 23 14 20 15 6 16 7 17 19 18 21 19 8 20 18 21 17 22
REMARK SMILES IDX 10 23 9 24 14 25 11 26 12 27 15 28 16 29 27 30 28 31 29 32
REMARK SMILES IDX 13 33
REMARK H PARENT 13 34
REMARK Flexibility Score: inf
ROOT
ATOM      1  C   UNL     1      -7.996  36.509 165.130  1.00  0.00     0.017 C 
ATOM      2  C   UNL     1      -7.502  36.469 166.609  1.00  0.00     0.014 C 
ATOM      3  C   UNL     1      -9.443  35.954 165.103  1.00  0.00     0.014 C 
ATOM      4  C   UNL     1      -7.983  38.002 164.655  1.00  0.00     0.030 C 
ATOM      5  C   UNL     1      -6.127  37.124 166.817  1.00  0.00     0.004 C 
ATOM      6  C   UNL     1     -10.180  36.191 163.767  1.00  0.00     0.013 C 
ATOM      7  C   UNL     1      -8.770  38.190 163.338  1.00  0.00    -0.063 C 
ATOM      8  C   UNL     1      -6.557  38.658 164.793  1.00  0.00    -0.003 C 
ATOM      9  C   UNL     1      -6.048  38.567 166.264  1.00  0.00    -0.011 C 
ATOM     10  C   UNL     1     -10.226  37.683 163.279  1.00  0.00    -0.006 C 
ATOM     11  C   UNL     1      -8.209  38.792 162.284  1.00  0.00    -0.027 C 
ATOM     12  C   UNL     1      -5.455  38.108 163.846  1.00  0.00     0.008 C 
ATOM     13  C   UNL     1      -6.750  39.569 167.198  1.00  0.00     0.008 C 
ATOM     14  C   UNL     1     -11.060  38.502 164.317  1.00  0.00     0.017 C 
ATOM     15  C   UNL     1     -10.915  37.817 161.803  1.00  0.00    -0.020 C 
ATOM     16  C   UNL     1      -8.652  38.589 160.881  1.00  0.00     0.032 C 
ATOM     17  C   UNL     1      -9.845  37.603 160.662  1.00  0.00     0.006 C 
ATOM     18  C   UNL     1     -11.526  39.231 161.553  1.00  0.00     0.008 C 
ATOM     19  C   UNL     1     -12.092  36.790 161.726  1.00  0.00     0.012 C 
ATOM     20  C   UNL     1     -10.378  37.738 159.150  1.00  0.00    -0.025 C 
ATOM     21  C   UNL     1     -12.133  39.418 160.151  1.00  0.00     0.005 C 
ATOM     22  C   UNL     1     -11.192  39.095 158.948  1.00  0.00     0.003 C 
ATOM     23  C   UNL     1     -11.198  36.464 158.709  1.00  0.00     0.010 C 
ATOM     24  C   UNL     1      -9.129  37.756 158.202  1.00  0.00     0.012 C 
ATOM     25  C   UNL     1     -11.922  39.236 157.518  1.00  0.00    -0.006 C 
ATOM     26  C   UNL     1     -12.497  36.773 157.954  1.00  0.00     0.033 C 
ATOM     27  C   UNL     1     -12.257  37.834 156.882  1.00  0.00     0.120 C 
ATOM     28  C   UNL     1     -10.997  40.011 156.537  1.00  0.00     0.014 C 
ATOM     29  C   UNL     1     -13.223  40.096 157.599  1.00  0.00     0.014 C 
ENDROOT
BRANCH   1  30
ATOM     30  C   UNL     1      -7.145  35.597 164.252  1.00  0.00     0.048 C 
ATOM     31  O   UNL     1      -7.310  35.568 163.004  1.00  0.00    -0.550 OA
ATOM     32  O   UNL     1      -6.240  34.708 164.823  1.00  0.00    -0.550 OA
ENDBRANCH   1  30
BRANCH  27  33
ATOM     33  O   UNL     1     -13.384  37.885 156.043  1.00  0.00    -0.393 OA
ATOM     34  H   UNL     1     -14.046  38.482 156.480  1.00  0.00     0.210 HD
ENDBRANCH  27  33
TORSDOF 2
ENDMDL
MODEL 5
REMARK VINA RESULT:    -6.054      1.770      7.933
REMARK INTER + INTRA:          -6.112
REMARK INTER:                  -6.593
REMARK INTRA:                   0.481
REMARK UNBOUND:                 0.473
REMARK SMILES C[C@H]1[C@H]2C3=CC[C@@H]4[C@@]5(C)CC[C@@H](O)C(C)(C)[C@H]5CC[C@]4(C)[C@@]3(C)CC[C@]2(C(=O)[O-])CC[C@@H]1C
REMARK SMILES IDX 26 1 30 2 25 3 3 4 31 5 24 6 4 7 2 8 32 9 22 10 5 11 1 12
REMARK SMILES IDX 33 13 23 14 20 15 6 16 7 17 19 18 21 19 8 20 18 21 17 22
REMARK SMILES IDX 10 23 9 24 14 25 11 26 12 27 15 28 16 29 27 30 28 31 29 32
REMARK SMILES IDX 13 33
REMARK H PARENT 13 34
REMARK Flexibility Score: inf
ROOT
ATOM      1  C   UNL     1      -1.033  32.201 166.463  1.00  0.00     0.017 C 
ATOM      2  C   UNL     1      -0.236  30.901 166.136  1.00  0.00     0.014 C 
ATOM      3  C   UNL     1      -0.825  33.189 165.286  1.00  0.00     0.014 C 
ATOM      4  C   UNL     1      -2.548  31.822 166.587  1.00  0.00     0.030 C 
ATOM      5  C   UNL     1      -0.462  29.768 167.151  1.00  0.00     0.004 C 
ATOM      6  C   UNL     1      -1.773  34.407 165.316  1.00  0.00     0.013 C 
ATOM      7  C   UNL     1      -3.454  33.074 166.567  1.00  0.00    -0.063 C 
ATOM      8  C   UNL     1      -2.798  30.715 167.680  1.00  0.00    -0.003 C 
ATOM      9  C   UNL     1      -1.958  29.438 167.374  1.00  0.00    -0.011 C 
ATOM     10  C   UNL     1      -3.304  34.066 165.395  1.00  0.00    -0.006 C 
ATOM     11  C   UNL     1      -4.356  33.283 167.532  1.00  0.00    -0.027 C 
ATOM     12  C   UNL     1      -2.548  31.139 169.153  1.00  0.00     0.008 C 
ATOM     13  C   UNL     1      -2.534  28.613 166.209  1.00  0.00     0.008 C 
ATOM     14  C   UNL     1      -3.698  33.317 164.081  1.00  0.00     0.017 C 
ATOM     15  C   UNL     1      -4.217  35.413 165.546  1.00  0.00    -0.020 C 
ATOM     16  C   UNL     1      -4.898  34.620 167.886  1.00  0.00     0.032 C 
ATOM     17  C   UNL     1      -4.355  35.833 167.062  1.00  0.00     0.006 C 
ATOM     18  C   UNL     1      -5.675  35.210 165.027  1.00  0.00     0.008 C 
ATOM     19  C   UNL     1      -3.571  36.534 164.667  1.00  0.00     0.012 C 
ATOM     20  C   UNL     1      -5.257  37.130 167.365  1.00  0.00    -0.025 C 
ATOM     21  C   UNL     1      -6.586  36.438 165.206  1.00  0.00     0.005 C 
ATOM     22  C   UNL     1      -6.680  37.018 166.653  1.00  0.00     0.003 C 
ATOM     23  C   UNL     1      -4.496  38.463 166.998  1.00  0.00     0.010 C 
ATOM     24  C   UNL     1      -5.477  37.209 168.915  1.00  0.00     0.012 C 
ATOM     25  C   UNL     1      -7.586  38.347 166.744  1.00  0.00    -0.006 C 
ATOM     26  C   UNL     1      -5.346  39.494 166.243  1.00  0.00     0.033 C 
ATOM     27  C   UNL     1      -6.714  39.649 166.903  1.00  0.00     0.120 C 
ATOM     28  C   UNL     1      -8.540  38.243 167.968  1.00  0.00     0.014 C 
ATOM     29  C   UNL     1      -8.536  38.503 165.515  1.00  0.00     0.014 C 
ENDROOT
BRANCH   1  30
ATOM     30  C   UNL     1      -0.482  32.870 167.718  1.00  0.00     0.048 C 
ATOM     31  O   UNL     1      -0.998  33.931 168.162  1.00  0.00    -0.550 OA
ATOM     32  O   UNL     1       0.661  32.378 168.340  1.00  0.00    -0.550 OA
ENDBRANCH   1  30
BRANCH  27  33
ATOM     33  O   UNL     1      -7.345  40.783 166.361  1.00  0.00    -0.393 OA
ATOM     34  H   UNL     1      -7.525  41.405 167.115  1.00  0.00     0.210 HD
ENDBRANCH  27  33
TORSDOF 2
ENDMDL
MODEL 6
REMARK VINA RESULT:    -6.018      4.197      7.904
REMARK INTER + INTRA:          -6.073
REMARK INTER:                  -6.658
REMARK INTRA:                   0.585
REMARK UNBOUND:                 0.473
REMARK SMILES C[C@H]1[C@H]2C3=CC[C@@H]4[C@@]5(C)CC[C@@H](O)C(C)(C)[C@H]5CC[C@]4(C)[C@@]3(C)CC[C@]2(C(=O)[O-])CC[C@@H]1C
REMARK SMILES IDX 26 1 30 2 25 3 3 4 31 5 24 6 4 7 2 8 32 9 22 10 5 11 1 12
REMARK SMILES IDX 33 13 23 14 20 15 6 16 7 17 19 18 21 19 8 20 18 21 17 22
REMARK SMILES IDX 10 23 9 24 14 25 11 26 12 27 15 28 16 29 27 30 28 31 29 32
REMARK SMILES IDX 13 33
REMARK H PARENT 13 34
REMARK Flexibility Score: inf
ROOT
ATOM      1  C   UNL     1     -11.813  38.777 160.730  1.00  0.00     0.017 C 
ATOM      2  C   UNL     1     -12.949  38.666 159.667  1.00  0.00     0.014 C 
ATOM      3  C   UNL     1     -12.485  38.959 162.116  1.00  0.00     0.014 C 
ATOM      4  C   UNL     1     -10.990  37.444 160.701  1.00  0.00     0.030 C 
ATOM      5  C   UNL     1     -12.439  38.338 158.253  1.00  0.00     0.004 C 
ATOM      6  C   UNL     1     -11.515  38.798 163.307  1.00  0.00     0.013 C 
ATOM      7  C   UNL     1     -10.070  37.313 161.936  1.00  0.00    -0.063 C 
ATOM      8  C   UNL     1     -10.399  37.141 159.272  1.00  0.00    -0.003 C 
ATOM      9  C   UNL     1     -11.535  37.083 158.206  1.00  0.00    -0.011 C 
ATOM     10  C   UNL     1     -10.704  37.454 163.336  1.00  0.00    -0.006 C 
ATOM     11  C   UNL     1      -8.764  37.069 161.795  1.00  0.00    -0.027 C 
ATOM     12  C   UNL     1      -9.290  38.106 158.771  1.00  0.00     0.008 C 
ATOM     13  C   UNL     1     -12.363  35.787 158.290  1.00  0.00     0.008 C 
ATOM     14  C   UNL     1     -11.721  36.281 163.520  1.00  0.00     0.017 C 
ATOM     15  C   UNL     1      -9.619  37.427 164.559  1.00  0.00    -0.020 C 
ATOM     16  C   UNL     1      -7.741  37.410 162.817  1.00  0.00     0.032 C 
ATOM     17  C   UNL     1      -8.259  38.100 164.119  1.00  0.00     0.006 C 
ATOM     18  C   UNL     1      -9.253  35.977 165.004  1.00  0.00     0.008 C 
ATOM     19  C   UNL     1     -10.269  38.134 165.794  1.00  0.00     0.012 C 
ATOM     20  C   UNL     1      -7.084  38.117 165.218  1.00  0.00    -0.025 C 
ATOM     21  C   UNL     1      -8.189  35.907 166.114  1.00  0.00     0.005 C 
ATOM     22  C   UNL     1      -6.852  36.663 165.832  1.00  0.00     0.003 C 
ATOM     23  C   UNL     1      -7.342  39.211 166.325  1.00  0.00     0.010 C 
ATOM     24  C   UNL     1      -5.767  38.575 164.503  1.00  0.00     0.012 C 
ATOM     25  C   UNL     1      -5.822  36.611 167.071  1.00  0.00    -0.006 C 
ATOM     26  C   UNL     1      -7.082  38.738 167.761  1.00  0.00     0.033 C 
ATOM     27  C   UNL     1      -5.758  37.981 167.846  1.00  0.00     0.120 C 
ATOM     28  C   UNL     1      -4.397  36.276 166.548  1.00  0.00     0.014 C 
ATOM     29  C   UNL     1      -6.157  35.461 168.073  1.00  0.00     0.014 C 
ENDROOT
BRANCH   1  30
ATOM     30  C   UNL     1     -10.956  40.013 160.477  1.00  0.00     0.048 C 
ATOM     31  O   UNL     1      -9.785  40.088 160.933  1.00  0.00    -0.550 OA
ATOM     32  O   UNL     1     -11.486  41.120 159.822  1.00  0.00    -0.550 OA
ENDBRANCH   1  30
BRANCH  27  33
ATOM     33  O   UNL     1      -5.427  37.812 169.202  1.00  0.00    -0.393 OA
ATOM     34  H   UNL     1      -5.078  36.887 169.303  1.00  0.00     0.210 HD
ENDBRANCH  27  33
TORSDOF 2
ENDMDL
MODEL 7
REMARK VINA RESULT:    -5.969      1.783      8.036
REMARK INTER + INTRA:          -6.020
REMARK INTER:                  -6.495
REMARK INTRA:                   0.475
REMARK UNBOUND:                 0.473
REMARK SMILES C[C@H]1[C@H]2C3=CC[C@@H]4[C@@]5(C)CC[C@@H](O)C(C)(C)[C@H]5CC[C@]4(C)[C@@]3(C)CC[C@]2(C(=O)[O-])CC[C@@H]1C
REMARK SMILES IDX 26 1 30 2 25 3 3 4 31 5 24 6 4 7 2 8 32 9 22 10 5 11 1 12
REMARK SMILES IDX 33 13 23 14 20 15 6 16 7 17 19 18 21 19 8 20 18 21 17 22
REMARK SMILES IDX 10 23 9 24 14 25 11 26 12 27 15 28 16 29 27 30 28 31 29 32
REMARK SMILES IDX 13 33
REMARK H PARENT 13 34
REMARK Flexibility Score: inf
ROOT
ATOM      1  C   UNL     1      -1.443  31.736 167.324  1.00  0.00     0.017 C 
ATOM      2  C   UNL     1      -0.925  30.340 167.790  1.00  0.00     0.014 C 
ATOM      3  C   UNL     1      -1.587  31.692 165.781  1.00  0.00     0.014 C 
ATOM      4  C   UNL     1      -2.839  31.982 167.989  1.00  0.00     0.030 C 
ATOM      5  C   UNL     1      -0.868  30.184 169.319  1.00  0.00     0.004 C 
ATOM      6  C   UNL     1      -2.357  32.893 165.190  1.00  0.00     0.013 C 
ATOM      7  C   UNL     1      -3.586  33.165 167.332  1.00  0.00    -0.063 C 
ATOM      8  C   UNL     1      -2.773  31.899 169.561  1.00  0.00    -0.003 C 
ATOM      9  C   UNL     1      -2.206  30.520 170.018  1.00  0.00    -0.011 C 
ATOM     10  C   UNL     1      -3.782  33.144 165.801  1.00  0.00    -0.006 C 
ATOM     11  C   UNL     1      -4.063  34.171 168.072  1.00  0.00    -0.027 C 
ATOM     12  C   UNL     1      -1.980  33.029 170.273  1.00  0.00     0.008 C 
ATOM     13  C   UNL     1      -3.227  29.378 169.864  1.00  0.00     0.008 C 
ATOM     14  C   UNL     1      -4.680  31.914 165.451  1.00  0.00     0.017 C 
ATOM     15  C   UNL     1      -4.466  34.503 165.203  1.00  0.00    -0.020 C 
ATOM     16  C   UNL     1      -4.330  35.534 167.545  1.00  0.00     0.032 C 
ATOM     17  C   UNL     1      -4.018  35.770 166.032  1.00  0.00     0.006 C 
ATOM     18  C   UNL     1      -6.025  34.473 165.280  1.00  0.00     0.008 C 
ATOM     19  C   UNL     1      -4.086  34.607 163.689  1.00  0.00     0.012 C 
ATOM     20  C   UNL     1      -4.642  37.180 165.572  1.00  0.00    -0.025 C 
ATOM     21  C   UNL     1      -6.706  35.760 164.781  1.00  0.00     0.005 C 
ATOM     22  C   UNL     1      -6.230  37.090 165.444  1.00  0.00     0.003 C 
ATOM     23  C   UNL     1      -3.955  37.717 164.257  1.00  0.00     0.010 C 
ATOM     24  C   UNL     1      -4.286  38.241 166.670  1.00  0.00     0.012 C 
ATOM     25  C   UNL     1      -6.929  38.398 164.814  1.00  0.00    -0.006 C 
ATOM     26  C   UNL     1      -4.928  38.275 163.212  1.00  0.00     0.033 C 
ATOM     27  C   UNL     1      -5.953  39.197 163.870  1.00  0.00     0.120 C 
ATOM     28  C   UNL     1      -7.388  39.344 165.959  1.00  0.00     0.014 C 
ATOM     29  C   UNL     1      -8.239  38.053 164.037  1.00  0.00     0.014 C 
ENDROOT
BRANCH   1  30
ATOM     30  C   UNL     1      -0.426  32.825 167.653  1.00  0.00     0.048 C 
ATOM     31  O   UNL     1      -0.706  34.041 167.479  1.00  0.00    -0.550 OA
ATOM     32  O   UNL     1       0.863  32.492 168.056  1.00  0.00    -0.550 OA
ENDBRANCH   1  30
BRANCH  27  33
ATOM     33  O   UNL     1      -6.640  39.895 162.861  1.00  0.00    -0.393 OA
ATOM     34  H   UNL     1      -7.358  40.417 163.305  1.00  0.00     0.210 HD
ENDBRANCH  27  33
TORSDOF 2
ENDMDL
MODEL 8
REMARK VINA RESULT:    -5.933      2.721      8.685
REMARK INTER + INTRA:          -5.981
REMARK INTER:                  -6.450
REMARK INTRA:                   0.470
REMARK UNBOUND:                 0.473
REMARK SMILES C[C@H]1[C@H]2C3=CC[C@@H]4[C@@]5(C)CC[C@@H](O)C(C)(C)[C@H]5CC[C@]4(C)[C@@]3(C)CC[C@]2(C(=O)[O-])CC[C@@H]1C
REMARK SMILES IDX 26 1 30 2 25 3 3 4 31 5 24 6 4 7 2 8 32 9 22 10 5 11 1 12
REMARK SMILES IDX 33 13 23 14 20 15 6 16 7 17 19 18 21 19 8 20 18 21 17 22
REMARK SMILES IDX 10 23 9 24 14 25 11 26 12 27 15 28 16 29 27 30 28 31 29 32
REMARK SMILES IDX 13 33
REMARK H PARENT 13 34
REMARK Flexibility Score: inf
ROOT
ATOM      1  C   UNL     1      -4.020  34.267 167.293  1.00  0.00     0.017 C 
ATOM      2  C   UNL     1      -2.748  33.893 168.115  1.00  0.00     0.014 C 
ATOM      3  C   UNL     1      -4.654  35.519 167.951  1.00  0.00     0.014 C 
ATOM      4  C   UNL     1      -3.571  34.596 165.829  1.00  0.00     0.030 C 
ATOM      5  C   UNL     1      -1.929  32.749 167.496  1.00  0.00     0.004 C 
ATOM      6  C   UNL     1      -5.753  36.187 167.097  1.00  0.00     0.013 C 
ATOM      7  C   UNL     1      -4.692  35.302 165.033  1.00  0.00    -0.063 C 
ATOM      8  C   UNL     1      -2.797  33.398 165.160  1.00  0.00    -0.003 C 
ATOM      9  C   UNL     1      -1.557  32.997 166.014  1.00  0.00    -0.011 C 
ATOM     10  C   UNL     1      -5.327  36.573 165.636  1.00  0.00    -0.006 C 
ATOM     11  C   UNL     1      -5.089  34.833 163.845  1.00  0.00    -0.027 C 
ATOM     12  C   UNL     1      -3.634  32.124 164.861  1.00  0.00     0.008 C 
ATOM     13  C   UNL     1      -0.396  34.000 165.884  1.00  0.00     0.008 C 
ATOM     14  C   UNL     1      -4.212  37.664 165.731  1.00  0.00     0.017 C 
ATOM     15  C   UNL     1      -6.585  37.158 164.772  1.00  0.00    -0.020 C 
ATOM     16  C   UNL     1      -6.425  35.102 163.252  1.00  0.00     0.032 C 
ATOM     17  C   UNL     1      -7.398  35.985 164.097  1.00  0.00     0.006 C 
ATOM     18  C   UNL     1      -6.130  38.088 163.604  1.00  0.00     0.008 C 
ATOM     19  C   UNL     1      -7.464  38.027 165.731  1.00  0.00     0.012 C 
ATOM     20  C   UNL     1      -8.653  36.417 163.187  1.00  0.00    -0.025 C 
ATOM     21  C   UNL     1      -7.283  38.613 162.729  1.00  0.00     0.005 C 
ATOM     22  C   UNL     1      -8.233  37.531 162.125  1.00  0.00     0.003 C 
ATOM     23  C   UNL     1      -9.886  36.852 164.070  1.00  0.00     0.010 C 
ATOM     24  C   UNL     1      -9.143  35.145 162.413  1.00  0.00     0.012 C 
ATOM     25  C   UNL     1      -9.460  38.161 161.290  1.00  0.00    -0.006 C 
ATOM     26  C   UNL     1     -10.595  38.125 163.591  1.00  0.00     0.033 C 
ATOM     27  C   UNL     1     -10.819  38.080 162.081  1.00  0.00     0.120 C 
ATOM     28  C   UNL     1      -9.625  37.392 159.950  1.00  0.00     0.014 C 
ATOM     29  C   UNL     1      -9.190  39.640 160.867  1.00  0.00     0.014 C 
ENDROOT
BRANCH   1  30
ATOM     30  C   UNL     1      -5.054  33.147 167.362  1.00  0.00     0.048 C 
ATOM     31  O   UNL     1      -6.134  33.228 166.718  1.00  0.00    -0.550 OA
ATOM     32  O   UNL     1      -4.869  32.064 168.215  1.00  0.00    -0.550 OA
ENDBRANCH   1  30
BRANCH  27  33
ATOM     33  O   UNL     1     -11.703  39.116 161.730  1.00  0.00    -0.393 OA
ATOM     34  H   UNL     1     -11.163  39.945 161.648  1.00  0.00     0.210 HD
ENDBRANCH  27  33
TORSDOF 2
ENDMDL
MODEL 9
REMARK VINA RESULT:    -5.892      4.350      8.157
REMARK INTER + INTRA:          -5.936
REMARK INTER:                  -6.431
REMARK INTRA:                   0.495
REMARK UNBOUND:                 0.473
REMARK SMILES C[C@H]1[C@H]2C3=CC[C@@H]4[C@@]5(C)CC[C@@H](O)C(C)(C)[C@H]5CC[C@]4(C)[C@@]3(C)CC[C@]2(C(=O)[O-])CC[C@@H]1C
REMARK SMILES IDX 26 1 30 2 25 3 3 4 31 5 24 6 4 7 2 8 32 9 22 10 5 11 1 12
REMARK SMILES IDX 33 13 23 14 20 15 6 16 7 17 19 18 21 19 8 20 18 21 17 22
REMARK SMILES IDX 10 23 9 24 14 25 11 26 12 27 15 28 16 29 27 30 28 31 29 32
REMARK SMILES IDX 13 33
REMARK H PARENT 13 34
REMARK Flexibility Score: inf
ROOT
ATOM      1  C   UNL     1     -12.920  37.155 162.072  1.00  0.00     0.017 C 
ATOM      2  C   UNL     1     -14.281  36.571 161.582  1.00  0.00     0.014 C 
ATOM      3  C   UNL     1     -13.001  37.303 163.613  1.00  0.00     0.014 C 
ATOM      4  C   UNL     1     -11.791  36.139 161.687  1.00  0.00     0.030 C 
ATOM      5  C   UNL     1     -14.302  36.233 160.082  1.00  0.00     0.004 C 
ATOM      6  C   UNL     1     -11.643  37.596 164.286  1.00  0.00     0.013 C 
ATOM      7  C   UNL     1     -10.467  36.451 162.421  1.00  0.00    -0.063 C 
ATOM      8  C   UNL     1     -11.756  35.847 160.139  1.00  0.00    -0.003 C 
ATOM      9  C   UNL     1     -13.136  35.313 159.647  1.00  0.00    -0.011 C 
ATOM     10  C   UNL     1     -10.496  36.574 163.959  1.00  0.00    -0.006 C 
ATOM     11  C   UNL     1      -9.325  36.595 161.741  1.00  0.00    -0.027 C 
ATOM     12  C   UNL     1     -11.322  37.028 159.228  1.00  0.00     0.008 C 
ATOM     13  C   UNL     1     -13.388  33.850 160.057  1.00  0.00     0.008 C 
ATOM     14  C   UNL     1     -10.910  35.183 164.540  1.00  0.00     0.017 C 
ATOM     15  C   UNL     1      -9.071  37.033 164.613  1.00  0.00    -0.020 C 
ATOM     16  C   UNL     1      -8.152  37.357 162.243  1.00  0.00     0.032 C 
ATOM     17  C   UNL     1      -8.301  38.020 163.650  1.00  0.00     0.006 C 
ATOM     18  C   UNL     1      -8.104  35.829 164.849  1.00  0.00     0.008 C 
ATOM     19  C   UNL     1      -9.365  37.663 166.014  1.00  0.00     0.012 C 
ATOM     20  C   UNL     1      -6.862  38.532 164.155  1.00  0.00    -0.025 C 
ATOM     21  C   UNL     1      -6.727  36.227 165.410  1.00  0.00     0.005 C 
ATOM     22  C   UNL     1      -5.942  37.307 164.600  1.00  0.00     0.003 C 
ATOM     23  C   UNL     1      -6.999  39.630 165.279  1.00  0.00     0.010 C 
ATOM     24  C   UNL     1      -6.170  39.269 162.957  1.00  0.00     0.012 C 
ATOM     25  C   UNL     1      -4.548  37.727 165.292  1.00  0.00    -0.006 C 
ATOM     26  C   UNL     1      -6.047  39.447 166.468  1.00  0.00     0.033 C 
ATOM     27  C   UNL     1      -4.632  39.141 165.983  1.00  0.00     0.120 C 
ATOM     28  C   UNL     1      -3.427  37.772 164.216  1.00  0.00     0.014 C 
ATOM     29  C   UNL     1      -4.059  36.669 166.330  1.00  0.00     0.014 C 
ENDROOT
BRANCH   1  30
ATOM     30  C   UNL     1     -12.692  38.548 161.495  1.00  0.00     0.048 C 
ATOM     31  O   UNL     1     -11.564  39.103 161.580  1.00  0.00    -0.550 OA
ATOM     32  O   UNL     1     -13.749  39.271 160.951  1.00  0.00    -0.550 OA
ENDBRANCH   1  30
BRANCH  27  33
ATOM     33  O   UNL     1      -3.751  39.255 167.073  1.00  0.00    -0.393 OA
ATOM     34  H   UNL     1      -2.830  39.164 166.714  1.00  0.00     0.210 HD
ENDBRANCH  27  33
TORSDOF 2
ENDMDL
