MODEL 1
REMARK VINA RESULT:    -4.403      0.000      0.000
REMARK INTER + INTRA:          -5.099
REMARK INTER:                  -5.046
REMARK INTRA:                  -0.052
REMARK UNBOUND:                -0.052
REMARK SMILES O=C([O-])c1cc(O)c(O)c(O)c1
REMARK SMILES IDX 4 1 5 2 12 3 6 4 10 5 8 6 2 7 1 8 3 9 7 10 11 12 9 14
REMARK H PARENT 7 11 11 13 9 15
REMARK Flexibility Score: inf
ROOT
ATOM      1  C   UNL     1      15.033  57.722  32.692  1.00  0.00     0.005 A 
ATOM      2  C   UNL     1      14.512  59.025  32.674  1.00  0.00     0.060 A 
ATOM      3  C   UNL     1      16.415  57.536  32.516  1.00  0.00     0.060 A 
ATOM      4  C   UNL     1      15.357  60.128  32.484  1.00  0.00     0.162 A 
ATOM      5  C   UNL     1      17.265  58.636  32.326  1.00  0.00     0.162 A 
ATOM      6  C   UNL     1      16.733  59.936  32.310  1.00  0.00     0.200 A 
ENDROOT
BRANCH   1   7
ATOM      7  C   UNL     1      14.136  56.561  32.893  1.00  0.00     0.072 C 
ATOM      8  O   UNL     1      12.887  56.693  32.802  1.00  0.00    -0.545 OA
ATOM      9  O   UNL     1      14.661  55.308  33.184  1.00  0.00    -0.545 OA
ENDBRANCH   1   7
BRANCH   4  10
ATOM     10  O   UNL     1      14.834  61.420  32.468  1.00  0.00    -0.504 OA
ATOM     11  H   UNL     1      14.664  61.913  31.599  1.00  0.00     0.293 HD
ENDBRANCH   4  10
BRANCH   5  12
ATOM     12  O   UNL     1      18.634  58.440  32.153  1.00  0.00    -0.504 OA
ATOM     13  H   UNL     1      19.232  59.169  31.782  1.00  0.00     0.293 HD
ENDBRANCH   5  12
BRANCH   6  14
ATOM     14  O   UNL     1      17.558  61.046  32.123  1.00  0.00    -0.502 OA
ATOM     15  H   UNL     1      17.395  61.719  31.384  1.00  0.00     0.293 HD
ENDBRANCH   6  14
TORSDOF 4
ENDMDL
MODEL 2
REMARK VINA RESULT:    -4.381      0.063      2.422
REMARK INTER + INTRA:          -5.073
REMARK INTER:                  -5.021
REMARK INTRA:                  -0.052
REMARK UNBOUND:                -0.052
REMARK SMILES O=C([O-])c1cc(O)c(O)c(O)c1
REMARK SMILES IDX 4 1 5 2 12 3 6 4 10 5 8 6 2 7 1 8 3 9 7 10 11 12 9 14
REMARK H PARENT 7 11 11 13 9 15
REMARK Flexibility Score: inf
ROOT
ATOM      1  C   UNL     1      15.021  57.679  32.699  1.00  0.00     0.005 A 
ATOM      2  C   UNL     1      16.405  57.504  32.542  1.00  0.00     0.060 A 
ATOM      3  C   UNL     1      14.488  58.979  32.661  1.00  0.00     0.060 A 
ATOM      4  C   UNL     1      17.246  58.610  32.349  1.00  0.00     0.162 A 
ATOM      5  C   UNL     1      15.324  60.089  32.468  1.00  0.00     0.162 A 
ATOM      6  C   UNL     1      16.708  59.903  32.312  1.00  0.00     0.200 A 
ENDROOT
BRANCH   1   7
ATOM      7  C   UNL     1      14.139  56.508  32.902  1.00  0.00     0.072 C 
ATOM      8  O   UNL     1      12.894  56.608  32.740  1.00  0.00    -0.545 OA
ATOM      9  O   UNL     1      14.673  55.280  33.275  1.00  0.00    -0.545 OA
ENDBRANCH   1   7
BRANCH   4  10
ATOM     10  O   UNL     1      18.619  58.431  32.194  1.00  0.00    -0.504 OA
ATOM     11  H   UNL     1      19.248  58.428  32.989  1.00  0.00     0.293 HD
ENDBRANCH   4  10
BRANCH   5  12
ATOM     12  O   UNL     1      14.785  61.373  32.432  1.00  0.00    -0.504 OA
ATOM     13  H   UNL     1      13.815  61.549  32.668  1.00  0.00     0.293 HD
ENDBRANCH   5  12
BRANCH   6  14
ATOM     14  O   UNL     1      17.560  60.990  32.119  1.00  0.00    -0.502 OA
ATOM     15  H   UNL     1      18.355  61.166  32.722  1.00  0.00     0.293 HD
ENDBRANCH   6  14
TORSDOF 4
ENDMDL
MODEL 3
REMARK VINA RESULT:    -4.292      1.678      3.874
REMARK INTER + INTRA:          -4.972
REMARK INTER:                  -4.921
REMARK INTRA:                  -0.052
REMARK UNBOUND:                -0.052
REMARK SMILES O=C([O-])c1cc(O)c(O)c(O)c1
REMARK SMILES IDX 4 1 5 2 12 3 6 4 10 5 8 6 2 7 1 8 3 9 7 10 11 12 9 14
REMARK H PARENT 7 11 11 13 9 15
REMARK Flexibility Score: inf
ROOT
ATOM      1  C   UNL     1      15.145  59.481  32.413  1.00  0.00     0.005 A 
ATOM      2  C   UNL     1      16.540  59.466  32.568  1.00  0.00     0.060 A 
ATOM      3  C   UNL     1      14.520  58.408  31.752  1.00  0.00     0.060 A 
ATOM      4  C   UNL     1      17.302  58.399  32.072  1.00  0.00     0.162 A 
ATOM      5  C   UNL     1      15.278  57.338  31.254  1.00  0.00     0.162 A 
ATOM      6  C   UNL     1      16.673  57.334  31.415  1.00  0.00     0.200 A 
ENDROOT
BRANCH   1   7
ATOM      7  C   UNL     1      14.345  60.610  32.939  1.00  0.00     0.072 C 
ATOM      8  O   UNL     1      14.882  61.729  33.156  1.00  0.00    -0.545 OA
ATOM      9  O   UNL     1      12.990  60.452  33.201  1.00  0.00    -0.545 OA
ENDBRANCH   1   7
BRANCH   4  10
ATOM     10  O   UNL     1      18.687  58.390  32.230  1.00  0.00    -0.504 OA
ATOM     11  H   UNL     1      19.118  58.194  33.125  1.00  0.00     0.293 HD
ENDBRANCH   4  10
BRANCH   5  12
ATOM     12  O   UNL     1      14.648  56.280  30.600  1.00  0.00    -0.504 OA
ATOM     13  H   UNL     1      13.641  56.172  30.611  1.00  0.00     0.293 HD
ENDBRANCH   5  12
BRANCH   6  14
ATOM     14  O   UNL     1      17.449  56.281  30.928  1.00  0.00    -0.502 OA
ATOM     15  H   UNL     1      18.326  56.435  30.447  1.00  0.00     0.293 HD
ENDBRANCH   6  14
TORSDOF 4
ENDMDL
MODEL 4
REMARK VINA RESULT:    -4.224      1.348      3.036
REMARK INTER + INTRA:          -4.893
REMARK INTER:                  -4.841
REMARK INTRA:                  -0.052
REMARK UNBOUND:                -0.052
REMARK SMILES O=C([O-])c1cc(O)c(O)c(O)c1
REMARK SMILES IDX 4 1 5 2 12 3 6 4 10 5 8 6 2 7 1 8 3 9 7 10 11 12 9 14
REMARK H PARENT 7 11 11 13 9 15
REMARK Flexibility Score: inf
ROOT
ATOM      1  C   UNL     1      14.438  58.708  32.508  1.00  0.00     0.005 A 
ATOM      2  C   UNL     1      14.960  57.447  32.179  1.00  0.00     0.060 A 
ATOM      3  C   UNL     1      15.294  59.824  32.504  1.00  0.00     0.060 A 
ATOM      4  C   UNL     1      16.315  57.300  31.850  1.00  0.00     0.162 A 
ATOM      5  C   UNL     1      16.650  59.682  32.176  1.00  0.00     0.162 A 
ATOM      6  C   UNL     1      17.162  58.415  31.848  1.00  0.00     0.200 A 
ENDROOT
BRANCH   1   7
ATOM      7  C   UNL     1      13.007  58.858  32.854  1.00  0.00     0.072 C 
ATOM      8  O   UNL     1      12.306  57.849  33.133  1.00  0.00    -0.545 OA
ATOM      9  O   UNL     1      12.415  60.115  32.876  1.00  0.00    -0.545 OA
ENDBRANCH   1   7
BRANCH   4  10
ATOM     10  O   UNL     1      16.827  56.045  31.524  1.00  0.00    -0.504 OA
ATOM     11  H   UNL     1      17.739  55.743  31.848  1.00  0.00     0.293 HD
ENDBRANCH   4  10
BRANCH   5  12
ATOM     12  O   UNL     1      17.490  60.794  32.175  1.00  0.00    -0.504 OA
ATOM     13  H   UNL     1      17.641  61.347  33.011  1.00  0.00     0.293 HD
ENDBRANCH   5  12
BRANCH   6  14
ATOM     14  O   UNL     1      18.507  58.248  31.518  1.00  0.00    -0.502 OA
ATOM     15  H   UNL     1      19.121  57.641  32.048  1.00  0.00     0.293 HD
ENDBRANCH   6  14
TORSDOF 4
ENDMDL
MODEL 5
REMARK VINA RESULT:    -4.211      1.337      2.468
REMARK INTER + INTRA:          -4.879
REMARK INTER:                  -4.827
REMARK INTRA:                  -0.051
REMARK UNBOUND:                -0.052
REMARK SMILES O=C([O-])c1cc(O)c(O)c(O)c1
REMARK SMILES IDX 4 1 5 2 12 3 6 4 10 5 8 6 2 7 1 8 3 9 7 10 11 12 9 14
REMARK H PARENT 7 11 11 13 9 15
REMARK Flexibility Score: inf
ROOT
ATOM      1  C   UNL     1      14.433  58.806  32.493  1.00  0.00     0.005 A 
ATOM      2  C   UNL     1      15.336  59.882  32.490  1.00  0.00     0.060 A 
ATOM      3  C   UNL     1      14.898  57.523  32.156  1.00  0.00     0.060 A 
ATOM      4  C   UNL     1      16.683  59.680  32.155  1.00  0.00     0.162 A 
ATOM      5  C   UNL     1      16.244  57.316  31.821  1.00  0.00     0.162 A 
ATOM      6  C   UNL     1      17.139  58.399  31.820  1.00  0.00     0.200 A 
ENDROOT
BRANCH   1   7
ATOM      7  C   UNL     1      13.012  59.025  32.847  1.00  0.00     0.072 C 
ATOM      8  O   UNL     1      12.481  60.156  32.697  1.00  0.00    -0.545 OA
ATOM      9  O   UNL     1      12.244  57.982  33.351  1.00  0.00    -0.545 OA
ENDBRANCH   1   7
BRANCH   4  10
ATOM     10  O   UNL     1      17.575  60.751  32.153  1.00  0.00    -0.504 OA
ATOM     11  H   UNL     1      17.698  61.342  32.968  1.00  0.00     0.293 HD
ENDBRANCH   4  10
BRANCH   5  12
ATOM     12  O   UNL     1      16.694  56.040  31.488  1.00  0.00    -0.504 OA
ATOM     13  H   UNL     1      16.271  55.506  30.738  1.00  0.00     0.293 HD
ENDBRANCH   5  12
BRANCH   6  14
ATOM     14  O   UNL     1      18.483  58.219  31.491  1.00  0.00    -0.502 OA
ATOM     15  H   UNL     1      18.878  58.573  30.628  1.00  0.00     0.293 HD
ENDBRANCH   6  14
TORSDOF 4
ENDMDL
MODEL 6
REMARK VINA RESULT:    -4.193      1.705      3.552
REMARK INTER + INTRA:          -4.858
REMARK INTER:                  -4.806
REMARK INTRA:                  -0.052
REMARK UNBOUND:                -0.052
REMARK SMILES O=C([O-])c1cc(O)c(O)c(O)c1
REMARK SMILES IDX 4 1 5 2 12 3 6 4 10 5 8 6 2 7 1 8 3 9 7 10 11 12 9 14
REMARK H PARENT 7 11 11 13 9 15
REMARK Flexibility Score: inf
ROOT
ATOM      1  C   UNL     1      15.052  59.306  32.332  1.00  0.00     0.005 A 
ATOM      2  C   UNL     1      14.473  58.209  31.674  1.00  0.00     0.060 A 
ATOM      3  C   UNL     1      16.448  59.349  32.489  1.00  0.00     0.060 A 
ATOM      4  C   UNL     1      15.274  57.170  31.179  1.00  0.00     0.162 A 
ATOM      5  C   UNL     1      17.254  58.312  31.995  1.00  0.00     0.162 A 
ATOM      6  C   UNL     1      16.664  57.220  31.338  1.00  0.00     0.200 A 
ENDROOT
BRANCH   1   7
ATOM      7  C   UNL     1      14.201  60.399  32.853  1.00  0.00     0.072 C 
ATOM      8  O   UNL     1      12.954  60.249  32.954  1.00  0.00    -0.545 OA
ATOM      9  O   UNL     1      14.766  61.609  33.238  1.00  0.00    -0.545 OA
ENDBRANCH   1   7
BRANCH   4  10
ATOM     10  O   UNL     1      14.694  56.084  30.526  1.00  0.00    -0.504 OA
ATOM     11  H   UNL     1      13.725  55.829  30.678  1.00  0.00     0.293 HD
ENDBRANCH   4  10
BRANCH   5  12
ATOM     12  O   UNL     1      18.637  58.365  32.157  1.00  0.00    -0.504 OA
ATOM     13  H   UNL     1      19.193  57.524  32.260  1.00  0.00     0.293 HD
ENDBRANCH   5  12
BRANCH   6  14
ATOM     14  O   UNL     1      17.445  56.177  30.838  1.00  0.00    -0.502 OA
ATOM     15  H   UNL     1      18.198  55.762  31.374  1.00  0.00     0.293 HD
ENDBRANCH   6  14
TORSDOF 4
ENDMDL
MODEL 7
REMARK VINA RESULT:    -4.061      1.936      3.159
REMARK INTER + INTRA:          -4.707
REMARK INTER:                  -4.661
REMARK INTRA:                  -0.046
REMARK UNBOUND:                -0.052
REMARK SMILES O=C([O-])c1cc(O)c(O)c(O)c1
REMARK SMILES IDX 4 1 5 2 12 3 6 4 10 5 8 6 2 7 1 8 3 9 7 10 11 12 9 14
REMARK H PARENT 7 11 11 13 9 15
REMARK Flexibility Score: inf
ROOT
ATOM      1  C   UNL     1      14.947  55.834  32.927  1.00  0.00     0.005 A 
ATOM      2  C   UNL     1      15.574  55.368  31.760  1.00  0.00     0.060 A 
ATOM      3  C   UNL     1      15.310  57.091  33.442  1.00  0.00     0.060 A 
ATOM      4  C   UNL     1      16.547  56.145  31.115  1.00  0.00     0.162 A 
ATOM      5  C   UNL     1      16.283  57.871  32.801  1.00  0.00     0.162 A 
ATOM      6  C   UNL     1      16.904  57.396  31.633  1.00  0.00     0.200 A 
ENDROOT
BRANCH   1   7
ATOM      7  C   UNL     1      13.920  55.010  33.604  1.00  0.00     0.072 C 
ATOM      8  O   UNL     1      12.804  54.803  33.059  1.00  0.00    -0.545 OA
ATOM      9  O   UNL     1      14.174  54.453  34.852  1.00  0.00    -0.545 OA
ENDBRANCH   1   7
BRANCH   4  10
ATOM     10  O   UNL     1      17.166  55.677  29.957  1.00  0.00    -0.504 OA
ATOM     11  H   UNL     1      16.649  55.175  29.244  1.00  0.00     0.293 HD
ENDBRANCH   4  10
BRANCH   5  12
ATOM     12  O   UNL     1      16.635  59.116  33.320  1.00  0.00    -0.504 OA
ATOM     13  H   UNL     1      16.109  59.953  33.097  1.00  0.00     0.293 HD
ENDBRANCH   5  12
BRANCH   6  14
ATOM     14  O   UNL     1      17.874  58.154  30.977  1.00  0.00    -0.502 OA
ATOM     15  H   UNL     1      18.653  58.574  31.470  1.00  0.00     0.293 HD
ENDBRANCH   6  14
TORSDOF 4
ENDMDL
MODEL 8
REMARK VINA RESULT:    -4.050      1.607      2.346
REMARK INTER + INTRA:          -4.694
REMARK INTER:                  -4.644
REMARK INTRA:                  -0.051
REMARK UNBOUND:                -0.052
REMARK SMILES O=C([O-])c1cc(O)c(O)c(O)c1
REMARK SMILES IDX 4 1 5 2 12 3 6 4 10 5 8 6 2 7 1 8 3 9 7 10 11 12 9 14
REMARK H PARENT 7 11 11 13 9 15
REMARK Flexibility Score: inf
ROOT
ATOM      1  C   UNL     1      14.725  56.449  32.616  1.00  0.00     0.005 A 
ATOM      2  C   UNL     1      15.139  57.675  33.160  1.00  0.00     0.060 A 
ATOM      3  C   UNL     1      15.502  55.851  31.608  1.00  0.00     0.060 A 
ATOM      4  C   UNL     1      16.312  58.296  32.707  1.00  0.00     0.162 A 
ATOM      5  C   UNL     1      16.676  56.468  31.151  1.00  0.00     0.162 A 
ATOM      6  C   UNL     1      17.081  57.695  31.703  1.00  0.00     0.200 A 
ENDROOT
BRANCH   1   7
ATOM      7  C   UNL     1      13.486  55.797  33.099  1.00  0.00     0.072 C 
ATOM      8  O   UNL     1      13.370  54.544  33.074  1.00  0.00    -0.545 OA
ATOM      9  O   UNL     1      12.433  56.562  33.587  1.00  0.00    -0.545 OA
ENDBRANCH   1   7
BRANCH   4  10
ATOM     10  O   UNL     1      16.719  59.513  33.251  1.00  0.00    -0.504 OA
ATOM     11  H   UNL     1      17.699  59.754  33.339  1.00  0.00     0.293 HD
ENDBRANCH   4  10
BRANCH   5  12
ATOM     12  O   UNL     1      17.438  55.867  30.152  1.00  0.00    -0.504 OA
ATOM     13  H   UNL     1      18.181  55.213  30.370  1.00  0.00     0.293 HD
ENDBRANCH   5  12
BRANCH   6  14
ATOM     14  O   UNL     1      18.245  58.329  31.265  1.00  0.00    -0.502 OA
ATOM     15  H   UNL     1      18.228  59.069  30.574  1.00  0.00     0.293 HD
ENDBRANCH   6  14
TORSDOF 4
ENDMDL
MODEL 9
REMARK VINA RESULT:    -3.975     10.138     11.300
REMARK INTER + INTRA:          -4.608
REMARK INTER:                  -4.558
REMARK INTRA:                  -0.050
REMARK UNBOUND:                -0.052
REMARK SMILES O=C([O-])c1cc(O)c(O)c(O)c1
REMARK SMILES IDX 4 1 5 2 12 3 6 4 10 5 8 6 2 7 1 8 3 9 7 10 11 12 9 14
REMARK H PARENT 7 11 11 13 9 15
REMARK Flexibility Score: inf
ROOT
ATOM      1  C   UNL     1      23.446  56.558  40.743  1.00  0.00     0.005 A 
ATOM      2  C   UNL     1      24.227  57.705  40.953  1.00  0.00     0.060 A 
ATOM      3  C   UNL     1      23.115  56.188  39.428  1.00  0.00     0.060 A 
ATOM      4  C   UNL     1      24.674  58.472  39.867  1.00  0.00     0.162 A 
ATOM      5  C   UNL     1      23.560  56.951  38.338  1.00  0.00     0.162 A 
ATOM      6  C   UNL     1      24.341  58.098  38.560  1.00  0.00     0.200 A 
ENDROOT
BRANCH   1   7
ATOM      7  C   UNL     1      22.977  55.752  41.893  1.00  0.00     0.072 C 
ATOM      8  O   UNL     1      21.890  55.119  41.832  1.00  0.00    -0.545 OA
ATOM      9  O   UNL     1      23.732  55.682  43.058  1.00  0.00    -0.545 OA
ENDBRANCH   1   7
BRANCH   4  10
ATOM     10  O   UNL     1      25.449  59.610  40.082  1.00  0.00    -0.504 OA
ATOM     11  H   UNL     1      26.221  59.850  39.470  1.00  0.00     0.293 HD
ENDBRANCH   4  10
BRANCH   5  12
ATOM     12  O   UNL     1      23.226  56.576  37.038  1.00  0.00    -0.504 OA
ATOM     13  H   UNL     1      23.637  57.030  36.231  1.00  0.00     0.293 HD
ENDBRANCH   5  12
BRANCH   6  14
ATOM     14  O   UNL     1      24.795  58.874  37.492  1.00  0.00    -0.502 OA
ATOM     15  H   UNL     1      24.579  58.645  36.530  1.00  0.00     0.293 HD
ENDBRANCH   6  14
TORSDOF 4
ENDMDL
