MODEL 1
REMARK VINA RESULT:     0.000      0.000      0.000
REMARK INTER + INTRA:          -0.435
REMARK INTER:                   0.000
REMARK INTRA:                  -0.435
REMARK UNBOUND:                -0.435
REMARK SMILES CCCCCCCO
REMARK SMILES IDX 5 1 4 2 3 3 2 4 1 5 6 6 7 7 8 8
REMARK H PARENT 8 9
REMARK Flexibility Score: inf
ROOT
ATOM      1  C   UNL     1      -1.820  17.273 -46.480  1.00  0.00     0.002 C 
ENDROOT
BRANCH   1   2
ATOM      2  C   UNL     1      -2.379  15.842 -46.491  1.00  0.00     0.000 C 
BRANCH   2   3
ATOM      3  C   UNL     1      -3.914  15.806 -46.482  1.00  0.00    -0.000 C 
BRANCH   3   4
ATOM      4  C   UNL     1      -4.436  14.942 -45.328  1.00  0.00    -0.003 C 
ATOM      5  C   UNL     1      -3.301  14.181 -44.650  1.00  0.00     0.004 C 
ENDBRANCH   3   4
ENDBRANCH   2   3
ENDBRANCH   1   2
BRANCH   1   6
ATOM      6  C   UNL     1      -2.411  18.132 -45.350  1.00  0.00     0.028 C 
BRANCH   6   7
ATOM      7  C   UNL     1      -1.879  17.706 -43.980  1.00  0.00     0.156 C 
BRANCH   7   8
ATOM      8  O   UNL     1      -2.944  17.388 -43.127  1.00  0.00    -0.396 OA
ATOM      9  H   UNL     1      -3.178  16.442 -43.319  1.00  0.00     0.210 HD
ENDBRANCH   7   8
ENDBRANCH   6   7
ENDBRANCH   1   6
TORSDOF 6
ENDMDL
MODEL 2
REMARK VINA RESULT:     0.000      3.009      3.916
REMARK INTER + INTRA:          -0.435
REMARK INTER:                   0.000
REMARK INTRA:                  -0.435
REMARK UNBOUND:                -0.435
REMARK SMILES CCCCCCCO
REMARK SMILES IDX 5 1 4 2 3 3 2 4 1 5 6 6 7 7 8 8
REMARK H PARENT 8 9
REMARK Flexibility Score: inf
ROOT
ATOM      1  C   UNL     1      -2.490  20.501 -47.385  1.00  0.00     0.002 C 
ENDROOT
BRANCH   1   2
ATOM      2  C   UNL     1      -2.027  19.057 -47.139  1.00  0.00     0.000 C 
BRANCH   2   3
ATOM      3  C   UNL     1      -2.277  18.592 -45.697  1.00  0.00    -0.000 C 
BRANCH   3   4
ATOM      4  C   UNL     1      -3.082  17.287 -45.673  1.00  0.00    -0.003 C 
ATOM      5  C   UNL     1      -3.216  16.695 -47.074  1.00  0.00     0.004 C 
ENDBRANCH   3   4
ENDBRANCH   2   3
ENDBRANCH   1   2
BRANCH   1   6
ATOM      6  C   UNL     1      -3.945  20.739 -46.948  1.00  0.00     0.028 C 
BRANCH   6   7
ATOM      7  C   UNL     1      -4.936  20.052 -47.889  1.00  0.00     0.156 C 
BRANCH   7   8
ATOM      8  O   UNL     1      -5.769  19.187 -47.166  1.00  0.00    -0.396 OA
ATOM      9  H   UNL     1      -6.561  19.023 -47.741  1.00  0.00     0.210 HD
ENDBRANCH   7   8
ENDBRANCH   6   7
ENDBRANCH   1   6
TORSDOF 6
ENDMDL
MODEL 3
REMARK VINA RESULT:     0.000      5.383      6.172
REMARK INTER + INTRA:          -0.435
REMARK INTER:                   0.000
REMARK INTRA:                  -0.435
REMARK UNBOUND:                -0.435
REMARK SMILES CCCCCCCO
REMARK SMILES IDX 5 1 4 2 3 3 2 4 1 5 6 6 7 7 8 8
REMARK H PARENT 8 9
REMARK Flexibility Score: inf
ROOT
ATOM      1  C   UNL     1       1.996  16.298 -43.764  1.00  0.00     0.002 C 
ENDROOT
BRANCH   1   2
ATOM      2  C   UNL     1       2.409  15.034 -42.995  1.00  0.00     0.000 C 
BRANCH   2   3
ATOM      3  C   UNL     1       3.679  14.383 -43.562  1.00  0.00    -0.000 C 
BRANCH   3   4
ATOM      4  C   UNL     1       3.439  12.905 -43.890  1.00  0.00    -0.003 C 
ATOM      5  C   UNL     1       2.089  12.433 -43.357  1.00  0.00     0.004 C 
ENDBRANCH   3   4
ENDBRANCH   2   3
ENDBRANCH   1   2
BRANCH   1   6
ATOM      6  C   UNL     1       1.893  16.061 -45.280  1.00  0.00     0.028 C 
BRANCH   6   7
ATOM      7  C   UNL     1       0.675  15.208 -45.637  1.00  0.00     0.156 C 
BRANCH   7   8
ATOM      8  O   UNL     1       1.074  14.075 -46.358  1.00  0.00    -0.396 OA
ATOM      9  H   UNL     1       1.532  14.413 -47.171  1.00  0.00     0.210 HD
ENDBRANCH   7   8
ENDBRANCH   6   7
ENDBRANCH   1   6
TORSDOF 6
ENDMDL
MODEL 4
REMARK VINA RESULT:     0.000      5.243      6.676
REMARK INTER + INTRA:          -0.435
REMARK INTER:                   0.000
REMARK INTRA:                  -0.435
REMARK UNBOUND:                -0.435
REMARK SMILES CCCCCCCO
REMARK SMILES IDX 5 1 4 2 3 3 2 4 1 5 6 6 7 7 8 8
REMARK H PARENT 8 9
REMARK Flexibility Score: inf
ROOT
ATOM      1  C   UNL     1       1.037  17.253 -46.853  1.00  0.00     0.002 C 
ENDROOT
BRANCH   1   2
ATOM      2  C   UNL     1       1.022  18.468 -45.912  1.00  0.00     0.000 C 
BRANCH   2   3
ATOM      3  C   UNL     1       0.614  19.765 -46.626  1.00  0.00    -0.000 C 
BRANCH   3   4
ATOM      4  C   UNL     1       1.663  20.862 -46.413  1.00  0.00    -0.003 C 
ATOM      5  C   UNL     1       2.700  20.441 -45.375  1.00  0.00     0.004 C 
ENDBRANCH   3   4
ENDBRANCH   2   3
ENDBRANCH   1   2
BRANCH   1   6
ATOM      6  C   UNL     1       1.868  17.499 -48.123  1.00  0.00     0.028 C 
BRANCH   6   7
ATOM      7  C   UNL     1       3.367  17.529 -47.820  1.00  0.00     0.156 C 
BRANCH   7   8
ATOM      8  O   UNL     1       3.925  18.736 -48.262  1.00  0.00    -0.396 OA
ATOM      9  H   UNL     1       4.263  18.563 -49.179  1.00  0.00     0.210 HD
ENDBRANCH   7   8
ENDBRANCH   6   7
ENDBRANCH   1   6
TORSDOF 6
ENDMDL
MODEL 5
REMARK VINA RESULT:     0.000      5.016      6.268
REMARK INTER + INTRA:          -0.435
REMARK INTER:                   0.000
REMARK INTRA:                  -0.435
REMARK UNBOUND:                -0.435
REMARK SMILES CCCCCCCO
REMARK SMILES IDX 5 1 4 2 3 3 2 4 1 5 6 6 7 7 8 8
REMARK H PARENT 8 9
REMARK Flexibility Score: inf
ROOT
ATOM      1  C   UNL     1       0.236  11.623 -44.753  1.00  0.00     0.002 C 
ENDROOT
BRANCH   1   2
ATOM      2  C   UNL     1       0.001  10.903 -43.417  1.00  0.00     0.000 C 
BRANCH   2   3
ATOM      3  C   UNL     1       1.288  10.745 -42.594  1.00  0.00    -0.000 C 
BRANCH   3   4
ATOM      4  C   UNL     1       1.112  11.317 -41.183  1.00  0.00    -0.003 C 
ATOM      5  C   UNL     1      -0.347  11.674 -40.910  1.00  0.00     0.004 C 
ENDBRANCH   3   4
ENDBRANCH   2   3
ENDBRANCH   1   2
BRANCH   1   6
ATOM      6  C   UNL     1       0.977  12.959 -44.584  1.00  0.00     0.028 C 
BRANCH   6   7
ATOM      7  C   UNL     1       0.085  14.023 -43.942  1.00  0.00     0.156 C 
BRANCH   7   8
ATOM      8  O   UNL     1       0.691  14.528 -42.785  1.00  0.00    -0.396 OA
ATOM      9  H   UNL     1       1.321  13.826 -42.475  1.00  0.00     0.210 HD
ENDBRANCH   7   8
ENDBRANCH   6   7
ENDBRANCH   1   6
TORSDOF 6
ENDMDL
MODEL 6
REMARK VINA RESULT:     0.000      6.946      8.093
REMARK INTER + INTRA:          -0.435
REMARK INTER:                   0.000
REMARK INTRA:                  -0.435
REMARK UNBOUND:                -0.435
REMARK SMILES CCCCCCCO
REMARK SMILES IDX 5 1 4 2 3 3 2 4 1 5 6 6 7 7 8 8
REMARK H PARENT 8 9
REMARK Flexibility Score: inf
ROOT
ATOM      1  C   UNL     1       1.309  13.450 -47.681  1.00  0.00     0.002 C 
ENDROOT
BRANCH   1   2
ATOM      2  C   UNL     1       2.418  14.370 -47.150  1.00  0.00     0.000 C 
BRANCH   2   3
ATOM      3  C   UNL     1       3.302  14.940 -48.270  1.00  0.00    -0.000 C 
BRANCH   3   4
ATOM      4  C   UNL     1       4.783  14.648 -48.002  1.00  0.00    -0.003 C 
ATOM      5  C   UNL     1       4.990  14.079 -46.601  1.00  0.00     0.004 C 
ENDBRANCH   3   4
ENDBRANCH   2   3
ENDBRANCH   1   2
BRANCH   1   6
ATOM      6  C   UNL     1       1.847  12.347 -48.607  1.00  0.00     0.028 C 
BRANCH   6   7
ATOM      7  C   UNL     1       2.625  11.285 -47.828  1.00  0.00     0.156 C 
BRANCH   7   8
ATOM      8  O   UNL     1       3.919  11.156 -48.348  1.00  0.00    -0.396 OA
ATOM      9  H   UNL     1       4.334  10.393 -47.868  1.00  0.00     0.210 HD
ENDBRANCH   7   8
ENDBRANCH   6   7
ENDBRANCH   1   6
TORSDOF 6
ENDMDL
MODEL 7
REMARK VINA RESULT:     0.000      5.016      6.242
REMARK INTER + INTRA:          -0.435
REMARK INTER:                   0.000
REMARK INTRA:                  -0.435
REMARK UNBOUND:                -0.435
REMARK SMILES CCCCCCCO
REMARK SMILES IDX 5 1 4 2 3 3 2 4 1 5 6 6 7 7 8 8
REMARK H PARENT 8 9
REMARK Flexibility Score: inf
ROOT
ATOM      1  C   UNL     1      -1.311  12.906 -47.266  1.00  0.00     0.002 C 
ENDROOT
BRANCH   1   2
ATOM      2  C   UNL     1      -0.962  13.343 -48.697  1.00  0.00     0.000 C 
BRANCH   2   3
ATOM      3  C   UNL     1      -0.597  12.160 -49.606  1.00  0.00    -0.000 C 
BRANCH   3   4
ATOM      4  C   UNL     1      -1.455  12.158 -50.876  1.00  0.00    -0.003 C 
ATOM      5  C   UNL     1      -2.267  13.445 -50.996  1.00  0.00     0.004 C 
ENDBRANCH   3   4
ENDBRANCH   2   3
ENDBRANCH   1   2
BRANCH   1   6
ATOM      6  C   UNL     1      -2.380  11.802 -47.229  1.00  0.00     0.028 C 
BRANCH   6   7
ATOM      7  C   UNL     1      -3.760  12.339 -47.613  1.00  0.00     0.156 C 
BRANCH   7   8
ATOM      8  O   UNL     1      -4.280  11.609 -48.690  1.00  0.00    -0.396 OA
ATOM      9  H   UNL     1      -3.908  12.027 -49.510  1.00  0.00     0.210 HD
ENDBRANCH   7   8
ENDBRANCH   6   7
ENDBRANCH   1   6
TORSDOF 6
ENDMDL
MODEL 8
REMARK VINA RESULT:     0.000      9.448     10.476
REMARK INTER + INTRA:          -0.435
REMARK INTER:                   0.000
REMARK INTRA:                  -0.435
REMARK UNBOUND:                -0.435
REMARK SMILES CCCCCCCO
REMARK SMILES IDX 5 1 4 2 3 3 2 4 1 5 6 6 7 7 8 8
REMARK H PARENT 8 9
REMARK Flexibility Score: inf
ROOT
ATOM      1  C   UNL     1       4.351  21.519 -44.266  1.00  0.00     0.002 C 
ENDROOT
BRANCH   1   2
ATOM      2  C   UNL     1       4.881  20.155 -43.798  1.00  0.00     0.000 C 
BRANCH   2   3
ATOM      3  C   UNL     1       5.414  20.188 -42.358  1.00  0.00    -0.000 C 
BRANCH   3   4
ATOM      4  C   UNL     1       6.851  19.657 -42.292  1.00  0.00    -0.003 C 
ATOM      5  C   UNL     1       7.272  19.035 -43.620  1.00  0.00     0.004 C 
ENDBRANCH   3   4
ENDBRANCH   2   3
ENDBRANCH   1   2
BRANCH   1   6
ATOM      6  C   UNL     1       5.366  22.653 -44.053  1.00  0.00     0.028 C 
BRANCH   6   7
ATOM      7  C   UNL     1       6.538  22.554 -45.031  1.00  0.00     0.156 C 
BRANCH   7   8
ATOM      8  O   UNL     1       7.750  22.500 -44.329  1.00  0.00    -0.396 OA
ATOM      9  H   UNL     1       8.022  23.443 -44.177  1.00  0.00     0.210 HD
ENDBRANCH   7   8
ENDBRANCH   6   7
ENDBRANCH   1   6
TORSDOF 6
ENDMDL
MODEL 9
REMARK VINA RESULT:     0.000      8.576      9.776
REMARK INTER + INTRA:          -0.435
REMARK INTER:                   0.000
REMARK INTRA:                  -0.435
REMARK UNBOUND:                -0.435
REMARK SMILES CCCCCCCO
REMARK SMILES IDX 5 1 4 2 3 3 2 4 1 5 6 6 7 7 8 8
REMARK H PARENT 8 9
REMARK Flexibility Score: inf
ROOT
ATOM      1  C   UNL     1       6.365  16.310 -41.680  1.00  0.00     0.002 C 
ENDROOT
BRANCH   1   2
ATOM      2  C   UNL     1       6.336  14.914 -41.040  1.00  0.00     0.000 C 
BRANCH   2   3
ATOM      3  C   UNL     1       6.646  14.944 -39.536  1.00  0.00    -0.000 C 
BRANCH   3   4
ATOM      4  C   UNL     1       5.540  14.248 -38.733  1.00  0.00    -0.003 C 
ATOM      5  C   UNL     1       4.559  13.527 -39.654  1.00  0.00     0.004 C 
ENDBRANCH   3   4
ENDBRANCH   2   3
ENDBRANCH   1   2
BRANCH   1   6
ATOM      6  C   UNL     1       5.486  17.324 -40.929  1.00  0.00     0.028 C 
BRANCH   6   7
ATOM      7  C   UNL     1       3.997  17.046 -41.141  1.00  0.00     0.156 C 
BRANCH   7   8
ATOM      8  O   UNL     1       3.357  16.878 -39.905  1.00  0.00    -0.396 OA
ATOM      9  H   UNL     1       3.005  15.950 -39.902  1.00  0.00     0.210 HD
ENDBRANCH   7   8
ENDBRANCH   6   7
ENDBRANCH   1   6
TORSDOF 6
ENDMDL
