MODEL 1
REMARK VINA RESULT:     0.722      0.000      0.000
REMARK INTER + INTRA:           0.717
REMARK INTER:                   0.848
REMARK INTRA:                  -0.131
REMARK UNBOUND:                -0.131
REMARK SMILES O=C([O-])C=Cc1ccc(O)c(O)c1
REMARK SMILES IDX 6 1 13 2 7 3 11 4 8 5 9 6 5 7 4 8 2 9 1 10 3 11 12 12 10 14
REMARK H PARENT 12 13 10 15
REMARK Flexibility Score: inf
ROOT
ATOM      1  C   UNL     1      28.164  28.870   1.957  1.00  0.00    -0.022 A 
ATOM      2  C   UNL     1      27.028  29.606   1.583  1.00  0.00     0.058 A 
ATOM      3  C   UNL     1      29.421  29.507   1.944  1.00  0.00     0.012 A 
ATOM      4  C   UNL     1      27.132  30.957   1.230  1.00  0.00     0.157 A 
ATOM      5  C   UNL     1      29.527  30.855   1.592  1.00  0.00     0.051 A 
ATOM      6  C   UNL     1      28.386  31.586   1.236  1.00  0.00     0.157 A 
ENDROOT
BRANCH   1   7
ATOM      7  C   UNL     1      27.998  27.439   2.312  1.00  0.00     0.010 C 
ATOM      8  C   UNL     1      27.345  26.553   1.548  1.00  0.00     0.025 C 
BRANCH   8   9
ATOM      9  C   UNL     1      27.215  25.138   1.934  1.00  0.00     0.064 C 
ATOM     10  O   UNL     1      27.784  24.724   2.977  1.00  0.00    -0.545 OA
ATOM     11  O   UNL     1      26.474  24.249   1.163  1.00  0.00    -0.545 OA
ENDBRANCH   8   9
ENDBRANCH   1   7
BRANCH   4  12
ATOM     12  O   UNL     1      25.978  31.655   0.875  1.00  0.00    -0.504 OA
ATOM     13  H   UNL     1      25.058  31.370   1.189  1.00  0.00     0.293 HD
ENDBRANCH   4  12
BRANCH   6  14
ATOM     14  O   UNL     1      28.497  32.931   0.886  1.00  0.00    -0.504 OA
ATOM     15  H   UNL     1      29.101  33.235   0.132  1.00  0.00     0.293 HD
ENDBRANCH   6  14
TORSDOF 4
ENDMDL
MODEL 2
REMARK VINA RESULT:     1.657      1.754      2.536
REMARK INTER + INTRA:           1.817
REMARK INTER:                   1.948
REMARK INTRA:                  -0.132
REMARK UNBOUND:                -0.131
REMARK SMILES O=C([O-])C=Cc1ccc(O)c(O)c1
REMARK SMILES IDX 6 1 13 2 7 3 11 4 8 5 9 6 5 7 4 8 2 9 1 10 3 11 12 12 10 14
REMARK H PARENT 12 13 10 15
REMARK Flexibility Score: inf
ROOT
ATOM      1  C   UNL     1      27.491  28.449   2.088  1.00  0.00    -0.022 A 
ATOM      2  C   UNL     1      28.869  28.616   2.298  1.00  0.00     0.058 A 
ATOM      3  C   UNL     1      26.625  29.526   2.367  1.00  0.00     0.012 A 
ATOM      4  C   UNL     1      29.384  29.836   2.751  1.00  0.00     0.157 A 
ATOM      5  C   UNL     1      27.137  30.744   2.820  1.00  0.00     0.051 A 
ATOM      6  C   UNL     1      28.515  30.907   3.012  1.00  0.00     0.157 A 
ENDROOT
BRANCH   1   7
ATOM      7  C   UNL     1      26.998  27.131   1.616  1.00  0.00     0.010 C 
ATOM      8  C   UNL     1      27.401  25.959   2.125  1.00  0.00     0.025 C 
BRANCH   8   9
ATOM      9  C   UNL     1      26.876  24.675   1.634  1.00  0.00     0.064 C 
ATOM     10  O   UNL     1      25.873  24.664   0.875  1.00  0.00    -0.545 OA
ATOM     11  O   UNL     1      27.470  23.471   1.998  1.00  0.00    -0.545 OA
ENDBRANCH   8   9
ENDBRANCH   1   7
BRANCH   4  12
ATOM     12  O   UNL     1      30.760  29.964   2.937  1.00  0.00    -0.504 OA
ATOM     13  H   UNL     1      31.360  30.397   2.245  1.00  0.00     0.293 HD
ENDBRANCH   4  12
BRANCH   6  14
ATOM     14  O   UNL     1      29.021  32.125   3.463  1.00  0.00    -0.504 OA
ATOM     15  H   UNL     1      28.619  33.009   3.169  1.00  0.00     0.293 HD
ENDBRANCH   6  14
TORSDOF 4
ENDMDL
