MODEL 1
REMARK VINA RESULT:    -3.532      0.000      0.000
REMARK INTER + INTRA:          -4.790
REMARK INTER:                  -4.565
REMARK INTRA:                  -0.226
REMARK UNBOUND:                -0.226
REMARK SMILES CCCCCCC(=O)[O-]
REMARK SMILES IDX 5 1 6 2 7 3 8 4 9 5 4 6 3 7 2 8 1 9
REMARK H PARENT
REMARK Flexibility Score: inf
ROOT
ATOM      1  C   UNL     1      30.848   6.253  46.967  1.00  0.00     0.006 C 
ENDROOT
BRANCH   1   2
ATOM      2  C   UNL     1      31.291   5.387  45.781  1.00  0.00     0.053 C 
BRANCH   2   3
ATOM      3  C   UNL     1      32.146   6.182  44.845  1.00  0.00     0.041 C 
ATOM      4  O   UNL     1      32.503   5.692  43.741  1.00  0.00    -0.550 OA
ATOM      5  O   UNL     1      32.591   7.446  45.212  1.00  0.00    -0.550 OA
ENDBRANCH   2   3
ENDBRANCH   1   2
BRANCH   1   6
ATOM      6  C   UNL     1      31.399   5.749  48.310  1.00  0.00     0.000 C 
BRANCH   6   7
ATOM      7  C   UNL     1      30.317   5.093  49.184  1.00  0.00    -0.000 C 
BRANCH   7   8
ATOM      8  C   UNL     1      30.831   3.846  49.920  1.00  0.00    -0.003 C 
ATOM      9  C   UNL     1      32.241   3.443  49.491  1.00  0.00     0.004 C 
ENDBRANCH   7   8
ENDBRANCH   6   7
ENDBRANCH   1   6
TORSDOF 5
ENDMDL
MODEL 2
REMARK VINA RESULT:    -3.439     14.212     15.513
REMARK INTER + INTRA:          -4.670
REMARK INTER:                  -4.233
REMARK INTRA:                  -0.437
REMARK UNBOUND:                -0.226
REMARK SMILES CCCCCCC(=O)[O-]
REMARK SMILES IDX 5 1 6 2 7 3 8 4 9 5 4 6 3 7 2 8 1 9
REMARK H PARENT
REMARK Flexibility Score: inf
ROOT
ATOM      1  C   UNL     1      22.941  -3.584  57.737  1.00  0.00     0.006 C 
ENDROOT
BRANCH   1   2
ATOM      2  C   UNL     1      24.054  -2.905  56.928  1.00  0.00     0.053 C 
BRANCH   2   3
ATOM      3  C   UNL     1      23.735  -2.944  55.466  1.00  0.00     0.041 C 
ATOM      4  O   UNL     1      23.666  -4.047  54.862  1.00  0.00    -0.550 OA
ATOM      5  O   UNL     1      23.564  -1.760  54.759  1.00  0.00    -0.550 OA
ENDBRANCH   2   3
ENDBRANCH   1   2
BRANCH   1   6
ATOM      6  C   UNL     1      21.559  -2.962  57.484  1.00  0.00     0.000 C 
BRANCH   6   7
ATOM      7  C   UNL     1      21.430  -1.549  58.077  1.00  0.00    -0.000 C 
BRANCH   7   8
ATOM      8  C   UNL     1      21.132  -0.487  57.007  1.00  0.00    -0.003 C 
ATOM      9  C   UNL     1      20.325  -1.039  55.833  1.00  0.00     0.004 C 
ENDBRANCH   7   8
ENDBRANCH   6   7
ENDBRANCH   1   6
TORSDOF 5
ENDMDL
MODEL 3
REMARK VINA RESULT:    -3.402      3.212      4.858
REMARK INTER + INTRA:          -4.622
REMARK INTER:                  -4.396
REMARK INTRA:                  -0.225
REMARK UNBOUND:                -0.226
REMARK SMILES CCCCCCC(=O)[O-]
REMARK SMILES IDX 5 1 6 2 7 3 8 4 9 5 4 6 3 7 2 8 1 9
REMARK H PARENT
REMARK Flexibility Score: inf
ROOT
ATOM      1  C   UNL     1      30.687   5.891  47.466  1.00  0.00     0.006 C 
ENDROOT
BRANCH   1   2
ATOM      2  C   UNL     1      31.448   5.430  48.716  1.00  0.00     0.053 C 
BRANCH   2   3
ATOM      3  C   UNL     1      30.650   4.410  49.466  1.00  0.00     0.041 C 
ATOM      4  O   UNL     1      31.232   3.478  50.081  1.00  0.00    -0.550 OA
ATOM      5  O   UNL     1      29.262   4.459  49.445  1.00  0.00    -0.550 OA
ENDBRANCH   2   3
ENDBRANCH   1   2
BRANCH   1   6
ATOM      6  C   UNL     1      31.293   5.340  46.165  1.00  0.00     0.000 C 
BRANCH   6   7
ATOM      7  C   UNL     1      31.926   6.440  45.296  1.00  0.00    -0.000 C 
BRANCH   7   8
ATOM      8  C   UNL     1      32.005   7.791  46.024  1.00  0.00    -0.003 C 
ATOM      9  C   UNL     1      33.440   8.281  46.211  1.00  0.00     0.004 C 
ENDBRANCH   7   8
ENDBRANCH   6   7
ENDBRANCH   1   6
TORSDOF 5
ENDMDL
MODEL 4
REMARK VINA RESULT:    -3.398      3.762      4.769
REMARK INTER + INTRA:          -4.617
REMARK INTER:                  -4.460
REMARK INTRA:                  -0.157
REMARK UNBOUND:                -0.226
REMARK SMILES CCCCCCC(=O)[O-]
REMARK SMILES IDX 5 1 6 2 7 3 8 4 9 5 4 6 3 7 2 8 1 9
REMARK H PARENT
REMARK Flexibility Score: inf
ROOT
ATOM      1  C   UNL     1      28.995   5.742  48.295  1.00  0.00     0.006 C 
ENDROOT
BRANCH   1   2
ATOM      2  C   UNL     1      29.664   4.886  49.379  1.00  0.00     0.053 C 
BRANCH   2   3
ATOM      3  C   UNL     1      31.152   4.916  49.224  1.00  0.00     0.041 C 
ATOM      4  O   UNL     1      31.698   5.813  48.529  1.00  0.00    -0.550 OA
ATOM      5  O   UNL     1      31.932   3.924  49.804  1.00  0.00    -0.550 OA
ENDBRANCH   2   3
ENDBRANCH   1   2
BRANCH   1   6
ATOM      6  C   UNL     1      27.461   5.665  48.341  1.00  0.00     0.000 C 
BRANCH   6   7
ATOM      7  C   UNL     1      26.939   4.220  48.253  1.00  0.00    -0.000 C 
BRANCH   7   8
ATOM      8  C   UNL     1      25.532   4.066  48.852  1.00  0.00    -0.003 C 
ATOM      9  C   UNL     1      25.466   2.999  49.944  1.00  0.00     0.004 C 
ENDBRANCH   7   8
ENDBRANCH   6   7
ENDBRANCH   1   6
TORSDOF 5
ENDMDL
MODEL 5
REMARK VINA RESULT:    -3.371      9.989     11.219
REMARK INTER + INTRA:          -4.582
REMARK INTER:                  -4.288
REMARK INTRA:                  -0.295
REMARK UNBOUND:                -0.226
REMARK SMILES CCCCCCC(=O)[O-]
REMARK SMILES IDX 5 1 6 2 7 3 8 4 9 5 4 6 3 7 2 8 1 9
REMARK H PARENT
REMARK Flexibility Score: inf
ROOT
ATOM      1  C   UNL     1      22.744   2.746  40.875  1.00  0.00     0.006 C 
ENDROOT
BRANCH   1   2
ATOM      2  C   UNL     1      23.517   4.043  41.149  1.00  0.00     0.053 C 
BRANCH   2   3
ATOM      3  C   UNL     1      24.991   3.806  41.036  1.00  0.00     0.041 C 
ATOM      4  O   UNL     1      25.725   3.882  42.056  1.00  0.00    -0.550 OA
ATOM      5  O   UNL     1      25.561   3.552  39.795  1.00  0.00    -0.550 OA
ENDBRANCH   2   3
ENDBRANCH   1   2
BRANCH   1   6
ATOM      6  C   UNL     1      22.272   2.634  39.417  1.00  0.00     0.000 C 
BRANCH   6   7
ATOM      7  C   UNL     1      22.924   1.454  38.675  1.00  0.00    -0.000 C 
BRANCH   7   8
ATOM      8  C   UNL     1      23.700   0.522  39.619  1.00  0.00    -0.003 C 
ATOM      9  C   UNL     1      23.813  -0.904  39.082  1.00  0.00     0.004 C 
ENDBRANCH   7   8
ENDBRANCH   6   7
ENDBRANCH   1   6
TORSDOF 5
ENDMDL
MODEL 6
REMARK VINA RESULT:    -3.323     14.912     15.900
REMARK INTER + INTRA:          -4.520
REMARK INTER:                  -4.170
REMARK INTRA:                  -0.350
REMARK UNBOUND:                -0.226
REMARK SMILES CCCCCCC(=O)[O-]
REMARK SMILES IDX 5 1 6 2 7 3 8 4 9 5 4 6 3 7 2 8 1 9
REMARK H PARENT
REMARK Flexibility Score: inf
ROOT
ATOM      1  C   UNL     1      24.179  -3.232  56.343  1.00  0.00     0.006 C 
ENDROOT
BRANCH   1   2
ATOM      2  C   UNL     1      23.542  -3.159  57.737  1.00  0.00     0.053 C 
BRANCH   2   3
ATOM      3  C   UNL     1      22.098  -3.546  57.672  1.00  0.00     0.041 C 
ATOM      4  O   UNL     1      21.771  -4.739  57.435  1.00  0.00    -0.550 OA
ATOM      5  O   UNL     1      21.111  -2.580  57.821  1.00  0.00    -0.550 OA
ENDBRANCH   2   3
ENDBRANCH   1   2
BRANCH   1   6
ATOM      6  C   UNL     1      23.579  -2.213  55.362  1.00  0.00     0.000 C 
BRANCH   6   7
ATOM      7  C   UNL     1      23.144  -2.856  54.034  1.00  0.00    -0.000 C 
BRANCH   7   8
ATOM      8  C   UNL     1      23.048  -4.387  54.126  1.00  0.00    -0.003 C 
ATOM      9  C   UNL     1      23.895  -5.099  53.072  1.00  0.00     0.004 C 
ENDBRANCH   7   8
ENDBRANCH   6   7
ENDBRANCH   1   6
TORSDOF 5
ENDMDL
MODEL 7
REMARK VINA RESULT:    -3.316      9.497     10.788
REMARK INTER + INTRA:          -4.511
REMARK INTER:                  -4.258
REMARK INTRA:                  -0.253
REMARK UNBOUND:                -0.226
REMARK SMILES CCCCCCC(=O)[O-]
REMARK SMILES IDX 5 1 6 2 7 3 8 4 9 5 4 6 3 7 2 8 1 9
REMARK H PARENT
REMARK Flexibility Score: inf
ROOT
ATOM      1  C   UNL     1      25.130   3.165  39.386  1.00  0.00     0.006 C 
ENDROOT
BRANCH   1   2
ATOM      2  C   UNL     1      23.872   2.513  39.975  1.00  0.00     0.053 C 
BRANCH   2   3
ATOM      3  C   UNL     1      23.372   1.430  39.071  1.00  0.00     0.041 C 
ATOM      4  O   UNL     1      22.533   1.694  38.170  1.00  0.00    -0.550 OA
ATOM      5  O   UNL     1      23.794   0.120  39.256  1.00  0.00    -0.550 OA
ENDBRANCH   2   3
ENDBRANCH   1   2
BRANCH   1   6
ATOM      6  C   UNL     1      25.942   3.942  40.434  1.00  0.00     0.000 C 
BRANCH   6   7
ATOM      7  C   UNL     1      25.286   3.920  41.825  1.00  0.00    -0.000 C 
BRANCH   7   8
ATOM      8  C   UNL     1      24.989   5.331  42.358  1.00  0.00    -0.003 C 
ATOM      9  C   UNL     1      24.521   6.291  41.265  1.00  0.00     0.004 C 
ENDBRANCH   7   8
ENDBRANCH   6   7
ENDBRANCH   1   6
TORSDOF 5
ENDMDL
MODEL 8
REMARK VINA RESULT:    -3.286     14.066     15.702
REMARK INTER + INTRA:          -4.472
REMARK INTER:                  -4.070
REMARK INTRA:                  -0.402
REMARK UNBOUND:                -0.226
REMARK SMILES CCCCCCC(=O)[O-]
REMARK SMILES IDX 5 1 6 2 7 3 8 4 9 5 4 6 3 7 2 8 1 9
REMARK H PARENT
REMARK Flexibility Score: inf
ROOT
ATOM      1  C   UNL     1      22.090  -3.174  57.545  1.00  0.00     0.006 C 
ENDROOT
BRANCH   1   2
ATOM      2  C   UNL     1      21.533  -1.824  58.016  1.00  0.00     0.053 C 
BRANCH   2   3
ATOM      3  C   UNL     1      21.036  -1.030  56.850  1.00  0.00     0.041 C 
ATOM      4  O   UNL     1      21.810  -0.245  56.241  1.00  0.00    -0.550 OA
ATOM      5  O   UNL     1      19.703  -1.117  56.466  1.00  0.00    -0.550 OA
ENDBRANCH   2   3
ENDBRANCH   1   2
BRANCH   1   6
ATOM      6  C   UNL     1      23.621  -3.257  57.658  1.00  0.00     0.000 C 
BRANCH   6   7
ATOM      7  C   UNL     1      24.328  -2.961  56.324  1.00  0.00    -0.000 C 
BRANCH   7   8
ATOM      8  C   UNL     1      23.605  -3.590  55.123  1.00  0.00    -0.003 C 
ATOM      9  C   UNL     1      23.239  -2.568  54.048  1.00  0.00     0.004 C 
ENDBRANCH   7   8
ENDBRANCH   6   7
ENDBRANCH   1   6
TORSDOF 5
ENDMDL
