MODEL 1
REMARK VINA RESULT:    -2.346      0.000      0.000
REMARK INTER + INTRA:          -2.772
REMARK INTER:                  -2.689
REMARK INTRA:                  -0.083
REMARK UNBOUND:                -0.083
REMARK SMILES C=Cc1ccc(O)c(OC)c1
REMARK SMILES IDX 8 1 6 2 5 3 4 4 3 5 11 6 9 7 10 8 7 9 2 11 1 12
REMARK H PARENT 7 10
REMARK Flexibility Score: inf
ROOT
ATOM      1  C   UNL     1     126.233 110.880 135.894  1.00  0.00     0.161 A 
ATOM      2  C   UNL     1     126.550 112.105 135.293  1.00  0.00     0.157 A 
ATOM      3  C   UNL     1     126.992 112.142 133.965  1.00  0.00     0.051 A 
ATOM      4  C   UNL     1     127.125 110.962 133.234  1.00  0.00     0.012 A 
ATOM      5  C   UNL     1     126.828 109.722 133.819  1.00  0.00    -0.022 A 
ATOM      6  C   UNL     1     126.369 109.689 135.152  1.00  0.00     0.058 A 
ENDROOT
BRANCH   1   7
ATOM      7  O   UNL     1     125.784 110.886 137.225  1.00  0.00    -0.493 OA
ATOM      8  C   UNL     1     126.617 110.668 138.359  1.00  0.00     0.278 C 
ENDBRANCH   1   7
BRANCH   2   9
ATOM      9  O   UNL     1     126.420 113.285 136.023  1.00  0.00    -0.504 OA
ATOM     10  H   UNL     1     125.514 113.627 136.322  1.00  0.00     0.293 HD
ENDBRANCH   2   9
BRANCH   5  11
ATOM     11  C   UNL     1     126.980 108.496 132.995  1.00  0.00     0.000 C 
ATOM     12  C   UNL     1     127.120 107.268 133.496  1.00  0.00     0.009 C 
ENDBRANCH   5  11
TORSDOF 3
ENDMDL
MODEL 2
REMARK VINA RESULT:    -2.291      1.475      2.710
REMARK INTER + INTRA:          -2.709
REMARK INTER:                  -2.591
REMARK INTRA:                  -0.119
REMARK UNBOUND:                -0.083
REMARK SMILES C=Cc1ccc(O)c(OC)c1
REMARK SMILES IDX 8 1 6 2 5 3 4 4 3 5 11 6 9 7 10 8 7 9 2 11 1 12
REMARK H PARENT 7 10
REMARK Flexibility Score: inf
ROOT
ATOM      1  C   UNL     1     125.874 110.810 136.566  1.00  0.00     0.161 A 
ATOM      2  C   UNL     1     125.411 109.767 137.379  1.00  0.00     0.157 A 
ATOM      3  C   UNL     1     125.474 108.444 136.928  1.00  0.00     0.051 A 
ATOM      4  C   UNL     1     125.993 108.153 135.666  1.00  0.00     0.012 A 
ATOM      5  C   UNL     1     126.448 109.182 134.828  1.00  0.00    -0.022 A 
ATOM      6  C   UNL     1     126.397 110.512 135.291  1.00  0.00     0.058 A 
ENDROOT
BRANCH   1   7
ATOM      7  O   UNL     1     125.802 112.123 137.059  1.00  0.00    -0.493 OA
ATOM      8  C   UNL     1     126.894 112.830 137.637  1.00  0.00     0.278 C 
ENDBRANCH   1   7
BRANCH   2   9
ATOM      9  O   UNL     1     124.890 110.056 138.639  1.00  0.00    -0.504 OA
ATOM     10  H   UNL     1     124.421 109.349 139.195  1.00  0.00     0.293 HD
ENDBRANCH   2   9
BRANCH   5  11
ATOM     11  C   UNL     1     126.997 108.818 133.497  1.00  0.00     0.000 C 
ATOM     12  C   UNL     1     127.125 107.566 133.056  1.00  0.00     0.009 C 
ENDBRANCH   5  11
TORSDOF 3
ENDMDL
MODEL 3
REMARK VINA RESULT:    -2.275      1.151      1.260
REMARK INTER + INTRA:          -2.690
REMARK INTER:                  -2.583
REMARK INTRA:                  -0.107
REMARK UNBOUND:                -0.083
REMARK SMILES C=Cc1ccc(O)c(OC)c1
REMARK SMILES IDX 8 1 6 2 5 3 4 4 3 5 11 6 9 7 10 8 7 9 2 11 1 12
REMARK H PARENT 7 10
REMARK Flexibility Score: inf
ROOT
ATOM      1  C   UNL     1     125.583 109.965 136.170  1.00  0.00     0.161 A 
ATOM      2  C   UNL     1     126.004 111.239 135.766  1.00  0.00     0.157 A 
ATOM      3  C   UNL     1     126.770 111.390 134.604  1.00  0.00     0.051 A 
ATOM      4  C   UNL     1     127.124 110.276 133.844  1.00  0.00     0.012 A 
ATOM      5  C   UNL     1     126.727 108.988 134.237  1.00  0.00    -0.022 A 
ATOM      6  C   UNL     1     125.943 108.841 135.400  1.00  0.00     0.058 A 
ENDROOT
BRANCH   1   7
ATOM      7  O   UNL     1     124.809 109.858 137.337  1.00  0.00    -0.493 OA
ATOM      8  C   UNL     1     125.176 109.098 138.483  1.00  0.00     0.278 C 
ENDBRANCH   1   7
BRANCH   2   9
ATOM      9  O   UNL     1     125.653 112.354 136.526  1.00  0.00    -0.504 OA
ATOM     10  H   UNL     1     126.351 112.907 137.012  1.00  0.00     0.293 HD
ENDBRANCH   2   9
BRANCH   5  11
ATOM     11  C   UNL     1     127.125 107.837 133.389  1.00  0.00     0.000 C 
ATOM     12  C   UNL     1     127.086 107.839 132.056  1.00  0.00     0.009 C 
ENDBRANCH   5  11
TORSDOF 3
ENDMDL
MODEL 4
REMARK VINA RESULT:    -2.204      1.584      1.941
REMARK INTER + INTRA:          -2.609
REMARK INTER:                  -2.524
REMARK INTRA:                  -0.086
REMARK UNBOUND:                -0.083
REMARK SMILES C=Cc1ccc(O)c(OC)c1
REMARK SMILES IDX 8 1 6 2 5 3 4 4 3 5 11 6 9 7 10 8 7 9 2 11 1 12
REMARK H PARENT 7 10
REMARK Flexibility Score: inf
ROOT
ATOM      1  C   UNL     1     126.277 111.112 135.596  1.00  0.00     0.161 A 
ATOM      2  C   UNL     1     126.842 111.418 134.351  1.00  0.00     0.157 A 
ATOM      3  C   UNL     1     127.124 110.396 133.437  1.00  0.00     0.051 A 
ATOM      4  C   UNL     1     126.850 109.067 133.760  1.00  0.00     0.012 A 
ATOM      5  C   UNL     1     126.299 108.734 135.007  1.00  0.00    -0.022 A 
ATOM      6  C   UNL     1     126.003 109.767 135.919  1.00  0.00     0.058 A 
ENDROOT
BRANCH   1   7
ATOM      7  O   UNL     1     126.001 112.166 136.481  1.00  0.00    -0.493 OA
ATOM      8  C   UNL     1     126.578 112.307 137.775  1.00  0.00     0.278 C 
ENDBRANCH   1   7
BRANCH   2   9
ATOM      9  O   UNL     1     127.118 112.746 134.028  1.00  0.00    -0.504 OA
ATOM     10  H   UNL     1     127.462 113.008 133.111  1.00  0.00     0.293 HD
ENDBRANCH   2   9
BRANCH   5  11
ATOM     11  C   UNL     1     126.022 107.305 135.297  1.00  0.00     0.000 C 
ATOM     12  C   UNL     1     125.338 106.875 136.359  1.00  0.00     0.009 C 
ENDBRANCH   5  11
TORSDOF 3
ENDMDL
MODEL 5
REMARK VINA RESULT:    -2.184      1.961      3.521
REMARK INTER + INTRA:          -2.587
REMARK INTER:                  -2.502
REMARK INTRA:                  -0.084
REMARK UNBOUND:                -0.083
REMARK SMILES C=Cc1ccc(O)c(OC)c1
REMARK SMILES IDX 8 1 6 2 5 3 4 4 3 5 11 6 9 7 10 8 7 9 2 11 1 12
REMARK H PARENT 7 10
REMARK Flexibility Score: inf
ROOT
ATOM      1  C   UNL     1     125.653 109.242 136.836  1.00  0.00     0.161 A 
ATOM      2  C   UNL     1     125.581 107.843 136.790  1.00  0.00     0.157 A 
ATOM      3  C   UNL     1     126.012 107.155 135.650  1.00  0.00     0.051 A 
ATOM      4  C   UNL     1     126.510 107.855 134.551  1.00  0.00     0.012 A 
ATOM      5  C   UNL     1     126.578 109.257 134.568  1.00  0.00    -0.022 A 
ATOM      6  C   UNL     1     126.157 109.946 135.723  1.00  0.00     0.058 A 
ENDROOT
BRANCH   1   7
ATOM      7  O   UNL     1     125.220 109.894 138.002  1.00  0.00    -0.493 OA
ATOM      8  C   UNL     1     124.187 110.874 138.043  1.00  0.00     0.278 C 
ENDBRANCH   1   7
BRANCH   2   9
ATOM      9  O   UNL     1     125.081 107.143 137.886  1.00  0.00    -0.504 OA
ATOM     10  H   UNL     1     124.975 107.582 138.794  1.00  0.00     0.293 HD
ENDBRANCH   2   9
BRANCH   5  11
ATOM     11  C   UNL     1     127.123 109.952 133.375  1.00  0.00     0.000 C 
ATOM     12  C   UNL     1     127.124 111.276 133.215  1.00  0.00     0.009 C 
ENDBRANCH   5  11
TORSDOF 3
ENDMDL
MODEL 6
REMARK VINA RESULT:    -2.100      1.750      3.424
REMARK INTER + INTRA:          -2.491
REMARK INTER:                  -2.390
REMARK INTRA:                  -0.101
REMARK UNBOUND:                -0.083
REMARK SMILES C=Cc1ccc(O)c(OC)c1
REMARK SMILES IDX 8 1 6 2 5 3 4 4 3 5 11 6 9 7 10 8 7 9 2 11 1 12
REMARK H PARENT 7 10
REMARK Flexibility Score: inf
ROOT
ATOM      1  C   UNL     1     126.011 109.298 135.703  1.00  0.00     0.161 A 
ATOM      2  C   UNL     1     126.342 108.266 134.814  1.00  0.00     0.157 A 
ATOM      3  C   UNL     1     126.897 108.566 133.565  1.00  0.00     0.051 A 
ATOM      4  C   UNL     1     127.120 109.892 133.193  1.00  0.00     0.012 A 
ATOM      5  C   UNL     1     126.782 110.942 134.060  1.00  0.00    -0.022 A 
ATOM      6  C   UNL     1     126.237 110.636 135.323  1.00  0.00     0.058 A 
ENDROOT
BRANCH   1   7
ATOM      7  O   UNL     1     125.465 108.954 136.950  1.00  0.00    -0.493 OA
ATOM      8  C   UNL     1     126.001 109.357 138.206  1.00  0.00     0.278 C 
ENDBRANCH   1   7
BRANCH   2   9
ATOM      9  O   UNL     1     126.118 106.941 135.184  1.00  0.00    -0.504 OA
ATOM     10  H   UNL     1     125.760 106.698 136.101  1.00  0.00     0.293 HD
ENDBRANCH   2   9
BRANCH   5  11
ATOM     11  C   UNL     1     127.045 112.335 133.618  1.00  0.00     0.000 C 
ATOM     12  C   UNL     1     126.595 112.857 132.475  1.00  0.00     0.009 C 
ENDBRANCH   5  11
TORSDOF 3
ENDMDL
MODEL 7
REMARK VINA RESULT:    -1.964      1.681      3.951
REMARK INTER + INTRA:          -2.334
REMARK INTER:                  -2.239
REMARK INTRA:                  -0.095
REMARK UNBOUND:                -0.083
REMARK SMILES C=Cc1ccc(O)c(OC)c1
REMARK SMILES IDX 8 1 6 2 5 3 4 4 3 5 11 6 9 7 10 8 7 9 2 11 1 12
REMARK H PARENT 7 10
REMARK Flexibility Score: inf
ROOT
ATOM      1  C   UNL     1     126.317 111.082 136.066  1.00  0.00     0.161 A 
ATOM      2  C   UNL     1     126.833 112.243 136.657  1.00  0.00     0.157 A 
ATOM      3  C   UNL     1     127.125 112.264 138.026  1.00  0.00     0.051 A 
ATOM      4  C   UNL     1     126.899 111.134 138.812  1.00  0.00     0.012 A 
ATOM      5  C   UNL     1     126.368 109.965 138.245  1.00  0.00    -0.022 A 
ATOM      6  C   UNL     1     126.089 109.942 136.864  1.00  0.00     0.058 A 
ENDROOT
BRANCH   1   7
ATOM      7  O   UNL     1     126.047 111.099 134.688  1.00  0.00    -0.493 OA
ATOM      8  C   UNL     1     126.881 110.514 133.694  1.00  0.00     0.278 C 
ENDBRANCH   1   7
BRANCH   2   9
ATOM      9  O   UNL     1     127.058 113.374 135.874  1.00  0.00    -0.504 OA
ATOM     10  H   UNL     1     126.354 114.097 135.772  1.00  0.00     0.293 HD
ENDBRANCH   2   9
BRANCH   5  11
ATOM     11  C   UNL     1     126.152 108.789 139.125  1.00  0.00     0.000 C 
ATOM     12  C   UNL     1     126.919 107.697 139.118  1.00  0.00     0.009 C 
ENDBRANCH   5  11
TORSDOF 3
ENDMDL
MODEL 8
REMARK VINA RESULT:    -1.943      2.306      4.229
REMARK INTER + INTRA:          -2.310
REMARK INTER:                  -2.213
REMARK INTRA:                  -0.096
REMARK UNBOUND:                -0.083
REMARK SMILES C=Cc1ccc(O)c(OC)c1
REMARK SMILES IDX 8 1 6 2 5 3 4 4 3 5 11 6 9 7 10 8 7 9 2 11 1 12
REMARK H PARENT 7 10
REMARK Flexibility Score: inf
ROOT
ATOM      1  C   UNL     1     126.746 110.255 134.083  1.00  0.00     0.161 A 
ATOM      2  C   UNL     1     126.747 108.999 133.460  1.00  0.00     0.157 A 
ATOM      3  C   UNL     1     126.367 107.859 134.178  1.00  0.00     0.051 A 
ATOM      4  C   UNL     1     125.991 107.962 135.517  1.00  0.00     0.012 A 
ATOM      5  C   UNL     1     125.997 109.206 136.166  1.00  0.00    -0.022 A 
ATOM      6  C   UNL     1     126.366 110.354 135.437  1.00  0.00     0.058 A 
ENDROOT
BRANCH   1   7
ATOM      7  O   UNL     1     127.124 111.375 133.326  1.00  0.00    -0.493 OA
ATOM      8  C   UNL     1     126.246 112.432 132.954  1.00  0.00     0.278 C 
ENDBRANCH   1   7
BRANCH   2   9
ATOM      9  O   UNL     1     127.125 108.894 132.123  1.00  0.00    -0.504 OA
ATOM     10  H   UNL     1     126.449 108.977 131.372  1.00  0.00     0.293 HD
ENDBRANCH   2   9
BRANCH   5  11
ATOM     11  C   UNL     1     125.582 109.261 137.591  1.00  0.00     0.000 C 
ATOM     12  C   UNL     1     126.414 109.100 138.621  1.00  0.00     0.009 C 
ENDBRANCH   5  11
TORSDOF 3
ENDMDL
MODEL 9
REMARK VINA RESULT:    -1.528      1.195      2.610
REMARK INTER + INTRA:          -1.834
REMARK INTER:                  -1.729
REMARK INTRA:                  -0.105
REMARK UNBOUND:                -0.083
REMARK SMILES C=Cc1ccc(O)c(OC)c1
REMARK SMILES IDX 8 1 6 2 5 3 4 4 3 5 11 6 9 7 10 8 7 9 2 11 1 12
REMARK H PARENT 7 10
REMARK Flexibility Score: inf
ROOT
ATOM      1  C   UNL     1     126.728 112.356 135.334  1.00  0.00     0.161 A 
ATOM      2  C   UNL     1     125.979 111.855 136.408  1.00  0.00     0.157 A 
ATOM      3  C   UNL     1     125.622 110.502 136.445  1.00  0.00     0.051 A 
ATOM      4  C   UNL     1     126.003 109.645 135.413  1.00  0.00     0.012 A 
ATOM      5  C   UNL     1     126.740 110.127 134.320  1.00  0.00    -0.022 A 
ATOM      6  C   UNL     1     127.110 111.486 134.293  1.00  0.00     0.058 A 
ENDROOT
BRANCH   1   7
ATOM      7  O   UNL     1     127.074 113.717 135.340  1.00  0.00    -0.493 OA
ATOM      8  C   UNL     1     126.322 114.744 134.702  1.00  0.00     0.278 C 
ENDBRANCH   1   7
BRANCH   2   9
ATOM      9  O   UNL     1     125.596 112.711 137.439  1.00  0.00    -0.504 OA
ATOM     10  H   UNL     1     125.122 113.588 137.253  1.00  0.00     0.293 HD
ENDBRANCH   2   9
BRANCH   5  11
ATOM     11  C   UNL     1     127.125 109.171 133.251  1.00  0.00     0.000 C 
ATOM     12  C   UNL     1     127.124 107.844 133.396  1.00  0.00     0.009 C 
ENDBRANCH   5  11
TORSDOF 3
ENDMDL
