MODEL 1
REMARK VINA RESULT:    -1.909      0.000      0.000
REMARK INTER + INTRA:          -3.499
REMARK INTER:                  -2.914
REMARK INTRA:                  -0.585
REMARK UNBOUND:                -0.585
REMARK SMILES CCCCCCCCCC=CC(=O)[O-]
REMARK SMILES IDX 7 1 8 2 9 3 10 4 11 5 12 6 13 7 14 8 6 9 5 10 4 11 3 12 2 13
REMARK SMILES IDX 1 14
REMARK H PARENT
REMARK Flexibility Score: inf
ROOT
ATOM      1  C   UNL     1      17.763   1.457  25.388  1.00  0.00     0.000 C 
ENDROOT
BRANCH   1   2
ATOM      2  C   UNL     1      19.231   1.545  25.834  1.00  0.00     0.004 C 
BRANCH   2   3
ATOM      3  C   UNL     1      19.419   1.200  27.318  1.00  0.00     0.027 C 
BRANCH   3   4
ATOM      4  C   UNL     1      19.011   2.348  28.197  1.00  0.00    -0.025 C 
ATOM      5  C   UNL     1      19.315   2.374  29.498  1.00  0.00     0.020 C 
BRANCH   5   6
ATOM      6  C   UNL     1      18.911   3.485  30.373  1.00  0.00     0.064 C 
ATOM      7  O   UNL     1      19.614   3.771  31.377  1.00  0.00    -0.545 OA
ATOM      8  O   UNL     1      17.764   4.223  30.109  1.00  0.00    -0.545 OA
ENDBRANCH   5   6
ENDBRANCH   3   4
ENDBRANCH   2   3
ENDBRANCH   1   2
BRANCH   1   9
ATOM      9  C   UNL     1      17.180   2.828  25.005  1.00  0.00     0.000 C 
BRANCH   9  10
ATOM     10  C   UNL     1      15.861   3.133  25.732  1.00  0.00     0.000 C 
BRANCH  10  11
ATOM     11  C   UNL     1      14.745   2.139  25.375  1.00  0.00    -0.000 C 
BRANCH  11  12
ATOM     12  C   UNL     1      13.503   2.876  24.849  1.00  0.00    -0.000 C 
BRANCH  12  13
ATOM     13  C   UNL     1      13.551   3.105  23.332  1.00  0.00    -0.003 C 
ATOM     14  C   UNL     1      13.126   4.518  22.933  1.00  0.00     0.004 C 
ENDBRANCH  12  13
ENDBRANCH  11  12
ENDBRANCH  10  11
ENDBRANCH   9  10
ENDBRANCH   1   9
TORSDOF 9
ENDMDL
MODEL 2
REMARK VINA RESULT:    -1.619      3.497      6.600
REMARK INTER + INTRA:          -3.056
REMARK INTER:                  -2.648
REMARK INTRA:                  -0.408
REMARK UNBOUND:                -0.585
REMARK SMILES CCCCCCCCCC=CC(=O)[O-]
REMARK SMILES IDX 7 1 8 2 9 3 10 4 11 5 12 6 13 7 14 8 6 9 5 10 4 11 3 12 2 13
REMARK SMILES IDX 1 14
REMARK H PARENT
REMARK Flexibility Score: inf
ROOT
ATOM      1  C   UNL     1      18.105   1.297  25.405  1.00  0.00     0.000 C 
ENDROOT
BRANCH   1   2
ATOM      2  C   UNL     1      17.539   2.685  25.067  1.00  0.00     0.004 C 
BRANCH   2   3
ATOM      3  C   UNL     1      16.595   3.218  26.154  1.00  0.00     0.027 C 
BRANCH   3   4
ATOM      4  C   UNL     1      15.164   3.167  25.701  1.00  0.00    -0.025 C 
ATOM      5  C   UNL     1      14.845   3.081  24.405  1.00  0.00     0.020 C 
BRANCH   5   6
ATOM      6  C   UNL     1      13.448   3.043  23.946  1.00  0.00     0.064 C 
ATOM      7  O   UNL     1      12.694   2.111  24.327  1.00  0.00    -0.545 OA
ATOM      8  O   UNL     1      12.948   4.022  23.095  1.00  0.00    -0.545 OA
ENDBRANCH   5   6
ENDBRANCH   3   4
ENDBRANCH   2   3
ENDBRANCH   1   2
BRANCH   1   9
ATOM      9  C   UNL     1      19.469   1.371  26.113  1.00  0.00     0.000 C 
BRANCH   9  10
ATOM     10  C   UNL     1      19.353   1.204  27.637  1.00  0.00     0.000 C 
BRANCH  10  11
ATOM     11  C   UNL     1      19.061   2.530  28.356  1.00  0.00    -0.000 C 
BRANCH  11  12
ATOM     12  C   UNL     1      19.385   2.423  29.854  1.00  0.00    -0.000 C 
BRANCH  12  13
ATOM     13  C   UNL     1      19.127   3.735  30.610  1.00  0.00    -0.003 C 
ATOM     14  C   UNL     1      17.656   4.151  30.589  1.00  0.00     0.004 C 
ENDBRANCH  12  13
ENDBRANCH  11  12
ENDBRANCH  10  11
ENDBRANCH   9  10
ENDBRANCH   1   9
TORSDOF 9
ENDMDL
MODEL 3
REMARK VINA RESULT:    -0.063      0.850      1.412
REMARK INTER + INTRA:          -0.682
REMARK INTER:                   0.024
REMARK INTRA:                  -0.706
REMARK UNBOUND:                -0.585
REMARK SMILES CCCCCCCCCC=CC(=O)[O-]
REMARK SMILES IDX 7 1 8 2 9 3 10 4 11 5 12 6 13 7 14 8 6 9 5 10 4 11 3 12 2 13
REMARK SMILES IDX 1 14
REMARK H PARENT
REMARK Flexibility Score: inf
ROOT
ATOM      1  C   UNL     1      17.154   2.768  24.907  1.00  0.00     0.000 C 
ENDROOT
BRANCH   1   2
ATOM      2  C   UNL     1      17.661   1.374  25.312  1.00  0.00     0.004 C 
BRANCH   2   3
ATOM      3  C   UNL     1      19.145   1.379  25.708  1.00  0.00     0.027 C 
BRANCH   3   4
ATOM      4  C   UNL     1      19.307   1.452  27.199  1.00  0.00    -0.025 C 
ATOM      5  C   UNL     1      19.085   2.586  27.871  1.00  0.00     0.020 C 
BRANCH   5   6
ATOM      6  C   UNL     1      19.253   2.675  29.329  1.00  0.00     0.064 C 
ATOM      7  O   UNL     1      20.028   1.876  29.915  1.00  0.00    -0.545 OA
ATOM      8  O   UNL     1      18.568   3.630  30.072  1.00  0.00    -0.545 OA
ENDBRANCH   5   6
ENDBRANCH   3   4
ENDBRANCH   2   3
ENDBRANCH   1   2
BRANCH   1   9
ATOM      9  C   UNL     1      15.949   3.224  25.748  1.00  0.00     0.000 C 
BRANCH   9  10
ATOM     10  C   UNL     1      14.926   2.098  25.972  1.00  0.00     0.000 C 
BRANCH  10  11
ATOM     11  C   UNL     1      13.871   2.027  24.857  1.00  0.00    -0.000 C 
BRANCH  11  12
ATOM     12  C   UNL     1      13.355   3.430  24.502  1.00  0.00    -0.000 C 
BRANCH  12  13
ATOM     13  C   UNL     1      13.437   3.726  22.997  1.00  0.00    -0.003 C 
ATOM     14  C   UNL     1      13.101   5.178  22.659  1.00  0.00     0.004 C 
ENDBRANCH  12  13
ENDBRANCH  11  12
ENDBRANCH  10  11
ENDBRANCH   9  10
ENDBRANCH   1   9
TORSDOF 9
ENDMDL
MODEL 4
REMARK VINA RESULT:     0.658      2.597      5.788
REMARK INTER + INTRA:           0.419
REMARK INTER:                   0.963
REMARK INTRA:                  -0.544
REMARK UNBOUND:                -0.585
REMARK SMILES CCCCCCCCCC=CC(=O)[O-]
REMARK SMILES IDX 7 1 8 2 9 3 10 4 11 5 12 6 13 7 14 8 6 9 5 10 4 11 3 12 2 13
REMARK SMILES IDX 1 14
REMARK H PARENT
REMARK Flexibility Score: inf
ROOT
ATOM      1  C   UNL     1      19.153   1.982  27.255  1.00  0.00     0.000 C 
ENDROOT
BRANCH   1   2
ATOM      2  C   UNL     1      19.817   1.523  25.947  1.00  0.00     0.004 C 
BRANCH   2   3
ATOM      3  C   UNL     1      18.795   1.212  24.845  1.00  0.00     0.027 C 
BRANCH   3   4
ATOM      4  C   UNL     1      17.403   1.564  25.282  1.00  0.00    -0.025 C 
ATOM      5  C   UNL     1      16.826   2.715  24.920  1.00  0.00     0.020 C 
BRANCH   5   6
ATOM      6  C   UNL     1      15.469   3.079  25.352  1.00  0.00     0.064 C 
ATOM      7  O   UNL     1      15.315   3.823  26.355  1.00  0.00    -0.545 OA
ATOM      8  O   UNL     1      14.351   2.612  24.669  1.00  0.00    -0.545 OA
ENDBRANCH   5   6
ENDBRANCH   3   4
ENDBRANCH   2   3
ENDBRANCH   1   2
BRANCH   1   9
ATOM      9  C   UNL     1      19.520   1.085  28.450  1.00  0.00     0.000 C 
BRANCH   9  10
ATOM     10  C   UNL     1      19.571   1.860  29.777  1.00  0.00     0.000 C 
BRANCH  10  11
ATOM     11  C   UNL     1      19.169   3.334  29.615  1.00  0.00    -0.000 C 
BRANCH  11  12
ATOM     12  C   UNL     1      18.835   3.963  30.977  1.00  0.00    -0.000 C 
BRANCH  12  13
ATOM     13  C   UNL     1      17.407   4.525  31.032  1.00  0.00    -0.003 C 
ATOM     14  C   UNL     1      16.745   4.598  29.657  1.00  0.00     0.004 C 
ENDBRANCH  12  13
ENDBRANCH  11  12
ENDBRANCH  10  11
ENDBRANCH   9  10
ENDBRANCH   1   9
TORSDOF 9
ENDMDL
