MODEL 1
REMARK VINA RESULT:    -3.346      0.000      0.000
REMARK INTER + INTRA:          -9.738
REMARK INTER:                  -7.649
REMARK INTRA:                  -2.089
REMARK UNBOUND:                -2.089
REMARK SMILES CCCCCCCCCCCCCCCCCCCCCCCC(=O)[O-]
REMARK SMILES IDX 13 1 14 2 15 3 16 4 17 5 18 6 19 7 20 8 21 9 22 10 23 11
REMARK SMILES IDX 24 12 25 13 26 14 12 15 11 16 10 17 9 18 8 19 7 20 6 21 5 22
REMARK SMILES IDX 4 23 3 24 2 25 1 26
REMARK H PARENT
REMARK Flexibility Score: inf
ROOT
ATOM      1  C   UNL     1     -12.763  10.747   4.309  1.00  0.00     0.000 C 
ENDROOT
BRANCH   1   2
ATOM      2  C   UNL     1     -12.752   9.383   3.585  1.00  0.00     0.000 C 
BRANCH   2   3
ATOM      3  C   UNL     1     -14.167   8.893   3.230  1.00  0.00     0.000 C 
BRANCH   3   4
ATOM      4  C   UNL     1     -15.265   9.849   3.722  1.00  0.00     0.000 C 
BRANCH   4   5
ATOM      5  C   UNL     1     -16.575   9.705   2.927  1.00  0.00     0.000 C 
BRANCH   5   6
ATOM      6  C   UNL     1     -16.333   9.501   1.424  1.00  0.00     0.000 C 
BRANCH   6   7
ATOM      7  C   UNL     1     -17.608   9.097   0.667  1.00  0.00     0.000 C 
BRANCH   7   8
ATOM      8  C   UNL     1     -18.410  10.336   0.245  1.00  0.00     0.000 C 
BRANCH   8   9
ATOM      9  C   UNL     1     -17.542  11.411  -0.436  1.00  0.00     0.000 C 
BRANCH   9  10
ATOM     10  C   UNL     1     -17.078  11.065  -1.863  1.00  0.00     0.006 C 
BRANCH  10  11
ATOM     11  C   UNL     1     -15.697  11.641  -2.199  1.00  0.00     0.053 C 
BRANCH  11  12
ATOM     12  C   UNL     1     -14.666  10.557  -2.212  1.00  0.00     0.041 C 
ATOM     13  O   UNL     1     -13.480  10.809  -2.555  1.00  0.00    -0.550 OA
ATOM     14  O   UNL     1     -15.024   9.255  -1.879  1.00  0.00    -0.550 OA
ENDBRANCH  11  12
ENDBRANCH  10  11
ENDBRANCH   9  10
ENDBRANCH   8   9
ENDBRANCH   7   8
ENDBRANCH   6   7
ENDBRANCH   5   6
ENDBRANCH   4   5
ENDBRANCH   3   4
ENDBRANCH   2   3
ENDBRANCH   1   2
BRANCH   1  15
ATOM     15  C   UNL     1     -12.230  10.685   5.753  1.00  0.00     0.000 C 
BRANCH  15  16
ATOM     16  C   UNL     1     -12.401   9.321   6.449  1.00  0.00     0.000 C 
BRANCH  16  17
ATOM     17  C   UNL     1     -13.279   9.341   7.718  1.00  0.00     0.000 C 
BRANCH  17  18
ATOM     18  C   UNL     1     -14.782   9.567   7.471  1.00  0.00    -0.000 C 
BRANCH  18  19
ATOM     19  C   UNL     1     -15.644   9.258   8.703  1.00  0.00    -0.000 C 
BRANCH  19  20
ATOM     20  C   UNL     1     -16.624  10.404   8.994  1.00  0.00    -0.000 C 
BRANCH  20  21
ATOM     21  C   UNL     1     -17.380  10.218  10.320  1.00  0.00    -0.000 C 
BRANCH  21  22
ATOM     22  C   UNL     1     -17.026  11.297  11.360  1.00  0.00    -0.000 C 
BRANCH  22  23
ATOM     23  C   UNL     1     -16.370  10.705  12.619  1.00  0.00    -0.000 C 
BRANCH  23  24
ATOM     24  C   UNL     1     -15.234  11.589  13.162  1.00  0.00    -0.000 C 
BRANCH  24  25
ATOM     25  C   UNL     1     -13.856  10.921  13.033  1.00  0.00    -0.003 C 
ATOM     26  C   UNL     1     -13.673  10.188  11.704  1.00  0.00     0.004 C 
ENDBRANCH  24  25
ENDBRANCH  23  24
ENDBRANCH  22  23
ENDBRANCH  21  22
ENDBRANCH  20  21
ENDBRANCH  19  20
ENDBRANCH  18  19
ENDBRANCH  17  18
ENDBRANCH  16  17
ENDBRANCH  15  16
ENDBRANCH   1  15
TORSDOF 22
ENDMDL
MODEL 2
REMARK VINA RESULT:    -3.278      4.348     10.957
REMARK INTER + INTRA:          -9.582
REMARK INTER:                  -7.753
REMARK INTRA:                  -1.829
REMARK UNBOUND:                -2.089
REMARK SMILES CCCCCCCCCCCCCCCCCCCCCCCC(=O)[O-]
REMARK SMILES IDX 13 1 14 2 15 3 16 4 17 5 18 6 19 7 20 8 21 9 22 10 23 11
REMARK SMILES IDX 24 12 25 13 26 14 12 15 11 16 10 17 9 18 8 19 7 20 6 21 5 22
REMARK SMILES IDX 4 23 3 24 2 25 1 26
REMARK H PARENT
REMARK Flexibility Score: inf
ROOT
ATOM      1  C   UNL     1     -15.126   9.362   2.887  1.00  0.00     0.000 C 
ENDROOT
BRANCH   1   2
ATOM      2  C   UNL     1     -13.751   8.996   3.486  1.00  0.00     0.000 C 
BRANCH   2   3
ATOM      3  C   UNL     1     -13.014  10.218   4.061  1.00  0.00     0.000 C 
BRANCH   3   4
ATOM      4  C   UNL     1     -11.886   9.827   5.029  1.00  0.00     0.000 C 
BRANCH   4   5
ATOM      5  C   UNL     1     -12.255  10.084   6.502  1.00  0.00     0.000 C 
BRANCH   5   6
ATOM      6  C   UNL     1     -13.273   9.067   7.040  1.00  0.00     0.000 C 
BRANCH   6   7
ATOM      7  C   UNL     1     -14.613   9.715   7.423  1.00  0.00     0.000 C 
BRANCH   7   8
ATOM      8  C   UNL     1     -15.103   9.197   8.782  1.00  0.00     0.000 C 
BRANCH   8   9
ATOM      9  C   UNL     1     -14.127   9.512   9.932  1.00  0.00     0.000 C 
BRANCH   9  10
ATOM     10  C   UNL     1     -14.795   9.866  11.274  1.00  0.00     0.006 C 
BRANCH  10  11
ATOM     11  C   UNL     1     -16.130  10.603  11.103  1.00  0.00     0.053 C 
BRANCH  11  12
ATOM     12  C   UNL     1     -16.346  11.565  12.228  1.00  0.00     0.041 C 
ATOM     13  O   UNL     1     -15.464  11.716  13.115  1.00  0.00    -0.550 OA
ATOM     14  O   UNL     1     -17.540  12.270  12.319  1.00  0.00    -0.550 OA
ENDBRANCH  11  12
ENDBRANCH  10  11
ENDBRANCH   9  10
ENDBRANCH   8   9
ENDBRANCH   7   8
ENDBRANCH   6   7
ENDBRANCH   5   6
ENDBRANCH   4   5
ENDBRANCH   3   4
ENDBRANCH   2   3
ENDBRANCH   1   2
BRANCH   1  15
ATOM     15  C   UNL     1     -16.033  10.145   3.855  1.00  0.00     0.000 C 
BRANCH  15  16
ATOM     16  C   UNL     1     -17.537  10.085   3.527  1.00  0.00     0.000 C 
BRANCH  16  17
ATOM     17  C   UNL     1     -17.917  10.565   2.110  1.00  0.00     0.000 C 
BRANCH  17  18
ATOM     18  C   UNL     1     -18.360   9.455   1.139  1.00  0.00    -0.000 C 
BRANCH  18  19
ATOM     19  C   UNL     1     -17.660   9.538  -0.224  1.00  0.00    -0.000 C 
BRANCH  19  20
ATOM     20  C   UNL     1     -17.180  10.968  -0.513  1.00  0.00    -0.000 C 
BRANCH  20  21
ATOM     21  C   UNL     1     -16.061  11.018  -1.566  1.00  0.00    -0.000 C 
BRANCH  21  22
ATOM     22  C   UNL     1     -15.572   9.619  -1.978  1.00  0.00    -0.000 C 
BRANCH  22  23
ATOM     23  C   UNL     1     -14.039   9.542  -2.088  1.00  0.00    -0.000 C 
BRANCH  23  24
ATOM     24  C   UNL     1     -13.427  10.819  -2.690  1.00  0.00    -0.000 C 
BRANCH  24  25
ATOM     25  C   UNL     1     -12.785  10.572  -4.064  1.00  0.00    -0.003 C 
ATOM     26  C   UNL     1     -13.461  11.361  -5.186  1.00  0.00     0.004 C 
ENDBRANCH  24  25
ENDBRANCH  23  24
ENDBRANCH  22  23
ENDBRANCH  21  22
ENDBRANCH  20  21
ENDBRANCH  19  20
ENDBRANCH  18  19
ENDBRANCH  17  18
ENDBRANCH  16  17
ENDBRANCH  15  16
ENDBRANCH   1  15
TORSDOF 22
ENDMDL
MODEL 3
REMARK VINA RESULT:    -3.224      1.202      1.966
REMARK INTER + INTRA:          -9.459
REMARK INTER:                  -7.651
REMARK INTRA:                  -1.809
REMARK UNBOUND:                -2.089
REMARK SMILES CCCCCCCCCCCCCCCCCCCCCCCC(=O)[O-]
REMARK SMILES IDX 13 1 14 2 15 3 16 4 17 5 18 6 19 7 20 8 21 9 22 10 23 11
REMARK SMILES IDX 24 12 25 13 26 14 12 15 11 16 10 17 9 18 8 19 7 20 6 21 5 22
REMARK SMILES IDX 4 23 3 24 2 25 1 26
REMARK H PARENT
REMARK Flexibility Score: inf
ROOT
ATOM      1  C   UNL     1     -12.661  10.768   4.848  1.00  0.00     0.000 C 
ENDROOT
BRANCH   1   2
ATOM      2  C   UNL     1     -12.692   9.611   3.826  1.00  0.00     0.000 C 
BRANCH   2   3
ATOM      3  C   UNL     1     -14.125   9.186   3.459  1.00  0.00     0.000 C 
BRANCH   3   4
ATOM      4  C   UNL     1     -15.181  10.193   3.939  1.00  0.00     0.000 C 
BRANCH   4   5
ATOM      5  C   UNL     1     -16.478  10.129   3.111  1.00  0.00     0.000 C 
BRANCH   5   6
ATOM      6  C   UNL     1     -16.317   9.300   1.828  1.00  0.00     0.000 C 
BRANCH   6   7
ATOM      7  C   UNL     1     -16.950   9.976   0.601  1.00  0.00     0.000 C 
BRANCH   7   8
ATOM      8  C   UNL     1     -16.124   9.698  -0.663  1.00  0.00     0.000 C 
BRANCH   8   9
ATOM      9  C   UNL     1     -16.576  10.539  -1.873  1.00  0.00     0.000 C 
BRANCH   9  10
ATOM     10  C   UNL     1     -15.835  11.878  -2.048  1.00  0.00     0.006 C 
BRANCH  10  11
ATOM     11  C   UNL     1     -15.108  11.988  -3.394  1.00  0.00     0.053 C 
BRANCH  11  12
ATOM     12  C   UNL     1     -14.131  10.866  -3.556  1.00  0.00     0.041 C 
ATOM     13  O   UNL     1     -13.060  10.854  -2.894  1.00  0.00    -0.550 OA
ATOM     14  O   UNL     1     -14.388   9.849  -4.468  1.00  0.00    -0.550 OA
ENDBRANCH  11  12
ENDBRANCH  10  11
ENDBRANCH   9  10
ENDBRANCH   8   9
ENDBRANCH   7   8
ENDBRANCH   6   7
ENDBRANCH   5   6
ENDBRANCH   4   5
ENDBRANCH   3   4
ENDBRANCH   2   3
ENDBRANCH   1   2
BRANCH   1  15
ATOM     15  C   UNL     1     -12.162  10.347   6.244  1.00  0.00     0.000 C 
BRANCH  15  16
ATOM     16  C   UNL     1     -12.870   9.116   6.841  1.00  0.00     0.000 C 
BRANCH  16  17
ATOM     17  C   UNL     1     -13.454   9.320   8.255  1.00  0.00     0.000 C 
BRANCH  17  18
ATOM     18  C   UNL     1     -14.990   9.259   8.343  1.00  0.00    -0.000 C 
BRANCH  18  19
ATOM     19  C   UNL     1     -15.548   9.997   9.568  1.00  0.00    -0.000 C 
BRANCH  19  20
ATOM     20  C   UNL     1     -15.699   9.046  10.765  1.00  0.00    -0.000 C 
BRANCH  20  21
ATOM     21  C   UNL     1     -14.697   9.345  11.891  1.00  0.00    -0.000 C 
BRANCH  21  22
ATOM     22  C   UNL     1     -14.664  10.835  12.277  1.00  0.00    -0.000 C 
BRANCH  22  23
ATOM     23  C   UNL     1     -15.826  11.226  13.207  1.00  0.00    -0.000 C 
BRANCH  23  24
ATOM     24  C   UNL     1     -16.531  12.518  12.759  1.00  0.00    -0.000 C 
BRANCH  24  25
ATOM     25  C   UNL     1     -18.058  12.360  12.689  1.00  0.00    -0.003 C 
ATOM     26  C   UNL     1     -18.492  10.951  12.284  1.00  0.00     0.004 C 
ENDBRANCH  24  25
ENDBRANCH  23  24
ENDBRANCH  22  23
ENDBRANCH  21  22
ENDBRANCH  20  21
ENDBRANCH  19  20
ENDBRANCH  18  19
ENDBRANCH  17  18
ENDBRANCH  16  17
ENDBRANCH  15  16
ENDBRANCH   1  15
TORSDOF 22
ENDMDL
MODEL 4
REMARK VINA RESULT:    -3.189      3.250     10.109
REMARK INTER + INTRA:          -9.378
REMARK INTER:                  -6.939
REMARK INTRA:                  -2.439
REMARK UNBOUND:                -2.089
REMARK SMILES CCCCCCCCCCCCCCCCCCCCCCCC(=O)[O-]
REMARK SMILES IDX 13 1 14 2 15 3 16 4 17 5 18 6 19 7 20 8 21 9 22 10 23 11
REMARK SMILES IDX 24 12 25 13 26 14 12 15 11 16 10 17 9 18 8 19 7 20 6 21 5 22
REMARK SMILES IDX 4 23 3 24 2 25 1 26
REMARK H PARENT
REMARK Flexibility Score: inf
ROOT
ATOM      1  C   UNL     1     -12.438   8.940   1.737  1.00  0.00     0.000 C 
ENDROOT
BRANCH   1   2
ATOM      2  C   UNL     1     -12.879   9.022   3.214  1.00  0.00     0.000 C 
BRANCH   2   3
ATOM      3  C   UNL     1     -12.214  10.190   3.964  1.00  0.00     0.000 C 
BRANCH   3   4
ATOM      4  C   UNL     1     -12.117   9.943   5.477  1.00  0.00     0.000 C 
BRANCH   4   5
ATOM      5  C   UNL     1     -13.047  10.865   6.287  1.00  0.00     0.000 C 
BRANCH   5   6
ATOM      6  C   UNL     1     -14.235  10.110   6.902  1.00  0.00     0.000 C 
BRANCH   6   7
ATOM      7  C   UNL     1     -15.565  10.422   6.199  1.00  0.00     0.000 C 
BRANCH   7   8
ATOM      8  C   UNL     1     -16.241   9.133   5.710  1.00  0.00     0.000 C 
BRANCH   8   9
ATOM      9  C   UNL     1     -16.231   8.993   4.176  1.00  0.00     0.000 C 
BRANCH   9  10
ATOM     10  C   UNL     1     -17.050  10.055   3.420  1.00  0.00     0.006 C 
BRANCH  10  11
ATOM     11  C   UNL     1     -16.890   9.962   1.897  1.00  0.00     0.053 C 
BRANCH  11  12
ATOM     12  C   UNL     1     -17.998  10.694   1.208  1.00  0.00     0.041 C 
ATOM     13  O   UNL     1     -18.144  10.600  -0.040  1.00  0.00    -0.550 OA
ATOM     14  O   UNL     1     -18.851  11.511   1.941  1.00  0.00    -0.550 OA
ENDBRANCH  11  12
ENDBRANCH  10  11
ENDBRANCH   9  10
ENDBRANCH   8   9
ENDBRANCH   7   8
ENDBRANCH   6   7
ENDBRANCH   5   6
ENDBRANCH   4   5
ENDBRANCH   3   4
ENDBRANCH   2   3
ENDBRANCH   1   2
BRANCH   1  15
ATOM     15  C   UNL     1     -13.613   8.875   0.743  1.00  0.00     0.000 C 
BRANCH  15  16
ATOM     16  C   UNL     1     -13.211   8.941  -0.742  1.00  0.00     0.000 C 
BRANCH  16  17
ATOM     17  C   UNL     1     -14.299   9.486  -1.691  1.00  0.00     0.000 C 
BRANCH  17  18
ATOM     18  C   UNL     1     -13.930   9.475  -3.186  1.00  0.00    -0.000 C 
BRANCH  18  19
ATOM     19  C   UNL     1     -13.225  10.762  -3.637  1.00  0.00    -0.000 C 
BRANCH  19  20
ATOM     20  C   UNL     1     -13.511  11.059  -5.118  1.00  0.00    -0.000 C 
BRANCH  20  21
ATOM     21  C   UNL     1     -13.846  12.537  -5.373  1.00  0.00    -0.000 C 
BRANCH  21  22
ATOM     22  C   UNL     1     -15.356  12.825  -5.294  1.00  0.00    -0.000 C 
BRANCH  22  23
ATOM     23  C   UNL     1     -16.204  11.545  -5.392  1.00  0.00    -0.000 C 
BRANCH  23  24
ATOM     24  C   UNL     1     -17.078  11.321  -4.146  1.00  0.00    -0.000 C 
BRANCH  24  25
ATOM     25  C   UNL     1     -16.802  12.352  -3.041  1.00  0.00    -0.003 C 
ATOM     26  C   UNL     1     -18.070  13.050  -2.549  1.00  0.00     0.004 C 
ENDBRANCH  24  25
ENDBRANCH  23  24
ENDBRANCH  22  23
ENDBRANCH  21  22
ENDBRANCH  20  21
ENDBRANCH  19  20
ENDBRANCH  18  19
ENDBRANCH  17  18
ENDBRANCH  16  17
ENDBRANCH  15  16
ENDBRANCH   1  15
TORSDOF 22
ENDMDL
MODEL 5
REMARK VINA RESULT:    -3.165      4.075     10.038
REMARK INTER + INTRA:          -9.325
REMARK INTER:                  -7.007
REMARK INTRA:                  -2.318
REMARK UNBOUND:                -2.089
REMARK SMILES CCCCCCCCCCCCCCCCCCCCCCCC(=O)[O-]
REMARK SMILES IDX 13 1 14 2 15 3 16 4 17 5 18 6 19 7 20 8 21 9 22 10 23 11
REMARK SMILES IDX 24 12 25 13 26 14 12 15 11 16 10 17 9 18 8 19 7 20 6 21 5 22
REMARK SMILES IDX 4 23 3 24 2 25 1 26
REMARK H PARENT
REMARK Flexibility Score: inf
ROOT
ATOM      1  C   UNL     1     -13.263  10.690   4.376  1.00  0.00     0.000 C 
ENDROOT
BRANCH   1   2
ATOM      2  C   UNL     1     -12.007  10.547   5.263  1.00  0.00     0.000 C 
BRANCH   2   3
ATOM      3  C   UNL     1     -11.998   9.233   6.064  1.00  0.00     0.000 C 
BRANCH   3   4
ATOM      4  C   UNL     1     -13.380   8.880   6.637  1.00  0.00     0.000 C 
BRANCH   4   5
ATOM      5  C   UNL     1     -13.511   9.238   8.128  1.00  0.00     0.000 C 
BRANCH   5   6
ATOM      6  C   UNL     1     -14.973   9.415   8.566  1.00  0.00     0.000 C 
BRANCH   6   7
ATOM      7  C   UNL     1     -15.960   9.311   7.393  1.00  0.00     0.000 C 
BRANCH   7   8
ATOM      8  C   UNL     1     -16.908  10.519   7.367  1.00  0.00     0.000 C 
BRANCH   8   9
ATOM      9  C   UNL     1     -18.378  10.135   7.622  1.00  0.00     0.000 C 
BRANCH   9  10
ATOM     10  C   UNL     1     -18.977  10.687   8.929  1.00  0.00     0.006 C 
BRANCH  10  11
ATOM     11  C   UNL     1     -18.725   9.773  10.135  1.00  0.00     0.053 C 
BRANCH  11  12
ATOM     12  C   UNL     1     -17.967  10.506  11.198  1.00  0.00     0.041 C 
ATOM     13  O   UNL     1     -16.905  11.119  10.914  1.00  0.00    -0.550 OA
ATOM     14  O   UNL     1     -18.416  10.480  12.513  1.00  0.00    -0.550 OA
ENDBRANCH  11  12
ENDBRANCH  10  11
ENDBRANCH   9  10
ENDBRANCH   8   9
ENDBRANCH   7   8
ENDBRANCH   6   7
ENDBRANCH   5   6
ENDBRANCH   4   5
ENDBRANCH   3   4
ENDBRANCH   2   3
ENDBRANCH   1   2
BRANCH   1  15
ATOM     15  C   UNL     1     -13.410   9.573   3.326  1.00  0.00     0.000 C 
BRANCH  15  16
ATOM     16  C   UNL     1     -14.842   9.035   3.148  1.00  0.00     0.000 C 
BRANCH  16  17
ATOM     17  C   UNL     1     -15.960   9.977   3.643  1.00  0.00     0.000 C 
BRANCH  17  18
ATOM     18  C   UNL     1     -17.321   9.801   2.945  1.00  0.00    -0.000 C 
BRANCH  18  19
ATOM     19  C   UNL     1     -17.695  10.993   2.053  1.00  0.00    -0.000 C 
BRANCH  19  20
ATOM     20  C   UNL     1     -17.959  10.541   0.608  1.00  0.00    -0.000 C 
BRANCH  20  21
ATOM     21  C   UNL     1     -17.033   9.396   0.165  1.00  0.00    -0.000 C 
BRANCH  21  22
ATOM     22  C   UNL     1     -15.968   9.853  -0.849  1.00  0.00    -0.000 C 
BRANCH  22  23
ATOM     23  C   UNL     1     -16.487  10.956  -1.788  1.00  0.00    -0.000 C 
BRANCH  23  24
ATOM     24  C   UNL     1     -15.348  11.787  -2.404  1.00  0.00    -0.000 C 
BRANCH  24  25
ATOM     25  C   UNL     1     -15.820  12.636  -3.595  1.00  0.00    -0.003 C 
ATOM     26  C   UNL     1     -17.300  13.009  -3.510  1.00  0.00     0.004 C 
ENDBRANCH  24  25
ENDBRANCH  23  24
ENDBRANCH  22  23
ENDBRANCH  21  22
ENDBRANCH  20  21
ENDBRANCH  19  20
ENDBRANCH  18  19
ENDBRANCH  17  18
ENDBRANCH  16  17
ENDBRANCH  15  16
ENDBRANCH   1  15
TORSDOF 22
ENDMDL
MODEL 6
REMARK VINA RESULT:    -3.043      4.223      9.797
REMARK INTER + INTRA:          -9.045
REMARK INTER:                  -6.926
REMARK INTRA:                  -2.119
REMARK UNBOUND:                -2.089
REMARK SMILES CCCCCCCCCCCCCCCCCCCCCCCC(=O)[O-]
REMARK SMILES IDX 13 1 14 2 15 3 16 4 17 5 18 6 19 7 20 8 21 9 22 10 23 11
REMARK SMILES IDX 24 12 25 13 26 14 12 15 11 16 10 17 9 18 8 19 7 20 6 21 5 22
REMARK SMILES IDX 4 23 3 24 2 25 1 26
REMARK H PARENT
REMARK Flexibility Score: inf
ROOT
ATOM      1  C   UNL     1     -12.295  10.139   4.283  1.00  0.00     0.000 C 
ENDROOT
BRANCH   1   2
ATOM      2  C   UNL     1     -12.106   9.579   5.710  1.00  0.00     0.000 C 
BRANCH   2   3
ATOM      3  C   UNL     1     -13.157  10.116   6.698  1.00  0.00     0.000 C 
BRANCH   3   4
ATOM      4  C   UNL     1     -13.320   9.218   7.934  1.00  0.00     0.000 C 
BRANCH   4   5
ATOM      5  C   UNL     1     -14.792   8.877   8.227  1.00  0.00     0.000 C 
BRANCH   5   6
ATOM      6  C   UNL     1     -15.760   9.544   7.237  1.00  0.00     0.000 C 
BRANCH   6   7
ATOM      7  C   UNL     1     -16.574  10.679   7.877  1.00  0.00     0.000 C 
BRANCH   7   8
ATOM      8  C   UNL     1     -17.977  10.192   8.268  1.00  0.00     0.000 C 
BRANCH   8   9
ATOM      9  C   UNL     1     -18.154  10.027   9.790  1.00  0.00     0.000 C 
BRANCH   9  10
ATOM     10  C   UNL     1     -17.191  10.865  10.652  1.00  0.00     0.006 C 
BRANCH  10  11
ATOM     11  C   UNL     1     -16.181  10.009  11.426  1.00  0.00     0.053 C 
BRANCH  11  12
ATOM     12  C   UNL     1     -15.251  10.878  12.213  1.00  0.00     0.041 C 
ATOM     13  O   UNL     1     -15.707  11.751  12.998  1.00  0.00    -0.550 OA
ATOM     14  O   UNL     1     -13.877  10.749  12.051  1.00  0.00    -0.550 OA
ENDBRANCH  11  12
ENDBRANCH  10  11
ENDBRANCH   9  10
ENDBRANCH   8   9
ENDBRANCH   7   8
ENDBRANCH   6   7
ENDBRANCH   5   6
ENDBRANCH   4   5
ENDBRANCH   3   4
ENDBRANCH   2   3
ENDBRANCH   1   2
BRANCH   1  15
ATOM     15  C   UNL     1     -13.117   9.219   3.361  1.00  0.00     0.000 C 
BRANCH  15  16
ATOM     16  C   UNL     1     -14.572   8.983   3.810  1.00  0.00     0.000 C 
BRANCH  16  17
ATOM     17  C   UNL     1     -15.649   9.422   2.795  1.00  0.00     0.000 C 
BRANCH  17  18
ATOM     18  C   UNL     1     -17.095   9.391   3.322  1.00  0.00    -0.000 C 
BRANCH  18  19
ATOM     19  C   UNL     1     -18.136   9.254   2.202  1.00  0.00    -0.000 C 
BRANCH  19  20
ATOM     20  C   UNL     1     -19.071  10.473   2.164  1.00  0.00    -0.000 C 
BRANCH  20  21
ATOM     21  C   UNL     1     -18.337  11.773   1.798  1.00  0.00    -0.000 C 
BRANCH  21  22
ATOM     22  C   UNL     1     -19.010  12.528   0.638  1.00  0.00    -0.000 C 
BRANCH  22  23
ATOM     23  C   UNL     1     -18.654  11.933  -0.735  1.00  0.00    -0.000 C 
BRANCH  23  24
ATOM     24  C   UNL     1     -17.375  12.546  -1.329  1.00  0.00    -0.000 C 
BRANCH  24  25
ATOM     25  C   UNL     1     -16.384  11.478  -1.819  1.00  0.00    -0.003 C 
ATOM     26  C   UNL     1     -16.197  10.337  -0.819  1.00  0.00     0.004 C 
ENDBRANCH  24  25
ENDBRANCH  23  24
ENDBRANCH  22  23
ENDBRANCH  21  22
ENDBRANCH  20  21
ENDBRANCH  19  20
ENDBRANCH  18  19
ENDBRANCH  17  18
ENDBRANCH  16  17
ENDBRANCH  15  16
ENDBRANCH   1  15
TORSDOF 22
ENDMDL
MODEL 7
REMARK VINA RESULT:    -2.885      3.845      6.936
REMARK INTER + INTRA:          -8.685
REMARK INTER:                  -6.120
REMARK INTRA:                  -2.565
REMARK UNBOUND:                -2.089
REMARK SMILES CCCCCCCCCCCCCCCCCCCCCCCC(=O)[O-]
REMARK SMILES IDX 13 1 14 2 15 3 16 4 17 5 18 6 19 7 20 8 21 9 22 10 23 11
REMARK SMILES IDX 24 12 25 13 26 14 12 15 11 16 10 17 9 18 8 19 7 20 6 21 5 22
REMARK SMILES IDX 4 23 3 24 2 25 1 26
REMARK H PARENT
REMARK Flexibility Score: inf
ROOT
ATOM      1  C   UNL     1     -12.992   9.923  -1.671  1.00  0.00     0.000 C 
ENDROOT
BRANCH   1   2
ATOM      2  C   UNL     1     -13.393  10.990  -2.713  1.00  0.00     0.000 C 
BRANCH   2   3
ATOM      3  C   UNL     1     -12.845  10.679  -4.116  1.00  0.00     0.000 C 
BRANCH   3   4
ATOM      4  C   UNL     1     -13.723  11.258  -5.236  1.00  0.00     0.000 C 
BRANCH   4   5
ATOM      5  C   UNL     1     -14.618  10.194  -5.896  1.00  0.00     0.000 C 
BRANCH   5   6
ATOM      6  C   UNL     1     -16.057  10.686  -6.114  1.00  0.00     0.000 C 
BRANCH   6   7
ATOM      7  C   UNL     1     -17.077   9.950  -5.231  1.00  0.00     0.000 C 
BRANCH   7   8
ATOM      8  C   UNL     1     -17.844  10.938  -4.342  1.00  0.00     0.000 C 
BRANCH   8   9
ATOM      9  C   UNL     1     -17.262  12.364  -4.387  1.00  0.00     0.000 C 
BRANCH   9  10
ATOM     10  C   UNL     1     -17.155  13.067  -3.021  1.00  0.00     0.006 C 
BRANCH  10  11
ATOM     11  C   UNL     1     -18.483  13.677  -2.555  1.00  0.00     0.053 C 
BRANCH  11  12
ATOM     12  C   UNL     1     -18.449  13.945  -1.083  1.00  0.00     0.041 C 
ATOM     13  O   UNL     1     -18.394  15.128  -0.653  1.00  0.00    -0.550 OA
ATOM     14  O   UNL     1     -18.441  12.884  -0.185  1.00  0.00    -0.550 OA
ENDBRANCH  11  12
ENDBRANCH  10  11
ENDBRANCH   9  10
ENDBRANCH   8   9
ENDBRANCH   7   8
ENDBRANCH   6   7
ENDBRANCH   5   6
ENDBRANCH   4   5
ENDBRANCH   3   4
ENDBRANCH   2   3
ENDBRANCH   1   2
BRANCH   1  15
ATOM     15  C   UNL     1     -14.118   8.925  -1.342  1.00  0.00     0.000 C 
BRANCH  15  16
ATOM     16  C   UNL     1     -15.494   9.281  -1.937  1.00  0.00     0.000 C 
BRANCH  16  17
ATOM     17  C   UNL     1     -16.400  10.136  -1.025  1.00  0.00     0.000 C 
BRANCH  17  18
ATOM     18  C   UNL     1     -17.251   9.341  -0.017  1.00  0.00    -0.000 C 
BRANCH  18  19
ATOM     19  C   UNL     1     -16.717   9.432   1.419  1.00  0.00    -0.000 C 
BRANCH  19  20
ATOM     20  C   UNL     1     -17.648  10.275   2.303  1.00  0.00    -0.000 C 
BRANCH  20  21
ATOM     21  C   UNL     1     -17.428  10.028   3.804  1.00  0.00    -0.000 C 
BRANCH  21  22
ATOM     22  C   UNL     1     -15.950   9.771   4.152  1.00  0.00    -0.000 C 
BRANCH  22  23
ATOM     23  C   UNL     1     -15.558  10.360   5.518  1.00  0.00    -0.000 C 
BRANCH  23  24
ATOM     24  C   UNL     1     -14.524  11.493   5.395  1.00  0.00    -0.000 C 
BRANCH  24  25
ATOM     25  C   UNL     1     -13.155  11.104   5.973  1.00  0.00    -0.003 C 
ATOM     26  C   UNL     1     -12.147  10.702   4.896  1.00  0.00     0.004 C 
ENDBRANCH  24  25
ENDBRANCH  23  24
ENDBRANCH  22  23
ENDBRANCH  21  22
ENDBRANCH  20  21
ENDBRANCH  19  20
ENDBRANCH  18  19
ENDBRANCH  17  18
ENDBRANCH  16  17
ENDBRANCH  15  16
ENDBRANCH   1  15
TORSDOF 22
ENDMDL
MODEL 8
REMARK VINA RESULT:    -1.516      2.646      9.681
REMARK INTER + INTRA:          -5.554
REMARK INTER:                  -3.573
REMARK INTRA:                  -1.981
REMARK UNBOUND:                -2.089
REMARK SMILES CCCCCCCCCCCCCCCCCCCCCCCC(=O)[O-]
REMARK SMILES IDX 13 1 14 2 15 3 16 4 17 5 18 6 19 7 20 8 21 9 22 10 23 11
REMARK SMILES IDX 24 12 25 13 26 14 12 15 11 16 10 17 9 18 8 19 7 20 6 21 5 22
REMARK SMILES IDX 4 23 3 24 2 25 1 26
REMARK H PARENT
REMARK Flexibility Score: inf
ROOT
ATOM      1  C   UNL     1     -16.832  10.742  10.814  1.00  0.00     0.000 C 
ENDROOT
BRANCH   1   2
ATOM      2  C   UNL     1     -17.258  11.536  12.068  1.00  0.00     0.000 C 
BRANCH   2   3
ATOM      3  C   UNL     1     -16.067  11.880  12.981  1.00  0.00     0.000 C 
BRANCH   3   4
ATOM      4  C   UNL     1     -15.757  10.765  13.992  1.00  0.00     0.000 C 
BRANCH   4   5
ATOM      5  C   UNL     1     -14.606   9.853  13.530  1.00  0.00     0.000 C 
BRANCH   5   6
ATOM      6  C   UNL     1     -13.636  10.564  12.574  1.00  0.00     0.000 C 
BRANCH   6   7
ATOM      7  C   UNL     1     -12.992   9.606  11.561  1.00  0.00     0.000 C 
BRANCH   7   8
ATOM      8  C   UNL     1     -13.958   9.298  10.409  1.00  0.00     0.000 C 
BRANCH   8   9
ATOM      9  C   UNL     1     -13.236   9.021   9.076  1.00  0.00     0.000 C 
BRANCH   9  10
ATOM     10  C   UNL     1     -13.926   9.605   7.829  1.00  0.00     0.006 C 
BRANCH  10  11
ATOM     11  C   UNL     1     -13.048   9.538   6.573  1.00  0.00     0.053 C 
BRANCH  11  12
ATOM     12  C   UNL     1     -12.883  10.900   5.975  1.00  0.00     0.041 C 
ATOM     13  O   UNL     1     -11.750  11.295   5.593  1.00  0.00    -0.550 OA
ATOM     14  O   UNL     1     -13.978  11.750   5.874  1.00  0.00    -0.550 OA
ENDBRANCH  11  12
ENDBRANCH  10  11
ENDBRANCH   9  10
ENDBRANCH   8   9
ENDBRANCH   7   8
ENDBRANCH   6   7
ENDBRANCH   5   6
ENDBRANCH   4   5
ENDBRANCH   3   4
ENDBRANCH   2   3
ENDBRANCH   1   2
BRANCH   1  15
ATOM     15  C   UNL     1     -17.981  10.494   9.819  1.00  0.00     0.000 C 
BRANCH  15  16
ATOM     16  C   UNL     1     -17.541  10.315   8.353  1.00  0.00     0.000 C 
BRANCH  16  17
ATOM     17  C   UNL     1     -17.806   8.915   7.758  1.00  0.00     0.000 C 
BRANCH  17  18
ATOM     18  C   UNL     1     -17.969   8.875   6.227  1.00  0.00    -0.000 C 
BRANCH  18  19
ATOM     19  C   UNL     1     -17.150   9.957   5.510  1.00  0.00    -0.000 C 
BRANCH  19  20
ATOM     20  C   UNL     1     -16.185   9.335   4.489  1.00  0.00    -0.000 C 
BRANCH  20  21
ATOM     21  C   UNL     1     -16.889   8.907   3.191  1.00  0.00    -0.000 C 
BRANCH  21  22
ATOM     22  C   UNL     1     -16.776   9.964   2.078  1.00  0.00    -0.000 C 
BRANCH  22  23
ATOM     23  C   UNL     1     -16.874   9.348   0.672  1.00  0.00    -0.000 C 
BRANCH  23  24
ATOM     24  C   UNL     1     -17.241  10.388  -0.402  1.00  0.00    -0.000 C 
BRANCH  24  25
ATOM     25  C   UNL     1     -16.159  10.519  -1.486  1.00  0.00    -0.003 C 
ATOM     26  C   UNL     1     -16.043  11.940  -2.039  1.00  0.00     0.004 C 
ENDBRANCH  24  25
ENDBRANCH  23  24
ENDBRANCH  22  23
ENDBRANCH  21  22
ENDBRANCH  20  21
ENDBRANCH  19  20
ENDBRANCH  18  19
ENDBRANCH  17  18
ENDBRANCH  16  17
ENDBRANCH  15  16
ENDBRANCH   1  15
TORSDOF 22
ENDMDL
