MODEL 1
REMARK VINA RESULT:    -2.733      0.000      0.000
REMARK INTER + INTRA:          -3.083
REMARK INTER:                  -3.053
REMARK INTRA:                  -0.031
REMARK UNBOUND:                -0.031
REMARK SMILES O=C([O-])c1ccccc1C(=O)[O-]
REMARK SMILES IDX 4 1 9 2 5 3 8 4 6 5 7 6 2 7 1 8 3 9 10 10 11 11 12 12
REMARK H PARENT
REMARK Flexibility Score: inf
ROOT
ATOM      1  C   UNL     1      -3.294  36.837  18.123  1.00  0.00     0.006 A 
ATOM      2  C   UNL     1      -1.942  37.240  17.933  1.00  0.00     0.006 A 
ATOM      3  C   UNL     1      -4.007  36.296  17.037  1.00  0.00     0.010 A 
ATOM      4  C   UNL     1      -1.334  37.026  16.683  1.00  0.00     0.010 A 
ATOM      5  C   UNL     1      -3.390  36.115  15.799  1.00  0.00     0.001 A 
ATOM      6  C   UNL     1      -2.054  36.468  15.625  1.00  0.00     0.001 A 
ENDROOT
BRANCH   1   7
ATOM      7  C   UNL     1      -3.968  36.895  19.441  1.00  0.00     0.072 C 
ATOM      8  O   UNL     1      -4.633  37.914  19.769  1.00  0.00    -0.545 OA
ATOM      9  O   UNL     1      -3.932  35.807  20.306  1.00  0.00    -0.545 OA
ENDBRANCH   1   7
BRANCH   2  10
ATOM     10  C   UNL     1      -1.157  37.941  18.975  1.00  0.00     0.072 C 
ATOM     11  O   UNL     1      -0.621  39.056  18.737  1.00  0.00    -0.545 OA
ATOM     12  O   UNL     1      -0.946  37.341  20.211  1.00  0.00    -0.545 OA
ENDBRANCH   2  10
TORSDOF 2
ENDMDL
MODEL 2
REMARK VINA RESULT:    -2.623      0.066      2.890
REMARK INTER + INTRA:          -2.961
REMARK INTER:                  -2.972
REMARK INTRA:                   0.012
REMARK UNBOUND:                -0.031
REMARK SMILES O=C([O-])c1ccccc1C(=O)[O-]
REMARK SMILES IDX 4 1 9 2 5 3 8 4 6 5 7 6 2 7 1 8 3 9 10 10 11 11 12 12
REMARK H PARENT
REMARK Flexibility Score: inf
ROOT
ATOM      1  C   UNL     1      -1.966  37.216  17.905  1.00  0.00     0.006 A 
ATOM      2  C   UNL     1      -3.323  36.824  18.078  1.00  0.00     0.006 A 
ATOM      3  C   UNL     1      -1.343  36.999  16.663  1.00  0.00     0.010 A 
ATOM      4  C   UNL     1      -4.025  36.289  16.982  1.00  0.00     0.010 A 
ATOM      5  C   UNL     1      -2.052  36.445  15.596  1.00  0.00     0.001 A 
ATOM      6  C   UNL     1      -3.394  36.101  15.752  1.00  0.00     0.001 A 
ENDROOT
BRANCH   1   7
ATOM      7  C   UNL     1      -1.196  37.915  18.960  1.00  0.00     0.072 C 
ATOM      8  O   UNL     1      -0.692  39.047  18.732  1.00  0.00    -0.545 OA
ATOM      9  O   UNL     1      -1.072  37.366  20.231  1.00  0.00    -0.545 OA
ENDBRANCH   1   7
BRANCH   2  10
ATOM     10  C   UNL     1      -4.021  36.887  19.383  1.00  0.00     0.072 C 
ATOM     11  O   UNL     1      -4.600  37.942  19.754  1.00  0.00    -0.545 OA
ATOM     12  O   UNL     1      -3.986  35.797  20.246  1.00  0.00    -0.545 OA
ENDBRANCH   2  10
TORSDOF 2
ENDMDL
MODEL 3
REMARK VINA RESULT:    -2.506      1.914      3.641
REMARK INTER + INTRA:          -2.829
REMARK INTER:                  -2.804
REMARK INTRA:                  -0.025
REMARK UNBOUND:                -0.031
REMARK SMILES O=C([O-])c1ccccc1C(=O)[O-]
REMARK SMILES IDX 4 1 9 2 5 3 8 4 6 5 7 6 2 7 1 8 3 9 10 10 11 11 12 12
REMARK H PARENT
REMARK Flexibility Score: inf
ROOT
ATOM      1  C   UNL     1      -2.619  37.225  19.158  1.00  0.00     0.006 A 
ATOM      2  C   UNL     1      -3.240  36.709  17.986  1.00  0.00     0.006 A 
ATOM      3  C   UNL     1      -3.269  37.078  20.398  1.00  0.00     0.010 A 
ATOM      4  C   UNL     1      -4.454  36.009  18.106  1.00  0.00     0.010 A 
ATOM      5  C   UNL     1      -4.484  36.400  20.490  1.00  0.00     0.001 A 
ATOM      6  C   UNL     1      -5.070  35.856  19.348  1.00  0.00     0.001 A 
ENDROOT
BRANCH   1   7
ATOM      7  C   UNL     1      -1.276  37.850  19.143  1.00  0.00     0.072 C 
ATOM      8  O   UNL     1      -1.073  38.898  18.473  1.00  0.00    -0.545 OA
ATOM      9  O   UNL     1      -0.243  37.333  19.916  1.00  0.00    -0.545 OA
ENDBRANCH   1   7
BRANCH   2  10
ATOM     10  C   UNL     1      -2.701  36.934  16.624  1.00  0.00     0.072 C 
ATOM     11  O   UNL     1      -3.161  37.850  15.892  1.00  0.00    -0.545 OA
ATOM     12  O   UNL     1      -1.723  36.088  16.113  1.00  0.00    -0.545 OA
ENDBRANCH   2  10
TORSDOF 2
ENDMDL
MODEL 4
REMARK VINA RESULT:    -2.409      2.037      3.251
REMARK INTER + INTRA:          -2.721
REMARK INTER:                  -2.728
REMARK INTRA:                   0.007
REMARK UNBOUND:                -0.031
REMARK SMILES O=C([O-])c1ccccc1C(=O)[O-]
REMARK SMILES IDX 4 1 9 2 5 3 8 4 6 5 7 6 2 7 1 8 3 9 10 10 11 11 12 12
REMARK H PARENT
REMARK Flexibility Score: inf
ROOT
ATOM      1  C   UNL     1      -2.963  37.161  18.907  1.00  0.00     0.006 A 
ATOM      2  C   UNL     1      -2.496  37.131  17.563  1.00  0.00     0.006 A 
ATOM      3  C   UNL     1      -2.069  37.511  19.935  1.00  0.00     0.010 A 
ATOM      4  C   UNL     1      -1.170  37.515  17.291  1.00  0.00     0.010 A 
ATOM      5  C   UNL     1      -0.751  37.866  19.644  1.00  0.00     0.001 A 
ATOM      6  C   UNL     1      -0.306  37.879  18.324  1.00  0.00     0.001 A 
ENDROOT
BRANCH   1   7
ATOM      7  C   UNL     1      -4.378  36.909  19.267  1.00  0.00     0.072 C 
ATOM      8  O   UNL     1      -5.125  37.865  19.608  1.00  0.00    -0.545 OA
ATOM      9  O   UNL     1      -4.918  35.632  19.172  1.00  0.00    -0.545 OA
ENDBRANCH   1   7
BRANCH   2  10
ATOM     10  C   UNL     1      -3.322  36.646  16.433  1.00  0.00     0.072 C 
ATOM     11  O   UNL     1      -3.644  35.431  16.345  1.00  0.00    -0.545 OA
ATOM     12  O   UNL     1      -3.698  37.519  15.418  1.00  0.00    -0.545 OA
ENDBRANCH   2  10
TORSDOF 2
ENDMDL
MODEL 5
REMARK VINA RESULT:    -0.922      1.583      2.439
REMARK INTER + INTRA:          -1.061
REMARK INTER:                  -0.941
REMARK INTRA:                  -0.119
REMARK UNBOUND:                -0.031
REMARK SMILES O=C([O-])c1ccccc1C(=O)[O-]
REMARK SMILES IDX 4 1 9 2 5 3 8 4 6 5 7 6 2 7 1 8 3 9 10 10 11 11 12 12
REMARK H PARENT
REMARK Flexibility Score: inf
ROOT
ATOM      1  C   UNL     1      -4.124  35.704  19.746  1.00  0.00     0.006 A 
ATOM      2  C   UNL     1      -3.342  36.711  19.114  1.00  0.00     0.006 A 
ATOM      3  C   UNL     1      -4.859  34.806  18.950  1.00  0.00     0.010 A 
ATOM      4  C   UNL     1      -3.273  36.742  17.709  1.00  0.00     0.010 A 
ATOM      5  C   UNL     1      -4.793  34.870  17.558  1.00  0.00     0.001 A 
ATOM      6  C   UNL     1      -3.993  35.828  16.939  1.00  0.00     0.001 A 
ENDROOT
BRANCH   1   7
ATOM      7  C   UNL     1      -4.142  35.510  21.215  1.00  0.00     0.072 C 
ATOM      8  O   UNL     1      -3.229  34.850  21.778  1.00  0.00    -0.545 OA
ATOM      9  O   UNL     1      -5.125  36.106  21.998  1.00  0.00    -0.545 OA
ENDBRANCH   1   7
BRANCH   2  10
ATOM     10  C   UNL     1      -2.646  37.781  19.865  1.00  0.00     0.072 C 
ATOM     11  O   UNL     1      -3.296  38.617  20.548  1.00  0.00    -0.545 OA
ATOM     12  O   UNL     1      -1.265  37.914  19.771  1.00  0.00    -0.545 OA
ENDBRANCH   2  10
TORSDOF 2
ENDMDL
MODEL 6
REMARK VINA RESULT:    -0.921      1.693      3.566
REMARK INTER + INTRA:          -1.060
REMARK INTER:                  -0.973
REMARK INTRA:                  -0.087
REMARK UNBOUND:                -0.031
REMARK SMILES O=C([O-])c1ccccc1C(=O)[O-]
REMARK SMILES IDX 4 1 9 2 5 3 8 4 6 5 7 6 2 7 1 8 3 9 10 10 11 11 12 12
REMARK H PARENT
REMARK Flexibility Score: inf
ROOT
ATOM      1  C   UNL     1      -3.499  36.573  19.189  1.00  0.00     0.006 A 
ATOM      2  C   UNL     1      -4.184  35.554  19.910  1.00  0.00     0.006 A 
ATOM      3  C   UNL     1      -3.520  36.549  17.783  1.00  0.00     0.010 A 
ATOM      4  C   UNL     1      -4.917  34.588  19.197  1.00  0.00     0.010 A 
ATOM      5  C   UNL     1      -4.235  35.568  17.096  1.00  0.00     0.001 A 
ATOM      6  C   UNL     1      -4.942  34.596  17.802  1.00  0.00     0.001 A 
ENDROOT
BRANCH   1   7
ATOM      7  C   UNL     1      -2.820  37.707  19.859  1.00  0.00     0.072 C 
ATOM      8  O   UNL     1      -3.473  38.487  20.603  1.00  0.00    -0.545 OA
ATOM      9  O   UNL     1      -1.448  37.889  19.731  1.00  0.00    -0.545 OA
ENDBRANCH   1   7
BRANCH   2  10
ATOM     10  C   UNL     1      -4.106  35.418  21.382  1.00  0.00     0.072 C 
ATOM     11  O   UNL     1      -3.160  34.786  21.923  1.00  0.00    -0.545 OA
ATOM     12  O   UNL     1      -5.119  35.933  22.184  1.00  0.00    -0.545 OA
ENDBRANCH   2  10
TORSDOF 2
ENDMDL
MODEL 7
REMARK VINA RESULT:    -0.249      1.967      3.240
REMARK INTER + INTRA:          -0.309
REMARK INTER:                  -0.448
REMARK INTRA:                   0.139
REMARK UNBOUND:                -0.031
REMARK SMILES O=C([O-])c1ccccc1C(=O)[O-]
REMARK SMILES IDX 4 1 9 2 5 3 8 4 6 5 7 6 2 7 1 8 3 9 10 10 11 11 12 12
REMARK H PARENT
REMARK Flexibility Score: inf
ROOT
ATOM      1  C   UNL     1      -3.318  36.465  17.856  1.00  0.00     0.006 A 
ATOM      2  C   UNL     1      -2.830  37.024  19.071  1.00  0.00     0.006 A 
ATOM      3  C   UNL     1      -4.455  35.637  17.892  1.00  0.00     0.010 A 
ATOM      4  C   UNL     1      -3.534  36.786  20.265  1.00  0.00     0.010 A 
ATOM      5  C   UNL     1      -5.125  35.396  19.092  1.00  0.00     0.001 A 
ATOM      6  C   UNL     1      -4.672  35.979  20.274  1.00  0.00     0.001 A 
ENDROOT
BRANCH   1   7
ATOM      7  C   UNL     1      -2.722  36.777  16.537  1.00  0.00     0.072 C 
ATOM      8  O   UNL     1      -1.765  36.087  16.095  1.00  0.00    -0.545 OA
ATOM      9  O   UNL     1      -3.249  37.787  15.740  1.00  0.00    -0.545 OA
ENDBRANCH   1   7
BRANCH   2  10
ATOM     10  C   UNL     1      -1.567  37.793  19.153  1.00  0.00     0.072 C 
ATOM     11  O   UNL     1      -1.306  38.696  18.315  1.00  0.00    -0.545 OA
ATOM     12  O   UNL     1      -0.621  37.480  20.124  1.00  0.00    -0.545 OA
ENDBRANCH   2  10
TORSDOF 2
ENDMDL
