MODEL 1
REMARK VINA RESULT:    -4.665      0.000      0.000
REMARK INTER + INTRA:         -11.006
REMARK INTER:                  -8.483
REMARK INTRA:                  -2.523
REMARK UNBOUND:                -2.523
REMARK SMILES CCCCCCCCCCCCCCCC(=O)[O-]
REMARK SMILES IDX 9 1 10 2 11 3 12 4 13 5 14 6 15 7 16 8 17 9 18 10 8 11 7 12
REMARK SMILES IDX 6 13 5 14 4 15 3 16 2 17 1 18
REMARK H PARENT
REMARK Flexibility Score: inf
ROOT
ATOM      1  C   UNL     1      61.933  29.351  13.867  1.00  0.00     0.000 C 
ENDROOT
BRANCH   1   2
ATOM      2  C   UNL     1      63.403  29.256  13.427  1.00  0.00     0.000 C 
BRANCH   2   3
ATOM      3  C   UNL     1      64.228  30.476  13.859  1.00  0.00     0.000 C 
BRANCH   3   4
ATOM      4  C   UNL     1      64.674  31.295  12.640  1.00  0.00     0.000 C 
BRANCH   4   5
ATOM      5  C   UNL     1      63.915  32.626  12.500  1.00  0.00     0.000 C 
BRANCH   5   6
ATOM      6  C   UNL     1      63.282  33.162  13.799  1.00  0.00     0.006 C 
BRANCH   6   7
ATOM      7  C   UNL     1      61.764  33.406  13.705  1.00  0.00     0.053 C 
BRANCH   7   8
ATOM      8  C   UNL     1      60.999  32.659  14.757  1.00  0.00     0.041 C 
ATOM      9  O   UNL     1      59.797  32.336  14.558  1.00  0.00    -0.550 OA
ATOM     10  O   UNL     1      61.599  32.354  15.972  1.00  0.00    -0.550 OA
ENDBRANCH   7   8
ENDBRANCH   6   7
ENDBRANCH   5   6
ENDBRANCH   4   5
ENDBRANCH   3   4
ENDBRANCH   2   3
ENDBRANCH   1   2
BRANCH   1  11
ATOM     11  C   UNL     1      60.953  29.240  12.685  1.00  0.00     0.000 C 
BRANCH  11  12
ATOM     12  C   UNL     1      61.130  30.374  11.661  1.00  0.00    -0.000 C 
BRANCH  12  13
ATOM     13  C   UNL     1      60.898  29.904  10.216  1.00  0.00    -0.000 C 
BRANCH  13  14
ATOM     14  C   UNL     1      62.174  29.957   9.354  1.00  0.00    -0.000 C 
BRANCH  14  15
ATOM     15  C   UNL     1      63.351  29.106   9.867  1.00  0.00    -0.000 C 
BRANCH  15  16
ATOM     16  C   UNL     1      64.711  29.569   9.320  1.00  0.00    -0.000 C 
BRANCH  16  17
ATOM     17  C   UNL     1      64.725  31.066   8.967  1.00  0.00    -0.003 C 
ATOM     18  C   UNL     1      66.121  31.681   9.054  1.00  0.00     0.004 C 
ENDBRANCH  16  17
ENDBRANCH  15  16
ENDBRANCH  14  15
ENDBRANCH  13  14
ENDBRANCH  12  13
ENDBRANCH  11  12
ENDBRANCH   1  11
TORSDOF 14
ENDMDL
MODEL 2
REMARK VINA RESULT:    -4.552      0.892      3.467
REMARK INTER + INTRA:         -10.801
REMARK INTER:                  -8.623
REMARK INTRA:                  -2.178
REMARK UNBOUND:                -2.523
REMARK SMILES CCCCCCCCCCCCCCCC(=O)[O-]
REMARK SMILES IDX 9 1 10 2 11 3 12 4 13 5 14 6 15 7 16 8 17 9 18 10 8 11 7 12
REMARK SMILES IDX 6 13 5 14 4 15 3 16 2 17 1 18
REMARK H PARENT
REMARK Flexibility Score: inf
ROOT
ATOM      1  C   UNL     1      65.601  30.782   9.641  1.00  0.00     0.000 C 
ENDROOT
BRANCH   1   2
ATOM      2  C   UNL     1      65.485  32.139  10.354  1.00  0.00     0.000 C 
BRANCH   2   3
ATOM      3  C   UNL     1      64.572  32.082  11.587  1.00  0.00     0.000 C 
BRANCH   3   4
ATOM      4  C   UNL     1      65.152  32.916  12.737  1.00  0.00     0.000 C 
BRANCH   4   5
ATOM      5  C   UNL     1      64.114  33.248  13.823  1.00  0.00     0.000 C 
BRANCH   5   6
ATOM      6  C   UNL     1      62.651  33.301  13.340  1.00  0.00     0.006 C 
BRANCH   6   7
ATOM      7  C   UNL     1      61.648  33.745  14.421  1.00  0.00     0.053 C 
BRANCH   7   8
ATOM      8  C   UNL     1      60.891  32.590  15.008  1.00  0.00     0.041 C 
ATOM      9  O   UNL     1      59.840  32.173  14.454  1.00  0.00    -0.550 OA
ATOM     10  O   UNL     1      61.325  31.998  16.188  1.00  0.00    -0.550 OA
ENDBRANCH   7   8
ENDBRANCH   6   7
ENDBRANCH   5   6
ENDBRANCH   4   5
ENDBRANCH   3   4
ENDBRANCH   2   3
ENDBRANCH   1   2
BRANCH   1  11
ATOM     11  C   UNL     1      64.596  29.746  10.176  1.00  0.00     0.000 C 
BRANCH  11  12
ATOM     12  C   UNL     1      63.539  29.350   9.132  1.00  0.00    -0.000 C 
BRANCH  12  13
ATOM     13  C   UNL     1      62.212  28.914   9.773  1.00  0.00    -0.000 C 
BRANCH  13  14
ATOM     14  C   UNL     1      61.284  30.099  10.102  1.00  0.00    -0.000 C 
BRANCH  14  15
ATOM     15  C   UNL     1      61.197  30.471  11.594  1.00  0.00    -0.000 C 
BRANCH  15  16
ATOM     16  C   UNL     1      60.583  29.355  12.455  1.00  0.00    -0.000 C 
BRANCH  16  17
ATOM     17  C   UNL     1      61.440  29.024  13.688  1.00  0.00    -0.003 C 
ATOM     18  C   UNL     1      62.887  29.497  13.549  1.00  0.00     0.004 C 
ENDBRANCH  16  17
ENDBRANCH  15  16
ENDBRANCH  14  15
ENDBRANCH  13  14
ENDBRANCH  12  13
ENDBRANCH  11  12
ENDBRANCH   1  11
TORSDOF 14
ENDMDL
MODEL 3
REMARK VINA RESULT:    -4.552      2.947      5.635
REMARK INTER + INTRA:         -10.801
REMARK INTER:                  -8.704
REMARK INTRA:                  -2.097
REMARK UNBOUND:                -2.523
REMARK SMILES CCCCCCCCCCCCCCCC(=O)[O-]
REMARK SMILES IDX 9 1 10 2 11 3 12 4 13 5 14 6 15 7 16 8 17 9 18 10 8 11 7 12
REMARK SMILES IDX 6 13 5 14 4 15 3 16 2 17 1 18
REMARK H PARENT
REMARK Flexibility Score: inf
ROOT
ATOM      1  C   UNL     1      60.271  29.287  12.369  1.00  0.00     0.000 C 
ENDROOT
BRANCH   1   2
ATOM      2  C   UNL     1      60.886  29.971  11.138  1.00  0.00     0.000 C 
BRANCH   2   3
ATOM      3  C   UNL     1      60.635  29.187   9.841  1.00  0.00     0.000 C 
BRANCH   3   4
ATOM      4  C   UNL     1      61.935  28.557   9.323  1.00  0.00     0.000 C 
BRANCH   4   5
ATOM      5  C   UNL     1      63.055  29.587   9.099  1.00  0.00     0.000 C 
BRANCH   5   6
ATOM      6  C   UNL     1      64.332  29.363   9.934  1.00  0.00     0.006 C 
BRANCH   6   7
ATOM      7  C   UNL     1      64.922  30.651  10.537  1.00  0.00     0.053 C 
BRANCH   7   8
ATOM      8  C   UNL     1      65.849  31.354   9.590  1.00  0.00     0.041 C 
ATOM      9  O   UNL     1      66.970  30.854   9.310  1.00  0.00    -0.550 OA
ATOM     10  O   UNL     1      65.491  32.582   9.047  1.00  0.00    -0.550 OA
ENDBRANCH   7   8
ENDBRANCH   6   7
ENDBRANCH   5   6
ENDBRANCH   4   5
ENDBRANCH   3   4
ENDBRANCH   2   3
ENDBRANCH   1   2
BRANCH   1  11
ATOM     11  C   UNL     1      61.337  28.793  13.364  1.00  0.00     0.000 C 
BRANCH  11  12
ATOM     12  C   UNL     1      62.705  29.462  13.149  1.00  0.00    -0.000 C 
BRANCH  12  13
ATOM     13  C   UNL     1      63.258  30.098  14.435  1.00  0.00    -0.000 C 
BRANCH  13  14
ATOM     14  C   UNL     1      62.151  30.543  15.410  1.00  0.00    -0.000 C 
BRANCH  14  15
ATOM     15  C   UNL     1      61.876  32.057  15.446  1.00  0.00    -0.000 C 
BRANCH  15  16
ATOM     16  C   UNL     1      60.796  32.496  14.444  1.00  0.00    -0.000 C 
BRANCH  16  17
ATOM     17  C   UNL     1      61.393  33.013  13.124  1.00  0.00    -0.003 C 
ATOM     18  C   UNL     1      62.882  33.337  13.234  1.00  0.00     0.004 C 
ENDBRANCH  16  17
ENDBRANCH  15  16
ENDBRANCH  14  15
ENDBRANCH  13  14
ENDBRANCH  12  13
ENDBRANCH  11  12
ENDBRANCH   1  11
TORSDOF 14
ENDMDL
MODEL 4
REMARK VINA RESULT:    -4.511      1.380      1.935
REMARK INTER + INTRA:         -10.726
REMARK INTER:                  -8.371
REMARK INTRA:                  -2.355
REMARK UNBOUND:                -2.523
REMARK SMILES CCCCCCCCCCCCCCCC(=O)[O-]
REMARK SMILES IDX 9 1 10 2 11 3 12 4 13 5 14 6 15 7 16 8 17 9 18 10 8 11 7 12
REMARK SMILES IDX 6 13 5 14 4 15 3 16 2 17 1 18
REMARK H PARENT
REMARK Flexibility Score: inf
ROOT
ATOM      1  C   UNL     1      63.013  29.279  13.661  1.00  0.00     0.000 C 
ENDROOT
BRANCH   1   2
ATOM      2  C   UNL     1      63.777  30.534  14.114  1.00  0.00     0.000 C 
BRANCH   2   3
ATOM      3  C   UNL     1      64.346  31.336  12.934  1.00  0.00     0.000 C 
BRANCH   3   4
ATOM      4  C   UNL     1      63.743  32.748  12.892  1.00  0.00     0.000 C 
BRANCH   4   5
ATOM      5  C   UNL     1      62.213  32.753  13.043  1.00  0.00     0.000 C 
BRANCH   5   6
ATOM      6  C   UNL     1      61.656  33.752  14.077  1.00  0.00     0.006 C 
BRANCH   6   7
ATOM      7  C   UNL     1      61.597  33.201  15.514  1.00  0.00     0.053 C 
BRANCH   7   8
ATOM      8  C   UNL     1      62.545  33.907  16.437  1.00  0.00     0.041 C 
ATOM      9  O   UNL     1      63.582  34.459  15.982  1.00  0.00    -0.550 OA
ATOM     10  O   UNL     1      62.305  33.922  17.806  1.00  0.00    -0.550 OA
ENDBRANCH   7   8
ENDBRANCH   6   7
ENDBRANCH   5   6
ENDBRANCH   4   5
ENDBRANCH   3   4
ENDBRANCH   2   3
ENDBRANCH   1   2
BRANCH   1  11
ATOM     11  C   UNL     1      61.516  29.340  14.013  1.00  0.00     0.000 C 
BRANCH  11  12
ATOM     12  C   UNL     1      60.615  29.386  12.768  1.00  0.00    -0.000 C 
BRANCH  12  13
ATOM     13  C   UNL     1      61.332  28.889  11.503  1.00  0.00    -0.000 C 
BRANCH  13  14
ATOM     14  C   UNL     1      61.289  29.908  10.348  1.00  0.00    -0.000 C 
BRANCH  14  15
ATOM     15  C   UNL     1      62.663  30.368   9.826  1.00  0.00    -0.000 C 
BRANCH  15  16
ATOM     16  C   UNL     1      63.743  29.279   9.936  1.00  0.00    -0.000 C 
BRANCH  16  17
ATOM     17  C   UNL     1      65.037  29.656   9.197  1.00  0.00    -0.003 C 
ATOM     18  C   UNL     1      65.432  31.118   9.401  1.00  0.00     0.004 C 
ENDBRANCH  16  17
ENDBRANCH  15  16
ENDBRANCH  14  15
ENDBRANCH  13  14
ENDBRANCH  12  13
ENDBRANCH  11  12
ENDBRANCH   1  11
TORSDOF 14
ENDMDL
MODEL 5
REMARK VINA RESULT:    -4.428      2.134      3.424
REMARK INTER + INTRA:         -10.576
REMARK INTER:                  -8.646
REMARK INTRA:                  -1.930
REMARK UNBOUND:                -2.523
REMARK SMILES CCCCCCCCCCCCCCCC(=O)[O-]
REMARK SMILES IDX 9 1 10 2 11 3 12 4 13 5 14 6 15 7 16 8 17 9 18 10 8 11 7 12
REMARK SMILES IDX 6 13 5 14 4 15 3 16 2 17 1 18
REMARK H PARENT
REMARK Flexibility Score: inf
ROOT
ATOM      1  C   UNL     1      60.697  29.696  12.493  1.00  0.00     0.000 C 
ENDROOT
BRANCH   1   2
ATOM      2  C   UNL     1      60.755  30.963  13.363  1.00  0.00     0.000 C 
BRANCH   2   3
ATOM      3  C   UNL     1      61.410  32.147  12.639  1.00  0.00     0.000 C 
BRANCH   3   4
ATOM      4  C   UNL     1      61.699  33.295  13.617  1.00  0.00     0.000 C 
BRANCH   4   5
ATOM      5  C   UNL     1      61.172  33.021  15.036  1.00  0.00     0.000 C 
BRANCH   5   6
ATOM      6  C   UNL     1      62.164  33.325  16.176  1.00  0.00     0.006 C 
BRANCH   6   7
ATOM      7  C   UNL     1      62.015  34.734  16.780  1.00  0.00     0.053 C 
BRANCH   7   8
ATOM      8  C   UNL     1      62.646  34.845  18.136  1.00  0.00     0.041 C 
ATOM      9  O   UNL     1      62.042  34.416  19.154  1.00  0.00    -0.550 OA
ATOM     10  O   UNL     1      63.885  35.459  18.281  1.00  0.00    -0.550 OA
ENDBRANCH   7   8
ENDBRANCH   6   7
ENDBRANCH   5   6
ENDBRANCH   4   5
ENDBRANCH   3   4
ENDBRANCH   2   3
ENDBRANCH   1   2
BRANCH   1  11
ATOM     11  C   UNL     1      60.727  30.013  10.987  1.00  0.00     0.000 C 
BRANCH  11  12
ATOM     12  C   UNL     1      61.213  28.825  10.141  1.00  0.00    -0.000 C 
BRANCH  12  13
ATOM     13  C   UNL     1      62.153  29.257   9.004  1.00  0.00    -0.000 C 
BRANCH  13  14
ATOM     14  C   UNL     1      63.245  30.241   9.467  1.00  0.00    -0.000 C 
BRANCH  14  15
ATOM     15  C   UNL     1      64.301  29.650  10.419  1.00  0.00    -0.000 C 
BRANCH  15  16
ATOM     16  C   UNL     1      64.536  30.516  11.667  1.00  0.00    -0.000 C 
BRANCH  16  17
ATOM     17  C   UNL     1      64.364  29.725  12.974  1.00  0.00    -0.003 C 
ATOM     18  C   UNL     1      64.379  30.619  14.214  1.00  0.00     0.004 C 
ENDBRANCH  16  17
ENDBRANCH  15  16
ENDBRANCH  14  15
ENDBRANCH  13  14
ENDBRANCH  12  13
ENDBRANCH  11  12
ENDBRANCH   1  11
TORSDOF 14
ENDMDL
MODEL 6
REMARK VINA RESULT:    -4.340      1.972      3.416
REMARK INTER + INTRA:         -10.416
REMARK INTER:                  -8.499
REMARK INTRA:                  -1.917
REMARK UNBOUND:                -2.523
REMARK SMILES CCCCCCCCCCCCCCCC(=O)[O-]
REMARK SMILES IDX 9 1 10 2 11 3 12 4 13 5 14 6 15 7 16 8 17 9 18 10 8 11 7 12
REMARK SMILES IDX 6 13 5 14 4 15 3 16 2 17 1 18
REMARK H PARENT
REMARK Flexibility Score: inf
ROOT
ATOM      1  C   UNL     1      61.797  29.661  13.891  1.00  0.00     0.000 C 
ENDROOT
BRANCH   1   2
ATOM      2  C   UNL     1      61.080  30.535  12.848  1.00  0.00     0.000 C 
BRANCH   2   3
ATOM      3  C   UNL     1      60.663  31.902  13.410  1.00  0.00     0.000 C 
BRANCH   3   4
ATOM      4  C   UNL     1      61.659  32.992  12.991  1.00  0.00     0.000 C 
BRANCH   4   5
ATOM      5  C   UNL     1      62.512  33.509  14.163  1.00  0.00     0.000 C 
BRANCH   5   6
ATOM      6  C   UNL     1      61.718  33.971  15.401  1.00  0.00     0.006 C 
BRANCH   6   7
ATOM      7  C   UNL     1      62.300  33.482  16.740  1.00  0.00     0.053 C 
BRANCH   7   8
ATOM      8  C   UNL     1      63.075  34.551  17.452  1.00  0.00     0.041 C 
ATOM      9  O   UNL     1      64.187  34.936  17.002  1.00  0.00    -0.550 OA
ATOM     10  O   UNL     1      62.588  35.095  18.635  1.00  0.00    -0.550 OA
ENDBRANCH   7   8
ENDBRANCH   6   7
ENDBRANCH   5   6
ENDBRANCH   4   5
ENDBRANCH   3   4
ENDBRANCH   2   3
ENDBRANCH   1   2
BRANCH   1  11
ATOM     11  C   UNL     1      63.324  29.856  13.875  1.00  0.00     0.000 C 
BRANCH  11  12
ATOM     12  C   UNL     1      63.940  29.605  12.489  1.00  0.00    -0.000 C 
BRANCH  12  13
ATOM     13  C   UNL     1      64.598  30.863  11.900  1.00  0.00    -0.000 C 
BRANCH  13  14
ATOM     14  C   UNL     1      64.943  30.718  10.405  1.00  0.00    -0.000 C 
BRANCH  14  15
ATOM     15  C   UNL     1      64.034  29.762   9.611  1.00  0.00    -0.000 C 
BRANCH  15  16
ATOM     16  C   UNL     1      62.856  30.479   8.932  1.00  0.00    -0.000 C 
BRANCH  16  17
ATOM     17  C   UNL     1      61.510  29.788   9.206  1.00  0.00    -0.003 C 
ATOM     18  C   UNL     1      61.672  28.358   9.722  1.00  0.00     0.004 C 
ENDBRANCH  16  17
ENDBRANCH  15  16
ENDBRANCH  14  15
ENDBRANCH  13  14
ENDBRANCH  12  13
ENDBRANCH  11  12
ENDBRANCH   1  11
TORSDOF 14
ENDMDL
MODEL 7
REMARK VINA RESULT:    -4.333      1.836      5.397
REMARK INTER + INTRA:         -10.402
REMARK INTER:                  -8.302
REMARK INTRA:                  -2.100
REMARK UNBOUND:                -2.523
REMARK SMILES CCCCCCCCCCCCCCCC(=O)[O-]
REMARK SMILES IDX 9 1 10 2 11 3 12 4 13 5 14 6 15 7 16 8 17 9 18 10 8 11 7 12
REMARK SMILES IDX 6 13 5 14 4 15 3 16 2 17 1 18
REMARK H PARENT
REMARK Flexibility Score: inf
ROOT
ATOM      1  C   UNL     1      64.161  31.090  12.302  1.00  0.00     0.000 C 
ENDROOT
BRANCH   1   2
ATOM      2  C   UNL     1      64.300  29.881  11.363  1.00  0.00     0.000 C 
BRANCH   2   3
ATOM      3  C   UNL     1      64.274  30.279   9.880  1.00  0.00     0.000 C 
BRANCH   3   4
ATOM      4  C   UNL     1      62.983  29.793   9.207  1.00  0.00     0.000 C 
BRANCH   4   5
ATOM      5  C   UNL     1      62.177  28.820  10.084  1.00  0.00     0.000 C 
BRANCH   5   6
ATOM      6  C   UNL     1      60.728  29.253  10.386  1.00  0.00     0.006 C 
BRANCH   6   7
ATOM      7  C   UNL     1      60.566  30.030  11.705  1.00  0.00     0.053 C 
BRANCH   7   8
ATOM      8  C   UNL     1      60.548  29.127  12.903  1.00  0.00     0.041 C 
ATOM      9  O   UNL     1      59.567  28.366  13.110  1.00  0.00    -0.550 OA
ATOM     10  O   UNL     1      61.598  29.155  13.813  1.00  0.00    -0.550 OA
ENDBRANCH   7   8
ENDBRANCH   6   7
ENDBRANCH   5   6
ENDBRANCH   4   5
ENDBRANCH   3   4
ENDBRANCH   2   3
ENDBRANCH   1   2
BRANCH   1  11
ATOM     11  C   UNL     1      64.902  32.333  11.778  1.00  0.00     0.000 C 
BRANCH  11  12
ATOM     12  C   UNL     1      65.093  33.410  12.860  1.00  0.00    -0.000 C 
BRANCH  12  13
ATOM     13  C   UNL     1      65.082  32.825  14.282  1.00  0.00    -0.000 C 
BRANCH  13  14
ATOM     14  C   UNL     1      64.706  33.863  15.356  1.00  0.00    -0.000 C 
BRANCH  14  15
ATOM     15  C   UNL     1      63.254  33.786  15.865  1.00  0.00    -0.000 C 
BRANCH  15  16
ATOM     16  C   UNL     1      62.565  32.458  15.512  1.00  0.00    -0.000 C 
BRANCH  16  17
ATOM     17  C   UNL     1      61.235  32.664  14.769  1.00  0.00    -0.003 C 
ATOM     18  C   UNL     1      61.425  33.209  13.354  1.00  0.00     0.004 C 
ENDBRANCH  16  17
ENDBRANCH  15  16
ENDBRANCH  14  15
ENDBRANCH  13  14
ENDBRANCH  12  13
ENDBRANCH  11  12
ENDBRANCH   1  11
TORSDOF 14
ENDMDL
MODEL 8
REMARK VINA RESULT:    -4.330      2.247      4.120
REMARK INTER + INTRA:         -10.398
REMARK INTER:                  -8.788
REMARK INTRA:                  -1.609
REMARK UNBOUND:                -2.523
REMARK SMILES CCCCCCCCCCCCCCCC(=O)[O-]
REMARK SMILES IDX 9 1 10 2 11 3 12 4 13 5 14 6 15 7 16 8 17 9 18 10 8 11 7 12
REMARK SMILES IDX 6 13 5 14 4 15 3 16 2 17 1 18
REMARK H PARENT
REMARK Flexibility Score: inf
ROOT
ATOM      1  C   UNL     1      64.403  30.162  12.241  1.00  0.00     0.000 C 
ENDROOT
BRANCH   1   2
ATOM      2  C   UNL     1      63.950  31.317  13.150  1.00  0.00     0.000 C 
BRANCH   2   3
ATOM      3  C   UNL     1      63.774  30.883  14.612  1.00  0.00     0.000 C 
BRANCH   3   4
ATOM      4  C   UNL     1      62.492  31.482  15.209  1.00  0.00     0.000 C 
BRANCH   4   5
ATOM      5  C   UNL     1      62.224  32.920  14.736  1.00  0.00     0.000 C 
BRANCH   5   6
ATOM      6  C   UNL     1      62.255  33.994  15.843  1.00  0.00     0.006 C 
BRANCH   6   7
ATOM      7  C   UNL     1      63.644  34.204  16.475  1.00  0.00     0.053 C 
BRANCH   7   8
ATOM      8  C   UNL     1      63.583  35.030  17.726  1.00  0.00     0.041 C 
ATOM      9  O   UNL     1      62.520  35.086  18.399  1.00  0.00    -0.550 OA
ATOM     10  O   UNL     1      64.689  35.769  18.128  1.00  0.00    -0.550 OA
ENDBRANCH   7   8
ENDBRANCH   6   7
ENDBRANCH   5   6
ENDBRANCH   4   5
ENDBRANCH   3   4
ENDBRANCH   2   3
ENDBRANCH   1   2
BRANCH   1  11
ATOM     11  C   UNL     1      64.414  30.552  10.752  1.00  0.00     0.000 C 
BRANCH  11  12
ATOM     12  C   UNL     1      64.314  29.334   9.819  1.00  0.00    -0.000 C 
BRANCH  12  13
ATOM     13  C   UNL     1      62.928  29.203   9.167  1.00  0.00    -0.000 C 
BRANCH  13  14
ATOM     14  C   UNL     1      61.865  28.626  10.122  1.00  0.00    -0.000 C 
BRANCH  14  15
ATOM     15  C   UNL     1      60.698  29.574  10.456  1.00  0.00    -0.000 C 
BRANCH  15  16
ATOM     16  C   UNL     1      60.776  30.141  11.883  1.00  0.00    -0.000 C 
BRANCH  16  17
ATOM     17  C   UNL     1      60.864  29.039  12.951  1.00  0.00    -0.003 C 
ATOM     18  C   UNL     1      59.535  28.317  13.169  1.00  0.00     0.004 C 
ENDBRANCH  16  17
ENDBRANCH  15  16
ENDBRANCH  14  15
ENDBRANCH  13  14
ENDBRANCH  12  13
ENDBRANCH  11  12
ENDBRANCH   1  11
TORSDOF 14
ENDMDL
MODEL 9
REMARK VINA RESULT:    -4.274      2.841      5.736
REMARK INTER + INTRA:         -10.295
REMARK INTER:                  -8.244
REMARK INTRA:                  -2.051
REMARK UNBOUND:                -2.523
REMARK SMILES CCCCCCCCCCCCCCCC(=O)[O-]
REMARK SMILES IDX 9 1 10 2 11 3 12 4 13 5 14 6 15 7 16 8 17 9 18 10 8 11 7 12
REMARK SMILES IDX 6 13 5 14 4 15 3 16 2 17 1 18
REMARK H PARENT
REMARK Flexibility Score: inf
ROOT
ATOM      1  C   UNL     1      62.270  30.201  14.277  1.00  0.00     0.000 C 
ENDROOT
BRANCH   1   2
ATOM      2  C   UNL     1      62.032  28.955  13.409  1.00  0.00     0.000 C 
BRANCH   2   3
ATOM      3  C   UNL     1      60.542  28.698  13.142  1.00  0.00     0.000 C 
BRANCH   3   4
ATOM      4  C   UNL     1      60.200  28.950  11.666  1.00  0.00     0.000 C 
BRANCH   4   5
ATOM      5  C   UNL     1      61.446  29.056  10.770  1.00  0.00     0.000 C 
BRANCH   5   6
ATOM      6  C   UNL     1      61.601  30.390  10.013  1.00  0.00     0.006 C 
BRANCH   6   7
ATOM      7  C   UNL     1      62.639  30.351   8.876  1.00  0.00     0.053 C 
BRANCH   7   8
ATOM      8  C   UNL     1      64.046  30.253   9.388  1.00  0.00     0.041 C 
ATOM      9  O   UNL     1      64.652  31.286   9.778  1.00  0.00    -0.550 OA
ATOM     10  O   UNL     1      64.701  29.028   9.398  1.00  0.00    -0.550 OA
ENDBRANCH   7   8
ENDBRANCH   6   7
ENDBRANCH   5   6
ENDBRANCH   4   5
ENDBRANCH   3   4
ENDBRANCH   2   3
ENDBRANCH   1   2
BRANCH   1  11
ATOM     11  C   UNL     1      61.238  31.312  14.011  1.00  0.00     0.000 C 
BRANCH  11  12
ATOM     12  C   UNL     1      61.803  32.452  13.147  1.00  0.00    -0.000 C 
BRANCH  12  13
ATOM     13  C   UNL     1      63.296  32.264  12.827  1.00  0.00    -0.000 C 
BRANCH  13  14
ATOM     14  C   UNL     1      64.186  33.357  13.450  1.00  0.00    -0.000 C 
BRANCH  14  15
ATOM     15  C   UNL     1      64.816  32.997  14.808  1.00  0.00    -0.000 C 
BRANCH  15  16
ATOM     16  C   UNL     1      64.367  33.929  15.945  1.00  0.00    -0.000 C 
BRANCH  16  17
ATOM     17  C   UNL     1      62.976  33.566  16.488  1.00  0.00    -0.003 C 
ATOM     18  C   UNL     1      61.904  34.584  16.100  1.00  0.00     0.004 C 
ENDBRANCH  16  17
ENDBRANCH  15  16
ENDBRANCH  14  15
ENDBRANCH  13  14
ENDBRANCH  12  13
ENDBRANCH  11  12
ENDBRANCH   1  11
TORSDOF 14
ENDMDL
