MODEL 1
REMARK VINA RESULT:    -4.511      0.000      0.000
REMARK INTER + INTRA:          -4.643
REMARK INTER:                  -4.643
REMARK INTRA:                   0.000
REMARK UNBOUND:                 0.000
REMARK SMILES Cc1cccc(O)c1C
REMARK SMILES IDX 1 1 2 2 8 3 6 4 5 5 4 6 3 7 9 8 7 9
REMARK H PARENT 7 10
REMARK Flexibility Score: inf
ROOT
ATOM      1  C   UNL     1     -29.679 101.871  -0.041  1.00  0.00     0.045 C 
ATOM      2  C   UNL     1     -28.792 100.696   0.288  1.00  0.00    -0.045 A 
ATOM      3  C   UNL     1     -27.387 100.843   0.419  1.00  0.00    -0.006 A 
ATOM      4  C   UNL     1     -26.604  99.716   0.750  1.00  0.00     0.118 A 
ATOM      5  C   UNL     1     -27.208  98.461   0.905  1.00  0.00     0.046 A 
ATOM      6  C   UNL     1     -28.585  98.318   0.744  1.00  0.00     0.004 A 
ATOM      7  C   UNL     1     -29.373  99.427   0.438  1.00  0.00     0.004 A 
ATOM      8  C   UNL     1     -26.736 102.197   0.264  1.00  0.00     0.048 C 
ENDROOT
BRANCH   4   9
ATOM      9  O   UNL     1     -25.226  99.840   0.928  1.00  0.00    -0.508 OA
ATOM     10  H   UNL     1     -24.832 100.344   1.714  1.00  0.00     0.293 HD
ENDBRANCH   4   9
TORSDOF 1
ENDMDL
MODEL 2
REMARK VINA RESULT:    -4.362     12.291     13.572
REMARK INTER + INTRA:          -4.490
REMARK INTER:                  -4.490
REMARK INTRA:                   0.000
REMARK UNBOUND:                 0.000
REMARK SMILES Cc1cccc(O)c1C
REMARK SMILES IDX 1 1 2 2 8 3 6 4 5 5 4 6 3 7 9 8 7 9
REMARK H PARENT 7 10
REMARK Flexibility Score: inf
ROOT
ATOM      1  C   UNL     1     -15.875  93.007  -5.403  1.00  0.00     0.045 C 
ATOM      2  C   UNL     1     -16.503  94.349  -5.122  1.00  0.00    -0.045 A 
ATOM      3  C   UNL     1     -16.788  95.266  -6.166  1.00  0.00    -0.006 A 
ATOM      4  C   UNL     1     -17.397  96.501  -5.852  1.00  0.00     0.118 A 
ATOM      5  C   UNL     1     -17.675  96.828  -4.519  1.00  0.00     0.046 A 
ATOM      6  C   UNL     1     -17.364  95.935  -3.494  1.00  0.00     0.004 A 
ATOM      7  C   UNL     1     -16.782  94.704  -3.792  1.00  0.00     0.004 A 
ATOM      8  C   UNL     1     -16.498  94.910  -7.605  1.00  0.00     0.048 C 
ENDROOT
BRANCH   4   9
ATOM      9  O   UNL     1     -17.727  97.404  -6.863  1.00  0.00    -0.508 OA
ATOM     10  H   UNL     1     -18.585  97.318  -7.395  1.00  0.00     0.293 HD
ENDBRANCH   4   9
TORSDOF 1
ENDMDL
MODEL 3
REMARK VINA RESULT:    -4.305     12.311     13.415
REMARK INTER + INTRA:          -4.431
REMARK INTER:                  -4.431
REMARK INTRA:                   0.000
REMARK UNBOUND:                 0.000
REMARK SMILES Cc1cccc(O)c1C
REMARK SMILES IDX 1 1 2 2 8 3 6 4 5 5 4 6 3 7 9 8 7 9
REMARK H PARENT 7 10
REMARK Flexibility Score: inf
ROOT
ATOM      1  C   UNL     1     -17.749  96.239  -3.079  1.00  0.00     0.045 C 
ATOM      2  C   UNL     1     -17.158  95.623  -4.322  1.00  0.00    -0.045 A 
ATOM      3  C   UNL     1     -17.340  96.212  -5.600  1.00  0.00    -0.006 A 
ATOM      4  C   UNL     1     -16.747  95.606  -6.729  1.00  0.00     0.118 A 
ATOM      5  C   UNL     1     -16.024  94.415  -6.589  1.00  0.00     0.046 A 
ATOM      6  C   UNL     1     -15.875  93.824  -5.336  1.00  0.00     0.004 A 
ATOM      7  C   UNL     1     -16.438  94.422  -4.209  1.00  0.00     0.004 A 
ATOM      8  C   UNL     1     -18.110  97.502  -5.750  1.00  0.00     0.048 C 
ENDROOT
BRANCH   4   9
ATOM      9  O   UNL     1     -16.874  96.188  -7.991  1.00  0.00    -0.508 OA
ATOM     10  H   UNL     1     -17.299  97.099  -8.118  1.00  0.00     0.293 HD
ENDBRANCH   4   9
TORSDOF 1
ENDMDL
MODEL 4
REMARK VINA RESULT:    -4.290     10.669     11.506
REMARK INTER + INTRA:          -4.415
REMARK INTER:                  -4.415
REMARK INTRA:                   0.000
REMARK UNBOUND:                 0.000
REMARK SMILES Cc1cccc(O)c1C
REMARK SMILES IDX 1 1 2 2 8 3 6 4 5 5 4 6 3 7 9 8 7 9
REMARK H PARENT 7 10
REMARK Flexibility Score: inf
ROOT
ATOM      1  C   UNL     1     -32.161  92.504   9.249  1.00  0.00     0.045 C 
ATOM      2  C   UNL     1     -32.896  92.566   7.934  1.00  0.00    -0.045 A 
ATOM      3  C   UNL     1     -32.233  92.326   6.703  1.00  0.00    -0.006 A 
ATOM      4  C   UNL     1     -32.972  92.374   5.500  1.00  0.00     0.118 A 
ATOM      5  C   UNL     1     -34.335  92.697   5.526  1.00  0.00     0.046 A 
ATOM      6  C   UNL     1     -34.974  92.962   6.737  1.00  0.00     0.004 A 
ATOM      7  C   UNL     1     -34.261  92.897   7.933  1.00  0.00     0.004 A 
ATOM      8  C   UNL     1     -30.766  91.967   6.674  1.00  0.00     0.048 C 
ENDROOT
BRANCH   4   9
ATOM      9  O   UNL     1     -32.355  92.101   4.280  1.00  0.00    -0.508 OA
ATOM     10  H   UNL     1     -31.969  92.837   3.700  1.00  0.00     0.293 HD
ENDBRANCH   4   9
TORSDOF 1
ENDMDL
MODEL 5
REMARK VINA RESULT:    -4.219     11.248     12.217
REMARK INTER + INTRA:          -4.342
REMARK INTER:                  -4.342
REMARK INTRA:                   0.000
REMARK UNBOUND:                 0.000
REMARK SMILES Cc1cccc(O)c1C
REMARK SMILES IDX 1 1 2 2 8 3 6 4 5 5 4 6 3 7 9 8 7 9
REMARK H PARENT 7 10
REMARK Flexibility Score: inf
ROOT
ATOM      1  C   UNL     1     -31.653  92.416   9.055  1.00  0.00     0.045 C 
ATOM      2  C   UNL     1     -32.592  92.456   7.876  1.00  0.00    -0.045 A 
ATOM      3  C   UNL     1     -33.956  92.815   8.027  1.00  0.00    -0.006 A 
ATOM      4  C   UNL     1     -34.789  92.858   6.887  1.00  0.00     0.118 A 
ATOM      5  C   UNL     1     -34.278  92.510   5.631  1.00  0.00     0.046 A 
ATOM      6  C   UNL     1     -32.944  92.128   5.493  1.00  0.00     0.004 A 
ATOM      7  C   UNL     1     -32.106  92.101   6.607  1.00  0.00     0.004 A 
ATOM      8  C   UNL     1     -34.505  93.202   9.380  1.00  0.00     0.048 C 
ENDROOT
BRANCH   4   9
ATOM      9  O   UNL     1     -36.123  93.249   7.001  1.00  0.00    -0.508 OA
ATOM     10  H   UNL     1     -36.778  93.142   6.235  1.00  0.00     0.293 HD
ENDBRANCH   4   9
TORSDOF 1
ENDMDL
MODEL 6
REMARK VINA RESULT:    -4.216     10.068     11.328
REMARK INTER + INTRA:          -4.339
REMARK INTER:                  -4.339
REMARK INTRA:                   0.000
REMARK UNBOUND:                 0.000
REMARK SMILES Cc1cccc(O)c1C
REMARK SMILES IDX 1 1 2 2 8 3 6 4 5 5 4 6 3 7 9 8 7 9
REMARK H PARENT 7 10
REMARK Flexibility Score: inf
ROOT
ATOM      1  C   UNL     1     -31.766  95.544   7.567  1.00  0.00     0.045 C 
ATOM      2  C   UNL     1     -32.572  94.302   7.280  1.00  0.00    -0.045 A 
ATOM      3  C   UNL     1     -33.990  94.314   7.318  1.00  0.00    -0.006 A 
ATOM      4  C   UNL     1     -34.699  93.130   7.019  1.00  0.00     0.118 A 
ATOM      5  C   UNL     1     -34.002  91.949   6.731  1.00  0.00     0.046 A 
ATOM      6  C   UNL     1     -32.609  91.936   6.726  1.00  0.00     0.004 A 
ATOM      7  C   UNL     1     -31.897  93.103   6.998  1.00  0.00     0.004 A 
ATOM      8  C   UNL     1     -34.742  95.590   7.617  1.00  0.00     0.048 C 
ENDROOT
BRANCH   4   9
ATOM      9  O   UNL     1     -36.094  93.124   7.007  1.00  0.00    -0.508 OA
ATOM     10  H   UNL     1     -36.620  92.415   6.510  1.00  0.00     0.293 HD
ENDBRANCH   4   9
TORSDOF 1
ENDMDL
MODEL 7
REMARK VINA RESULT:    -4.203     10.194     11.165
REMARK INTER + INTRA:          -4.326
REMARK INTER:                  -4.326
REMARK INTRA:                   0.000
REMARK UNBOUND:                 0.000
REMARK SMILES Cc1cccc(O)c1C
REMARK SMILES IDX 1 1 2 2 8 3 6 4 5 5 4 6 3 7 9 8 7 9
REMARK H PARENT 7 10
REMARK Flexibility Score: inf
ROOT
ATOM      1  C   UNL     1     -21.307  96.006  -5.361  1.00  0.00     0.045 C 
ATOM      2  C   UNL     1     -19.976  95.657  -4.745  1.00  0.00    -0.045 A 
ATOM      3  C   UNL     1     -18.849  96.509  -4.883  1.00  0.00    -0.006 A 
ATOM      4  C   UNL     1     -17.631  96.148  -4.268  1.00  0.00     0.118 A 
ATOM      5  C   UNL     1     -17.530  94.940  -3.566  1.00  0.00     0.046 A 
ATOM      6  C   UNL     1     -18.631  94.092  -3.460  1.00  0.00     0.004 A 
ATOM      7  C   UNL     1     -19.846  94.447  -4.045  1.00  0.00     0.004 A 
ATOM      8  C   UNL     1     -18.960  97.817  -5.630  1.00  0.00     0.048 C 
ENDROOT
BRANCH   4   9
ATOM      9  O   UNL     1     -16.520  96.987  -4.352  1.00  0.00    -0.508 OA
ATOM     10  H   UNL     1     -16.608  97.995  -4.297  1.00  0.00     0.293 HD
ENDBRANCH   4   9
TORSDOF 1
ENDMDL
MODEL 8
REMARK VINA RESULT:    -4.188     10.243     11.224
REMARK INTER + INTRA:          -4.311
REMARK INTER:                  -4.311
REMARK INTRA:                   0.000
REMARK UNBOUND:                 0.000
REMARK SMILES Cc1cccc(O)c1C
REMARK SMILES IDX 1 1 2 2 8 3 6 4 5 5 4 6 3 7 9 8 7 9
REMARK H PARENT 7 10
REMARK Flexibility Score: inf
ROOT
ATOM      1  C   UNL     1     -21.057  94.800  -4.808  1.00  0.00     0.045 C 
ATOM      2  C   UNL     1     -20.150  95.970  -5.097  1.00  0.00    -0.045 A 
ATOM      3  C   UNL     1     -18.778  95.949  -4.737  1.00  0.00    -0.006 A 
ATOM      4  C   UNL     1     -17.966  97.061  -5.050  1.00  0.00     0.118 A 
ATOM      5  C   UNL     1     -18.523  98.185  -5.671  1.00  0.00     0.046 A 
ATOM      6  C   UNL     1     -19.879  98.212  -5.995  1.00  0.00     0.004 A 
ATOM      7  C   UNL     1     -20.688  97.113  -5.710  1.00  0.00     0.004 A 
ATOM      8  C   UNL     1     -18.173  94.733  -4.077  1.00  0.00     0.048 C 
ENDROOT
BRANCH   4   9
ATOM      9  O   UNL     1     -16.604  97.050  -4.746  1.00  0.00    -0.508 OA
ATOM     10  H   UNL     1     -15.982  97.788  -5.054  1.00  0.00     0.293 HD
ENDBRANCH   4   9
TORSDOF 1
ENDMDL
MODEL 9
REMARK VINA RESULT:    -4.175     10.505     11.676
REMARK INTER + INTRA:          -4.297
REMARK INTER:                  -4.297
REMARK INTRA:                   0.000
REMARK UNBOUND:                 0.000
REMARK SMILES Cc1cccc(O)c1C
REMARK SMILES IDX 1 1 2 2 8 3 6 4 5 5 4 6 3 7 9 8 7 9
REMARK H PARENT 7 10
REMARK Flexibility Score: inf
ROOT
ATOM      1  C   UNL     1     -31.235  92.253   6.921  1.00  0.00     0.045 C 
ATOM      2  C   UNL     1     -32.402  93.193   7.089  1.00  0.00    -0.045 A 
ATOM      3  C   UNL     1     -33.740  92.748   6.933  1.00  0.00    -0.006 A 
ATOM      4  C   UNL     1     -34.798  93.664   7.124  1.00  0.00     0.118 A 
ATOM      5  C   UNL     1     -34.522  95.005   7.422  1.00  0.00     0.046 A 
ATOM      6  C   UNL     1     -33.204  95.442   7.543  1.00  0.00     0.004 A 
ATOM      7  C   UNL     1     -32.150  94.544   7.378  1.00  0.00     0.004 A 
ATOM      8  C   UNL     1     -34.040  91.301   6.624  1.00  0.00     0.048 C 
ENDROOT
BRANCH   4   9
ATOM      9  O   UNL     1     -36.124  93.244   7.018  1.00  0.00    -0.508 OA
ATOM     10  H   UNL     1     -36.777  93.341   7.787  1.00  0.00     0.293 HD
ENDBRANCH   4   9
TORSDOF 1
ENDMDL
