MODEL 1
REMARK VINA RESULT:    -5.399      0.000      0.000
REMARK INTER + INTRA:          -7.462
REMARK INTER:                  -7.608
REMARK INTRA:                   0.146
REMARK UNBOUND:                 0.146
REMARK SMILES CC1=CCC(=C(C)C)C(=O)CC(C)=CCC1
REMARK SMILES IDX 12 1 14 2 13 3 15 4 16 5 2 6 1 7 3 8 11 10 9 11 10 12 5 13
REMARK SMILES IDX 6 14 7 15 8 16 4 17
REMARK H PARENT
REMARK Flexibility Score: 60.00
ROOT
ATOM      1  C   UNL     1      -8.385  29.028  23.255  1.00  0.00    -0.070 C 
ATOM      2  C   UNL     1      -8.596  28.964  24.589  1.00  0.00    -0.027 C 
ATOM      3  C   UNL     1      -8.944  27.920  22.400  1.00  0.00     0.039 C 
ENDROOT
BRANCH   2   4
ATOM      4  C   UNL     1      -8.201  30.021  25.597  1.00  0.00     0.032 C 
BRANCH   4   5
ATOM      5  C   UNL     1      -9.256  31.123  25.827  1.00  0.00     0.034 C 
BRANCH   5   6
ATOM      6  C   UNL     1      -8.681  32.527  25.744  1.00  0.00    -0.077 C 
ATOM      7  C   UNL     1      -7.854  33.015  26.907  1.00  0.00     0.039 C 
ATOM      8  C   UNL     1      -8.804  33.340  24.667  1.00  0.00    -0.023 CG0
ATOM      9  G   UNL     1      -9.598  33.070  23.404  1.00  0.00     0.000 G0
ENDBRANCH   5   6
ENDBRANCH   4   5
ENDBRANCH   2   4
BRANCH   1  10
ATOM     10  C   UNL     1      -7.701  30.198  22.578  1.00  0.00     0.111 C 
BRANCH  10  11
ATOM     11  C   UNL     1      -8.699  31.135  21.949  1.00  0.00     0.163 C 
ATOM     12  O   UNL     1      -9.580  30.644  21.192  1.00  0.00    -0.294 OA
BRANCH  11  13
ATOM     13  C   UNL     1      -8.718  32.599  22.242  1.00  0.00    -0.002 C 
ATOM     14  C   UNL     1      -8.033  33.479  21.450  1.00  0.00    -0.069 C 
ATOM     15  C   UNL     1      -7.112  32.994  20.352  1.00  0.00     0.039 C 
ATOM     16  C   UNL     1      -8.159  34.977  21.624  1.00  0.00     0.039 C 
BRANCH  13  17
ATOM     17  C   UNL     1      -9.599  33.068  23.389  1.00  0.00     0.066 CG0
ATOM     18  G   UNL     1      -8.806  33.325  24.656  1.00  0.00     0.000 G0
ENDBRANCH  13  17
ENDBRANCH  11  13
ENDBRANCH  10  11
ENDBRANCH   1  10
TORSDOF 0
ENDMDL
MODEL 2
REMARK VINA RESULT:    -4.948      1.535      3.887
REMARK INTER + INTRA:          -6.827
REMARK INTER:                  -7.537
REMARK INTRA:                   0.710
REMARK UNBOUND:                 0.146
REMARK SMILES CC1=CCC(=C(C)C)C(=O)CC(C)=CCC1
REMARK SMILES IDX 12 1 14 2 13 3 15 4 16 5 2 6 1 7 3 8 11 10 9 11 10 12 5 13
REMARK SMILES IDX 6 14 7 15 8 16 4 17
REMARK H PARENT
REMARK Flexibility Score: 60.00
ROOT
ATOM      1  C   UNL     1      -7.628  30.285  22.725  1.00  0.00    -0.070 C 
ATOM      2  C   UNL     1      -7.500  31.278  21.815  1.00  0.00    -0.027 C 
ATOM      3  C   UNL     1      -6.400  29.875  23.497  1.00  0.00     0.039 C 
ENDROOT
BRANCH   2   4
ATOM      4  C   UNL     1      -8.627  31.893  21.016  1.00  0.00     0.032 C 
BRANCH   4   5
ATOM      5  C   UNL     1      -9.500  32.899  21.795  1.00  0.00     0.034 C 
BRANCH   5   6
ATOM      6  C   UNL     1      -8.766  33.559  22.949  1.00  0.00    -0.077 C 
ATOM      7  C   UNL     1      -7.792  34.663  22.622  1.00  0.00     0.039 C 
ATOM      8  C   UNL     1      -8.979  33.269  24.256  1.00  0.00    -0.023 CG0
ATOM      9  G   UNL     1      -9.890  32.193  24.817  1.00  0.00     0.000 G0
ENDBRANCH   5   6
ENDBRANCH   4   5
ENDBRANCH   2   4
BRANCH   1  10
ATOM     10  C   UNL     1      -8.954  29.638  23.067  1.00  0.00     0.111 C 
BRANCH  10  11
ATOM     11  C   UNL     1      -9.242  29.709  24.544  1.00  0.00     0.163 C 
ATOM     12  O   UNL     1      -9.555  28.643  25.139  1.00  0.00    -0.294 OA
BRANCH  11  13
ATOM     13  C   UNL     1      -9.105  30.973  25.326  1.00  0.00    -0.002 C 
ATOM     14  C   UNL     1      -8.247  31.048  26.388  1.00  0.00    -0.069 C 
ATOM     15  C   UNL     1      -7.527  29.821  26.904  1.00  0.00     0.039 C 
ATOM     16  C   UNL     1      -7.969  32.353  27.101  1.00  0.00     0.039 C 
BRANCH  13  17
ATOM     17  C   UNL     1      -9.883  32.183  24.835  1.00  0.00     0.066 CG0
ATOM     18  G   UNL     1      -8.977  33.256  24.261  1.00  0.00     0.000 G0
ENDBRANCH  13  17
ENDBRANCH  11  13
ENDBRANCH  10  11
ENDBRANCH   1  10
TORSDOF 0
ENDMDL
MODEL 3
REMARK VINA RESULT:    -4.917      2.251      5.417
REMARK INTER + INTRA:          -6.783
REMARK INTER:                  -7.193
REMARK INTRA:                   0.410
REMARK UNBOUND:                 0.146
REMARK SMILES CC1=CCC(=C(C)C)C(=O)CC(C)=CCC1
REMARK SMILES IDX 12 1 14 2 13 3 15 4 16 5 2 6 1 7 3 8 11 10 9 11 10 12 5 13
REMARK SMILES IDX 6 14 7 15 8 16 4 17
REMARK H PARENT
REMARK Flexibility Score: 60.00
ROOT
ATOM      1  C   UNL     1      -8.390  33.733  23.513  1.00  0.00    -0.070 C 
ATOM      2  C   UNL     1      -8.016  33.312  22.284  1.00  0.00    -0.027 C 
ATOM      3  C   UNL     1      -8.064  35.153  23.901  1.00  0.00     0.039 C 
ENDROOT
BRANCH   2   4
ATOM      4  C   UNL     1      -8.336  31.963  21.678  1.00  0.00     0.032 C 
BRANCH   4   5
ATOM      5  C   UNL     1      -7.413  30.813  22.132  1.00  0.00     0.034 C 
BRANCH   5   6
ATOM      6  C   UNL     1      -8.161  29.684  22.819  1.00  0.00    -0.077 C 
ATOM      7  C   UNL     1      -9.000  28.772  21.959  1.00  0.00     0.039 C 
ATOM      8  C   UNL     1      -8.068  29.399  24.141  1.00  0.00    -0.023 CG0
ATOM      9  G   UNL     1      -7.306  30.182  25.193  1.00  0.00     0.000 G0
ENDBRANCH   5   6
ENDBRANCH   4   5
ENDBRANCH   2   4
BRANCH   1  10
ATOM     10  C   UNL     1      -9.197  32.883  24.473  1.00  0.00     0.111 C 
BRANCH  10  11
ATOM     11  C   UNL     1      -8.380  32.469  25.669  1.00  0.00     0.163 C 
ATOM     12  O   UNL     1      -7.870  33.376  26.382  1.00  0.00    -0.294 OA
BRANCH  11  13
ATOM     13  C   UNL     1      -8.211  31.041  26.068  1.00  0.00    -0.002 C 
ATOM     14  C   UNL     1      -8.919  30.520  27.116  1.00  0.00    -0.069 C 
ATOM     15  C   UNL     1      -9.774  31.400  28.001  1.00  0.00     0.039 C 
ATOM     16  C   UNL     1      -8.889  29.043  27.445  1.00  0.00     0.039 C 
BRANCH  13  17
ATOM     17  C   UNL     1      -7.299  30.181  25.208  1.00  0.00     0.066 CG0
ATOM     18  G   UNL     1      -8.068  29.388  24.168  1.00  0.00     0.000 G0
ENDBRANCH  13  17
ENDBRANCH  11  13
ENDBRANCH  10  11
ENDBRANCH   1  10
TORSDOF 0
ENDMDL
MODEL 4
REMARK VINA RESULT:    -4.905      1.838      4.814
REMARK INTER + INTRA:          -6.766
REMARK INTER:                  -7.867
REMARK INTRA:                   1.101
REMARK UNBOUND:                 0.146
REMARK SMILES CC1=CCC(=C(C)C)C(=O)CC(C)=CCC1
REMARK SMILES IDX 12 1 14 2 13 3 15 4 16 5 2 6 1 7 3 8 11 10 9 11 10 12 5 13
REMARK SMILES IDX 6 14 7 15 8 16 4 17
REMARK H PARENT
REMARK Flexibility Score: 60.00
ROOT
ATOM      1  C   UNL     1      -8.174  33.889  25.045  1.00  0.00    -0.070 C 
ATOM      2  C   UNL     1      -7.308  34.564  24.256  1.00  0.00    -0.027 C 
ATOM      3  C   UNL     1      -7.878  33.824  26.522  1.00  0.00     0.039 C 
ENDROOT
BRANCH   2   4
ATOM      4  C   UNL     1      -7.482  34.822  22.775  1.00  0.00     0.032 C 
BRANCH   4   5
ATOM      5  C   UNL     1      -8.603  34.004  22.101  1.00  0.00     0.034 C 
BRANCH   5   6
ATOM      6  C   UNL     1      -8.080  32.958  21.132  1.00  0.00    -0.077 C 
ATOM      7  C   UNL     1      -7.133  33.416  20.051  1.00  0.00     0.039 C 
ATOM      8  C   UNL     1      -8.352  31.633  21.218  1.00  0.00    -0.023 CG0
ATOM      9  G   UNL     1      -9.283  30.953  22.203  1.00  0.00     0.000 G0
ENDBRANCH   5   6
ENDBRANCH   4   5
ENDBRANCH   2   4
BRANCH   1  10
ATOM     10  C   UNL     1      -9.464  33.281  24.534  1.00  0.00     0.111 C 
BRANCH  10  11
ATOM     11  C   UNL     1      -9.446  31.778  24.631  1.00  0.00     0.163 C 
ATOM     12  O   UNL     1     -10.085  31.236  25.574  1.00  0.00    -0.294 OA
BRANCH  11  13
ATOM     13  C   UNL     1      -8.758  30.918  23.624  1.00  0.00    -0.002 C 
ATOM     14  C   UNL     1      -7.737  30.087  23.995  1.00  0.00    -0.069 C 
ATOM     15  C   UNL     1      -7.165  30.122  25.395  1.00  0.00     0.039 C 
ATOM     16  C   UNL     1      -7.126  29.091  23.033  1.00  0.00     0.039 C 
BRANCH  13  17
ATOM     17  C   UNL     1      -9.301  30.938  22.204  1.00  0.00     0.066 CG0
ATOM     18  G   UNL     1      -8.359  31.628  21.236  1.00  0.00     0.000 G0
ENDBRANCH  13  17
ENDBRANCH  11  13
ENDBRANCH  10  11
ENDBRANCH   1  10
TORSDOF 0
ENDMDL
MODEL 5
REMARK VINA RESULT:    -4.832      1.942      4.096
REMARK INTER + INTRA:          -6.664
REMARK INTER:                  -7.095
REMARK INTRA:                   0.431
REMARK UNBOUND:                 0.146
REMARK SMILES CC1=CCC(=C(C)C)C(=O)CC(C)=CCC1
REMARK SMILES IDX 12 1 14 2 13 3 15 4 16 5 2 6 1 7 3 8 11 10 9 11 10 12 5 13
REMARK SMILES IDX 6 14 7 15 8 16 4 17
REMARK H PARENT
REMARK Flexibility Score: 60.00
ROOT
ATOM      1  C   UNL     1      -8.064  34.032  24.667  1.00  0.00    -0.070 C 
ATOM      2  C   UNL     1      -7.867  34.058  26.004  1.00  0.00    -0.027 C 
ATOM      3  C   UNL     1      -7.252  34.975  23.816  1.00  0.00     0.039 C 
ENDROOT
BRANCH   2   4
ATOM      4  C   UNL     1      -8.510  33.129  27.009  1.00  0.00     0.032 C 
BRANCH   4   5
ATOM      5  C   UNL     1      -7.742  31.814  27.260  1.00  0.00     0.034 C 
BRANCH   5   6
ATOM      6  C   UNL     1      -8.546  30.576  26.906  1.00  0.00    -0.077 C 
ATOM      7  C   UNL     1      -9.582  30.105  27.896  1.00  0.00     0.039 C 
ATOM      8  C   UNL     1      -8.443  29.908  25.731  1.00  0.00    -0.023 CG0
ATOM      9  G   UNL     1      -7.467  30.187  24.604  1.00  0.00     0.000 G0
ENDBRANCH   5   6
ENDBRANCH   4   5
ENDBRANCH   2   4
BRANCH   1  10
ATOM     10  C   UNL     1      -8.986  33.044  23.982  1.00  0.00     0.111 C 
BRANCH  10  11
ATOM     11  C   UNL     1      -8.224  32.108  23.081  1.00  0.00     0.163 C 
ATOM     12  O   UNL     1      -7.578  32.605  22.119  1.00  0.00    -0.294 OA
BRANCH  11  13
ATOM     13  C   UNL     1      -8.159  30.637  23.325  1.00  0.00    -0.002 C 
ATOM     14  C   UNL     1      -8.632  29.752  22.396  1.00  0.00    -0.069 C 
ATOM     15  C   UNL     1      -9.375  30.227  21.166  1.00  0.00     0.039 C 
ATOM     16  C   UNL     1      -8.438  28.258  22.541  1.00  0.00     0.039 C 
BRANCH  13  17
ATOM     17  C   UNL     1      -7.464  30.172  24.596  1.00  0.00     0.066 CG0
ATOM     18  G   UNL     1      -8.443  29.909  25.724  1.00  0.00     0.000 G0
ENDBRANCH  13  17
ENDBRANCH  11  13
ENDBRANCH  10  11
ENDBRANCH   1  10
TORSDOF 0
ENDMDL
MODEL 6
REMARK VINA RESULT:    -4.756      1.968      4.439
REMARK INTER + INTRA:          -6.557
REMARK INTER:                  -6.730
REMARK INTRA:                   0.173
REMARK UNBOUND:                 0.146
REMARK SMILES CC1=CCC(=C(C)C)C(=O)CC(C)=CCC1
REMARK SMILES IDX 12 1 14 2 13 3 15 4 16 5 2 6 1 7 3 8 11 10 9 11 10 12 5 13
REMARK SMILES IDX 6 14 7 15 8 16 4 17
REMARK H PARENT
REMARK Flexibility Score: 60.00
ROOT
ATOM      1  C   UNL     1      -8.422  32.959  22.392  1.00  0.00    -0.070 C 
ATOM      2  C   UNL     1      -7.971  34.222  22.561  1.00  0.00    -0.027 C 
ATOM      3  C   UNL     1      -8.035  32.236  21.127  1.00  0.00     0.039 C 
ENDROOT
BRANCH   2   4
ATOM      4  C   UNL     1      -8.169  35.071  23.797  1.00  0.00     0.032 C 
BRANCH   4   5
ATOM      5  C   UNL     1      -7.248  34.715  24.983  1.00  0.00     0.034 C 
BRANCH   5   6
ATOM      6  C   UNL     1      -8.005  34.487  26.279  1.00  0.00    -0.077 C 
ATOM      7  C   UNL     1      -8.727  35.664  26.886  1.00  0.00     0.039 C 
ATOM      8  C   UNL     1      -8.133  33.283  26.888  1.00  0.00    -0.023 CG0
ATOM      9  G   UNL     1      -7.485  31.976  26.473  1.00  0.00     0.000 G0
ENDBRANCH   5   6
ENDBRANCH   4   5
ENDBRANCH   2   4
BRANCH   1  10
ATOM     10  C   UNL     1      -9.212  32.210  23.446  1.00  0.00     0.111 C 
BRANCH  10  11
ATOM     11  C   UNL     1      -8.351  31.219  24.184  1.00  0.00     0.163 C 
ATOM     12  O   UNL     1      -7.528  30.535  23.517  1.00  0.00    -0.294 OA
BRANCH  11  13
ATOM     13  C   UNL     1      -8.396  31.068  25.668  1.00  0.00    -0.002 C 
ATOM     14  C   UNL     1      -9.169  30.101  26.249  1.00  0.00    -0.069 C 
ATOM     15  C   UNL     1     -10.121  29.258  25.429  1.00  0.00     0.039 C 
ATOM     16  C   UNL     1      -9.115  29.819  27.735  1.00  0.00     0.039 C 
BRANCH  13  17
ATOM     17  C   UNL     1      -7.481  31.964  26.487  1.00  0.00     0.066 CG0
ATOM     18  G   UNL     1      -8.147  33.272  26.869  1.00  0.00     0.000 G0
ENDBRANCH  13  17
ENDBRANCH  11  13
ENDBRANCH  10  11
ENDBRANCH   1  10
TORSDOF 0
ENDMDL
MODEL 7
REMARK VINA RESULT:    -4.725      1.836      3.913
REMARK INTER + INTRA:          -6.513
REMARK INTER:                  -7.028
REMARK INTRA:                   0.516
REMARK UNBOUND:                 0.146
REMARK SMILES CC1=CCC(=C(C)C)C(=O)CC(C)=CCC1
REMARK SMILES IDX 12 1 14 2 13 3 15 4 16 5 2 6 1 7 3 8 11 10 9 11 10 12 5 13
REMARK SMILES IDX 6 14 7 15 8 16 4 17
REMARK H PARENT
REMARK Flexibility Score: 60.00
ROOT
ATOM      1  C   UNL     1      -8.283  32.447  21.299  1.00  0.00    -0.070 C 
ATOM      2  C   UNL     1      -8.363  31.097  21.322  1.00  0.00    -0.027 C 
ATOM      3  C   UNL     1      -7.461  33.086  20.209  1.00  0.00     0.039 C 
ENDROOT
BRANCH   2   4
ATOM      4  C   UNL     1      -9.211  30.279  22.270  1.00  0.00     0.032 C 
BRANCH   4   5
ATOM      5  C   UNL     1      -8.465  29.744  23.510  1.00  0.00     0.034 C 
BRANCH   5   6
ATOM      6  C   UNL     1      -9.021  30.278  24.818  1.00  0.00    -0.077 C 
ATOM      7  C   UNL     1     -10.119  29.490  25.487  1.00  0.00     0.039 C 
ATOM      8  C   UNL     1      -8.548  31.376  25.458  1.00  0.00    -0.023 CG0
ATOM      9  G   UNL     1      -7.472  32.326  24.969  1.00  0.00     0.000 G0
ENDBRANCH   5   6
ENDBRANCH   4   5
ENDBRANCH   2   4
BRANCH   1  10
ATOM     10  C   UNL     1      -9.051  33.340  22.252  1.00  0.00     0.111 C 
BRANCH  10  11
ATOM     11  C   UNL     1      -8.128  34.069  23.193  1.00  0.00     0.163 C 
ATOM     12  O   UNL     1      -7.469  35.046  22.741  1.00  0.00    -0.294 OA
BRANCH  11  13
ATOM     13  C   UNL     1      -8.018  33.718  24.639  1.00  0.00    -0.002 C 
ATOM     14  C   UNL     1      -8.485  34.569  25.602  1.00  0.00    -0.069 C 
ATOM     15  C   UNL     1      -8.982  35.955  25.252  1.00  0.00     0.039 C 
ATOM     16  C   UNL     1      -8.532  34.176  27.063  1.00  0.00     0.039 C 
BRANCH  13  17
ATOM     17  C   UNL     1      -7.458  32.347  24.982  1.00  0.00     0.066 CG0
ATOM     18  G   UNL     1      -8.534  31.384  25.445  1.00  0.00     0.000 G0
ENDBRANCH  13  17
ENDBRANCH  11  13
ENDBRANCH  10  11
ENDBRANCH   1  10
TORSDOF 0
ENDMDL
MODEL 8
REMARK VINA RESULT:    -4.602      1.423      3.654
REMARK INTER + INTRA:          -6.340
REMARK INTER:                  -8.022
REMARK INTRA:                   1.682
REMARK UNBOUND:                 0.146
REMARK SMILES CC1=CCC(=C(C)C)C(=O)CC(C)=CCC1
REMARK SMILES IDX 12 1 14 2 13 3 15 4 16 5 2 6 1 7 3 8 11 10 9 11 10 12 5 13
REMARK SMILES IDX 6 14 7 15 8 16 4 17
REMARK H PARENT
REMARK Flexibility Score: 60.00
ROOT
ATOM      1  C   UNL     1      -8.112  33.468  21.578  1.00  0.00    -0.070 C 
ATOM      2  C   UNL     1      -7.429  34.416  22.259  1.00  0.00    -0.027 C 
ATOM      3  C   UNL     1      -7.490  32.919  20.319  1.00  0.00     0.039 C 
ENDROOT
BRANCH   2   4
ATOM      4  C   UNL     1      -7.839  35.016  23.586  1.00  0.00     0.032 C 
BRANCH   4   5
ATOM      5  C   UNL     1      -9.095  34.386  24.223  1.00  0.00     0.034 C 
BRANCH   5   6
ATOM      6  C   UNL     1      -8.828  33.764  25.582  1.00  0.00    -0.077 C 
ATOM      7  C   UNL     1      -8.202  34.637  26.642  1.00  0.00     0.039 C 
ATOM      8  C   UNL     1      -9.177  32.501  25.927  1.00  0.00    -0.023 CG0
ATOM      9  G   UNL     1      -9.796  31.446  25.029  1.00  0.00     0.000 G0
ENDBRANCH   5   6
ENDBRANCH   4   5
ENDBRANCH   2   4
BRANCH   1  10
ATOM     10  C   UNL     1      -9.416  32.872  22.066  1.00  0.00     0.111 C 
BRANCH  10  11
ATOM     11  C   UNL     1      -9.245  31.438  22.494  1.00  0.00     0.163 C 
ATOM     12  O   UNL     1      -9.399  30.536  21.626  1.00  0.00    -0.294 OA
BRANCH  11  13
ATOM     13  C   UNL     1      -8.839  31.059  23.880  1.00  0.00    -0.002 C 
ATOM     14  C   UNL     1      -7.631  30.464  24.117  1.00  0.00    -0.069 C 
ATOM     15  C   UNL     1      -6.735  30.027  22.979  1.00  0.00     0.039 C 
ATOM     16  C   UNL     1      -7.124  30.212  25.520  1.00  0.00     0.039 C 
BRANCH  13  17
ATOM     17  C   UNL     1      -9.778  31.448  25.011  1.00  0.00     0.066 CG0
ATOM     18  G   UNL     1      -9.174  32.494  25.927  1.00  0.00     0.000 G0
ENDBRANCH  13  17
ENDBRANCH  11  13
ENDBRANCH  10  11
ENDBRANCH   1  10
TORSDOF 0
ENDMDL
MODEL 9
REMARK VINA RESULT:    -4.540      1.553      2.078
REMARK INTER + INTRA:          -6.252
REMARK INTER:                  -6.814
REMARK INTRA:                   0.561
REMARK UNBOUND:                 0.146
REMARK SMILES CC1=CCC(=C(C)C)C(=O)CC(C)=CCC1
REMARK SMILES IDX 12 1 14 2 13 3 15 4 16 5 2 6 1 7 3 8 11 10 9 11 10 12 5 13
REMARK SMILES IDX 6 14 7 15 8 16 4 17
REMARK H PARENT
REMARK Flexibility Score: 60.00
ROOT
ATOM      1  C   UNL     1      -8.583  29.837  22.943  1.00  0.00    -0.070 C 
ATOM      2  C   UNL     1      -9.208  29.019  23.820  1.00  0.00    -0.027 C 
ATOM      3  C   UNL     1      -9.009  29.780  21.498  1.00  0.00     0.039 C 
ENDROOT
BRANCH   2   4
ATOM      4  C   UNL     1      -8.991  28.998  25.317  1.00  0.00     0.032 C 
BRANCH   4   5
ATOM      5  C   UNL     1      -9.984  29.858  26.127  1.00  0.00     0.034 C 
BRANCH   5   6
ATOM      6  C   UNL     1      -9.327  31.049  26.803  1.00  0.00    -0.077 C 
ATOM      7  C   UNL     1      -8.750  30.843  28.181  1.00  0.00     0.039 C 
ATOM      8  C   UNL     1      -9.166  32.264  26.224  1.00  0.00    -0.023 CG0
ATOM      9  G   UNL     1      -9.677  32.703  24.865  1.00  0.00     0.000 G0
ENDBRANCH   5   6
ENDBRANCH   4   5
ENDBRANCH   2   4
BRANCH   1  10
ATOM     10  C   UNL     1      -7.549  30.865  23.358  1.00  0.00     0.111 C 
BRANCH  10  11
ATOM     11  C   UNL     1      -7.969  32.259  22.974  1.00  0.00     0.163 C 
ATOM     12  O   UNL     1      -7.873  32.596  21.762  1.00  0.00    -0.294 OA
BRANCH  11  13
ATOM     13  C   UNL     1      -8.549  33.221  23.958  1.00  0.00    -0.002 C 
ATOM     14  C   UNL     1      -8.133  34.523  23.990  1.00  0.00    -0.069 C 
ATOM     15  C   UNL     1      -6.970  34.997  23.147  1.00  0.00     0.039 C 
ATOM     16  C   UNL     1      -8.810  35.557  24.863  1.00  0.00     0.039 C 
BRANCH  13  17
ATOM     17  C   UNL     1      -9.676  32.715  24.844  1.00  0.00     0.066 CG0
ATOM     18  G   UNL     1      -9.183  32.280  26.211  1.00  0.00     0.000 G0
ENDBRANCH  13  17
ENDBRANCH  11  13
ENDBRANCH  10  11
ENDBRANCH   1  10
TORSDOF 0
ENDMDL
