MODEL 1
REMARK VINA RESULT:     0.000      0.000      0.000
REMARK INTER + INTRA:          -1.925
REMARK INTER:                   0.000
REMARK INTRA:                  -1.925
REMARK UNBOUND:                -1.925
REMARK SMILES COc1cc(C=CCOC(=O)C=Cc2ccc(O)c(OC)c2)ccc1O
REMARK SMILES IDX 9 1 8 2 7 3 6 4 5 5 3 6 25 7 4 8 24 9 23 10 2 11 1 12 26 13
REMARK SMILES IDX 10 15 11 16 12 17 13 18 14 19 22 20 15 21 19 22 16 23 17 24
REMARK SMILES IDX 20 25 21 26 18 27
REMARK H PARENT 26 14 18 28
REMARK Flexibility Score: inf
ROOT
ATOM      1  O   UNL     1      18.806 109.217  95.191  1.00  0.00    -0.458 OA
ENDROOT
BRANCH   1   2
ATOM      2  C   UNL     1      18.521 108.010  95.894  1.00  0.00     0.261 C 
BRANCH   2   3
ATOM      3  C   UNL     1      17.356 108.198  96.820  1.00  0.00     0.015 C 
ATOM      4  C   UNL     1      16.137 108.485  96.344  1.00  0.00     0.007 C 
BRANCH   4   5
ATOM      5  C   UNL     1      14.941 108.681  97.199  1.00  0.00    -0.022 A 
ATOM      6  C   UNL     1      12.657 109.537  97.418  1.00  0.00     0.161 A 
ATOM      7  C   UNL     1      12.639 109.123  98.761  1.00  0.00     0.157 A 
ATOM      8  C   UNL     1      13.816 109.316  96.646  1.00  0.00     0.058 A 
ATOM      9  C   UNL     1      13.761 108.505  99.319  1.00  0.00     0.051 A 
ATOM     10  C   UNL     1      14.905 108.288  98.550  1.00  0.00     0.012 A 
BRANCH   6  11
ATOM     11  O   UNL     1      11.517 110.161  96.885  1.00  0.00    -0.493 OA
ATOM     12  C   UNL     1      11.510 110.966  95.711  1.00  0.00     0.278 C 
ENDBRANCH   6  11
BRANCH   7  13
ATOM     13  O   UNL     1      11.512 109.321  99.561  1.00  0.00    -0.504 OA
ATOM     14  H   UNL     1      10.939 110.153  99.490  1.00  0.00     0.293 HD
ENDBRANCH   7  13
ENDBRANCH   4   5
ENDBRANCH   2   3
ENDBRANCH   1   2
BRANCH   1  15
ATOM     15  C   UNL     1      19.212 110.397  95.823  1.00  0.00     0.331 C 
ATOM     16  O   UNL     1      20.389 110.513  96.265  1.00  0.00    -0.247 OA
BRANCH  15  17
ATOM     17  C   UNL     1      18.244 111.497  95.961  1.00  0.00     0.094 C 
ATOM     18  C   UNL     1      17.624 111.765  97.120  1.00  0.00     0.016 C 
BRANCH  18  19
ATOM     19  C   UNL     1      16.632 112.855  97.291  1.00  0.00    -0.021 A 
ATOM     20  C   UNL     1      15.298 112.514  97.575  1.00  0.00     0.058 A 
ATOM     21  C   UNL     1      16.985 114.216  97.213  1.00  0.00     0.012 A 
ATOM     22  C   UNL     1      14.320 113.511  97.755  1.00  0.00     0.161 A 
ATOM     23  C   UNL     1      16.018 115.207  97.391  1.00  0.00     0.051 A 
ATOM     24  C   UNL     1      14.688 114.860  97.658  1.00  0.00     0.157 A 
BRANCH  22  25
ATOM     25  O   UNL     1      12.979 113.203  98.030  1.00  0.00    -0.493 OA
ATOM     26  C   UNL     1      12.484 112.821  99.310  1.00  0.00     0.278 C 
ENDBRANCH  22  25
BRANCH  24  27
ATOM     27  O   UNL     1      13.725 115.852  97.836  1.00  0.00    -0.504 OA
ATOM     28  H   UNL     1      12.839 115.656  98.286  1.00  0.00     0.293 HD
ENDBRANCH  24  27
ENDBRANCH  18  19
ENDBRANCH  15  17
ENDBRANCH   1  15
TORSDOF 10
ENDMDL
MODEL 2
REMARK VINA RESULT:     0.000      4.939      9.771
REMARK INTER + INTRA:          -1.924
REMARK INTER:                   0.000
REMARK INTRA:                  -1.924
REMARK UNBOUND:                -1.925
REMARK SMILES COc1cc(C=CCOC(=O)C=Cc2ccc(O)c(OC)c2)ccc1O
REMARK SMILES IDX 9 1 8 2 7 3 6 4 5 5 3 6 25 7 4 8 24 9 23 10 2 11 1 12 26 13
REMARK SMILES IDX 10 15 11 16 12 17 13 18 14 19 22 20 15 21 19 22 16 23 17 24
REMARK SMILES IDX 20 25 21 26 18 27
REMARK H PARENT 26 14 18 28
REMARK Flexibility Score: inf
ROOT
ATOM      1  O   UNL     1      17.735 110.311  95.831  1.00  0.00    -0.458 OA
ENDROOT
BRANCH   1   2
ATOM      2  C   UNL     1      19.049 110.365  96.382  1.00  0.00     0.261 C 
BRANCH   2   3
ATOM      3  C   UNL     1      20.015 109.600  95.527  1.00  0.00     0.015 C 
ATOM      4  C   UNL     1      20.307 110.007  94.285  1.00  0.00     0.007 C 
BRANCH   4   5
ATOM      5  C   UNL     1      21.253 109.303  93.385  1.00  0.00    -0.022 A 
ATOM      6  C   UNL     1      22.124 108.985  91.119  1.00  0.00     0.161 A 
ATOM      7  C   UNL     1      22.995 107.993  91.601  1.00  0.00     0.157 A 
ATOM      8  C   UNL     1      21.252 109.631  92.019  1.00  0.00     0.058 A 
ATOM      9  C   UNL     1      22.988 107.653  92.956  1.00  0.00     0.051 A 
ATOM     10  C   UNL     1      22.124 108.297  93.843  1.00  0.00     0.012 A 
BRANCH   6  11
ATOM     11  O   UNL     1      22.149 109.302  89.751  1.00  0.00    -0.493 OA
ATOM     12  C   UNL     1      21.078 109.921  89.044  1.00  0.00     0.278 C 
ENDBRANCH   6  11
BRANCH   7  13
ATOM     13  O   UNL     1      23.876 107.328  90.745  1.00  0.00    -0.504 OA
ATOM     14  H   UNL     1      24.787 107.704  90.511  1.00  0.00     0.293 HD
ENDBRANCH   7  13
ENDBRANCH   4   5
ENDBRANCH   2   3
ENDBRANCH   1   2
BRANCH   1  15
ATOM     15  C   UNL     1      17.033 109.116  95.632  1.00  0.00     0.331 C 
ATOM     16  O   UNL     1      16.521 108.506  96.611  1.00  0.00    -0.247 OA
BRANCH  15  17
ATOM     17  C   UNL     1      16.905 108.588  94.265  1.00  0.00     0.094 C 
ATOM     18  C   UNL     1      17.621 107.540  93.831  1.00  0.00     0.016 C 
BRANCH  18  19
ATOM     19  C   UNL     1      17.528 106.991  92.455  1.00  0.00    -0.021 A 
ATOM     20  C   UNL     1      18.648 107.093  91.613  1.00  0.00     0.058 A 
ATOM     21  C   UNL     1      16.373 106.343  91.978  1.00  0.00     0.012 A 
ATOM     22  C   UNL     1      18.614 106.580  90.301  1.00  0.00     0.161 A 
ATOM     23  C   UNL     1      16.336 105.833  90.679  1.00  0.00     0.051 A 
ATOM     24  C   UNL     1      17.450 105.952  89.839  1.00  0.00     0.157 A 
BRANCH  22  25
ATOM     25  O   UNL     1      19.712 106.675  89.432  1.00  0.00    -0.493 OA
ATOM     26  C   UNL     1      20.845 105.812  89.466  1.00  0.00     0.278 C 
ENDBRANCH  22  25
BRANCH  24  27
ATOM     27  O   UNL     1      17.410 105.442  88.542  1.00  0.00    -0.504 OA
ATOM     28  H   UNL     1      17.330 106.050  87.736  1.00  0.00     0.293 HD
ENDBRANCH  24  27
ENDBRANCH  18  19
ENDBRANCH  15  17
ENDBRANCH   1  15
TORSDOF 10
ENDMDL
MODEL 3
REMARK VINA RESULT:     0.001     10.696     13.790
REMARK INTER + INTRA:          -1.924
REMARK INTER:                   0.000
REMARK INTRA:                  -1.924
REMARK UNBOUND:                -1.925
REMARK SMILES COc1cc(C=CCOC(=O)C=Cc2ccc(O)c(OC)c2)ccc1O
REMARK SMILES IDX 9 1 8 2 7 3 6 4 5 5 3 6 25 7 4 8 24 9 23 10 2 11 1 12 26 13
REMARK SMILES IDX 10 15 11 16 12 17 13 18 14 19 22 20 15 21 19 22 16 23 17 24
REMARK SMILES IDX 20 25 21 26 18 27
REMARK H PARENT 26 14 18 28
REMARK Flexibility Score: inf
ROOT
ATOM      1  O   UNL     1      22.486 115.315  83.352  1.00  0.00    -0.458 OA
ENDROOT
BRANCH   1   2
ATOM      2  C   UNL     1      21.110 115.296  82.980  1.00  0.00     0.261 C 
BRANCH   2   3
ATOM      3  C   UNL     1      20.398 114.149  83.634  1.00  0.00     0.015 C 
ATOM      4  C   UNL     1      20.237 114.106  84.963  1.00  0.00     0.007 C 
BRANCH   4   5
ATOM      5  C   UNL     1      19.543 113.006  85.676  1.00  0.00    -0.022 A 
ATOM      6  C   UNL     1      19.075 111.867  87.792  1.00  0.00     0.161 A 
ATOM      7  C   UNL     1      18.286 110.929  87.105  1.00  0.00     0.157 A 
ATOM      8  C   UNL     1      19.704 112.899  87.068  1.00  0.00     0.058 A 
ATOM      9  C   UNL     1      18.135 111.022  85.719  1.00  0.00     0.051 A 
ATOM     10  C   UNL     1      18.759 112.047  85.007  1.00  0.00     0.012 A 
BRANCH   6  11
ATOM     11  O   UNL     1      19.214 111.744  89.185  1.00  0.00    -0.493 OA
ATOM     12  C   UNL     1      20.276 112.313  89.945  1.00  0.00     0.278 C 
ENDBRANCH   6  11
BRANCH   7  13
ATOM     13  O   UNL     1      17.644 109.891  87.783  1.00  0.00    -0.504 OA
ATOM     14  H   UNL     1      17.909 109.615  88.721  1.00  0.00     0.293 HD
ENDBRANCH   7  13
ENDBRANCH   4   5
ENDBRANCH   2   3
ENDBRANCH   1   2
BRANCH   1  15
ATOM     15  C   UNL     1      23.366 114.259  83.092  1.00  0.00     0.331 C 
ATOM     16  O   UNL     1      23.808 114.069  81.924  1.00  0.00    -0.247 OA
BRANCH  15  17
ATOM     17  C   UNL     1      23.767 113.379  84.201  1.00  0.00     0.094 C 
ATOM     18  C   UNL     1      23.280 112.137  84.342  1.00  0.00     0.016 C 
BRANCH  18  19
ATOM     19  C   UNL     1      23.651 111.228  85.456  1.00  0.00    -0.021 A 
ATOM     20  C   UNL     1      22.661 110.863  86.384  1.00  0.00     0.058 A 
ATOM     21  C   UNL     1      24.946 110.694  85.595  1.00  0.00     0.012 A 
ATOM     22  C   UNL     1      22.958 109.996  87.454  1.00  0.00     0.161 A 
ATOM     23  C   UNL     1      25.243 109.834  86.654  1.00  0.00     0.051 A 
ATOM     24  C   UNL     1      24.257 109.487  87.584  1.00  0.00     0.157 A 
BRANCH  22  25
ATOM     25  O   UNL     1      21.995 109.620  88.403  1.00  0.00    -0.493 OA
ATOM     26  C   UNL     1      21.006 108.617  88.194  1.00  0.00     0.278 C 
ENDBRANCH  22  25
BRANCH  24  27
ATOM     27  O   UNL     1      24.558 108.629  88.641  1.00  0.00    -0.504 OA
ATOM     28  H   UNL     1      24.568 108.953  89.600  1.00  0.00     0.293 HD
ENDBRANCH  24  27
ENDBRANCH  18  19
ENDBRANCH  15  17
ENDBRANCH   1  15
TORSDOF 10
ENDMDL
MODEL 4
REMARK VINA RESULT:     0.001      4.996      8.712
REMARK INTER + INTRA:          -1.923
REMARK INTER:                   0.000
REMARK INTRA:                  -1.923
REMARK UNBOUND:                -1.925
REMARK SMILES COc1cc(C=CCOC(=O)C=Cc2ccc(O)c(OC)c2)ccc1O
REMARK SMILES IDX 9 1 8 2 7 3 6 4 5 5 3 6 25 7 4 8 24 9 23 10 2 11 1 12 26 13
REMARK SMILES IDX 10 15 11 16 12 17 13 18 14 19 22 20 15 21 19 22 16 23 17 24
REMARK SMILES IDX 20 25 21 26 18 27
REMARK H PARENT 26 14 18 28
REMARK Flexibility Score: inf
ROOT
ATOM      1  O   UNL     1      24.784 115.158  92.076  1.00  0.00    -0.458 OA
ENDROOT
BRANCH   1   2
ATOM      2  C   UNL     1      23.824 115.999  91.439  1.00  0.00     0.261 C 
BRANCH   2   3
ATOM      3  C   UNL     1      22.452 115.754  91.995  1.00  0.00     0.015 C 
ATOM      4  C   UNL     1      22.163 116.048  93.269  1.00  0.00     0.007 C 
BRANCH   4   5
ATOM      5  C   UNL     1      20.830 115.836  93.884  1.00  0.00    -0.022 A 
ATOM      6  C   UNL     1      19.478 115.683  95.920  1.00  0.00     0.161 A 
ATOM      7  C   UNL     1      18.343 115.412  95.137  1.00  0.00     0.157 A 
ATOM      8  C   UNL     1      20.719 115.889  95.284  1.00  0.00     0.058 A 
ATOM      9  C   UNL     1      18.452 115.343  93.746  1.00  0.00     0.051 A 
ATOM     10  C   UNL     1      19.683 115.549  93.121  1.00  0.00     0.012 A 
BRANCH   6  11
ATOM     11  O   UNL     1      19.340 115.740  97.317  1.00  0.00    -0.493 OA
ATOM     12  C   UNL     1      20.406 115.555  98.243  1.00  0.00     0.278 C 
ENDBRANCH   6  11
BRANCH   7  13
ATOM     13  O   UNL     1      17.094 115.204  95.725  1.00  0.00    -0.504 OA
ATOM     14  H   UNL     1      16.981 114.660  96.573  1.00  0.00     0.293 HD
ENDBRANCH   7  13
ENDBRANCH   4   5
ENDBRANCH   2   3
ENDBRANCH   1   2
BRANCH   1  15
ATOM     15  C   UNL     1      24.726 113.761  92.037  1.00  0.00     0.331 C 
ATOM     16  O   UNL     1      25.049 113.137  90.987  1.00  0.00    -0.247 OA
BRANCH  15  17
ATOM     17  C   UNL     1      24.285 113.036  93.239  1.00  0.00     0.094 C 
ATOM     18  C   UNL     1      23.066 112.486  93.338  1.00  0.00     0.016 C 
BRANCH  18  19
ATOM     19  C   UNL     1      22.583 111.761  94.539  1.00  0.00    -0.021 A 
ATOM     20  C   UNL     1      21.527 112.317  95.282  1.00  0.00     0.058 A 
ATOM     21  C   UNL     1      23.121 110.524  94.940  1.00  0.00     0.012 A 
ATOM     22  C   UNL     1      21.026 111.665  96.426  1.00  0.00     0.161 A 
ATOM     23  C   UNL     1      22.627 109.874  96.073  1.00  0.00     0.051 A 
ATOM     24  C   UNL     1      21.585 110.441  96.817  1.00  0.00     0.157 A 
BRANCH  22  25
ATOM     25  O   UNL     1      19.980 112.197  97.194  1.00  0.00    -0.493 OA
ATOM     26  C   UNL     1      18.601 112.107  96.852  1.00  0.00     0.278 C 
ENDBRANCH  22  25
BRANCH  24  27
ATOM     27  O   UNL     1      21.095 109.789  97.948  1.00  0.00    -0.504 OA
ATOM     28  H   UNL     1      21.694 109.223  98.536  1.00  0.00     0.293 HD
ENDBRANCH  24  27
ENDBRANCH  18  19
ENDBRANCH  15  17
ENDBRANCH   1  15
TORSDOF 10
ENDMDL
MODEL 5
REMARK VINA RESULT:     0.001      6.193      8.295
REMARK INTER + INTRA:          -1.923
REMARK INTER:                   0.000
REMARK INTRA:                  -1.923
REMARK UNBOUND:                -1.925
REMARK SMILES COc1cc(C=CCOC(=O)C=Cc2ccc(O)c(OC)c2)ccc1O
REMARK SMILES IDX 9 1 8 2 7 3 6 4 5 5 3 6 25 7 4 8 24 9 23 10 2 11 1 12 26 13
REMARK SMILES IDX 10 15 11 16 12 17 13 18 14 19 22 20 15 21 19 22 16 23 17 24
REMARK SMILES IDX 20 25 21 26 18 27
REMARK H PARENT 26 14 18 28
REMARK Flexibility Score: inf
ROOT
ATOM      1  O   UNL     1      20.602 107.406  91.678  1.00  0.00    -0.458 OA
ENDROOT
BRANCH   1   2
ATOM      2  C   UNL     1      20.748 106.218  92.453  1.00  0.00     0.261 C 
BRANCH   2   3
ATOM      3  C   UNL     1      21.405 106.519  93.768  1.00  0.00     0.015 C 
ATOM      4  C   UNL     1      20.796 107.284  94.683  1.00  0.00     0.007 C 
BRANCH   4   5
ATOM      5  C   UNL     1      21.383 107.621  96.002  1.00  0.00    -0.022 A 
ATOM      6  C   UNL     1      21.332 109.028  98.006  1.00  0.00     0.161 A 
ATOM      7  C   UNL     1      22.455 108.347  98.504  1.00  0.00     0.157 A 
ATOM      8  C   UNL     1      20.806 108.661  96.750  1.00  0.00     0.058 A 
ATOM      9  C   UNL     1      23.042 107.323  97.756  1.00  0.00     0.051 A 
ATOM     10  C   UNL     1      22.517 106.963  96.515  1.00  0.00     0.012 A 
BRANCH   6  11
ATOM     11  O   UNL     1      20.766 110.058  98.776  1.00  0.00    -0.493 OA
ATOM     12  C   UNL     1      19.959 111.108  98.254  1.00  0.00     0.278 C 
ENDBRANCH   6  11
BRANCH   7  13
ATOM     13  O   UNL     1      23.008 108.677  99.743  1.00  0.00    -0.504 OA
ATOM     14  H   UNL     1      23.865 109.212  99.826  1.00  0.00     0.293 HD
ENDBRANCH   7  13
ENDBRANCH   4   5
ENDBRANCH   2   3
ENDBRANCH   1   2
BRANCH   1  15
ATOM     15  C   UNL     1      21.684 108.188  91.260  1.00  0.00     0.331 C 
ATOM     16  O   UNL     1      22.425 107.800  90.314  1.00  0.00    -0.247 OA
BRANCH  15  17
ATOM     17  C   UNL     1      21.940 109.467  91.942  1.00  0.00     0.094 C 
ATOM     18  C   UNL     1      22.938 109.621  92.825  1.00  0.00     0.016 C 
BRANCH  18  19
ATOM     19  C   UNL     1      23.216 110.891  93.541  1.00  0.00    -0.021 A 
ATOM     20  C   UNL     1      23.035 110.930  94.935  1.00  0.00     0.058 A 
ATOM     21  C   UNL     1      23.685 112.042  92.882  1.00  0.00     0.012 A 
ATOM     22  C   UNL     1      23.293 112.108  95.663  1.00  0.00     0.161 A 
ATOM     23  C   UNL     1      23.942 113.211  93.601  1.00  0.00     0.051 A 
ATOM     24  C   UNL     1      23.745 113.249  94.986  1.00  0.00     0.157 A 
BRANCH  22  25
ATOM     25  O   UNL     1      23.113 112.184  97.053  1.00  0.00    -0.493 OA
ATOM     26  C   UNL     1      24.040 111.690  98.014  1.00  0.00     0.278 C 
ENDBRANCH  22  25
BRANCH  24  27
ATOM     27  O   UNL     1      24.002 114.418  95.701  1.00  0.00    -0.504 OA
ATOM     28  H   UNL     1      24.948 114.708  95.920  1.00  0.00     0.293 HD
ENDBRANCH  24  27
ENDBRANCH  18  19
ENDBRANCH  15  17
ENDBRANCH   1  15
TORSDOF 10
ENDMDL
MODEL 6
REMARK VINA RESULT:     0.001      6.107      9.504
REMARK INTER + INTRA:          -1.923
REMARK INTER:                   0.000
REMARK INTRA:                  -1.923
REMARK UNBOUND:                -1.925
REMARK SMILES COc1cc(C=CCOC(=O)C=Cc2ccc(O)c(OC)c2)ccc1O
REMARK SMILES IDX 9 1 8 2 7 3 6 4 5 5 3 6 25 7 4 8 24 9 23 10 2 11 1 12 26 13
REMARK SMILES IDX 10 15 11 16 12 17 13 18 14 19 22 20 15 21 19 22 16 23 17 24
REMARK SMILES IDX 20 25 21 26 18 27
REMARK H PARENT 26 14 18 28
REMARK Flexibility Score: inf
ROOT
ATOM      1  O   UNL     1      17.418 115.050  93.595  1.00  0.00    -0.458 OA
ENDROOT
BRANCH   1   2
ATOM      2  C   UNL     1      17.154 114.059  94.585  1.00  0.00     0.261 C 
BRANCH   2   3
ATOM      3  C   UNL     1      18.374 113.804  95.420  1.00  0.00     0.015 C 
ATOM      4  C   UNL     1      18.869 114.755  96.223  1.00  0.00     0.007 C 
BRANCH   4   5
ATOM      5  C   UNL     1      20.068 114.573  97.077  1.00  0.00    -0.022 A 
ATOM      6  C   UNL     1      21.824 115.595  98.444  1.00  0.00     0.161 A 
ATOM      7  C   UNL     1      22.366 114.322  98.686  1.00  0.00     0.157 A 
ATOM      8  C   UNL     1      20.676 115.711  97.633  1.00  0.00     0.058 A 
ATOM      9  C   UNL     1      21.773 113.189  98.122  1.00  0.00     0.051 A 
ATOM     10  C   UNL     1      20.637 113.310  97.322  1.00  0.00     0.012 A 
BRANCH   6  11
ATOM     11  O   UNL     1      22.445 116.717  99.018  1.00  0.00    -0.493 OA
ATOM     12  C   UNL     1      22.313 118.050  98.535  1.00  0.00     0.278 C 
ENDBRANCH   6  11
BRANCH   7  13
ATOM     13  O   UNL     1      23.501 114.161  99.484  1.00  0.00    -0.504 OA
ATOM     14  H   UNL     1      23.461 113.724 100.397  1.00  0.00     0.293 HD
ENDBRANCH   7  13
ENDBRANCH   4   5
ENDBRANCH   2   3
ENDBRANCH   1   2
BRANCH   1  15
ATOM     15  C   UNL     1      18.397 114.906  92.605  1.00  0.00     0.331 C 
ATOM     16  O   UNL     1      18.202 114.142  91.620  1.00  0.00    -0.247 OA
BRANCH  15  17
ATOM     17  C   UNL     1      19.654 115.661  92.736  1.00  0.00     0.094 C 
ATOM     18  C   UNL     1      20.802 115.080  93.115  1.00  0.00     0.016 C 
BRANCH  18  19
ATOM     19  C   UNL     1      22.083 115.813  93.271  1.00  0.00    -0.021 A 
ATOM     20  C   UNL     1      22.643 115.924  94.555  1.00  0.00     0.058 A 
ATOM     21  C   UNL     1      22.773 116.369  92.177  1.00  0.00     0.012 A 
ATOM     22  C   UNL     1      23.862 116.602  94.756  1.00  0.00     0.161 A 
ATOM     23  C   UNL     1      23.981 117.041  92.372  1.00  0.00     0.051 A 
ATOM     24  C   UNL     1      24.525 117.162  93.656  1.00  0.00     0.157 A 
BRANCH  22  25
ATOM     25  O   UNL     1      24.442 116.739  96.026  1.00  0.00    -0.493 OA
ATOM     26  C   UNL     1      25.190 115.722  96.686  1.00  0.00     0.278 C 
ENDBRANCH  22  25
BRANCH  24  27
ATOM     27  O   UNL     1      25.732 117.834  93.848  1.00  0.00    -0.504 OA
ATOM     28  H   UNL     1      26.019 118.591  93.240  1.00  0.00     0.293 HD
ENDBRANCH  24  27
ENDBRANCH  18  19
ENDBRANCH  15  17
ENDBRANCH   1  15
TORSDOF 10
ENDMDL
MODEL 7
REMARK VINA RESULT:     0.001      3.276      6.407
REMARK INTER + INTRA:          -1.923
REMARK INTER:                   0.000
REMARK INTRA:                  -1.923
REMARK UNBOUND:                -1.925
REMARK SMILES COc1cc(C=CCOC(=O)C=Cc2ccc(O)c(OC)c2)ccc1O
REMARK SMILES IDX 9 1 8 2 7 3 6 4 5 5 3 6 25 7 4 8 24 9 23 10 2 11 1 12 26 13
REMARK SMILES IDX 10 15 11 16 12 17 13 18 14 19 22 20 15 21 19 22 16 23 17 24
REMARK SMILES IDX 20 25 21 26 18 27
REMARK H PARENT 26 14 18 28
REMARK Flexibility Score: inf
ROOT
ATOM      1  O   UNL     1      17.431 111.967  92.658  1.00  0.00    -0.458 OA
ENDROOT
BRANCH   1   2
ATOM      2  C   UNL     1      17.058 113.289  92.273  1.00  0.00     0.261 C 
BRANCH   2   3
ATOM      3  C   UNL     1      16.702 114.111  93.477  1.00  0.00     0.015 C 
ATOM      4  C   UNL     1      17.623 114.415  94.400  1.00  0.00     0.007 C 
BRANCH   4   5
ATOM      5  C   UNL     1      17.344 115.225  95.611  1.00  0.00    -0.022 A 
ATOM      6  C   UNL     1      18.062 115.962  97.833  1.00  0.00     0.161 A 
ATOM      7  C   UNL     1      16.879 116.708  97.960  1.00  0.00     0.157 A 
ATOM      8  C   UNL     1      18.284 115.218  96.656  1.00  0.00     0.058 A 
ATOM      9  C   UNL     1      15.934 116.705  96.930  1.00  0.00     0.051 A 
ATOM     10  C   UNL     1      16.159 115.968  95.767  1.00  0.00     0.012 A 
BRANCH   6  11
ATOM     11  O   UNL     1      18.991 115.978  98.887  1.00  0.00    -0.493 OA
ATOM     12  C   UNL     1      19.983 114.981  99.107  1.00  0.00     0.278 C 
ENDBRANCH   6  11
BRANCH   7  13
ATOM     13  O   UNL     1      16.619 117.459  99.108  1.00  0.00    -0.504 OA
ATOM     14  H   UNL     1      15.695 117.813  99.324  1.00  0.00     0.293 HD
ENDBRANCH   7  13
ENDBRANCH   4   5
ENDBRANCH   2   3
ENDBRANCH   1   2
BRANCH   1  15
ATOM     15  C   UNL     1      16.571 111.089  93.325  1.00  0.00     0.331 C 
ATOM     16  O   UNL     1      15.634 110.516  92.702  1.00  0.00    -0.247 OA
BRANCH  15  17
ATOM     17  C   UNL     1      16.779 110.846  94.761  1.00  0.00     0.094 C 
ATOM     18  C   UNL     1      15.991 111.388  95.702  1.00  0.00     0.016 C 
BRANCH  18  19
ATOM     19  C   UNL     1      16.181 111.176  97.158  1.00  0.00    -0.021 A 
ATOM     20  C   UNL     1      16.547 112.274  97.956  1.00  0.00     0.058 A 
ATOM     21  C   UNL     1      15.974 109.927  97.773  1.00  0.00     0.012 A 
ATOM     22  C   UNL     1      16.732 112.129  99.345  1.00  0.00     0.161 A 
ATOM     23  C   UNL     1      16.155 109.779  99.149  1.00  0.00     0.051 A 
ATOM     24  C   UNL     1      16.535 110.873  99.935  1.00  0.00     0.157 A 
BRANCH  22  25
ATOM     25  O   UNL     1      17.107 113.202 100.167  1.00  0.00    -0.493 OA
ATOM     26  C   UNL     1      16.213 114.202 100.646  1.00  0.00     0.278 C 
ENDBRANCH  22  25
BRANCH  24  27
ATOM     27  O   UNL     1      16.716 110.722 101.309  1.00  0.00    -0.504 OA
ATOM     28  H   UNL     1      16.466 111.457 101.960  1.00  0.00     0.293 HD
ENDBRANCH  24  27
ENDBRANCH  18  19
ENDBRANCH  15  17
ENDBRANCH   1  15
TORSDOF 10
ENDMDL
MODEL 8
REMARK VINA RESULT:     0.001      9.963     13.215
REMARK INTER + INTRA:          -1.923
REMARK INTER:                   0.000
REMARK INTRA:                  -1.923
REMARK UNBOUND:                -1.925
REMARK SMILES COc1cc(C=CCOC(=O)C=Cc2ccc(O)c(OC)c2)ccc1O
REMARK SMILES IDX 9 1 8 2 7 3 6 4 5 5 3 6 25 7 4 8 24 9 23 10 2 11 1 12 26 13
REMARK SMILES IDX 10 15 11 16 12 17 13 18 14 19 22 20 15 21 19 22 16 23 17 24
REMARK SMILES IDX 20 25 21 26 18 27
REMARK H PARENT 26 14 18 28
REMARK Flexibility Score: inf
ROOT
ATOM      1  O   UNL     1      15.456 111.290  89.788  1.00  0.00    -0.458 OA
ENDROOT
BRANCH   1   2
ATOM      2  C   UNL     1      16.327 112.246  90.389  1.00  0.00     0.261 C 
BRANCH   2   3
ATOM      3  C   UNL     1      17.573 112.417  89.570  1.00  0.00     0.015 C 
ATOM      4  C   UNL     1      17.521 112.939  88.338  1.00  0.00     0.007 C 
BRANCH   4   5
ATOM      5  C   UNL     1      18.709 113.139  87.474  1.00  0.00    -0.022 A 
ATOM      6  C   UNL     1      19.608 113.593  85.242  1.00  0.00     0.161 A 
ATOM      7  C   UNL     1      20.912 113.501  85.756  1.00  0.00     0.157 A 
ATOM      8  C   UNL     1      18.512 113.404  86.108  1.00  0.00     0.058 A 
ATOM      9  C   UNL     1      21.113 113.222  87.110  1.00  0.00     0.051 A 
ATOM     10  C   UNL     1      20.025 113.038  87.964  1.00  0.00     0.012 A 
BRANCH   6  11
ATOM     11  O   UNL     1      19.435 113.868  83.875  1.00  0.00    -0.493 OA
ATOM     12  C   UNL     1      18.264 113.554  83.128  1.00  0.00     0.278 C 
ENDBRANCH   6  11
BRANCH   7  13
ATOM     13  O   UNL     1      22.026 113.681  84.934  1.00  0.00    -0.504 OA
ATOM     14  H   UNL     1      21.982 113.553  83.930  1.00  0.00     0.293 HD
ENDBRANCH   7  13
ENDBRANCH   4   5
ENDBRANCH   2   3
ENDBRANCH   1   2
BRANCH   1  15
ATOM     15  C   UNL     1      15.814 109.956  89.568  1.00  0.00     0.331 C 
ATOM     16  O   UNL     1      15.857 109.139  90.529  1.00  0.00    -0.247 OA
BRANCH  15  17
ATOM     17  C   UNL     1      16.137 109.525  88.198  1.00  0.00     0.094 C 
ATOM     18  C   UNL     1      17.397 109.306  87.794  1.00  0.00     0.016 C 
BRANCH  18  19
ATOM     19  C   UNL     1      17.760 108.886  86.418  1.00  0.00    -0.021 A 
ATOM     20  C   UNL     1      18.495 109.775  85.615  1.00  0.00     0.058 A 
ATOM     21  C   UNL     1      17.426 107.619  85.903  1.00  0.00     0.012 A 
ATOM     22  C   UNL     1      18.872 109.421  84.304  1.00  0.00     0.161 A 
ATOM     23  C   UNL     1      17.798 107.265  84.605  1.00  0.00     0.051 A 
ATOM     24  C   UNL     1      18.517 108.161  83.804  1.00  0.00     0.157 A 
BRANCH  22  25
ATOM     25  O   UNL     1      19.597 110.289  83.473  1.00  0.00    -0.493 OA
ATOM     26  C   UNL     1      21.005 110.491  83.550  1.00  0.00     0.278 C 
ENDBRANCH  22  25
BRANCH  24  27
ATOM     27  O   UNL     1      18.887 107.804  82.508  1.00  0.00    -0.504 OA
ATOM     28  H   UNL     1      19.853 107.627  82.263  1.00  0.00     0.293 HD
ENDBRANCH  24  27
ENDBRANCH  18  19
ENDBRANCH  15  17
ENDBRANCH   1  15
TORSDOF 10
ENDMDL
MODEL 9
REMARK VINA RESULT:     0.003      9.320     13.164
REMARK INTER + INTRA:          -1.920
REMARK INTER:                   0.000
REMARK INTRA:                  -1.920
REMARK UNBOUND:                -1.925
REMARK SMILES COc1cc(C=CCOC(=O)C=Cc2ccc(O)c(OC)c2)ccc1O
REMARK SMILES IDX 9 1 8 2 7 3 6 4 5 5 3 6 25 7 4 8 24 9 23 10 2 11 1 12 26 13
REMARK SMILES IDX 10 15 11 16 12 17 13 18 14 19 22 20 15 21 19 22 16 23 17 24
REMARK SMILES IDX 20 25 21 26 18 27
REMARK H PARENT 26 14 18 28
REMARK Flexibility Score: inf
ROOT
ATOM      1  O   UNL     1      20.333 114.629  93.582  1.00  0.00    -0.458 OA
ENDROOT
BRANCH   1   2
ATOM      2  C   UNL     1      19.574 115.203  92.521  1.00  0.00     0.261 C 
BRANCH   2   3
ATOM      3  C   UNL     1      20.446 116.051  91.643  1.00  0.00     0.015 C 
ATOM      4  C   UNL     1      21.456 115.511  90.948  1.00  0.00     0.007 C 
BRANCH   4   5
ATOM      5  C   UNL     1      22.355 116.286  90.059  1.00  0.00    -0.022 A 
ATOM      6  C   UNL     1      24.472 116.408  88.834  1.00  0.00     0.161 A 
ATOM      7  C   UNL     1      24.137 117.701  88.399  1.00  0.00     0.157 A 
ATOM      8  C   UNL     1      23.576 115.710  89.669  1.00  0.00     0.058 A 
ATOM      9  C   UNL     1      22.931 118.284  88.796  1.00  0.00     0.051 A 
ATOM     10  C   UNL     1      22.047 117.588  89.622  1.00  0.00     0.012 A 
BRANCH   6  11
ATOM     11  O   UNL     1      25.694 115.850  88.424  1.00  0.00    -0.493 OA
ATOM     12  C   UNL     1      26.337 114.752  89.064  1.00  0.00     0.278 C 
ENDBRANCH   6  11
BRANCH   7  13
ATOM     13  O   UNL     1      24.994 118.428  87.570  1.00  0.00    -0.504 OA
ATOM     14  H   UNL     1      24.657 119.150  86.945  1.00  0.00     0.293 HD
ENDBRANCH   7  13
ENDBRANCH   4   5
ENDBRANCH   2   3
ENDBRANCH   1   2
BRANCH   1  15
ATOM     15  C   UNL     1      20.966 115.388  94.573  1.00  0.00     0.331 C 
ATOM     16  O   UNL     1      20.291 115.920  95.498  1.00  0.00    -0.247 OA
BRANCH  15  17
ATOM     17  C   UNL     1      22.427 115.553  94.515  1.00  0.00     0.094 C 
ATOM     18  C   UNL     1      23.004 116.682  94.077  1.00  0.00     0.016 C 
BRANCH  18  19
ATOM     19  C   UNL     1      24.473 116.877  93.992  1.00  0.00    -0.021 A 
ATOM     20  C   UNL     1      25.059 117.028  92.724  1.00  0.00     0.058 A 
ATOM     21  C   UNL     1      25.292 116.950  95.135  1.00  0.00     0.012 A 
ATOM     22  C   UNL     1      26.448 117.224  92.589  1.00  0.00     0.161 A 
ATOM     23  C   UNL     1      26.668 117.145  95.004  1.00  0.00     0.051 A 
ATOM     24  C   UNL     1      27.248 117.279  93.738  1.00  0.00     0.157 A 
BRANCH  22  25
ATOM     25  O   UNL     1      27.065 117.369  91.337  1.00  0.00    -0.493 OA
ATOM     26  C   UNL     1      27.062 118.569  90.570  1.00  0.00     0.278 C 
ENDBRANCH  22  25
BRANCH  24  27
ATOM     27  O   UNL     1      28.623 117.474  93.611  1.00  0.00    -0.504 OA
ATOM     28  H   UNL     1      29.226 116.759  93.222  1.00  0.00     0.293 HD
ENDBRANCH  24  27
ENDBRANCH  18  19
ENDBRANCH  15  17
ENDBRANCH   1  15
TORSDOF 10
ENDMDL
