MODEL 1
REMARK VINA RESULT:    -5.406      0.000      0.000
REMARK INTER + INTRA:          -6.531
REMARK INTER:                  -6.196
REMARK INTRA:                  -0.335
REMARK UNBOUND:                -0.335
REMARK SMILES COc1ccc(C(C)=O)c(O)c1
REMARK SMILES IDX 6 1 10 2 12 3 3 4 4 5 5 6 7 7 8 8 9 9 11 10 2 12 1 13
REMARK H PARENT 11 11
REMARK Flexibility Score: inf
ROOT
ATOM      1  C   UNL     1      -8.143  19.951  67.579  1.00  0.00     0.059 A 
ATOM      2  C   UNL     1      -7.474  19.294  68.638  1.00  0.00     0.130 A 
ATOM      3  C   UNL     1      -7.654  19.732  69.960  1.00  0.00     0.093 A 
ATOM      4  C   UNL     1      -8.482  20.832  70.245  1.00  0.00     0.122 A 
ATOM      5  C   UNL     1      -9.125  21.489  69.195  1.00  0.00     0.047 A 
ATOM      6  C   UNL     1      -8.957  21.058  67.877  1.00  0.00     0.019 A 
ENDROOT
BRANCH   1   7
ATOM      7  C   UNL     1      -8.007  19.526  66.160  1.00  0.00     0.163 C 
ATOM      8  C   UNL     1      -7.616  20.478  65.069  1.00  0.00     0.093 C 
ATOM      9  O   UNL     1      -8.223  18.323  65.851  1.00  0.00    -0.294 OA
ENDBRANCH   1   7
BRANCH   2  10
ATOM     10  O   UNL     1      -6.615  18.225  68.386  1.00  0.00    -0.507 OA
ATOM     11  H   UNL     1      -5.946  17.903  69.075  1.00  0.00     0.293 HD
ENDBRANCH   2  10
BRANCH   4  12
ATOM     12  O   UNL     1      -8.688  21.301  71.551  1.00  0.00    -0.497 OA
ATOM     13  C   UNL     1      -8.946  20.466  72.675  1.00  0.00     0.278 C 
ENDBRANCH   4  12
TORSDOF 3
ENDMDL
MODEL 2
REMARK VINA RESULT:    -5.229      1.423      4.654
REMARK INTER + INTRA:          -6.328
REMARK INTER:                  -6.001
REMARK INTRA:                  -0.327
REMARK UNBOUND:                -0.335
REMARK SMILES COc1ccc(C(C)=O)c(O)c1
REMARK SMILES IDX 6 1 10 2 12 3 3 4 4 5 5 6 7 7 8 8 9 9 11 10 2 12 1 13
REMARK H PARENT 11 11
REMARK Flexibility Score: inf
ROOT
ATOM      1  C   UNL     1      -7.785  20.538  69.844  1.00  0.00     0.059 A 
ATOM      2  C   UNL     1      -7.474  19.214  69.451  1.00  0.00     0.130 A 
ATOM      3  C   UNL     1      -7.126  18.942  68.119  1.00  0.00     0.093 A 
ATOM      4  C   UNL     1      -7.097  19.970  67.160  1.00  0.00     0.122 A 
ATOM      5  C   UNL     1      -7.422  21.271  67.548  1.00  0.00     0.047 A 
ATOM      6  C   UNL     1      -7.765  21.553  68.872  1.00  0.00     0.019 A 
ENDROOT
BRANCH   1   7
ATOM      7  C   UNL     1      -8.145  20.893  71.242  1.00  0.00     0.163 C 
ATOM      8  C   UNL     1      -9.125  21.981  71.568  1.00  0.00     0.093 C 
ATOM      9  O   UNL     1      -7.615  20.264  72.198  1.00  0.00    -0.294 OA
ENDBRANCH   1   7
BRANCH   2  10
ATOM     10  O   UNL     1      -7.533  18.165  70.367  1.00  0.00    -0.507 OA
ATOM     11  H   UNL     1      -8.375  17.960  70.891  1.00  0.00     0.293 HD
ENDBRANCH   2  10
BRANCH   4  12
ATOM     12  O   UNL     1      -6.755  19.740  65.819  1.00  0.00    -0.497 OA
ATOM     13  C   UNL     1      -7.238  20.507  64.721  1.00  0.00     0.278 C 
ENDBRANCH   4  12
TORSDOF 3
ENDMDL
MODEL 3
REMARK VINA RESULT:    -5.126      1.532      4.713
REMARK INTER + INTRA:          -6.210
REMARK INTER:                  -5.936
REMARK INTRA:                  -0.273
REMARK UNBOUND:                -0.335
REMARK SMILES COc1ccc(C(C)=O)c(O)c1
REMARK SMILES IDX 6 1 10 2 12 3 3 4 4 5 5 6 7 7 8 8 9 9 11 10 2 12 1 13
REMARK H PARENT 11 11
REMARK Flexibility Score: inf
ROOT
ATOM      1  C   UNL     1      -7.621  20.473  68.578  1.00  0.00     0.059 A 
ATOM      2  C   UNL     1      -7.400  19.193  68.017  1.00  0.00     0.130 A 
ATOM      3  C   UNL     1      -7.396  19.030  66.623  1.00  0.00     0.093 A 
ATOM      4  C   UNL     1      -7.626  20.125  65.771  1.00  0.00     0.122 A 
ATOM      5  C   UNL     1      -7.862  21.382  66.330  1.00  0.00     0.047 A 
ATOM      6  C   UNL     1      -7.863  21.556  67.715  1.00  0.00     0.019 A 
ENDROOT
BRANCH   1   7
ATOM      7  C   UNL     1      -7.621  20.714  70.046  1.00  0.00     0.163 C 
ATOM      8  C   UNL     1      -7.389  22.073  70.637  1.00  0.00     0.093 C 
ATOM      9  O   UNL     1      -7.824  19.750  70.832  1.00  0.00    -0.294 OA
ENDBRANCH   1   7
BRANCH   2  10
ATOM     10  O   UNL     1      -7.208  18.079  68.834  1.00  0.00    -0.507 OA
ATOM     11  H   UNL     1      -6.282  17.745  69.073  1.00  0.00     0.293 HD
ENDBRANCH   2  10
BRANCH   4  12
ATOM     12  O   UNL     1      -7.631  20.003  64.374  1.00  0.00    -0.497 OA
ATOM     13  C   UNL     1      -7.085  20.967  63.480  1.00  0.00     0.278 C 
ENDBRANCH   4  12
TORSDOF 3
ENDMDL
MODEL 4
REMARK VINA RESULT:    -5.051      3.029      4.662
REMARK INTER + INTRA:          -6.124
REMARK INTER:                  -5.822
REMARK INTRA:                  -0.302
REMARK UNBOUND:                -0.335
REMARK SMILES COc1ccc(C(C)=O)c(O)c1
REMARK SMILES IDX 6 1 10 2 12 3 3 4 4 5 5 6 7 7 8 8 9 9 11 10 2 12 1 13
REMARK H PARENT 11 11
REMARK Flexibility Score: inf
ROOT
ATOM      1  C   UNL     1      -7.724  21.509  68.741  1.00  0.00     0.059 A 
ATOM      2  C   UNL     1      -7.517  22.781  69.325  1.00  0.00     0.130 A 
ATOM      3  C   UNL     1      -7.627  23.939  68.539  1.00  0.00     0.093 A 
ATOM      4  C   UNL     1      -7.927  23.851  67.168  1.00  0.00     0.122 A 
ATOM      5  C   UNL     1      -8.112  22.593  66.593  1.00  0.00     0.047 A 
ATOM      6  C   UNL     1      -8.010  21.435  67.366  1.00  0.00     0.019 A 
ENDROOT
BRANCH   1   7
ATOM      7  C   UNL     1      -7.637  20.246  69.522  1.00  0.00     0.163 C 
ATOM      8  C   UNL     1      -7.310  18.928  68.886  1.00  0.00     0.093 C 
ATOM      9  O   UNL     1      -7.842  20.272  70.766  1.00  0.00    -0.294 OA
ENDBRANCH   1   7
BRANCH   2  10
ATOM     10  O   UNL     1      -7.178  22.902  70.672  1.00  0.00    -0.507 OA
ATOM     11  H   UNL     1      -6.843  22.113  71.211  1.00  0.00     0.293 HD
ENDBRANCH   2  10
BRANCH   4  12
ATOM     12  O   UNL     1      -8.045  24.983  66.349  1.00  0.00    -0.497 OA
ATOM     13  C   UNL     1      -7.948  26.326  66.812  1.00  0.00     0.278 C 
ENDBRANCH   4  12
TORSDOF 3
ENDMDL
MODEL 5
REMARK VINA RESULT:    -5.036      1.581      5.112
REMARK INTER + INTRA:          -6.106
REMARK INTER:                  -5.765
REMARK INTRA:                  -0.341
REMARK UNBOUND:                -0.335
REMARK SMILES COc1ccc(C(C)=O)c(O)c1
REMARK SMILES IDX 6 1 10 2 12 3 3 4 4 5 5 6 7 7 8 8 9 9 11 10 2 12 1 13
REMARK H PARENT 11 11
REMARK Flexibility Score: inf
ROOT
ATOM      1  C   UNL     1      -7.992  21.208  70.150  1.00  0.00     0.059 A 
ATOM      2  C   UNL     1      -7.637  22.267  69.282  1.00  0.00     0.130 A 
ATOM      3  C   UNL     1      -7.289  21.995  67.950  1.00  0.00     0.093 A 
ATOM      4  C   UNL     1      -7.273  20.675  67.467  1.00  0.00     0.122 A 
ATOM      5  C   UNL     1      -7.607  19.631  68.332  1.00  0.00     0.047 A 
ATOM      6  C   UNL     1      -7.959  19.891  69.658  1.00  0.00     0.019 A 
ENDROOT
BRANCH   1   7
ATOM      7  C   UNL     1      -8.386  21.432  71.567  1.00  0.00     0.163 C 
ATOM      8  C   UNL     1      -7.936  20.531  72.678  1.00  0.00     0.093 C 
ATOM      9  O   UNL     1      -9.123  22.413  71.857  1.00  0.00    -0.294 OA
ENDBRANCH   1   7
BRANCH   2  10
ATOM     10  O   UNL     1      -7.603  23.584  69.740  1.00  0.00    -0.507 OA
ATOM     11  H   UNL     1      -8.312  23.951  70.364  1.00  0.00     0.293 HD
ENDBRANCH   2  10
BRANCH   4  12
ATOM     12  O   UNL     1      -6.931  20.361  66.143  1.00  0.00    -0.497 OA
ATOM     13  C   UNL     1      -7.261  19.138  65.495  1.00  0.00     0.278 C 
ENDBRANCH   4  12
TORSDOF 3
ENDMDL
MODEL 6
REMARK VINA RESULT:    -4.994      1.453      5.067
REMARK INTER + INTRA:          -6.058
REMARK INTER:                  -5.762
REMARK INTRA:                  -0.296
REMARK UNBOUND:                -0.335
REMARK SMILES COc1ccc(C(C)=O)c(O)c1
REMARK SMILES IDX 6 1 10 2 12 3 3 4 4 5 5 6 7 7 8 8 9 9 11 10 2 12 1 13
REMARK H PARENT 11 11
REMARK Flexibility Score: inf
ROOT
ATOM      1  C   UNL     1      -7.779  20.319  69.452  1.00  0.00     0.059 A 
ATOM      2  C   UNL     1      -8.238  21.268  68.509  1.00  0.00     0.130 A 
ATOM      3  C   UNL     1      -8.020  21.056  67.138  1.00  0.00     0.093 A 
ATOM      4  C   UNL     1      -7.334  19.914  66.688  1.00  0.00     0.122 A 
ATOM      5  C   UNL     1      -6.867  18.990  67.624  1.00  0.00     0.047 A 
ATOM      6  C   UNL     1      -7.082  19.188  68.989  1.00  0.00     0.019 A 
ENDROOT
BRANCH   1   7
ATOM      7  C   UNL     1      -7.992  20.478  70.915  1.00  0.00     0.163 C 
ATOM      8  C   UNL     1      -8.032  19.308  71.853  1.00  0.00     0.093 C 
ATOM      9  O   UNL     1      -8.143  21.633  71.397  1.00  0.00    -0.294 OA
ENDBRANCH   1   7
BRANCH   2  10
ATOM     10  O   UNL     1      -8.886  22.431  68.923  1.00  0.00    -0.507 OA
ATOM     11  H   UNL     1      -8.392  23.179  69.395  1.00  0.00     0.293 HD
ENDBRANCH   2  10
BRANCH   4  12
ATOM     12  O   UNL     1      -7.096  19.666  65.328  1.00  0.00    -0.497 OA
ATOM     13  C   UNL     1      -7.235  20.636  64.296  1.00  0.00     0.278 C 
ENDBRANCH   4  12
TORSDOF 3
ENDMDL
MODEL 7
REMARK VINA RESULT:    -4.991      1.638      2.179
REMARK INTER + INTRA:          -6.056
REMARK INTER:                  -5.727
REMARK INTRA:                  -0.329
REMARK UNBOUND:                -0.335
REMARK SMILES COc1ccc(C(C)=O)c(O)c1
REMARK SMILES IDX 6 1 10 2 12 3 3 4 4 5 5 6 7 7 8 8 9 9 11 10 2 12 1 13
REMARK H PARENT 11 11
REMARK Flexibility Score: inf
ROOT
ATOM      1  C   UNL     1      -7.562  19.883  67.663  1.00  0.00     0.059 A 
ATOM      2  C   UNL     1      -7.627  21.230  68.093  1.00  0.00     0.130 A 
ATOM      3  C   UNL     1      -7.621  21.529  69.465  1.00  0.00     0.093 A 
ATOM      4  C   UNL     1      -7.567  20.501  70.423  1.00  0.00     0.122 A 
ATOM      5  C   UNL     1      -7.521  19.174  69.995  1.00  0.00     0.047 A 
ATOM      6  C   UNL     1      -7.522  18.866  68.633  1.00  0.00     0.019 A 
ENDROOT
BRANCH   1   7
ATOM      7  C   UNL     1      -7.549  19.502  66.226  1.00  0.00     0.163 C 
ATOM      8  C   UNL     1      -8.291  18.308  65.703  1.00  0.00     0.093 C 
ATOM      9  O   UNL     1      -6.894  20.201  65.406  1.00  0.00    -0.294 OA
ENDBRANCH   1   7
BRANCH   2  10
ATOM     10  O   UNL     1      -7.723  22.270  67.170  1.00  0.00    -0.507 OA
ATOM     11  H   UNL     1      -7.877  23.228  67.459  1.00  0.00     0.293 HD
ENDBRANCH   2  10
BRANCH   4  12
ATOM     12  O   UNL     1      -7.559  20.758  71.802  1.00  0.00    -0.497 OA
ATOM     13  C   UNL     1      -8.718  20.758  72.628  1.00  0.00     0.278 C 
ENDBRANCH   4  12
TORSDOF 3
ENDMDL
MODEL 8
REMARK VINA RESULT:    -4.938      2.577      3.129
REMARK INTER + INTRA:          -5.995
REMARK INTER:                  -5.694
REMARK INTRA:                  -0.301
REMARK UNBOUND:                -0.335
REMARK SMILES COc1ccc(C(C)=O)c(O)c1
REMARK SMILES IDX 6 1 10 2 12 3 3 4 4 5 5 6 7 7 8 8 9 9 11 10 2 12 1 13
REMARK H PARENT 11 11
REMARK Flexibility Score: inf
ROOT
ATOM      1  C   UNL     1      -8.025  22.332  67.778  1.00  0.00     0.059 A 
ATOM      2  C   UNL     1      -7.394  23.066  68.811  1.00  0.00     0.130 A 
ATOM      3  C   UNL     1      -7.252  22.500  70.088  1.00  0.00     0.093 A 
ATOM      4  C   UNL     1      -7.746  21.212  70.360  1.00  0.00     0.122 A 
ATOM      5  C   UNL     1      -8.384  20.499  69.344  1.00  0.00     0.047 A 
ATOM      6  C   UNL     1      -8.525  21.051  68.069  1.00  0.00     0.019 A 
ENDROOT
BRANCH   1   7
ATOM      7  C   UNL     1      -8.191  22.869  66.401  1.00  0.00     0.163 C 
ATOM      8  C   UNL     1      -8.266  21.981  65.196  1.00  0.00     0.093 C 
ATOM      9  O   UNL     1      -8.275  24.116  66.229  1.00  0.00    -0.294 OA
ENDBRANCH   1   7
BRANCH   2  10
ATOM     10  O   UNL     1      -6.930  24.361  68.585  1.00  0.00    -0.507 OA
ATOM     11  H   UNL     1      -6.512  24.633  67.703  1.00  0.00     0.293 HD
ENDBRANCH   2  10
BRANCH   4  12
ATOM     12  O   UNL     1      -7.625  20.611  71.622  1.00  0.00    -0.497 OA
ATOM     13  C   UNL     1      -8.649  20.601  72.611  1.00  0.00     0.278 C 
ENDBRANCH   4  12
TORSDOF 3
ENDMDL
MODEL 9
REMARK VINA RESULT:    -4.920      3.009      4.918
REMARK INTER + INTRA:          -5.973
REMARK INTER:                  -5.628
REMARK INTRA:                  -0.345
REMARK UNBOUND:                -0.335
REMARK SMILES COc1ccc(C(C)=O)c(O)c1
REMARK SMILES IDX 6 1 10 2 12 3 3 4 4 5 5 6 7 7 8 8 9 9 11 10 2 12 1 13
REMARK H PARENT 11 11
REMARK Flexibility Score: inf
ROOT
ATOM      1  C   UNL     1      -7.923  23.548  67.644  1.00  0.00     0.059 A 
ATOM      2  C   UNL     1      -7.267  22.827  68.669  1.00  0.00     0.130 A 
ATOM      3  C   UNL     1      -6.965  21.468  68.489  1.00  0.00     0.093 A 
ATOM      4  C   UNL     1      -7.324  20.805  67.302  1.00  0.00     0.122 A 
ATOM      5  C   UNL     1      -7.987  21.515  66.300  1.00  0.00     0.047 A 
ATOM      6  C   UNL     1      -8.287  22.868  66.468  1.00  0.00     0.019 A 
ENDROOT
BRANCH   1   7
ATOM      7  C   UNL     1      -8.255  24.992  67.767  1.00  0.00     0.163 C 
ATOM      8  C   UNL     1      -7.964  25.980  66.677  1.00  0.00     0.093 C 
ATOM      9  O   UNL     1      -8.803  25.414  68.821  1.00  0.00    -0.294 OA
ENDBRANCH   1   7
BRANCH   2  10
ATOM     10  O   UNL     1      -6.933  23.444  69.874  1.00  0.00    -0.507 OA
ATOM     11  H   UNL     1      -6.595  22.915  70.670  1.00  0.00     0.293 HD
ENDBRANCH   2  10
BRANCH   4  12
ATOM     12  O   UNL     1      -7.042  19.448  67.082  1.00  0.00    -0.497 OA
ATOM     13  C   UNL     1      -7.128  18.802  65.817  1.00  0.00     0.278 C 
ENDBRANCH   4  12
TORSDOF 3
ENDMDL
