MODEL 1
REMARK VINA RESULT:    -6.740      0.000      0.000
REMARK INTER + INTRA:          -8.406
REMARK INTER:                  -8.119
REMARK INTRA:                  -0.287
REMARK UNBOUND:                -0.287
REMARK SMILES O=c1c(O)c(-c2ccc(O)cc2O)oc2cc(O)cc(O)c12
REMARK SMILES IDX 5 1 3 2 2 3 1 4 22 5 20 6 19 7 17 8 16 9 15 10 14 11 6 12
REMARK SMILES IDX 8 13 7 14 9 15 11 16 12 17 10 18 13 20 4 22 21 24 18 26
REMARK H PARENT 10 19 13 21 4 23 21 25 18 27
REMARK Flexibility Score: inf
ROOT
ATOM      1  C   UNL     1      -0.438   1.445  -3.406  1.00  0.00     0.184 A 
ATOM      2  C   UNL     1       0.724   0.884  -3.966  1.00  0.00     0.208 A 
ATOM      3  C   UNL     1       1.179  -0.354  -3.484  1.00  0.00     0.238 A 
ATOM      4  O   UNL     1       2.225  -0.861  -3.971  1.00  0.00    -0.285 OA
ATOM      5  C   UNL     1       0.454  -1.014  -2.471  1.00  0.00     0.111 A 
ATOM      6  C   UNL     1       0.841  -2.266  -1.934  1.00  0.00     0.134 A 
ATOM      7  C   UNL     1       0.062  -2.864  -0.932  1.00  0.00     0.093 A 
ATOM      8  C   UNL     1      -1.096  -2.236  -0.460  1.00  0.00     0.123 A 
ATOM      9  C   UNL     1      -1.481  -1.002  -0.987  1.00  0.00     0.094 A 
ATOM     10  C   UNL     1      -0.718  -0.389  -1.984  1.00  0.00     0.146 A 
ATOM     11  O   UNL     1      -1.106   0.788  -2.463  1.00  0.00    -0.451 OA
ENDROOT
BRANCH   1  12
ATOM     12  C   UNL     1      -0.964   2.750  -3.858  1.00  0.00     0.063 A 
ATOM     13  C   UNL     1      -1.799   4.137  -5.671  1.00  0.00     0.047 A 
ATOM     14  C   UNL     1      -1.294   2.918  -5.211  1.00  0.00     0.020 A 
ATOM     15  C   UNL     1      -1.995   5.197  -4.783  1.00  0.00     0.119 A 
ATOM     16  C   UNL     1      -1.691   5.032  -3.425  1.00  0.00     0.093 A 
ATOM     17  C   UNL     1      -1.188   3.810  -2.955  1.00  0.00     0.130 A 
BRANCH  15  18
ATOM     18  O   UNL     1      -2.495   6.408  -5.256  1.00  0.00    -0.508 OA
ATOM     19  H   UNL     1      -3.486   6.543  -5.424  1.00  0.00     0.293 HD
ENDBRANCH  15  18
BRANCH  17  20
ATOM     20  O   UNL     1      -0.935   3.641  -1.593  1.00  0.00    -0.507 OA
ATOM     21  H   UNL     1      -1.021   4.409  -0.937  1.00  0.00     0.293 HD
ENDBRANCH  17  20
ENDBRANCH   1  12
BRANCH   2  22
ATOM     22  O   UNL     1       1.393   1.543  -5.000  1.00  0.00    -0.502 OA
ATOM     23  H   UNL     1       2.055   2.292  -4.827  1.00  0.00     0.293 HD
ENDBRANCH   2  22
BRANCH   6  24
ATOM     24  O   UNL     1       1.990  -2.917  -2.385  1.00  0.00    -0.507 OA
ATOM     25  H   UNL     1       1.941  -3.737  -2.978  1.00  0.00     0.293 HD
ENDBRANCH   6  24
BRANCH   8  26
ATOM     26  O   UNL     1      -1.871  -2.830   0.533  1.00  0.00    -0.508 OA
ATOM     27  H   UNL     1      -2.864  -2.642   0.615  1.00  0.00     0.293 HD
ENDBRANCH   8  26
TORSDOF 6
ENDMDL
MODEL 2
REMARK VINA RESULT:    -6.464      1.666      3.160
REMARK INTER + INTRA:          -8.073
REMARK INTER:                  -7.663
REMARK INTRA:                  -0.410
REMARK UNBOUND:                -0.287
REMARK SMILES O=c1c(O)c(-c2ccc(O)cc2O)oc2cc(O)cc(O)c12
REMARK SMILES IDX 5 1 3 2 2 3 1 4 22 5 20 6 19 7 17 8 16 9 15 10 14 11 6 12
REMARK SMILES IDX 8 13 7 14 9 15 11 16 12 17 10 18 13 20 4 22 21 24 18 26
REMARK H PARENT 10 19 13 21 4 23 21 25 18 27
REMARK Flexibility Score: inf
ROOT
ATOM      1  C   UNL     1       0.027   1.044  -2.762  1.00  0.00     0.184 A 
ATOM      2  C   UNL     1      -0.835   0.349  -1.895  1.00  0.00     0.208 A 
ATOM      3  C   UNL     1      -0.615  -1.019  -1.674  1.00  0.00     0.238 A 
ATOM      4  O   UNL     1      -1.388  -1.655  -0.907  1.00  0.00    -0.285 OA
ATOM      5  C   UNL     1       0.470  -1.661  -2.305  1.00  0.00     0.111 A 
ATOM      6  C   UNL     1       0.764  -3.035  -2.133  1.00  0.00     0.134 A 
ATOM      7  C   UNL     1       1.868  -3.598  -2.790  1.00  0.00     0.093 A 
ATOM      8  C   UNL     1       2.684  -2.814  -3.613  1.00  0.00     0.123 A 
ATOM      9  C   UNL     1       2.398  -1.459  -3.786  1.00  0.00     0.094 A 
ATOM     10  C   UNL     1       1.302  -0.879  -3.143  1.00  0.00     0.146 A 
ATOM     11  O   UNL     1       1.050   0.413  -3.329  1.00  0.00    -0.451 OA
ENDROOT
BRANCH   1  12
ATOM     12  C   UNL     1      -0.154   2.482  -3.048  1.00  0.00     0.063 A 
ATOM     13  C   UNL     1      -1.341   4.226  -4.256  1.00  0.00     0.047 A 
ATOM     14  C   UNL     1      -1.140   2.874  -3.967  1.00  0.00     0.020 A 
ATOM     15  C   UNL     1      -0.571   5.204  -3.621  1.00  0.00     0.119 A 
ATOM     16  C   UNL     1       0.400   4.824  -2.685  1.00  0.00     0.093 A 
ATOM     17  C   UNL     1       0.605   3.470  -2.385  1.00  0.00     0.130 A 
BRANCH  15  18
ATOM     18  O   UNL     1      -0.780   6.548  -3.922  1.00  0.00    -0.508 OA
ATOM     19  H   UNL     1      -1.560   7.064  -3.532  1.00  0.00     0.293 HD
ENDBRANCH  15  18
BRANCH  17  20
ATOM     20  O   UNL     1       1.541   3.106  -1.416  1.00  0.00    -0.507 OA
ATOM     21  H   UNL     1       2.072   3.801  -0.903  1.00  0.00     0.293 HD
ENDBRANCH  17  20
ENDBRANCH   1  12
BRANCH   2  22
ATOM     22  O   UNL     1      -1.874   1.025  -1.250  1.00  0.00    -0.502 OA
ATOM     23  H   UNL     1      -2.259   1.892  -1.606  1.00  0.00     0.293 HD
ENDBRANCH   2  22
BRANCH   6  24
ATOM     24  O   UNL     1      -0.030  -3.842  -1.317  1.00  0.00    -0.507 OA
ATOM     25  H   UNL     1      -0.924  -3.525  -0.961  1.00  0.00     0.293 HD
ENDBRANCH   6  24
BRANCH   8  26
ATOM     26  O   UNL     1       3.782  -3.373  -4.264  1.00  0.00    -0.508 OA
ATOM     27  H   UNL     1       4.730  -3.099  -4.034  1.00  0.00     0.293 HD
ENDBRANCH   8  26
TORSDOF 6
ENDMDL
MODEL 3
REMARK VINA RESULT:    -6.346      2.239      3.637
REMARK INTER + INTRA:          -7.932
REMARK INTER:                  -7.596
REMARK INTRA:                  -0.336
REMARK UNBOUND:                -0.287
REMARK SMILES O=c1c(O)c(-c2ccc(O)cc2O)oc2cc(O)cc(O)c12
REMARK SMILES IDX 5 1 3 2 2 3 1 4 22 5 20 6 19 7 17 8 16 9 15 10 14 11 6 12
REMARK SMILES IDX 8 13 7 14 9 15 11 16 12 17 10 18 13 20 4 22 21 24 18 26
REMARK H PARENT 10 19 13 21 4 23 21 25 18 27
REMARK Flexibility Score: inf
ROOT
ATOM      1  C   UNL     1       0.619   3.177  -3.015  1.00  0.00     0.184 A 
ATOM      2  C   UNL     1      -0.517   2.607  -2.414  1.00  0.00     0.208 A 
ATOM      3  C   UNL     1      -0.539   1.222  -2.184  1.00  0.00     0.238 A 
ATOM      4  O   UNL     1      -1.556   0.698  -1.655  1.00  0.00    -0.285 OA
ATOM      5  C   UNL     1       0.579   0.440  -2.540  1.00  0.00     0.111 A 
ATOM      6  C   UNL     1       0.640  -0.960  -2.338  1.00  0.00     0.134 A 
ATOM      7  C   UNL     1       1.792  -1.667  -2.712  1.00  0.00     0.093 A 
ATOM      8  C   UNL     1       2.885  -1.001  -3.280  1.00  0.00     0.123 A 
ATOM      9  C   UNL     1       2.829   0.379  -3.480  1.00  0.00     0.094 A 
ATOM     10  C   UNL     1       1.689   1.102  -3.117  1.00  0.00     0.146 A 
ATOM     11  O   UNL     1       1.662   2.414  -3.324  1.00  0.00    -0.451 OA
ENDROOT
BRANCH   1  12
ATOM     12  C   UNL     1       0.703   4.626  -3.296  1.00  0.00     0.063 A 
ATOM     13  C   UNL     1       0.587   6.439  -4.911  1.00  0.00     0.047 A 
ATOM     14  C   UNL     1       0.519   5.075  -4.612  1.00  0.00     0.020 A 
ATOM     15  C   UNL     1       0.824   7.370  -3.897  1.00  0.00     0.119 A 
ATOM     16  C   UNL     1       0.987   6.934  -2.575  1.00  0.00     0.093 A 
ATOM     17  C   UNL     1       0.915   5.567  -2.267  1.00  0.00     0.130 A 
BRANCH  15  18
ATOM     18  O   UNL     1       0.894   8.726  -4.211  1.00  0.00    -0.508 OA
ATOM     19  H   UNL     1       1.390   9.055  -5.031  1.00  0.00     0.293 HD
ENDBRANCH  15  18
BRANCH  17  20
ATOM     20  O   UNL     1       1.030   5.149  -0.940  1.00  0.00    -0.507 OA
ATOM     21  H   UNL     1       1.842   4.639  -0.613  1.00  0.00     0.293 HD
ENDBRANCH  17  20
ENDBRANCH   1  12
BRANCH   2  22
ATOM     22  O   UNL     1      -1.590   3.416  -2.032  1.00  0.00    -0.502 OA
ATOM     23  H   UNL     1      -2.551   3.099  -2.078  1.00  0.00     0.293 HD
ENDBRANCH   2  22
BRANCH   6  24
ATOM     24  O   UNL     1      -0.433  -1.652  -1.773  1.00  0.00    -0.507 OA
ATOM     25  H   UNL     1      -0.589  -2.635  -1.957  1.00  0.00     0.293 HD
ENDBRANCH   6  24
BRANCH   8  26
ATOM     26  O   UNL     1       4.030  -1.703  -3.649  1.00  0.00    -0.508 OA
ATOM     27  H   UNL     1       4.734  -1.964  -2.968  1.00  0.00     0.293 HD
ENDBRANCH   8  26
TORSDOF 6
ENDMDL
MODEL 4
REMARK VINA RESULT:    -6.129      2.157      4.116
REMARK INTER + INTRA:          -7.670
REMARK INTER:                  -7.255
REMARK INTRA:                  -0.416
REMARK UNBOUND:                -0.287
REMARK SMILES O=c1c(O)c(-c2ccc(O)cc2O)oc2cc(O)cc(O)c12
REMARK SMILES IDX 5 1 3 2 2 3 1 4 22 5 20 6 19 7 17 8 16 9 15 10 14 11 6 12
REMARK SMILES IDX 8 13 7 14 9 15 11 16 12 17 10 18 13 20 4 22 21 24 18 26
REMARK H PARENT 10 19 13 21 4 23 21 25 18 27
REMARK Flexibility Score: inf
ROOT
ATOM      1  C   UNL     1       0.732  -0.083  -2.742  1.00  0.00     0.184 A 
ATOM      2  C   UNL     1       0.054  -1.254  -2.360  1.00  0.00     0.208 A 
ATOM      3  C   UNL     1       0.743  -2.477  -2.394  1.00  0.00     0.238 A 
ATOM      4  O   UNL     1       0.143  -3.535  -2.063  1.00  0.00    -0.285 OA
ATOM      5  C   UNL     1       2.096  -2.502  -2.788  1.00  0.00     0.111 A 
ATOM      6  C   UNL     1       2.863  -3.690  -2.846  1.00  0.00     0.134 A 
ATOM      7  C   UNL     1       4.208  -3.632  -3.241  1.00  0.00     0.093 A 
ATOM      8  C   UNL     1       4.800  -2.409  -3.577  1.00  0.00     0.123 A 
ATOM      9  C   UNL     1       4.048  -1.235  -3.521  1.00  0.00     0.094 A 
ATOM     10  C   UNL     1       2.706  -1.272  -3.132  1.00  0.00     0.146 A 
ATOM     11  O   UNL     1       2.012  -0.139  -3.093  1.00  0.00    -0.451 OA
ENDROOT
BRANCH   1  12
ATOM     12  C   UNL     1       0.063   1.236  -2.740  1.00  0.00     0.063 A 
ATOM     13  C   UNL     1      -0.485   3.285  -1.553  1.00  0.00     0.047 A 
ATOM     14  C   UNL     1       0.132   2.032  -1.587  1.00  0.00     0.020 A 
ATOM     15  C   UNL     1      -1.164   3.765  -2.675  1.00  0.00     0.119 A 
ATOM     16  C   UNL     1      -1.219   2.988  -3.840  1.00  0.00     0.093 A 
ATOM     17  C   UNL     1      -0.598   1.731  -3.883  1.00  0.00     0.130 A 
BRANCH  15  18
ATOM     18  O   UNL     1      -1.778   5.015  -2.626  1.00  0.00    -0.508 OA
ATOM     19  H   UNL     1      -1.724   5.663  -3.403  1.00  0.00     0.293 HD
ENDBRANCH  15  18
BRANCH  17  20
ATOM     20  O   UNL     1      -0.618   0.987  -5.064  1.00  0.00    -0.507 OA
ATOM     21  H   UNL     1      -1.369   0.339  -5.271  1.00  0.00     0.293 HD
ENDBRANCH  17  20
ENDBRANCH   1  12
BRANCH   2  22
ATOM     22  O   UNL     1      -1.274  -1.188  -1.930  1.00  0.00    -0.502 OA
ATOM     23  H   UNL     1      -1.840  -2.018  -1.793  1.00  0.00     0.293 HD
ENDBRANCH   2  22
BRANCH   6  24
ATOM     24  O   UNL     1       2.302  -4.925  -2.516  1.00  0.00    -0.507 OA
ATOM     25  H   UNL     1       2.660  -5.792  -2.896  1.00  0.00     0.293 HD
ENDBRANCH   6  24
BRANCH   8  26
ATOM     26  O   UNL     1       6.136  -2.350  -3.967  1.00  0.00    -0.508 OA
ATOM     27  H   UNL     1       6.417  -1.903  -4.832  1.00  0.00     0.293 HD
ENDBRANCH   8  26
TORSDOF 6
ENDMDL
MODEL 5
REMARK VINA RESULT:    -6.008      1.307      1.517
REMARK INTER + INTRA:          -7.525
REMARK INTER:                  -7.110
REMARK INTRA:                  -0.415
REMARK UNBOUND:                -0.287
REMARK SMILES O=c1c(O)c(-c2ccc(O)cc2O)oc2cc(O)cc(O)c12
REMARK SMILES IDX 5 1 3 2 2 3 1 4 22 5 20 6 19 7 17 8 16 9 15 10 14 11 6 12
REMARK SMILES IDX 8 13 7 14 9 15 11 16 12 17 10 18 13 20 4 22 21 24 18 26
REMARK H PARENT 10 19 13 21 4 23 21 25 18 27
REMARK Flexibility Score: inf
ROOT
ATOM      1  C   UNL     1       0.438   1.980  -3.563  1.00  0.00     0.184 A 
ATOM      2  C   UNL     1       1.778   1.883  -3.978  1.00  0.00     0.208 A 
ATOM      3  C   UNL     1       2.479   0.691  -3.733  1.00  0.00     0.238 A 
ATOM      4  O   UNL     1       3.684   0.596  -4.092  1.00  0.00    -0.285 OA
ATOM      5  C   UNL     1       1.823  -0.383  -3.099  1.00  0.00     0.111 A 
ATOM      6  C   UNL     1       2.454  -1.619  -2.819  1.00  0.00     0.134 A 
ATOM      7  C   UNL     1       1.730  -2.644  -2.191  1.00  0.00     0.093 A 
ATOM      8  C   UNL     1       0.388  -2.457  -1.840  1.00  0.00     0.123 A 
ATOM      9  C   UNL     1      -0.239  -1.240  -2.115  1.00  0.00     0.094 A 
ATOM     10  C   UNL     1       0.465  -0.206  -2.737  1.00  0.00     0.146 A 
ATOM     11  O   UNL     1      -0.155   0.943  -2.981  1.00  0.00    -0.451 OA
ENDROOT
BRANCH   1  12
ATOM     12  C   UNL     1      -0.353   3.210  -3.779  1.00  0.00     0.063 A 
ATOM     13  C   UNL     1      -1.867   4.484  -5.192  1.00  0.00     0.047 A 
ATOM     14  C   UNL     1      -1.103   3.337  -4.958  1.00  0.00     0.020 A 
ATOM     15  C   UNL     1      -1.902   5.510  -4.244  1.00  0.00     0.119 A 
ATOM     16  C   UNL     1      -1.174   5.383  -3.054  1.00  0.00     0.093 A 
ATOM     17  C   UNL     1      -0.410   4.233  -2.809  1.00  0.00     0.130 A 
BRANCH  15  18
ATOM     18  O   UNL     1      -2.664   6.650  -4.493  1.00  0.00    -0.508 OA
ATOM     19  H   UNL     1      -2.718   7.060  -5.418  1.00  0.00     0.293 HD
ENDBRANCH  15  18
BRANCH  17  20
ATOM     20  O   UNL     1       0.272   4.096  -1.599  1.00  0.00    -0.507 OA
ATOM     21  H   UNL     1       1.230   4.406  -1.492  1.00  0.00     0.293 HD
ENDBRANCH  17  20
ENDBRANCH   1  12
BRANCH   2  22
ATOM     22  O   UNL     1       2.386   2.950  -4.645  1.00  0.00    -0.502 OA
ATOM     23  H   UNL     1       1.916   3.468  -5.378  1.00  0.00     0.293 HD
ENDBRANCH   2  22
BRANCH   6  24
ATOM     24  O   UNL     1       3.791  -1.836  -3.157  1.00  0.00    -0.507 OA
ATOM     25  H   UNL     1       4.521  -1.860  -2.456  1.00  0.00     0.293 HD
ENDBRANCH   6  24
BRANCH   8  26
ATOM     26  O   UNL     1      -0.331  -3.475  -1.219  1.00  0.00    -0.508 OA
ATOM     27  H   UNL     1      -0.380  -3.550  -0.209  1.00  0.00     0.293 HD
ENDBRANCH   8  26
TORSDOF 6
ENDMDL
MODEL 6
REMARK VINA RESULT:    -5.977      2.145      3.075
REMARK INTER + INTRA:          -7.487
REMARK INTER:                  -7.067
REMARK INTRA:                  -0.420
REMARK UNBOUND:                -0.287
REMARK SMILES O=c1c(O)c(-c2ccc(O)cc2O)oc2cc(O)cc(O)c12
REMARK SMILES IDX 5 1 3 2 2 3 1 4 22 5 20 6 19 7 17 8 16 9 15 10 14 11 6 12
REMARK SMILES IDX 8 13 7 14 9 15 11 16 12 17 10 18 13 20 4 22 21 24 18 26
REMARK H PARENT 10 19 13 21 4 23 21 25 18 27
REMARK Flexibility Score: inf
ROOT
ATOM      1  C   UNL     1       1.249   0.025  -2.837  1.00  0.00     0.184 A 
ATOM      2  C   UNL     1       2.568  -0.028  -3.322  1.00  0.00     0.208 A 
ATOM      3  C   UNL     1       3.223  -1.268  -3.369  1.00  0.00     0.238 A 
ATOM      4  O   UNL     1       4.409  -1.326  -3.792  1.00  0.00    -0.285 OA
ATOM      5  C   UNL     1       2.544  -2.430  -2.949  1.00  0.00     0.111 A 
ATOM      6  C   UNL     1       3.130  -3.719  -2.968  1.00  0.00     0.134 A 
ATOM      7  C   UNL     1       2.385  -4.828  -2.542  1.00  0.00     0.093 A 
ATOM      8  C   UNL     1       1.065  -4.674  -2.100  1.00  0.00     0.123 A 
ATOM      9  C   UNL     1       0.483  -3.406  -2.081  1.00  0.00     0.094 A 
ATOM     10  C   UNL     1       1.209  -2.287  -2.498  1.00  0.00     0.146 A 
ATOM     11  O   UNL     1       0.632  -1.091  -2.464  1.00  0.00    -0.451 OA
ENDROOT
BRANCH   1  12
ATOM     12  C   UNL     1       0.505   1.300  -2.751  1.00  0.00     0.063 A 
ATOM     13  C   UNL     1       0.156   3.429  -1.631  1.00  0.00     0.047 A 
ATOM     14  C   UNL     1       0.835   2.213  -1.738  1.00  0.00     0.020 A 
ATOM     15  C   UNL     1      -0.851   3.754  -2.543  1.00  0.00     0.119 A 
ATOM     16  C   UNL     1      -1.173   2.860  -3.572  1.00  0.00     0.093 A 
ATOM     17  C   UNL     1      -0.492   1.639  -3.689  1.00  0.00     0.130 A 
BRANCH  15  18
ATOM     18  O   UNL     1      -1.523   4.968  -2.422  1.00  0.00    -0.508 OA
ATOM     19  H   UNL     1      -1.025   5.851  -2.408  1.00  0.00     0.293 HD
ENDBRANCH  15  18
BRANCH  17  20
ATOM     20  O   UNL     1      -0.787   0.778  -4.747  1.00  0.00    -0.507 OA
ATOM     21  H   UNL     1      -0.365   0.894  -5.661  1.00  0.00     0.293 HD
ENDBRANCH  17  20
ENDBRANCH   1  12
BRANCH   2  22
ATOM     22  O   UNL     1       3.197   1.135  -3.773  1.00  0.00    -0.502 OA
ATOM     23  H   UNL     1       2.739   2.040  -3.758  1.00  0.00     0.293 HD
ENDBRANCH   2  22
BRANCH   6  24
ATOM     24  O   UNL     1       4.443  -3.904  -3.404  1.00  0.00    -0.507 OA
ATOM     25  H   UNL     1       4.838  -4.829  -3.527  1.00  0.00     0.293 HD
ENDBRANCH   6  24
BRANCH   8  26
ATOM     26  O   UNL     1       0.325  -5.776  -1.679  1.00  0.00    -0.508 OA
ATOM     27  H   UNL     1      -0.165  -6.369  -2.339  1.00  0.00     0.293 HD
ENDBRANCH   8  26
TORSDOF 6
ENDMDL
MODEL 7
REMARK VINA RESULT:    -5.853      3.620      8.242
REMARK INTER + INTRA:          -7.338
REMARK INTER:                  -7.001
REMARK INTRA:                  -0.337
REMARK UNBOUND:                -0.287
REMARK SMILES O=c1c(O)c(-c2ccc(O)cc2O)oc2cc(O)cc(O)c12
REMARK SMILES IDX 5 1 3 2 2 3 1 4 22 5 20 6 19 7 17 8 16 9 15 10 14 11 6 12
REMARK SMILES IDX 8 13 7 14 9 15 11 16 12 17 10 18 13 20 4 22 21 24 18 26
REMARK H PARENT 10 19 13 21 4 23 21 25 18 27
REMARK Flexibility Score: inf
ROOT
ATOM      1  C   UNL     1      -1.556   6.092  -3.046  1.00  0.00     0.184 A 
ATOM      2  C   UNL     1      -0.433   6.777  -2.548  1.00  0.00     0.208 A 
ATOM      3  C   UNL     1      -0.617   8.030  -1.944  1.00  0.00     0.238 A 
ATOM      4  O   UNL     1       0.383   8.658  -1.503  1.00  0.00    -0.285 OA
ATOM      5  C   UNL     1      -1.918   8.563  -1.831  1.00  0.00     0.111 A 
ATOM      6  C   UNL     1      -2.191   9.817  -1.232  1.00  0.00     0.134 A 
ATOM      7  C   UNL     1      -3.514  10.276  -1.150  1.00  0.00     0.093 A 
ATOM      8  C   UNL     1      -4.568   9.504  -1.653  1.00  0.00     0.123 A 
ATOM      9  C   UNL     1      -4.304   8.268  -2.244  1.00  0.00     0.094 A 
ATOM     10  C   UNL     1      -2.992   7.794  -2.338  1.00  0.00     0.146 A 
ATOM     11  O   UNL     1      -2.769   6.615  -2.910  1.00  0.00    -0.451 OA
ENDROOT
BRANCH   1  12
ATOM     12  C   UNL     1      -1.431   4.774  -3.704  1.00  0.00     0.063 A 
ATOM     13  C   UNL     1      -1.442   3.466  -5.754  1.00  0.00     0.047 A 
ATOM     14  C   UNL     1      -1.559   4.695  -5.099  1.00  0.00     0.020 A 
ATOM     15  C   UNL     1      -1.180   2.304  -5.024  1.00  0.00     0.119 A 
ATOM     16  C   UNL     1      -1.027   2.375  -3.633  1.00  0.00     0.093 A 
ATOM     17  C   UNL     1      -1.139   3.605  -2.970  1.00  0.00     0.130 A 
BRANCH  15  18
ATOM     18  O   UNL     1      -1.070   1.085  -5.690  1.00  0.00    -0.508 OA
ATOM     19  H   UNL     1      -1.732   0.810  -6.406  1.00  0.00     0.293 HD
ENDBRANCH  15  18
BRANCH  17  20
ATOM     20  O   UNL     1      -0.937   3.671  -1.591  1.00  0.00    -0.507 OA
ATOM     21  H   UNL     1      -1.363   3.003  -0.959  1.00  0.00     0.293 HD
ENDBRANCH  17  20
ENDBRANCH   1  12
BRANCH   2  22
ATOM     22  O   UNL     1       0.836   6.200  -2.636  1.00  0.00    -0.502 OA
ATOM     23  H   UNL     1       1.566   6.391  -1.958  1.00  0.00     0.293 HD
ENDBRANCH   2  22
BRANCH   6  24
ATOM     24  O   UNL     1      -1.161  10.608  -0.721  1.00  0.00    -0.507 OA
ATOM     25  H   UNL     1      -0.776  11.386  -1.244  1.00  0.00     0.293 HD
ENDBRANCH   6  24
BRANCH   8  26
ATOM     26  O   UNL     1      -5.882   9.958  -1.570  1.00  0.00    -0.508 OA
ATOM     27  H   UNL     1      -6.102  10.885  -1.223  1.00  0.00     0.293 HD
ENDBRANCH   8  26
TORSDOF 6
ENDMDL
MODEL 8
REMARK VINA RESULT:    -5.747      2.554      7.259
REMARK INTER + INTRA:          -7.210
REMARK INTER:                  -6.872
REMARK INTRA:                  -0.339
REMARK UNBOUND:                -0.287
REMARK SMILES O=c1c(O)c(-c2ccc(O)cc2O)oc2cc(O)cc(O)c12
REMARK SMILES IDX 5 1 3 2 2 3 1 4 22 5 20 6 19 7 17 8 16 9 15 10 14 11 6 12
REMARK SMILES IDX 8 13 7 14 9 15 11 16 12 17 10 18 13 20 4 22 21 24 18 26
REMARK H PARENT 10 19 13 21 4 23 21 25 18 27
REMARK Flexibility Score: inf
ROOT
ATOM      1  C   UNL     1      -0.598   4.132  -3.211  1.00  0.00     0.184 A 
ATOM      2  C   UNL     1       0.553   4.721  -3.764  1.00  0.00     0.208 A 
ATOM      3  C   UNL     1       0.598   6.117  -3.909  1.00  0.00     0.238 A 
ATOM      4  O   UNL     1       1.620   6.655  -4.413  1.00  0.00    -0.285 OA
ATOM      5  C   UNL     1      -0.496   6.896  -3.479  1.00  0.00     0.111 A 
ATOM      6  C   UNL     1      -0.530   8.307  -3.584  1.00  0.00     0.134 A 
ATOM      7  C   UNL     1      -1.653   9.013  -3.126  1.00  0.00     0.093 A 
ATOM      8  C   UNL     1      -2.741   8.334  -2.564  1.00  0.00     0.123 A 
ATOM      9  C   UNL     1      -2.711   6.942  -2.458  1.00  0.00     0.094 A 
ATOM     10  C   UNL     1      -1.603   6.221  -2.911  1.00  0.00     0.146 A 
ATOM     11  O   UNL     1      -1.605   4.897  -2.802  1.00  0.00    -0.451 OA
ENDROOT
BRANCH   1  12
ATOM     12  C   UNL     1      -0.715   2.669  -3.042  1.00  0.00     0.063 A 
ATOM     13  C   UNL     1      -0.741   0.457  -4.050  1.00  0.00     0.047 A 
ATOM     14  C   UNL     1      -0.639   1.845  -4.175  1.00  0.00     0.020 A 
ATOM     15  C   UNL     1      -0.905  -0.126  -2.791  1.00  0.00     0.119 A 
ATOM     16  C   UNL     1      -0.959   0.687  -1.650  1.00  0.00     0.093 A 
ATOM     17  C   UNL     1      -0.853   2.080  -1.767  1.00  0.00     0.130 A 
BRANCH  15  18
ATOM     18  O   UNL     1      -1.009  -1.511  -2.682  1.00  0.00    -0.508 OA
ATOM     19  H   UNL     1      -1.070  -1.968  -1.779  1.00  0.00     0.293 HD
ENDBRANCH  15  18
BRANCH  17  20
ATOM     20  O   UNL     1      -0.859   2.876  -0.620  1.00  0.00    -0.507 OA
ATOM     21  H   UNL     1      -0.792   2.471   0.307  1.00  0.00     0.293 HD
ENDBRANCH  17  20
ENDBRANCH   1  12
BRANCH   2  22
ATOM     22  O   UNL     1       1.638   3.924  -4.138  1.00  0.00    -0.502 OA
ATOM     23  H   UNL     1       1.941   3.129  -3.588  1.00  0.00     0.293 HD
ENDBRANCH   2  22
BRANCH   6  24
ATOM     24  O   UNL     1       0.539   9.012  -4.139  1.00  0.00    -0.507 OA
ATOM     25  H   UNL     1       0.415   9.923  -4.563  1.00  0.00     0.293 HD
ENDBRANCH   6  24
BRANCH   8  26
ATOM     26  O   UNL     1      -3.854   9.034  -2.107  1.00  0.00    -0.508 OA
ATOM     27  H   UNL     1      -4.298   8.807  -1.224  1.00  0.00     0.293 HD
ENDBRANCH   8  26
TORSDOF 6
ENDMDL
MODEL 9
REMARK VINA RESULT:    -5.730      1.677      6.673
REMARK INTER + INTRA:          -7.189
REMARK INTER:                  -6.777
REMARK INTRA:                  -0.413
REMARK UNBOUND:                -0.287
REMARK SMILES O=c1c(O)c(-c2ccc(O)cc2O)oc2cc(O)cc(O)c12
REMARK SMILES IDX 5 1 3 2 2 3 1 4 22 5 20 6 19 7 17 8 16 9 15 10 14 11 6 12
REMARK SMILES IDX 8 13 7 14 9 15 11 16 12 17 10 18 13 20 4 22 21 24 18 26
REMARK H PARENT 10 19 13 21 4 23 21 25 18 27
REMARK Flexibility Score: inf
ROOT
ATOM      1  C   UNL     1       0.080   1.089  -3.582  1.00  0.00     0.184 A 
ATOM      2  C   UNL     1      -0.690   1.232  -4.750  1.00  0.00     0.208 A 
ATOM      3  C   UNL     1      -1.184   2.502  -5.086  1.00  0.00     0.238 A 
ATOM      4  O   UNL     1      -1.884   2.641  -6.125  1.00  0.00    -0.285 OA
ATOM      5  C   UNL     1      -0.882   3.606  -4.261  1.00  0.00     0.111 A 
ATOM      6  C   UNL     1      -1.335   4.920  -4.529  1.00  0.00     0.134 A 
ATOM      7  C   UNL     1      -0.985   5.967  -3.665  1.00  0.00     0.093 A 
ATOM      8  C   UNL     1      -0.189   5.726  -2.539  1.00  0.00     0.123 A 
ATOM      9  C   UNL     1       0.261   4.432  -2.271  1.00  0.00     0.094 A 
ATOM     10  C   UNL     1      -0.079   3.375  -3.118  1.00  0.00     0.146 A 
ATOM     11  O   UNL     1       0.359   2.152  -2.836  1.00  0.00    -0.451 OA
ENDROOT
BRANCH   1  12
ATOM     12  C   UNL     1       0.620  -0.222  -3.165  1.00  0.00     0.063 A 
ATOM     13  C   UNL     1       2.485  -1.781  -3.120  1.00  0.00     0.047 A 
ATOM     14  C   UNL     1       1.941  -0.552  -3.504  1.00  0.00     0.020 A 
ATOM     15  C   UNL     1       1.721  -2.688  -2.381  1.00  0.00     0.119 A 
ATOM     16  C   UNL     1       0.409  -2.358  -2.018  1.00  0.00     0.093 A 
ATOM     17  C   UNL     1      -0.143  -1.125  -2.395  1.00  0.00     0.130 A 
BRANCH  15  18
ATOM     18  O   UNL     1       2.275  -3.911  -2.010  1.00  0.00    -0.508 OA
ATOM     19  H   UNL     1       1.727  -4.619  -1.535  1.00  0.00     0.293 HD
ENDBRANCH  15  18
BRANCH  17  20
ATOM     20  O   UNL     1      -1.434  -0.787  -1.986  1.00  0.00    -0.507 OA
ATOM     21  H   UNL     1      -1.970  -0.070  -2.460  1.00  0.00     0.293 HD
ENDBRANCH  17  20
ENDBRANCH   1  12
BRANCH   2  22
ATOM     22  O   UNL     1      -0.933   0.127  -5.570  1.00  0.00    -0.502 OA
ATOM     23  H   UNL     1      -1.073   0.214  -6.570  1.00  0.00     0.293 HD
ENDBRANCH   2  22
BRANCH   6  24
ATOM     24  O   UNL     1      -2.130   5.192  -5.644  1.00  0.00    -0.507 OA
ATOM     25  H   UNL     1      -2.325   4.487  -6.345  1.00  0.00     0.293 HD
ENDBRANCH   6  24
BRANCH   8  26
ATOM     26  O   UNL     1       0.161   6.766  -1.681  1.00  0.00    -0.508 OA
ATOM     27  H   UNL     1      -0.543   7.327  -1.213  1.00  0.00     0.293 HD
ENDBRANCH   8  26
TORSDOF 6
ENDMDL
