MODEL 1
REMARK VINA RESULT:    -3.759      0.000      0.000
REMARK INTER + INTRA:          -5.766
REMARK INTER:                  -5.297
REMARK INTRA:                  -0.470
REMARK UNBOUND:                -0.470
REMARK SMILES CCCCCCCCC(=O)[O-]
REMARK SMILES IDX 6 1 7 2 8 3 9 4 10 5 11 6 5 7 4 8 3 9 2 10 1 11
REMARK H PARENT
REMARK Flexibility Score: inf
ROOT
ATOM      1  C   UNL     1      -4.588  25.377  58.152  1.00  0.00     0.000 C 
ENDROOT
BRANCH   1   2
ATOM      2  C   UNL     1      -5.313  24.242  57.412  1.00  0.00     0.006 C 
BRANCH   2   3
ATOM      3  C   UNL     1      -5.377  24.524  55.908  1.00  0.00     0.053 C 
BRANCH   3   4
ATOM      4  C   UNL     1      -6.629  25.269  55.567  1.00  0.00     0.041 C 
ATOM      5  O   UNL     1      -7.743  24.680  55.592  1.00  0.00    -0.550 OA
ATOM      6  O   UNL     1      -6.573  26.624  55.269  1.00  0.00    -0.550 OA
ENDBRANCH   3   4
ENDBRANCH   2   3
ENDBRANCH   1   2
BRANCH   1   7
ATOM      7  C   UNL     1      -5.469  26.047  59.218  1.00  0.00     0.000 C 
BRANCH   7   8
ATOM      8  C   UNL     1      -6.897  25.482  59.247  1.00  0.00    -0.000 C 
BRANCH   8   9
ATOM      9  C   UNL     1      -7.700  26.078  60.409  1.00  0.00    -0.000 C 
BRANCH   9  10
ATOM     10  C   UNL     1      -6.793  26.377  61.609  1.00  0.00    -0.003 C 
ATOM     11  C   UNL     1      -7.390  25.828  62.901  1.00  0.00     0.004 C 
ENDBRANCH   9  10
ENDBRANCH   8   9
ENDBRANCH   7   8
ENDBRANCH   1   7
TORSDOF 7
ENDMDL
MODEL 2
REMARK VINA RESULT:    -3.689      2.937      3.566
REMARK INTER + INTRA:          -5.669
REMARK INTER:                  -5.270
REMARK INTRA:                  -0.399
REMARK UNBOUND:                -0.470
REMARK SMILES CCCCCCCCC(=O)[O-]
REMARK SMILES IDX 6 1 7 2 8 3 9 4 10 5 11 6 5 7 4 8 3 9 2 10 1 11
REMARK H PARENT
REMARK Flexibility Score: inf
ROOT
ATOM      1  C   UNL     1      -5.605  26.687  57.912  1.00  0.00     0.000 C 
ENDROOT
BRANCH   1   2
ATOM      2  C   UNL     1      -4.605  25.548  58.161  1.00  0.00     0.006 C 
BRANCH   2   3
ATOM      3  C   UNL     1      -3.673  25.884  59.329  1.00  0.00     0.053 C 
BRANCH   3   4
ATOM      4  C   UNL     1      -2.763  27.015  58.965  1.00  0.00     0.041 C 
ATOM      5  O   UNL     1      -2.741  28.060  59.668  1.00  0.00    -0.550 OA
ATOM      6  O   UNL     1      -1.906  26.896  57.880  1.00  0.00    -0.550 OA
ENDBRANCH   3   4
ENDBRANCH   2   3
ENDBRANCH   1   2
BRANCH   1   7
ATOM      7  C   UNL     1      -7.058  26.273  58.193  1.00  0.00     0.000 C 
BRANCH   7   8
ATOM      8  C   UNL     1      -7.200  25.445  59.479  1.00  0.00    -0.000 C 
BRANCH   8   9
ATOM      9  C   UNL     1      -8.074  26.173  60.507  1.00  0.00    -0.000 C 
BRANCH   9  10
ATOM     10  C   UNL     1      -7.810  25.649  61.923  1.00  0.00    -0.003 C 
ATOM     11  C   UNL     1      -6.675  26.417  62.592  1.00  0.00     0.004 C 
ENDBRANCH   9  10
ENDBRANCH   8   9
ENDBRANCH   7   8
ENDBRANCH   1   7
TORSDOF 7
ENDMDL
MODEL 3
REMARK VINA RESULT:    -3.669      3.637      4.669
REMARK INTER + INTRA:          -5.641
REMARK INTER:                  -5.183
REMARK INTRA:                  -0.457
REMARK UNBOUND:                -0.470
REMARK SMILES CCCCCCCCC(=O)[O-]
REMARK SMILES IDX 6 1 7 2 8 3 9 4 10 5 11 6 5 7 4 8 3 9 2 10 1 11
REMARK H PARENT
REMARK Flexibility Score: inf
ROOT
ATOM      1  C   UNL     1      -4.732  26.634  58.280  1.00  0.00     0.000 C 
ENDROOT
BRANCH   1   2
ATOM      2  C   UNL     1      -3.583  26.823  59.283  1.00  0.00     0.006 C 
BRANCH   2   3
ATOM      3  C   UNL     1      -2.378  27.491  58.614  1.00  0.00     0.053 C 
BRANCH   3   4
ATOM      4  C   UNL     1      -1.812  28.557  59.499  1.00  0.00     0.041 C 
ATOM      5  O   UNL     1      -0.594  28.868  59.415  1.00  0.00    -0.550 OA
ATOM      6  O   UNL     1      -2.638  29.240  60.382  1.00  0.00    -0.550 OA
ENDBRANCH   3   4
ENDBRANCH   2   3
ENDBRANCH   1   2
BRANCH   1   7
ATOM      7  C   UNL     1      -5.062  25.155  58.029  1.00  0.00     0.000 C 
BRANCH   7   8
ATOM      8  C   UNL     1      -6.410  24.737  58.635  1.00  0.00    -0.000 C 
BRANCH   8   9
ATOM      9  C   UNL     1      -7.501  25.764  58.308  1.00  0.00    -0.000 C 
BRANCH   9  10
ATOM     10  C   UNL     1      -8.250  26.192  59.575  1.00  0.00    -0.003 C 
ATOM     11  C   UNL     1      -7.437  25.883  60.828  1.00  0.00     0.004 C 
ENDBRANCH   9  10
ENDBRANCH   8   9
ENDBRANCH   7   8
ENDBRANCH   1   7
TORSDOF 7
ENDMDL
MODEL 4
REMARK VINA RESULT:    -3.644      8.964      9.947
REMARK INTER + INTRA:          -5.604
REMARK INTER:                  -5.199
REMARK INTRA:                  -0.406
REMARK UNBOUND:                -0.470
REMARK SMILES CCCCCCCCC(=O)[O-]
REMARK SMILES IDX 6 1 7 2 8 3 9 4 10 5 11 6 5 7 4 8 3 9 2 10 1 11
REMARK H PARENT
REMARK Flexibility Score: inf
ROOT
ATOM      1  C   UNL     1      -3.780  33.036  55.296  1.00  0.00     0.000 C 
ENDROOT
BRANCH   1   2
ATOM      2  C   UNL     1      -4.797  32.019  54.755  1.00  0.00     0.006 C 
BRANCH   2   3
ATOM      3  C   UNL     1      -5.650  31.442  55.889  1.00  0.00     0.053 C 
BRANCH   3   4
ATOM      4  C   UNL     1      -7.105  31.626  55.596  1.00  0.00     0.041 C 
ATOM      5  O   UNL     1      -7.947  31.606  56.533  1.00  0.00    -0.550 OA
ATOM      6  O   UNL     1      -7.528  31.868  54.296  1.00  0.00    -0.550 OA
ENDBRANCH   3   4
ENDBRANCH   2   3
ENDBRANCH   1   2
BRANCH   1   7
ATOM      7  C   UNL     1      -3.946  34.430  54.672  1.00  0.00     0.000 C 
BRANCH   7   8
ATOM      8  C   UNL     1      -5.290  34.599  53.948  1.00  0.00    -0.000 C 
BRANCH   8   9
ATOM      9  C   UNL     1      -5.648  36.082  53.792  1.00  0.00    -0.000 C 
BRANCH   9  10
ATOM     10  C   UNL     1      -4.385  36.946  53.696  1.00  0.00    -0.003 C 
ATOM     11  C   UNL     1      -4.733  38.431  53.677  1.00  0.00     0.004 C 
ENDBRANCH   9  10
ENDBRANCH   8   9
ENDBRANCH   7   8
ENDBRANCH   1   7
TORSDOF 7
ENDMDL
MODEL 5
REMARK VINA RESULT:    -3.619      3.017      5.795
REMARK INTER + INTRA:          -5.570
REMARK INTER:                  -5.189
REMARK INTRA:                  -0.382
REMARK UNBOUND:                -0.470
REMARK SMILES CCCCCCCCC(=O)[O-]
REMARK SMILES IDX 6 1 7 2 8 3 9 4 10 5 11 6 5 7 4 8 3 9 2 10 1 11
REMARK H PARENT
REMARK Flexibility Score: inf
ROOT
ATOM      1  C   UNL     1      -4.668  23.942  56.346  1.00  0.00     0.000 C 
ENDROOT
BRANCH   1   2
ATOM      2  C   UNL     1      -5.062  24.553  57.700  1.00  0.00     0.006 C 
BRANCH   2   3
ATOM      3  C   UNL     1      -6.441  24.057  58.144  1.00  0.00     0.053 C 
BRANCH   3   4
ATOM      4  C   UNL     1      -7.507  24.593  57.242  1.00  0.00     0.041 C 
ATOM      5  O   UNL     1      -7.760  25.827  57.223  1.00  0.00    -0.550 OA
ATOM      6  O   UNL     1      -8.187  23.737  56.385  1.00  0.00    -0.550 OA
ENDBRANCH   3   4
ENDBRANCH   2   3
ENDBRANCH   1   2
BRANCH   1   7
ATOM      7  C   UNL     1      -3.175  24.117  56.029  1.00  0.00     0.000 C 
BRANCH   7   8
ATOM      8  C   UNL     1      -2.509  22.809  55.575  1.00  0.00    -0.000 C 
BRANCH   8   9
ATOM      9  C   UNL     1      -3.419  21.606  55.846  1.00  0.00    -0.000 C 
BRANCH   9  10
ATOM     10  C   UNL     1      -2.660  20.287  55.659  1.00  0.00    -0.003 C 
ATOM     11  C   UNL     1      -1.396  20.492  54.830  1.00  0.00     0.004 C 
ENDBRANCH   9  10
ENDBRANCH   8   9
ENDBRANCH   7   8
ENDBRANCH   1   7
TORSDOF 7
ENDMDL
MODEL 6
REMARK VINA RESULT:    -3.577      2.521      4.050
REMARK INTER + INTRA:          -5.511
REMARK INTER:                  -4.976
REMARK INTRA:                  -0.535
REMARK UNBOUND:                -0.470
REMARK SMILES CCCCCCCCC(=O)[O-]
REMARK SMILES IDX 6 1 7 2 8 3 9 4 10 5 11 6 5 7 4 8 3 9 2 10 1 11
REMARK H PARENT
REMARK Flexibility Score: inf
ROOT
ATOM      1  C   UNL     1      -4.670  23.555  56.740  1.00  0.00     0.000 C 
ENDROOT
BRANCH   1   2
ATOM      2  C   UNL     1      -5.180  24.461  57.870  1.00  0.00     0.006 C 
BRANCH   2   3
ATOM      3  C   UNL     1      -6.689  24.293  58.068  1.00  0.00     0.053 C 
BRANCH   3   4
ATOM      4  C   UNL     1      -7.418  24.557  56.787  1.00  0.00     0.041 C 
ATOM      5  O   UNL     1      -8.240  23.713  56.341  1.00  0.00    -0.550 OA
ATOM      6  O   UNL     1      -7.226  25.756  56.112  1.00  0.00    -0.550 OA
ENDBRANCH   3   4
ENDBRANCH   2   3
ENDBRANCH   1   2
BRANCH   1   7
ATOM      7  C   UNL     1      -3.527  24.195  55.936  1.00  0.00     0.000 C 
BRANCH   7   8
ATOM      8  C   UNL     1      -3.284  25.663  56.318  1.00  0.00    -0.000 C 
BRANCH   8   9
ATOM      9  C   UNL     1      -1.922  25.834  57.000  1.00  0.00    -0.000 C 
BRANCH   9  10
ATOM     10  C   UNL     1      -1.864  27.145  57.794  1.00  0.00    -0.003 C 
ATOM     11  C   UNL     1      -2.775  27.089  59.016  1.00  0.00     0.004 C 
ENDBRANCH   9  10
ENDBRANCH   8   9
ENDBRANCH   7   8
ENDBRANCH   1   7
TORSDOF 7
ENDMDL
MODEL 7
REMARK VINA RESULT:    -3.565      8.013      9.458
REMARK INTER + INTRA:          -5.493
REMARK INTER:                  -4.847
REMARK INTRA:                  -0.646
REMARK UNBOUND:                -0.470
REMARK SMILES CCCCCCCCC(=O)[O-]
REMARK SMILES IDX 6 1 7 2 8 3 9 4 10 5 11 6 5 7 4 8 3 9 2 10 1 11
REMARK H PARENT
REMARK Flexibility Score: inf
ROOT
ATOM      1  C   UNL     1      -4.209  32.482  55.050  1.00  0.00     0.000 C 
ENDROOT
BRANCH   1   2
ATOM      2  C   UNL     1      -5.109  31.524  55.846  1.00  0.00     0.006 C 
BRANCH   2   3
ATOM      3  C   UNL     1      -6.129  30.843  54.929  1.00  0.00     0.053 C 
BRANCH   3   4
ATOM      4  C   UNL     1      -7.379  31.660  54.839  1.00  0.00     0.041 C 
ATOM      5  O   UNL     1      -8.255  31.580  55.741  1.00  0.00    -0.550 OA
ATOM      6  O   UNL     1      -7.556  32.547  53.784  1.00  0.00    -0.550 OA
ENDBRANCH   3   4
ENDBRANCH   2   3
ENDBRANCH   1   2
BRANCH   1   7
ATOM      7  C   UNL     1      -3.840  31.933  53.663  1.00  0.00     0.000 C 
BRANCH   7   8
ATOM      8  C   UNL     1      -4.120  32.938  52.535  1.00  0.00    -0.000 C 
BRANCH   8   9
ATOM      9  C   UNL     1      -4.529  34.302  53.103  1.00  0.00    -0.000 C 
BRANCH   9  10
ATOM     10  C   UNL     1      -3.630  35.417  52.558  1.00  0.00    -0.003 C 
ATOM     11  C   UNL     1      -2.158  35.024  52.629  1.00  0.00     0.004 C 
ENDBRANCH   9  10
ENDBRANCH   8   9
ENDBRANCH   7   8
ENDBRANCH   1   7
TORSDOF 7
ENDMDL
MODEL 8
REMARK VINA RESULT:    -3.556      2.761      4.268
REMARK INTER + INTRA:          -5.481
REMARK INTER:                  -5.040
REMARK INTRA:                  -0.441
REMARK UNBOUND:                -0.470
REMARK SMILES CCCCCCCCC(=O)[O-]
REMARK SMILES IDX 6 1 7 2 8 3 9 4 10 5 11 6 5 7 4 8 3 9 2 10 1 11
REMARK H PARENT
REMARK Flexibility Score: inf
ROOT
ATOM      1  C   UNL     1      -4.650  26.253  59.335  1.00  0.00     0.000 C 
ENDROOT
BRANCH   1   2
ATOM      2  C   UNL     1      -5.560  26.678  58.172  1.00  0.00     0.006 C 
BRANCH   2   3
ATOM      3  C   UNL     1      -6.919  25.977  58.257  1.00  0.00     0.053 C 
BRANCH   3   4
ATOM      4  C   UNL     1      -7.130  25.097  57.065  1.00  0.00     0.041 C 
ATOM      5  O   UNL     1      -7.264  25.604  55.920  1.00  0.00    -0.550 OA
ATOM      6  O   UNL     1      -7.131  23.716  57.212  1.00  0.00    -0.550 OA
ENDBRANCH   3   4
ENDBRANCH   2   3
ENDBRANCH   1   2
BRANCH   1   7
ATOM      7  C   UNL     1      -3.161  26.254  58.952  1.00  0.00     0.000 C 
BRANCH   7   8
ATOM      8  C   UNL     1      -2.830  27.281  57.860  1.00  0.00    -0.000 C 
BRANCH   8   9
ATOM      9  C   UNL     1      -1.520  28.014  58.173  1.00  0.00    -0.000 C 
BRANCH   9  10
ATOM     10  C   UNL     1      -1.675  28.916  59.403  1.00  0.00    -0.003 C 
ATOM     11  C   UNL     1      -2.691  30.025  59.148  1.00  0.00     0.004 C 
ENDBRANCH   9  10
ENDBRANCH   8   9
ENDBRANCH   7   8
ENDBRANCH   1   7
TORSDOF 7
ENDMDL
MODEL 9
REMARK VINA RESULT:    -3.526      2.439      4.136
REMARK INTER + INTRA:          -5.438
REMARK INTER:                  -4.719
REMARK INTRA:                  -0.719
REMARK UNBOUND:                -0.470
REMARK SMILES CCCCCCCCC(=O)[O-]
REMARK SMILES IDX 6 1 7 2 8 3 9 4 10 5 11 6 5 7 4 8 3 9 2 10 1 11
REMARK H PARENT
REMARK Flexibility Score: inf
ROOT
ATOM      1  C   UNL     1      -4.967  23.620  56.744  1.00  0.00     0.000 C 
ENDROOT
BRANCH   1   2
ATOM      2  C   UNL     1      -5.974  23.764  57.895  1.00  0.00     0.006 C 
BRANCH   2   3
ATOM      3  C   UNL     1      -7.126  24.693  57.501  1.00  0.00     0.053 C 
BRANCH   3   4
ATOM      4  C   UNL     1      -7.223  25.842  58.454  1.00  0.00     0.041 C 
ATOM      5  O   UNL     1      -7.141  27.025  58.030  1.00  0.00    -0.550 OA
ATOM      6  O   UNL     1      -7.454  25.608  59.804  1.00  0.00    -0.550 OA
ENDBRANCH   3   4
ENDBRANCH   2   3
ENDBRANCH   1   2
BRANCH   1   7
ATOM      7  C   UNL     1      -5.040  24.784  55.744  1.00  0.00     0.000 C 
BRANCH   7   8
ATOM      8  C   UNL     1      -4.005  25.882  56.035  1.00  0.00    -0.000 C 
BRANCH   8   9
ATOM      9  C   UNL     1      -2.793  25.310  56.780  1.00  0.00    -0.000 C 
BRANCH   9  10
ATOM     10  C   UNL     1      -2.411  26.197  57.971  1.00  0.00    -0.003 C 
ATOM     11  C   UNL     1      -3.438  26.087  59.093  1.00  0.00     0.004 C 
ENDBRANCH   9  10
ENDBRANCH   8   9
ENDBRANCH   7   8
ENDBRANCH   1   7
TORSDOF 7
ENDMDL
