MODEL 1
REMARK VINA RESULT:    -6.241      0.000      0.000
REMARK INTER + INTRA:         -14.024
REMARK INTER:                 -12.078
REMARK INTRA:                  -1.946
REMARK UNBOUND:                -1.946
REMARK SMILES CCCCCCCCCCCCCCCCCC(=O)[O-]
REMARK SMILES IDX 10 1 11 2 12 3 13 4 14 5 15 6 16 7 17 8 18 9 19 10 20 11
REMARK SMILES IDX 9 12 8 13 7 14 6 15 5 16 4 17 3 18 2 19 1 20
REMARK H PARENT
REMARK Flexibility Score: inf
ROOT
ATOM      1  C   UNL     1      13.651   3.381  18.837  1.00  0.00     0.000 C 
ENDROOT
BRANCH   1   2
ATOM      2  C   UNL     1      13.024   3.665  17.463  1.00  0.00     0.000 C 
BRANCH   2   3
ATOM      3  C   UNL     1      13.168   2.486  16.486  1.00  0.00     0.000 C 
BRANCH   3   4
ATOM      4  C   UNL     1      13.522   2.913  15.045  1.00  0.00     0.000 C 
BRANCH   4   5
ATOM      5  C   UNL     1      15.005   2.683  14.721  1.00  0.00     0.000 C 
BRANCH   5   6
ATOM      6  C   UNL     1      15.298   2.975  13.245  1.00  0.00     0.000 C 
BRANCH   6   7
ATOM      7  C   UNL     1      15.401   1.674  12.435  1.00  0.00     0.006 C 
BRANCH   7   8
ATOM      8  C   UNL     1      16.158   1.870  11.115  1.00  0.00     0.053 C 
BRANCH   8   9
ATOM      9  C   UNL     1      17.357   0.977  11.023  1.00  0.00     0.041 C 
ATOM     10  O   UNL     1      17.654   0.425   9.931  1.00  0.00    -0.550 OA
ATOM     11  O   UNL     1      18.167   0.783  12.135  1.00  0.00    -0.550 OA
ENDBRANCH   8   9
ENDBRANCH   7   8
ENDBRANCH   6   7
ENDBRANCH   5   6
ENDBRANCH   4   5
ENDBRANCH   3   4
ENDBRANCH   2   3
ENDBRANCH   1   2
BRANCH   1  12
ATOM     12  C   UNL     1      14.600   2.169  18.823  1.00  0.00     0.000 C 
BRANCH  12  13
ATOM     13  C   UNL     1      14.452   1.203  20.016  1.00  0.00    -0.000 C 
BRANCH  13  14
ATOM     14  C   UNL     1      15.745   0.474  20.432  1.00  0.00    -0.000 C 
BRANCH  14  15
ATOM     15  C   UNL     1      16.622  -0.012  19.260  1.00  0.00    -0.000 C 
BRANCH  15  16
ATOM     16  C   UNL     1      16.430  -1.492  18.876  1.00  0.00    -0.000 C 
BRANCH  16  17
ATOM     17  C   UNL     1      15.836  -1.733  17.474  1.00  0.00    -0.000 C 
BRANCH  17  18
ATOM     18  C   UNL     1      15.711  -0.474  16.596  1.00  0.00    -0.000 C 
BRANCH  18  19
ATOM     19  C   UNL     1      16.560  -0.552  15.319  1.00  0.00    -0.003 C 
ATOM     20  C   UNL     1      17.971  -0.028  15.566  1.00  0.00     0.004 C 
ENDBRANCH  18  19
ENDBRANCH  17  18
ENDBRANCH  16  17
ENDBRANCH  15  16
ENDBRANCH  14  15
ENDBRANCH  13  14
ENDBRANCH  12  13
ENDBRANCH   1  12
TORSDOF 16
ENDMDL
MODEL 2
REMARK VINA RESULT:    -6.226      0.854      3.588
REMARK INTER + INTRA:         -13.996
REMARK INTER:                 -11.776
REMARK INTRA:                  -2.219
REMARK UNBOUND:                -1.946
REMARK SMILES CCCCCCCCCCCCCCCCCC(=O)[O-]
REMARK SMILES IDX 10 1 11 2 12 3 13 4 14 5 15 6 16 7 17 8 18 9 19 10 20 11
REMARK SMILES IDX 9 12 8 13 7 14 6 15 5 16 4 17 3 18 2 19 1 20
REMARK H PARENT
REMARK Flexibility Score: inf
ROOT
ATOM      1  C   UNL     1      17.812  -0.315  15.356  1.00  0.00     0.000 C 
ENDROOT
BRANCH   1   2
ATOM      2  C   UNL     1      16.287  -0.390  15.174  1.00  0.00     0.000 C 
BRANCH   2   3
ATOM      3  C   UNL     1      15.533   0.645  16.028  1.00  0.00     0.000 C 
BRANCH   3   4
ATOM      4  C   UNL     1      15.787   2.106  15.599  1.00  0.00     0.000 C 
BRANCH   4   5
ATOM      5  C   UNL     1      14.714   2.618  14.626  1.00  0.00     0.000 C 
BRANCH   5   6
ATOM      6  C   UNL     1      15.324   2.953  13.260  1.00  0.00     0.000 C 
BRANCH   6   7
ATOM      7  C   UNL     1      15.386   1.708  12.363  1.00  0.00     0.006 C 
BRANCH   7   8
ATOM      8  C   UNL     1      16.190   1.954  11.080  1.00  0.00     0.053 C 
BRANCH   8   9
ATOM      9  C   UNL     1      17.366   1.033  10.975  1.00  0.00     0.041 C 
ATOM     10  O   UNL     1      18.053   0.764  11.996  1.00  0.00    -0.550 OA
ATOM     11  O   UNL     1      17.683   0.444   9.757  1.00  0.00    -0.550 OA
ENDBRANCH   8   9
ENDBRANCH   7   8
ENDBRANCH   6   7
ENDBRANCH   5   6
ENDBRANCH   4   5
ENDBRANCH   3   4
ENDBRANCH   2   3
ENDBRANCH   1   2
BRANCH   1  12
ATOM     12  C   UNL     1      18.258  -0.599  16.801  1.00  0.00     0.000 C 
BRANCH  12  13
ATOM     13  C   UNL     1      17.558  -1.792  17.483  1.00  0.00    -0.000 C 
BRANCH  13  14
ATOM     14  C   UNL     1      16.944  -1.487  18.865  1.00  0.00    -0.000 C 
BRANCH  14  15
ATOM     15  C   UNL     1      17.141  -0.040  19.357  1.00  0.00    -0.000 C 
BRANCH  15  16
ATOM     16  C   UNL     1      15.905   0.591  20.028  1.00  0.00    -0.000 C 
BRANCH  16  17
ATOM     17  C   UNL     1      14.549   0.011  19.579  1.00  0.00    -0.000 C 
BRANCH  17  18
ATOM     18  C   UNL     1      13.571   1.034  18.972  1.00  0.00    -0.000 C 
BRANCH  18  19
ATOM     19  C   UNL     1      14.114   2.470  19.012  1.00  0.00    -0.003 C 
ATOM     20  C   UNL     1      13.215   3.418  18.223  1.00  0.00     0.004 C 
ENDBRANCH  18  19
ENDBRANCH  17  18
ENDBRANCH  16  17
ENDBRANCH  15  16
ENDBRANCH  14  15
ENDBRANCH  13  14
ENDBRANCH  12  13
ENDBRANCH   1  12
TORSDOF 16
ENDMDL
MODEL 3
REMARK VINA RESULT:    -6.220      2.366      5.746
REMARK INTER + INTRA:         -13.984
REMARK INTER:                 -12.225
REMARK INTRA:                  -1.759
REMARK UNBOUND:                -1.946
REMARK SMILES CCCCCCCCCCCCCCCCCC(=O)[O-]
REMARK SMILES IDX 10 1 11 2 12 3 13 4 14 5 15 6 16 7 17 8 18 9 19 10 20 11
REMARK SMILES IDX 9 12 8 13 7 14 6 15 5 16 4 17 3 18 2 19 1 20
REMARK H PARENT
REMARK Flexibility Score: inf
ROOT
ATOM      1  C   UNL     1      15.152   1.982  12.562  1.00  0.00     0.000 C 
ENDROOT
BRANCH   1   2
ATOM      2  C   UNL     1      16.159   2.192  11.420  1.00  0.00     0.000 C 
BRANCH   2   3
ATOM      3  C   UNL     1      17.009   0.942  11.136  1.00  0.00     0.000 C 
BRANCH   3   4
ATOM      4  C   UNL     1      18.099   0.678  12.197  1.00  0.00     0.000 C 
BRANCH   4   5
ATOM      5  C   UNL     1      17.734  -0.490  13.124  1.00  0.00     0.000 C 
BRANCH   5   6
ATOM      6  C   UNL     1      18.547  -0.439  14.422  1.00  0.00     0.000 C 
BRANCH   6   7
ATOM      7  C   UNL     1      17.670  -0.002  15.605  1.00  0.00     0.006 C 
BRANCH   7   8
ATOM      8  C   UNL     1      16.339  -0.765  15.655  1.00  0.00     0.053 C 
BRANCH   8   9
ATOM      9  C   UNL     1      16.303  -1.747  16.787  1.00  0.00     0.041 C 
ATOM     10  O   UNL     1      17.269  -2.532  16.975  1.00  0.00    -0.550 OA
ATOM     11  O   UNL     1      15.218  -1.769  17.654  1.00  0.00    -0.550 OA
ENDBRANCH   8   9
ENDBRANCH   7   8
ENDBRANCH   6   7
ENDBRANCH   5   6
ENDBRANCH   4   5
ENDBRANCH   3   4
ENDBRANCH   2   3
ENDBRANCH   1   2
BRANCH   1  12
ATOM     12  C   UNL     1      15.208   3.095  13.623  1.00  0.00     0.000 C 
BRANCH  12  13
ATOM     13  C   UNL     1      14.994   2.629  15.078  1.00  0.00    -0.000 C 
BRANCH  13  14
ATOM     14  C   UNL     1      13.527   2.363  15.471  1.00  0.00    -0.000 C 
BRANCH  14  15
ATOM     15  C   UNL     1      12.918   3.394  16.442  1.00  0.00    -0.000 C 
BRANCH  15  16
ATOM     16  C   UNL     1      13.238   3.151  17.930  1.00  0.00    -0.000 C 
BRANCH  16  17
ATOM     17  C   UNL     1      13.612   1.699  18.291  1.00  0.00    -0.000 C 
BRANCH  17  18
ATOM     18  C   UNL     1      15.000   1.526  18.935  1.00  0.00    -0.000 C 
BRANCH  18  19
ATOM     19  C   UNL     1      14.934   1.382  20.462  1.00  0.00    -0.003 C 
ATOM     20  C   UNL     1      14.653  -0.063  20.865  1.00  0.00     0.004 C 
ENDBRANCH  18  19
ENDBRANCH  17  18
ENDBRANCH  16  17
ENDBRANCH  15  16
ENDBRANCH  14  15
ENDBRANCH  13  14
ENDBRANCH  12  13
ENDBRANCH   1  12
TORSDOF 16
ENDMDL
MODEL 4
REMARK VINA RESULT:    -6.190      1.269      4.878
REMARK INTER + INTRA:         -13.926
REMARK INTER:                 -11.986
REMARK INTRA:                  -1.940
REMARK UNBOUND:                -1.946
REMARK SMILES CCCCCCCCCCCCCCCCCC(=O)[O-]
REMARK SMILES IDX 10 1 11 2 12 3 13 4 14 5 15 6 16 7 17 8 18 9 19 10 20 11
REMARK SMILES IDX 9 12 8 13 7 14 6 15 5 16 4 17 3 18 2 19 1 20
REMARK H PARENT
REMARK Flexibility Score: inf
ROOT
ATOM      1  C   UNL     1      13.997   0.522  19.480  1.00  0.00     0.000 C 
ENDROOT
BRANCH   1   2
ATOM      2  C   UNL     1      15.271   1.108  20.107  1.00  0.00     0.000 C 
BRANCH   2   3
ATOM      3  C   UNL     1      16.511   0.229  19.871  1.00  0.00     0.000 C 
BRANCH   3   4
ATOM      4  C   UNL     1      16.190  -1.136  19.224  1.00  0.00     0.000 C 
BRANCH   4   5
ATOM      5  C   UNL     1      17.329  -1.631  18.321  1.00  0.00     0.000 C 
BRANCH   5   6
ATOM      6  C   UNL     1      16.812  -1.971  16.919  1.00  0.00     0.000 C 
BRANCH   6   7
ATOM      7  C   UNL     1      16.202  -0.735  16.241  1.00  0.00     0.006 C 
BRANCH   7   8
ATOM      8  C   UNL     1      17.260   0.325  15.905  1.00  0.00     0.053 C 
BRANCH   8   9
ATOM      9  C   UNL     1      18.196  -0.144  14.833  1.00  0.00     0.041 C 
ATOM     10  O   UNL     1      19.441  -0.116  15.022  1.00  0.00    -0.550 OA
ATOM     11  O   UNL     1      17.691  -0.645  13.639  1.00  0.00    -0.550 OA
ENDBRANCH   8   9
ENDBRANCH   7   8
ENDBRANCH   6   7
ENDBRANCH   5   6
ENDBRANCH   4   5
ENDBRANCH   3   4
ENDBRANCH   2   3
ENDBRANCH   1   2
BRANCH   1  12
ATOM     12  C   UNL     1      13.605   1.213  18.161  1.00  0.00     0.000 C 
BRANCH  12  13
ATOM     13  C   UNL     1      13.391   2.737  18.255  1.00  0.00    -0.000 C 
BRANCH  13  14
ATOM     14  C   UNL     1      13.129   3.445  16.910  1.00  0.00    -0.000 C 
BRANCH  14  15
ATOM     15  C   UNL     1      13.268   2.546  15.666  1.00  0.00    -0.000 C 
BRANCH  15  16
ATOM     16  C   UNL     1      14.640   2.613  14.966  1.00  0.00    -0.000 C 
BRANCH  16  17
ATOM     17  C   UNL     1      14.716   1.892  13.605  1.00  0.00    -0.000 C 
BRANCH  17  18
ATOM     18  C   UNL     1      15.443   2.673  12.495  1.00  0.00    -0.000 C 
BRANCH  18  19
ATOM     19  C   UNL     1      15.852   1.784  11.312  1.00  0.00    -0.003 C 
ATOM     20  C   UNL     1      17.364   1.803  11.109  1.00  0.00     0.004 C 
ENDBRANCH  18  19
ENDBRANCH  17  18
ENDBRANCH  16  17
ENDBRANCH  15  16
ENDBRANCH  14  15
ENDBRANCH  13  14
ENDBRANCH  12  13
ENDBRANCH   1  12
TORSDOF 16
ENDMDL
MODEL 5
REMARK VINA RESULT:    -6.139      2.474      5.660
REMARK INTER + INTRA:         -13.827
REMARK INTER:                 -11.782
REMARK INTRA:                  -2.044
REMARK UNBOUND:                -1.946
REMARK SMILES CCCCCCCCCCCCCCCCCC(=O)[O-]
REMARK SMILES IDX 10 1 11 2 12 3 13 4 14 5 15 6 16 7 17 8 18 9 19 10 20 11
REMARK SMILES IDX 9 12 8 13 7 14 6 15 5 16 4 17 3 18 2 19 1 20
REMARK H PARENT
REMARK Flexibility Score: inf
ROOT
ATOM      1  C   UNL     1      14.004   3.318  17.268  1.00  0.00     0.000 C 
ENDROOT
BRANCH   1   2
ATOM      2  C   UNL     1      13.485   2.541  18.488  1.00  0.00     0.000 C 
BRANCH   2   3
ATOM      3  C   UNL     1      13.931   1.069  18.491  1.00  0.00     0.000 C 
BRANCH   3   4
ATOM      4  C   UNL     1      13.977   0.437  19.899  1.00  0.00     0.000 C 
BRANCH   4   5
ATOM      5  C   UNL     1      15.382  -0.065  20.263  1.00  0.00     0.000 C 
BRANCH   5   6
ATOM      6  C   UNL     1      16.459   0.707  19.493  1.00  0.00     0.000 C 
BRANCH   6   7
ATOM      7  C   UNL     1      17.567  -0.237  19.001  1.00  0.00     0.006 C 
BRANCH   7   8
ATOM      8  C   UNL     1      17.462  -0.523  17.497  1.00  0.00     0.053 C 
BRANCH   8   9
ATOM      9  C   UNL     1      17.013  -1.927  17.229  1.00  0.00     0.041 C 
ATOM     10  O   UNL     1      17.851  -2.808  16.902  1.00  0.00    -0.550 OA
ATOM     11  O   UNL     1      15.674  -2.269  17.374  1.00  0.00    -0.550 OA
ENDBRANCH   8   9
ENDBRANCH   7   8
ENDBRANCH   6   7
ENDBRANCH   5   6
ENDBRANCH   4   5
ENDBRANCH   3   4
ENDBRANCH   2   3
ENDBRANCH   1   2
BRANCH   1  12
ATOM     12  C   UNL     1      15.465   2.980  16.920  1.00  0.00     0.000 C 
BRANCH  12  13
ATOM     13  C   UNL     1      15.669   2.245  15.580  1.00  0.00    -0.000 C 
BRANCH  13  14
ATOM     14  C   UNL     1      14.635   2.579  14.486  1.00  0.00    -0.000 C 
BRANCH  14  15
ATOM     15  C   UNL     1      15.237   3.048  13.146  1.00  0.00    -0.000 C 
BRANCH  15  16
ATOM     16  C   UNL     1      15.563   1.918  12.150  1.00  0.00    -0.000 C 
BRANCH  16  17
ATOM     17  C   UNL     1      16.935   2.033  11.457  1.00  0.00    -0.000 C 
BRANCH  17  18
ATOM     18  C   UNL     1      17.900   0.864  11.727  1.00  0.00    -0.000 C 
BRANCH  18  19
ATOM     19  C   UNL     1      17.449  -0.021  12.898  1.00  0.00    -0.003 C 
ATOM     20  C   UNL     1      18.538  -0.118  13.963  1.00  0.00     0.004 C 
ENDBRANCH  18  19
ENDBRANCH  17  18
ENDBRANCH  16  17
ENDBRANCH  15  16
ENDBRANCH  14  15
ENDBRANCH  13  14
ENDBRANCH  12  13
ENDBRANCH   1  12
TORSDOF 16
ENDMDL
MODEL 6
REMARK VINA RESULT:    -6.118      2.070      4.599
REMARK INTER + INTRA:         -13.786
REMARK INTER:                 -11.346
REMARK INTRA:                  -2.441
REMARK UNBOUND:                -1.946
REMARK SMILES CCCCCCCCCCCCCCCCCC(=O)[O-]
REMARK SMILES IDX 10 1 11 2 12 3 13 4 14 5 15 6 16 7 17 8 18 9 19 10 20 11
REMARK SMILES IDX 9 12 8 13 7 14 6 15 5 16 4 17 3 18 2 19 1 20
REMARK H PARENT
REMARK Flexibility Score: inf
ROOT
ATOM      1  C   UNL     1      17.329   0.330  19.462  1.00  0.00     0.000 C 
ENDROOT
BRANCH   1   2
ATOM      2  C   UNL     1      17.747  -0.637  18.343  1.00  0.00     0.000 C 
BRANCH   2   3
ATOM      3  C   UNL     1      16.808  -1.850  18.221  1.00  0.00     0.000 C 
BRANCH   3   4
ATOM      4  C   UNL     1      15.883  -1.795  16.986  1.00  0.00     0.000 C 
BRANCH   4   5
ATOM      5  C   UNL     1      15.937  -0.432  16.282  1.00  0.00     0.000 C 
BRANCH   5   6
ATOM      6  C   UNL     1      16.301  -0.590  14.802  1.00  0.00     0.000 C 
BRANCH   6   7
ATOM      7  C   UNL     1      17.640   0.094  14.488  1.00  0.00     0.006 C 
BRANCH   7   8
ATOM      8  C   UNL     1      18.711  -0.906  14.032  1.00  0.00     0.053 C 
BRANCH   8   9
ATOM      9  C   UNL     1      19.629  -1.287  15.153  1.00  0.00     0.041 C 
ATOM     10  O   UNL     1      19.742  -2.493  15.498  1.00  0.00    -0.550 OA
ATOM     11  O   UNL     1      20.386  -0.314  15.794  1.00  0.00    -0.550 OA
ENDBRANCH   8   9
ENDBRANCH   7   8
ENDBRANCH   6   7
ENDBRANCH   5   6
ENDBRANCH   4   5
ENDBRANCH   3   4
ENDBRANCH   2   3
ENDBRANCH   1   2
BRANCH   1  12
ATOM     12  C   UNL     1      15.970  -0.030  20.088  1.00  0.00     0.000 C 
BRANCH  12  13
ATOM     13  C   UNL     1      14.984   1.145  20.243  1.00  0.00    -0.000 C 
BRANCH  13  14
ATOM     14  C   UNL     1      14.029   1.360  19.051  1.00  0.00    -0.000 C 
BRANCH  14  15
ATOM     15  C   UNL     1      13.948   2.811  18.538  1.00  0.00    -0.000 C 
BRANCH  15  16
ATOM     16  C   UNL     1      14.411   3.012  17.081  1.00  0.00    -0.000 C 
BRANCH  16  17
ATOM     17  C   UNL     1      13.321   2.793  16.012  1.00  0.00    -0.000 C 
BRANCH  17  18
ATOM     18  C   UNL     1      13.833   2.257  14.662  1.00  0.00    -0.000 C 
BRANCH  18  19
ATOM     19  C   UNL     1      15.160   2.899  14.232  1.00  0.00    -0.003 C 
ATOM     20  C   UNL     1      15.457   2.613  12.763  1.00  0.00     0.004 C 
ENDBRANCH  18  19
ENDBRANCH  17  18
ENDBRANCH  16  17
ENDBRANCH  15  16
ENDBRANCH  14  15
ENDBRANCH  13  14
ENDBRANCH  12  13
ENDBRANCH   1  12
TORSDOF 16
ENDMDL
MODEL 7
REMARK VINA RESULT:    -6.114      1.895      4.301
REMARK INTER + INTRA:         -13.780
REMARK INTER:                 -11.514
REMARK INTRA:                  -2.265
REMARK UNBOUND:                -1.946
REMARK SMILES CCCCCCCCCCCCCCCCCC(=O)[O-]
REMARK SMILES IDX 10 1 11 2 12 3 13 4 14 5 15 6 16 7 17 8 18 9 19 10 20 11
REMARK SMILES IDX 9 12 8 13 7 14 6 15 5 16 4 17 3 18 2 19 1 20
REMARK H PARENT
REMARK Flexibility Score: inf
ROOT
ATOM      1  C   UNL     1      15.137   2.241  15.138  1.00  0.00     0.000 C 
ENDROOT
BRANCH   1   2
ATOM      2  C   UNL     1      14.780   1.820  13.704  1.00  0.00     0.000 C 
BRANCH   2   3
ATOM      3  C   UNL     1      15.356   2.772  12.642  1.00  0.00     0.000 C 
BRANCH   3   4
ATOM      4  C   UNL     1      15.757   2.067  11.328  1.00  0.00     0.000 C 
BRANCH   4   5
ATOM      5  C   UNL     1      17.268   1.808  11.248  1.00  0.00     0.000 C 
BRANCH   5   6
ATOM      6  C   UNL     1      17.607   0.380  11.692  1.00  0.00     0.000 C 
BRANCH   6   7
ATOM      7  C   UNL     1      18.311   0.380  13.057  1.00  0.00     0.006 C 
BRANCH   7   8
ATOM      8  C   UNL     1      18.492  -1.037  13.618  1.00  0.00     0.053 C 
BRANCH   8   9
ATOM      9  C   UNL     1      19.252  -1.031  14.909  1.00  0.00     0.041 C 
ATOM     10  O   UNL     1      19.697   0.049  15.377  1.00  0.00    -0.550 OA
ATOM     11  O   UNL     1      19.438  -2.215  15.612  1.00  0.00    -0.550 OA
ENDBRANCH   8   9
ENDBRANCH   7   8
ENDBRANCH   6   7
ENDBRANCH   5   6
ENDBRANCH   4   5
ENDBRANCH   3   4
ENDBRANCH   2   3
ENDBRANCH   1   2
BRANCH   1  12
ATOM     12  C   UNL     1      16.301   1.425  15.730  1.00  0.00     0.000 C 
BRANCH  12  13
ATOM     13  C   UNL     1      15.930   0.012  16.223  1.00  0.00    -0.000 C 
BRANCH  13  14
ATOM     14  C   UNL     1      16.501  -0.370  17.604  1.00  0.00    -0.000 C 
BRANCH  14  15
ATOM     15  C   UNL     1      16.648   0.803  18.593  1.00  0.00    -0.000 C 
BRANCH  15  16
ATOM     16  C   UNL     1      15.753   0.713  19.844  1.00  0.00    -0.000 C 
BRANCH  16  17
ATOM     17  C   UNL     1      14.555   1.683  19.864  1.00  0.00    -0.000 C 
BRANCH  17  18
ATOM     18  C   UNL     1      13.712   1.702  18.575  1.00  0.00    -0.000 C 
BRANCH  18  19
ATOM     19  C   UNL     1      13.123   3.086  18.270  1.00  0.00    -0.003 C 
ATOM     20  C   UNL     1      14.228   4.116  18.050  1.00  0.00     0.004 C 
ENDBRANCH  18  19
ENDBRANCH  17  18
ENDBRANCH  16  17
ENDBRANCH  15  16
ENDBRANCH  14  15
ENDBRANCH  13  14
ENDBRANCH  12  13
ENDBRANCH   1  12
TORSDOF 16
ENDMDL
MODEL 8
REMARK VINA RESULT:    -6.109      2.638      6.513
REMARK INTER + INTRA:         -13.768
REMARK INTER:                 -11.607
REMARK INTRA:                  -2.161
REMARK UNBOUND:                -1.946
REMARK SMILES CCCCCCCCCCCCCCCCCC(=O)[O-]
REMARK SMILES IDX 10 1 11 2 12 3 13 4 14 5 15 6 16 7 17 8 18 9 19 10 20 11
REMARK SMILES IDX 9 12 8 13 7 14 6 15 5 16 4 17 3 18 2 19 1 20
REMARK H PARENT
REMARK Flexibility Score: inf
ROOT
ATOM      1  C   UNL     1      16.223  -1.018  16.426  1.00  0.00     0.000 C 
ENDROOT
BRANCH   1   2
ATOM      2  C   UNL     1      16.985  -1.877  17.448  1.00  0.00     0.000 C 
BRANCH   2   3
ATOM      3  C   UNL     1      16.580  -1.572  18.901  1.00  0.00     0.000 C 
BRANCH   3   4
ATOM      4  C   UNL     1      16.738  -0.087  19.291  1.00  0.00     0.000 C 
BRANCH   4   5
ATOM      5  C   UNL     1      15.754   0.330  20.394  1.00  0.00     0.000 C 
BRANCH   5   6
ATOM      6  C   UNL     1      14.831   1.454  19.912  1.00  0.00     0.000 C 
BRANCH   6   7
ATOM      7  C   UNL     1      13.721   0.904  19.003  1.00  0.00     0.006 C 
BRANCH   7   8
ATOM      8  C   UNL     1      13.773   1.509  17.593  1.00  0.00     0.053 C 
BRANCH   8   9
ATOM      9  C   UNL     1      13.836   3.005  17.631  1.00  0.00     0.041 C 
ATOM     10  O   UNL     1      12.877   3.668  18.108  1.00  0.00    -0.550 OA
ATOM     11  O   UNL     1      14.969   3.665  17.173  1.00  0.00    -0.550 OA
ENDBRANCH   8   9
ENDBRANCH   7   8
ENDBRANCH   6   7
ENDBRANCH   5   6
ENDBRANCH   4   5
ENDBRANCH   3   4
ENDBRANCH   2   3
ENDBRANCH   1   2
BRANCH   1  12
ATOM     12  C   UNL     1      17.098   0.082  15.798  1.00  0.00     0.000 C 
BRANCH  12  13
ATOM     13  C   UNL     1      18.518  -0.359  15.389  1.00  0.00    -0.000 C 
BRANCH  13  14
ATOM     14  C   UNL     1      18.792  -0.359  13.871  1.00  0.00    -0.000 C 
BRANCH  14  15
ATOM     15  C   UNL     1      17.531  -0.323  12.985  1.00  0.00    -0.000 C 
BRANCH  15  16
ATOM     16  C   UNL     1      17.492   0.827  11.958  1.00  0.00    -0.000 C 
BRANCH  16  17
ATOM     17  C   UNL     1      16.082   1.338  11.600  1.00  0.00    -0.000 C 
BRANCH  17  18
ATOM     18  C   UNL     1      15.732   2.728  12.162  1.00  0.00    -0.000 C 
BRANCH  18  19
ATOM     19  C   UNL     1      15.339   2.688  13.646  1.00  0.00    -0.003 C 
ATOM     20  C   UNL     1      14.340   1.566  13.919  1.00  0.00     0.004 C 
ENDBRANCH  18  19
ENDBRANCH  17  18
ENDBRANCH  16  17
ENDBRANCH  15  16
ENDBRANCH  14  15
ENDBRANCH  13  14
ENDBRANCH  12  13
ENDBRANCH   1  12
TORSDOF 16
ENDMDL
MODEL 9
REMARK VINA RESULT:    -6.053      1.957      4.326
REMARK INTER + INTRA:         -13.661
REMARK INTER:                 -11.679
REMARK INTRA:                  -1.982
REMARK UNBOUND:                -1.946
REMARK SMILES CCCCCCCCCCCCCCCCCC(=O)[O-]
REMARK SMILES IDX 10 1 11 2 12 3 13 4 14 5 15 6 16 7 17 8 18 9 19 10 20 11
REMARK SMILES IDX 9 12 8 13 7 14 6 15 5 16 4 17 3 18 2 19 1 20
REMARK H PARENT
REMARK Flexibility Score: inf
ROOT
ATOM      1  C   UNL     1      14.642   2.113  14.262  1.00  0.00     0.000 C 
ENDROOT
BRANCH   1   2
ATOM      2  C   UNL     1      15.473   2.978  13.301  1.00  0.00     0.000 C 
BRANCH   2   3
ATOM      3  C   UNL     1      15.502   2.419  11.868  1.00  0.00     0.000 C 
BRANCH   3   4
ATOM      4  C   UNL     1      16.927   2.218  11.309  1.00  0.00     0.000 C 
BRANCH   4   5
ATOM      5  C   UNL     1      17.336   0.738  11.283  1.00  0.00     0.000 C 
BRANCH   5   6
ATOM      6  C   UNL     1      18.163   0.373  12.521  1.00  0.00     0.000 C 
BRANCH   6   7
ATOM      7  C   UNL     1      17.309  -0.380  13.552  1.00  0.00     0.006 C 
BRANCH   7   8
ATOM      8  C   UNL     1      17.659   0.010  14.994  1.00  0.00     0.053 C 
BRANCH   8   9
ATOM      9  C   UNL     1      19.002  -0.515  15.402  1.00  0.00     0.041 C 
ATOM     10  O   UNL     1      19.247  -1.749  15.332  1.00  0.00    -0.550 OA
ATOM     11  O   UNL     1      19.993   0.361  15.825  1.00  0.00    -0.550 OA
ENDBRANCH   8   9
ENDBRANCH   7   8
ENDBRANCH   6   7
ENDBRANCH   5   6
ENDBRANCH   4   5
ENDBRANCH   3   4
ENDBRANCH   2   3
ENDBRANCH   1   2
BRANCH   1  12
ATOM     12  C   UNL     1      14.520   2.727  15.668  1.00  0.00     0.000 C 
BRANCH  12  13
ATOM     13  C   UNL     1      13.080   3.019  16.135  1.00  0.00    -0.000 C 
BRANCH  13  14
ATOM     14  C   UNL     1      12.955   3.546  17.579  1.00  0.00    -0.000 C 
BRANCH  14  15
ATOM     15  C   UNL     1      13.974   2.957  18.575  1.00  0.00    -0.000 C 
BRANCH  15  16
ATOM     16  C   UNL     1      13.684   1.511  19.022  1.00  0.00    -0.000 C 
BRANCH  16  17
ATOM     17  C   UNL     1      14.932   0.634  19.250  1.00  0.00    -0.000 C 
BRANCH  17  18
ATOM     18  C   UNL     1      16.185   1.069  18.467  1.00  0.00    -0.000 C 
BRANCH  18  19
ATOM     19  C   UNL     1      17.454   0.332  18.918  1.00  0.00    -0.003 C 
ATOM     20  C   UNL     1      17.344  -1.165  18.646  1.00  0.00     0.004 C 
ENDBRANCH  18  19
ENDBRANCH  17  18
ENDBRANCH  16  17
ENDBRANCH  15  16
ENDBRANCH  14  15
ENDBRANCH  13  14
ENDBRANCH  12  13
ENDBRANCH   1  12
TORSDOF 16
ENDMDL
