MODEL 1
REMARK VINA RESULT:    -6.329      0.000      0.000
REMARK INTER + INTRA:          -9.146
REMARK INTER:                  -8.548
REMARK INTRA:                  -0.598
REMARK UNBOUND:                -0.598
REMARK SMILES COc1ccc(-c2cc(=O)c3c(OC)c(OC)c(OC)c(OC)c3o2)cc1
REMARK SMILES IDX 7 1 8 2 9 3 10 4 11 5 24 6 25 7 21 8 18 9 15 10 12 11 6 12
REMARK SMILES IDX 3 13 4 14 27 15 5 16 26 17 2 18 1 19 22 20 23 21 13 22 14 23
REMARK SMILES IDX 19 24 20 25 16 26 17 27
REMARK H PARENT
REMARK Flexibility Score: inf
ROOT
ATOM      1  C   UNL     1     127.881 131.253 129.684  1.00  0.00     0.138 A 
ATOM      2  C   UNL     1     127.001 131.393 130.766  1.00  0.00     0.100 A 
ATOM      3  C   UNL     1     126.075 132.434 130.765  1.00  0.00     0.197 A 
ATOM      4  O   UNL     1     125.291 132.543 131.748  1.00  0.00    -0.289 OA
ATOM      5  C   UNL     1     126.034 133.340 129.680  1.00  0.00     0.115 A 
ATOM      6  C   UNL     1     126.966 133.141 128.639  1.00  0.00     0.188 A 
ATOM      7  O   UNL     1     127.827 132.129 128.684  1.00  0.00    -0.452 OA
ATOM      8  C   UNL     1     126.993 133.994 127.537  1.00  0.00     0.209 A 
ATOM      9  C   UNL     1     126.135 135.108 127.484  1.00  0.00     0.211 A 
ATOM     10  C   UNL     1     125.147 135.293 128.485  1.00  0.00     0.208 A 
ATOM     11  C   UNL     1     125.104 134.409 129.599  1.00  0.00     0.179 A 
ENDROOT
BRANCH   1  12
ATOM     12  C   UNL     1     128.888 130.164 129.625  1.00  0.00     0.018 A 
ATOM     13  C   UNL     1     130.802 128.085 129.582  1.00  0.00     0.118 A 
ATOM     14  C   UNL     1     129.859 128.161 130.613  1.00  0.00     0.047 A 
ATOM     15  C   UNL     1     130.791 129.064 128.571  1.00  0.00     0.047 A 
ATOM     16  C   UNL     1     128.915 129.191 130.639  1.00  0.00     0.016 A 
ATOM     17  C   UNL     1     129.846 130.094 128.595  1.00  0.00     0.016 A 
BRANCH  13  18
ATOM     18  O   UNL     1     131.728 127.032 129.601  1.00  0.00    -0.497 OA
ATOM     19  C   UNL     1     133.042 127.127 130.140  1.00  0.00     0.278 C 
ENDBRANCH  13  18
ENDBRANCH   1  12
BRANCH   8  20
ATOM     20  O   UNL     1     127.890 133.706 126.501  1.00  0.00    -0.490 OA
ATOM     21  C   UNL     1     127.549 132.874 125.396  1.00  0.00     0.278 C 
ENDBRANCH   8  20
BRANCH  11  22
ATOM     22  O   UNL     1     124.166 134.542 130.645  1.00  0.00    -0.492 OA
ATOM     23  C   UNL     1     122.794 134.159 130.637  1.00  0.00     0.278 C 
ENDBRANCH  11  22
BRANCH   9  24
ATOM     24  O   UNL     1     126.282 136.044 126.457  1.00  0.00    -0.490 OA
ATOM     25  C   UNL     1     125.558 135.948 125.235  1.00  0.00     0.279 C 
ENDBRANCH   9  24
BRANCH  10  26
ATOM     26  O   UNL     1     124.209 136.341 128.423  1.00  0.00    -0.490 OA
ATOM     27  C   UNL     1     122.986 136.362 127.693  1.00  0.00     0.278 C 
ENDBRANCH  10  26
TORSDOF 6
ENDMDL
MODEL 2
REMARK VINA RESULT:    -6.317      2.619      8.086
REMARK INTER + INTRA:          -9.131
REMARK INTER:                  -8.518
REMARK INTRA:                  -0.614
REMARK UNBOUND:                -0.598
REMARK SMILES COc1ccc(-c2cc(=O)c3c(OC)c(OC)c(OC)c(OC)c3o2)cc1
REMARK SMILES IDX 7 1 8 2 9 3 10 4 11 5 24 6 25 7 21 8 18 9 15 10 12 11 6 12
REMARK SMILES IDX 3 13 4 14 27 15 5 16 26 17 2 18 1 19 22 20 23 21 13 22 14 23
REMARK SMILES IDX 19 24 20 25 16 26 17 27
REMARK H PARENT
REMARK Flexibility Score: inf
ROOT
ATOM      1  C   UNL     1     128.922 133.020 129.354  1.00  0.00     0.138 A 
ATOM      2  C   UNL     1     129.140 133.137 130.734  1.00  0.00     0.100 A 
ATOM      3  C   UNL     1     130.132 132.367 131.338  1.00  0.00     0.197 A 
ATOM      4  O   UNL     1     130.313 132.486 132.581  1.00  0.00    -0.289 OA
ATOM      5  C   UNL     1     130.903 131.473 130.558  1.00  0.00     0.115 A 
ATOM      6  C   UNL     1     130.608 131.401 129.180  1.00  0.00     0.188 A 
ATOM      7  O   UNL     1     129.654 132.162 128.650  1.00  0.00    -0.452 OA
ATOM      8  C   UNL     1     131.319 130.541 128.345  1.00  0.00     0.209 A 
ATOM      9  C   UNL     1     132.295 129.681 128.882  1.00  0.00     0.211 A 
ATOM     10  C   UNL     1     132.654 129.780 130.250  1.00  0.00     0.208 A 
ATOM     11  C   UNL     1     131.944 130.675 131.098  1.00  0.00     0.179 A 
ENDROOT
BRANCH   1  12
ATOM     12  C   UNL     1     127.882 133.814 128.652  1.00  0.00     0.018 A 
ATOM     13  C   UNL     1     125.855 135.285 127.344  1.00  0.00     0.118 A 
ATOM     14  C   UNL     1     125.573 134.575 128.516  1.00  0.00     0.047 A 
ATOM     15  C   UNL     1     127.160 135.249 126.819  1.00  0.00     0.047 A 
ATOM     16  C   UNL     1     126.573 133.843 129.162  1.00  0.00     0.016 A 
ATOM     17  C   UNL     1     128.162 134.519 127.466  1.00  0.00     0.016 A 
BRANCH  13  18
ATOM     18  O   UNL     1     124.816 136.004 126.734  1.00  0.00    -0.497 OA
ATOM     19  C   UNL     1     123.586 136.334 127.370  1.00  0.00     0.278 C 
ENDBRANCH  13  18
ENDBRANCH   1  12
BRANCH   8  20
ATOM     20  O   UNL     1     131.032 130.565 126.974  1.00  0.00    -0.490 OA
ATOM     21  C   UNL     1     130.107 129.668 126.366  1.00  0.00     0.278 C 
ENDBRANCH   8  20
BRANCH  11  22
ATOM     22  O   UNL     1     132.228 130.812 132.474  1.00  0.00    -0.492 OA
ATOM     23  C   UNL     1     133.385 131.393 133.069  1.00  0.00     0.278 C 
ENDBRANCH  11  22
BRANCH   9  24
ATOM     24  O   UNL     1     132.885 128.713 128.065  1.00  0.00    -0.490 OA
ATOM     25  C   UNL     1     134.127 128.933 127.404  1.00  0.00     0.279 C 
ENDBRANCH   9  24
BRANCH  10  26
ATOM     26  O   UNL     1     133.688 129.004 130.808  1.00  0.00    -0.490 OA
ATOM     27  C   UNL     1     133.568 127.734 131.442  1.00  0.00     0.278 C 
ENDBRANCH  10  26
TORSDOF 6
ENDMDL
MODEL 3
REMARK VINA RESULT:    -6.309      2.082      3.333
REMARK INTER + INTRA:          -9.120
REMARK INTER:                  -8.497
REMARK INTRA:                  -0.623
REMARK UNBOUND:                -0.598
REMARK SMILES COc1ccc(-c2cc(=O)c3c(OC)c(OC)c(OC)c(OC)c3o2)cc1
REMARK SMILES IDX 7 1 8 2 9 3 10 4 11 5 24 6 25 7 21 8 18 9 15 10 12 11 6 12
REMARK SMILES IDX 3 13 4 14 27 15 5 16 26 17 2 18 1 19 22 20 23 21 13 22 14 23
REMARK SMILES IDX 19 24 20 25 16 26 17 27
REMARK H PARENT
REMARK Flexibility Score: inf
ROOT
ATOM      1  C   UNL     1     130.060 129.160 130.481  1.00  0.00     0.138 A 
ATOM      2  C   UNL     1     129.575 129.581 131.726  1.00  0.00     0.100 A 
ATOM      3  C   UNL     1     128.514 130.483 131.778  1.00  0.00     0.197 A 
ATOM      4  O   UNL     1     128.091 130.850 132.909  1.00  0.00    -0.289 OA
ATOM      5  C   UNL     1     127.942 130.968 130.579  1.00  0.00     0.115 A 
ATOM      6  C   UNL     1     128.501 130.510 129.367  1.00  0.00     0.188 A 
ATOM      7  O   UNL     1     129.511 129.644 129.371  1.00  0.00    -0.452 OA
ATOM      8  C   UNL     1     127.998 130.945 128.142  1.00  0.00     0.209 A 
ATOM      9  C   UNL     1     126.969 131.904 128.102  1.00  0.00     0.211 A 
ATOM     10  C   UNL     1     126.348 132.332 129.303  1.00  0.00     0.208 A 
ATOM     11  C   UNL     1     126.847 131.870 130.553  1.00  0.00     0.179 A 
ENDROOT
BRANCH   1  12
ATOM     12  C   UNL     1     131.186 128.199 130.360  1.00  0.00     0.018 A 
ATOM     13  C   UNL     1     133.372 126.421 130.151  1.00  0.00     0.118 A 
ATOM     14  C   UNL     1     133.419 127.502 131.037  1.00  0.00     0.047 A 
ATOM     15  C   UNL     1     132.225 126.235 129.357  1.00  0.00     0.047 A 
ATOM     16  C   UNL     1     132.341 128.386 131.139  1.00  0.00     0.016 A 
ATOM     17  C   UNL     1     131.145 127.118 129.459  1.00  0.00     0.016 A 
BRANCH  13  18
ATOM     18  O   UNL     1     134.480 125.563 130.087  1.00  0.00    -0.497 OA
ATOM     19  C   UNL     1     135.498 125.491 131.079  1.00  0.00     0.278 C 
ENDBRANCH  13  18
ENDBRANCH   1  12
BRANCH   8  20
ATOM     20  O   UNL     1     128.544 130.400 126.973  1.00  0.00    -0.490 OA
ATOM     21  C   UNL     1     129.609 131.021 126.259  1.00  0.00     0.278 C 
ENDBRANCH   8  20
BRANCH  11  22
ATOM     22  O   UNL     1     126.296 132.268 131.790  1.00  0.00    -0.492 OA
ATOM     23  C   UNL     1     125.035 131.899 132.340  1.00  0.00     0.278 C 
ENDBRANCH  11  22
BRANCH   9  24
ATOM     24  O   UNL     1     126.584 132.451 126.875  1.00  0.00    -0.490 OA
ATOM     25  C   UNL     1     125.530 131.897 126.095  1.00  0.00     0.279 C 
ENDBRANCH   9  24
BRANCH  10  26
ATOM     26  O   UNL     1     125.255 133.219 129.303  1.00  0.00    -0.490 OA
ATOM     27  C   UNL     1     125.298 134.641 129.369  1.00  0.00     0.278 C 
ENDBRANCH  10  26
TORSDOF 6
ENDMDL
MODEL 4
REMARK VINA RESULT:    -6.262      2.359      8.366
REMARK INTER + INTRA:          -9.057
REMARK INTER:                  -8.366
REMARK INTRA:                  -0.690
REMARK UNBOUND:                -0.598
REMARK SMILES COc1ccc(-c2cc(=O)c3c(OC)c(OC)c(OC)c(OC)c3o2)cc1
REMARK SMILES IDX 7 1 8 2 9 3 10 4 11 5 24 6 25 7 21 8 18 9 15 10 12 11 6 12
REMARK SMILES IDX 3 13 4 14 27 15 5 16 26 17 2 18 1 19 22 20 23 21 13 22 14 23
REMARK SMILES IDX 19 24 20 25 16 26 17 27
REMARK H PARENT
REMARK Flexibility Score: inf
ROOT
ATOM      1  C   UNL     1     128.388 132.372 128.470  1.00  0.00     0.138 A 
ATOM      2  C   UNL     1     128.684 131.358 127.549  1.00  0.00     0.100 A 
ATOM      3  C   UNL     1     129.603 130.368 127.893  1.00  0.00     0.197 A 
ATOM      4  O   UNL     1     129.856 129.463 127.051  1.00  0.00    -0.289 OA
ATOM      5  C   UNL     1     130.229 130.398 129.161  1.00  0.00     0.115 A 
ATOM      6  C   UNL     1     129.890 131.463 130.023  1.00  0.00     0.188 A 
ATOM      7  O   UNL     1     129.003 132.381 129.649  1.00  0.00    -0.452 OA
ATOM      8  C   UNL     1     130.468 131.566 131.287  1.00  0.00     0.209 A 
ATOM      9  C   UNL     1     131.452 130.645 131.691  1.00  0.00     0.211 A 
ATOM     10  C   UNL     1     131.763 129.531 130.871  1.00  0.00     0.208 A 
ATOM     11  C   UNL     1     131.156 129.413 129.590  1.00  0.00     0.179 A 
ENDROOT
BRANCH   1  12
ATOM     12  C   UNL     1     127.417 133.453 128.164  1.00  0.00     0.018 A 
ATOM     13  C   UNL     1     125.520 135.472 127.609  1.00  0.00     0.118 A 
ATOM     14  C   UNL     1     125.314 134.574 128.662  1.00  0.00     0.047 A 
ATOM     15  C   UNL     1     126.681 135.351 126.823  1.00  0.00     0.047 A 
ATOM     16  C   UNL     1     126.248 133.572 128.936  1.00  0.00     0.016 A 
ATOM     17  C   UNL     1     127.618 134.349 127.097  1.00  0.00     0.016 A 
BRANCH  13  18
ATOM     18  O   UNL     1     124.552 136.460 127.377  1.00  0.00    -0.497 OA
ATOM     19  C   UNL     1     123.258 136.474 127.972  1.00  0.00     0.278 C 
ENDBRANCH  13  18
ENDBRANCH   1  12
BRANCH   8  20
ATOM     20  O   UNL     1     130.039 132.602 132.126  1.00  0.00    -0.490 OA
ATOM     21  C   UNL     1     129.039 132.421 133.124  1.00  0.00     0.278 C 
ENDBRANCH   8  20
BRANCH  11  22
ATOM     22  O   UNL     1     131.433 128.345 128.708  1.00  0.00    -0.492 OA
ATOM     23  C   UNL     1     131.130 126.966 128.891  1.00  0.00     0.278 C 
ENDBRANCH  11  22
BRANCH   9  24
ATOM     24  O   UNL     1     132.139 130.852 132.891  1.00  0.00    -0.490 OA
ATOM     25  C   UNL     1     133.362 131.577 132.949  1.00  0.00     0.279 C 
ENDBRANCH   9  24
BRANCH  10  26
ATOM     26  O   UNL     1     132.673 128.536 131.277  1.00  0.00    -0.490 OA
ATOM     27  C   UNL     1     134.072 128.486 131.010  1.00  0.00     0.278 C 
ENDBRANCH  10  26
TORSDOF 6
ENDMDL
MODEL 5
REMARK VINA RESULT:    -6.227      2.086      3.321
REMARK INTER + INTRA:          -9.009
REMARK INTER:                  -8.397
REMARK INTRA:                  -0.612
REMARK UNBOUND:                -0.598
REMARK SMILES COc1ccc(-c2cc(=O)c3c(OC)c(OC)c(OC)c(OC)c3o2)cc1
REMARK SMILES IDX 7 1 8 2 9 3 10 4 11 5 24 6 25 7 21 8 18 9 15 10 12 11 6 12
REMARK SMILES IDX 3 13 4 14 27 15 5 16 26 17 2 18 1 19 22 20 23 21 13 22 14 23
REMARK SMILES IDX 19 24 20 25 16 26 17 27
REMARK H PARENT
REMARK Flexibility Score: inf
ROOT
ATOM      1  C   UNL     1     130.040 129.205 130.430  1.00  0.00     0.138 A 
ATOM      2  C   UNL     1     129.563 129.638 131.674  1.00  0.00     0.100 A 
ATOM      3  C   UNL     1     128.491 130.527 131.725  1.00  0.00     0.197 A 
ATOM      4  O   UNL     1     128.076 130.905 132.855  1.00  0.00    -0.289 OA
ATOM      5  C   UNL     1     127.900 130.988 130.525  1.00  0.00     0.115 A 
ATOM      6  C   UNL     1     128.452 130.519 129.314  1.00  0.00     0.188 A 
ATOM      7  O   UNL     1     129.472 129.666 129.319  1.00  0.00    -0.452 OA
ATOM      8  C   UNL     1     127.930 130.931 128.089  1.00  0.00     0.209 A 
ATOM      9  C   UNL     1     126.888 131.876 128.047  1.00  0.00     0.211 A 
ATOM     10  C   UNL     1     126.274 132.313 129.248  1.00  0.00     0.208 A 
ATOM     11  C   UNL     1     126.793 131.875 130.499  1.00  0.00     0.179 A 
ENDROOT
BRANCH   1  12
ATOM     12  C   UNL     1     131.177 128.257 130.310  1.00  0.00     0.018 A 
ATOM     13  C   UNL     1     133.295 126.404 130.063  1.00  0.00     0.118 A 
ATOM     14  C   UNL     1     132.109 126.225 129.344  1.00  0.00     0.047 A 
ATOM     15  C   UNL     1     133.416 127.514 130.919  1.00  0.00     0.047 A 
ATOM     16  C   UNL     1     131.058 127.138 129.467  1.00  0.00     0.016 A 
ATOM     17  C   UNL     1     132.366 128.429 131.043  1.00  0.00     0.016 A 
BRANCH  13  18
ATOM     18  O   UNL     1     134.320 125.459 129.904  1.00  0.00    -0.497 OA
ATOM     19  C   UNL     1     134.686 124.873 128.659  1.00  0.00     0.278 C 
ENDBRANCH  13  18
ENDBRANCH   1  12
BRANCH   8  20
ATOM     20  O   UNL     1     128.470 130.377 126.922  1.00  0.00    -0.490 OA
ATOM     21  C   UNL     1     129.481 131.027 126.158  1.00  0.00     0.278 C 
ENDBRANCH   8  20
BRANCH  11  22
ATOM     22  O   UNL     1     126.251 132.284 131.737  1.00  0.00    -0.492 OA
ATOM     23  C   UNL     1     125.006 131.898 132.311  1.00  0.00     0.278 C 
ENDBRANCH  11  22
BRANCH   9  24
ATOM     24  O   UNL     1     126.483 132.401 126.817  1.00  0.00    -0.490 OA
ATOM     25  C   UNL     1     125.466 131.790 126.030  1.00  0.00     0.279 C 
ENDBRANCH   9  24
BRANCH  10  26
ATOM     26  O   UNL     1     125.170 133.186 129.248  1.00  0.00    -0.490 OA
ATOM     27  C   UNL     1     125.195 134.608 129.319  1.00  0.00     0.278 C 
ENDBRANCH  10  26
TORSDOF 6
ENDMDL
MODEL 6
REMARK VINA RESULT:    -6.181      2.217      5.157
REMARK INTER + INTRA:          -8.947
REMARK INTER:                  -8.305
REMARK INTRA:                  -0.643
REMARK UNBOUND:                -0.598
REMARK SMILES COc1ccc(-c2cc(=O)c3c(OC)c(OC)c(OC)c(OC)c3o2)cc1
REMARK SMILES IDX 7 1 8 2 9 3 10 4 11 5 24 6 25 7 21 8 18 9 15 10 12 11 6 12
REMARK SMILES IDX 3 13 4 14 27 15 5 16 26 17 2 18 1 19 22 20 23 21 13 22 14 23
REMARK SMILES IDX 19 24 20 25 16 26 17 27
REMARK H PARENT
REMARK Flexibility Score: inf
ROOT
ATOM      1  C   UNL     1     130.893 128.754 129.256  1.00  0.00     0.138 A 
ATOM      2  C   UNL     1     130.778 129.177 127.925  1.00  0.00     0.100 A 
ATOM      3  C   UNL     1     129.761 130.064 127.574  1.00  0.00     0.197 A 
ATOM      4  O   UNL     1     129.674 130.433 126.370  1.00  0.00    -0.289 OA
ATOM      5  C   UNL     1     128.855 130.522 128.558  1.00  0.00     0.115 A 
ATOM      6  C   UNL     1     129.028 130.034 129.870  1.00  0.00     0.188 A 
ATOM      7  O   UNL     1     130.018 129.193 130.156  1.00  0.00    -0.452 OA
ATOM      8  C   UNL     1     128.173 130.434 130.896  1.00  0.00     0.209 A 
ATOM      9  C   UNL     1     127.082 131.278 130.618  1.00  0.00     0.211 A 
ATOM     10  C   UNL     1     126.924 131.833 129.322  1.00  0.00     0.208 A 
ATOM     11  C   UNL     1     127.811 131.442 128.280  1.00  0.00     0.179 A 
ENDROOT
BRANCH   1  12
ATOM     12  C   UNL     1     131.955 127.813 129.693  1.00  0.00     0.018 A 
ATOM     13  C   UNL     1     134.013 126.076 130.546  1.00  0.00     0.118 A 
ATOM     14  C   UNL     1     133.849 127.329 131.145  1.00  0.00     0.047 A 
ATOM     15  C   UNL     1     133.145 125.694 129.507  1.00  0.00     0.047 A 
ATOM     16  C   UNL     1     132.835 128.193 130.721  1.00  0.00     0.016 A 
ATOM     17  C   UNL     1     132.129 126.556 129.083  1.00  0.00     0.016 A 
BRANCH  13  18
ATOM     18  O   UNL     1     135.046 125.247 131.008  1.00  0.00    -0.497 OA
ATOM     19  C   UNL     1     135.995 125.623 132.001  1.00  0.00     0.278 C 
ENDBRANCH  13  18
ENDBRANCH   1  12
BRANCH   8  20
ATOM     20  O   UNL     1     128.437 129.974 132.193  1.00  0.00    -0.490 OA
ATOM     21  C   UNL     1     129.272 130.680 133.105  1.00  0.00     0.278 C 
ENDBRANCH   8  20
BRANCH  11  22
ATOM     22  O   UNL     1     127.704 131.933 126.961  1.00  0.00    -0.492 OA
ATOM     23  C   UNL     1     126.652 131.701 126.029  1.00  0.00     0.278 C 
ENDBRANCH  11  22
BRANCH   9  24
ATOM     24  O   UNL     1     126.141 131.542 131.617  1.00  0.00    -0.490 OA
ATOM     25  C   UNL     1     126.237 132.680 132.467  1.00  0.00     0.279 C 
ENDBRANCH   9  24
BRANCH  10  26
ATOM     26  O   UNL     1     125.901 132.753 129.023  1.00  0.00    -0.490 OA
ATOM     27  C   UNL     1     125.984 134.174 129.052  1.00  0.00     0.278 C 
ENDBRANCH  10  26
TORSDOF 6
ENDMDL
MODEL 7
REMARK VINA RESULT:    -6.126      2.033      3.996
REMARK INTER + INTRA:          -8.873
REMARK INTER:                  -8.202
REMARK INTRA:                  -0.671
REMARK UNBOUND:                -0.598
REMARK SMILES COc1ccc(-c2cc(=O)c3c(OC)c(OC)c(OC)c(OC)c3o2)cc1
REMARK SMILES IDX 7 1 8 2 9 3 10 4 11 5 24 6 25 7 21 8 18 9 15 10 12 11 6 12
REMARK SMILES IDX 3 13 4 14 27 15 5 16 26 17 2 18 1 19 22 20 23 21 13 22 14 23
REMARK SMILES IDX 19 24 20 25 16 26 17 27
REMARK H PARENT
REMARK Flexibility Score: inf
ROOT
ATOM      1  C   UNL     1     129.360 130.390 130.313  1.00  0.00     0.138 A 
ATOM      2  C   UNL     1     128.951 130.178 128.989  1.00  0.00     0.100 A 
ATOM      3  C   UNL     1     127.876 130.904 128.480  1.00  0.00     0.197 A 
ATOM      4  O   UNL     1     127.522 130.699 127.286  1.00  0.00    -0.289 OA
ATOM      5  C   UNL     1     127.207 131.842 129.301  1.00  0.00     0.115 A 
ATOM      6  C   UNL     1     127.669 131.982 130.627  1.00  0.00     0.188 A 
ATOM      7  O   UNL     1     128.702 131.269 131.064  1.00  0.00    -0.452 OA
ATOM      8  C   UNL     1     127.059 132.881 131.501  1.00  0.00     0.209 A 
ATOM      9  C   UNL     1     125.928 133.610 131.089  1.00  0.00     0.211 A 
ATOM     10  C   UNL     1     125.484 133.535 129.744  1.00  0.00     0.208 A 
ATOM     11  C   UNL     1     126.121 132.633 128.846  1.00  0.00     0.179 A 
ENDROOT
BRANCH   1  12
ATOM     12  C   UNL     1     130.498 129.650 130.912  1.00  0.00     0.018 A 
ATOM     13  C   UNL     1     132.677 128.294 132.094  1.00  0.00     0.118 A 
ATOM     14  C   UNL     1     131.995 129.290 132.799  1.00  0.00     0.047 A 
ATOM     15  C   UNL     1     132.271 127.981 130.784  1.00  0.00     0.047 A 
ATOM     16  C   UNL     1     130.920 129.966 132.215  1.00  0.00     0.016 A 
ATOM     17  C   UNL     1     131.194 128.655 130.199  1.00  0.00     0.016 A 
BRANCH  13  18
ATOM     18  O   UNL     1     133.749 127.645 132.725  1.00  0.00    -0.497 OA
ATOM     19  C   UNL     1     134.717 126.849 132.049  1.00  0.00     0.278 C 
ENDBRANCH  13  18
ENDBRANCH   1  12
BRANCH   8  20
ATOM     20  O   UNL     1     127.606 133.031 132.782  1.00  0.00    -0.490 OA
ATOM     21  C   UNL     1     128.480 134.102 133.125  1.00  0.00     0.278 C 
ENDBRANCH   8  20
BRANCH  11  22
ATOM     22  O   UNL     1     125.722 132.486 127.500  1.00  0.00    -0.492 OA
ATOM     23  C   UNL     1     125.895 133.416 126.434  1.00  0.00     0.278 C 
ENDBRANCH  11  22
BRANCH   9  24
ATOM     24  O   UNL     1     125.230 134.384 132.020  1.00  0.00    -0.490 OA
ATOM     25  C   UNL     1     124.193 133.842 132.832  1.00  0.00     0.279 C 
ENDBRANCH   9  24
BRANCH  10  26
ATOM     26  O   UNL     1     124.414 134.315 129.266  1.00  0.00    -0.490 OA
ATOM     27  C   UNL     1     124.428 135.708 128.969  1.00  0.00     0.278 C 
ENDBRANCH  10  26
TORSDOF 6
ENDMDL
MODEL 8
REMARK VINA RESULT:    -6.099      2.245      7.214
REMARK INTER + INTRA:          -8.836
REMARK INTER:                  -8.182
REMARK INTRA:                  -0.654
REMARK UNBOUND:                -0.598
REMARK SMILES COc1ccc(-c2cc(=O)c3c(OC)c(OC)c(OC)c(OC)c3o2)cc1
REMARK SMILES IDX 7 1 8 2 9 3 10 4 11 5 24 6 25 7 21 8 18 9 15 10 12 11 6 12
REMARK SMILES IDX 3 13 4 14 27 15 5 16 26 17 2 18 1 19 22 20 23 21 13 22 14 23
REMARK SMILES IDX 19 24 20 25 16 26 17 27
REMARK H PARENT
REMARK Flexibility Score: inf
ROOT
ATOM      1  C   UNL     1     125.605 134.370 126.576  1.00  0.00     0.138 A 
ATOM      2  C   UNL     1     125.100 135.252 127.542  1.00  0.00     0.100 A 
ATOM      3  C   UNL     1     125.214 134.927 128.892  1.00  0.00     0.197 A 
ATOM      4  O   UNL     1     124.754 135.733 129.746  1.00  0.00    -0.289 OA
ATOM      5  C   UNL     1     125.831 133.713 129.275  1.00  0.00     0.115 A 
ATOM      6  C   UNL     1     126.296 132.872 128.242  1.00  0.00     0.188 A 
ATOM      7  O   UNL     1     126.168 133.230 126.967  1.00  0.00    -0.452 OA
ATOM      8  C   UNL     1     126.911 131.656 128.537  1.00  0.00     0.209 A 
ATOM      9  C   UNL     1     127.011 131.221 129.871  1.00  0.00     0.211 A 
ATOM     10  C   UNL     1     126.610 132.074 130.930  1.00  0.00     0.208 A 
ATOM     11  C   UNL     1     126.003 133.326 130.629  1.00  0.00     0.179 A 
ENDROOT
BRANCH   1  12
ATOM     12  C   UNL     1     125.516 134.660 125.123  1.00  0.00     0.018 A 
ATOM     13  C   UNL     1     125.277 135.217 122.363  1.00  0.00     0.118 A 
ATOM     14  C   UNL     1     124.302 135.660 123.264  1.00  0.00     0.047 A 
ATOM     15  C   UNL     1     126.374 134.482 122.849  1.00  0.00     0.047 A 
ATOM     16  C   UNL     1     124.416 135.382 124.629  1.00  0.00     0.016 A 
ATOM     17  C   UNL     1     126.489 134.204 124.215  1.00  0.00     0.016 A 
BRANCH  13  18
ATOM     18  O   UNL     1     125.117 135.523 121.004  1.00  0.00    -0.497 OA
ATOM     19  C   UNL     1     124.063 136.325 120.479  1.00  0.00     0.278 C 
ENDBRANCH  13  18
ENDBRANCH   1  12
BRANCH   8  20
ATOM     20  O   UNL     1     127.417 130.898 127.474  1.00  0.00    -0.490 OA
ATOM     21  C   UNL     1     128.752 131.036 126.997  1.00  0.00     0.278 C 
ENDBRANCH   8  20
BRANCH  11  22
ATOM     22  O   UNL     1     125.558 134.219 131.628  1.00  0.00    -0.492 OA
ATOM     23  C   UNL     1     124.544 133.998 132.604  1.00  0.00     0.278 C 
ENDBRANCH  11  22
BRANCH   9  24
ATOM     24  O   UNL     1     127.481 129.933 130.142  1.00  0.00    -0.490 OA
ATOM     25  C   UNL     1     128.855 129.666 130.402  1.00  0.00     0.279 C 
ENDBRANCH   9  24
BRANCH  10  26
ATOM     26  O   UNL     1     126.778 131.717 132.281  1.00  0.00    -0.490 OA
ATOM     27  C   UNL     1     127.883 132.027 133.125  1.00  0.00     0.278 C 
ENDBRANCH  10  26
TORSDOF 6
ENDMDL
MODEL 9
REMARK VINA RESULT:    -6.044      3.021      7.798
REMARK INTER + INTRA:          -8.762
REMARK INTER:                  -8.155
REMARK INTRA:                  -0.606
REMARK UNBOUND:                -0.598
REMARK SMILES COc1ccc(-c2cc(=O)c3c(OC)c(OC)c(OC)c(OC)c3o2)cc1
REMARK SMILES IDX 7 1 8 2 9 3 10 4 11 5 24 6 25 7 21 8 18 9 15 10 12 11 6 12
REMARK SMILES IDX 3 13 4 14 27 15 5 16 26 17 2 18 1 19 22 20 23 21 13 22 14 23
REMARK SMILES IDX 19 24 20 25 16 26 17 27
REMARK H PARENT
REMARK Flexibility Score: inf
ROOT
ATOM      1  C   UNL     1     126.231 134.386 125.572  1.00  0.00     0.138 A 
ATOM      2  C   UNL     1     127.535 133.874 125.636  1.00  0.00     0.100 A 
ATOM      3  C   UNL     1     128.090 133.566 126.877  1.00  0.00     0.197 A 
ATOM      4  O   UNL     1     129.264 133.106 126.913  1.00  0.00    -0.289 OA
ATOM      5  C   UNL     1     127.338 133.777 128.056  1.00  0.00     0.115 A 
ATOM      6  C   UNL     1     126.042 134.313 127.907  1.00  0.00     0.188 A 
ATOM      7  O   UNL     1     125.555 134.585 126.700  1.00  0.00    -0.452 OA
ATOM      8  C   UNL     1     125.240 134.555 129.022  1.00  0.00     0.209 A 
ATOM      9  C   UNL     1     125.744 134.333 130.316  1.00  0.00     0.211 A 
ATOM     10  C   UNL     1     127.019 133.735 130.491  1.00  0.00     0.208 A 
ATOM     11  C   UNL     1     127.828 133.466 129.351  1.00  0.00     0.179 A 
ENDROOT
BRANCH   1  12
ATOM     12  C   UNL     1     125.585 134.731 124.281  1.00  0.00     0.018 A 
ATOM     13  C   UNL     1     124.292 135.372 121.852  1.00  0.00     0.118 A 
ATOM     14  C   UNL     1     123.604 135.460 123.067  1.00  0.00     0.047 A 
ATOM     15  C   UNL     1     125.634 134.951 121.854  1.00  0.00     0.047 A 
ATOM     16  C   UNL     1     124.239 135.139 124.269  1.00  0.00     0.016 A 
ATOM     17  C   UNL     1     126.272 134.631 123.057  1.00  0.00     0.016 A 
BRANCH  13  18
ATOM     18  O   UNL     1     123.608 135.706 120.673  1.00  0.00    -0.497 OA
ATOM     19  C   UNL     1     122.839 136.892 120.499  1.00  0.00     0.278 C 
ENDBRANCH  13  18
ENDBRANCH   1  12
BRANCH   8  20
ATOM     20  O   UNL     1     123.936 135.020 128.808  1.00  0.00    -0.490 OA
ATOM     21  C   UNL     1     123.628 136.401 128.649  1.00  0.00     0.278 C 
ENDBRANCH   8  20
BRANCH  11  22
ATOM     22  O   UNL     1     129.115 132.894 129.446  1.00  0.00    -0.492 OA
ATOM     23  C   UNL     1     130.270 133.449 130.069  1.00  0.00     0.278 C 
ENDBRANCH  11  22
BRANCH   9  24
ATOM     24  O   UNL     1     124.994 134.730 131.426  1.00  0.00    -0.490 OA
ATOM     25  C   UNL     1     124.075 133.855 132.073  1.00  0.00     0.279 C 
ENDBRANCH   9  24
BRANCH  10  26
ATOM     26  O   UNL     1     127.523 133.410 131.764  1.00  0.00    -0.490 OA
ATOM     27  C   UNL     1     127.396 132.169 132.451  1.00  0.00     0.278 C 
ENDBRANCH  10  26
TORSDOF 6
ENDMDL
