MODEL 1
REMARK VINA RESULT:    -4.332      0.000      0.000
REMARK INTER + INTRA:          -5.036
REMARK INTER:                  -6.105
REMARK INTRA:                   1.070
REMARK UNBOUND:                 1.070
REMARK SMILES CC1=CCC(=C(C)C)C(=O)CC(C)=CCC1
REMARK SMILES IDX 12 1 14 2 13 3 15 4 16 5 2 6 1 7 3 8 11 10 9 11 10 12 5 13
REMARK SMILES IDX 6 14 7 15 8 16 4 17
REMARK H PARENT
REMARK Flexibility Score: 60.00
ROOT
ATOM      1  C   UNL     1      11.678  14.970  25.340  1.00  0.00    -0.070 C 
ATOM      2  C   UNL     1      11.801  14.111  26.381  1.00  0.00    -0.027 C 
ATOM      3  C   UNL     1      10.949  14.485  24.111  1.00  0.00     0.039 C 
ENDROOT
BRANCH   2   4
ATOM      4  C   UNL     1      12.515  14.414  27.674  1.00  0.00     0.032 C 
BRANCH   4   5
ATOM      5  C   UNL     1      13.430  13.250  28.089  1.00  0.00     0.034 C 
BRANCH   5   6
ATOM      6  C   UNL     1      14.901  13.523  27.846  1.00  0.00    -0.077 C 
ATOM      7  C   UNL     1      15.853  12.354  27.785  1.00  0.00     0.039 C 
ATOM      8  C   UNL     1      15.407  14.758  27.596  1.00  0.00    -0.023 CG0
ATOM      9  G   UNL     1      14.675  16.079  27.705  1.00  0.00     0.000 G0
ENDBRANCH   5   6
ENDBRANCH   4   5
ENDBRANCH   2   4
BRANCH   1  10
ATOM     10  C   UNL     1      12.230  16.389  25.355  1.00  0.00     0.111 C 
BRANCH  10  11
ATOM     11  C   UNL     1      13.738  16.399  25.267  1.00  0.00     0.163 C 
ATOM     12  O   UNL     1      14.243  15.963  24.197  1.00  0.00    -0.294 OA
BRANCH  11  13
ATOM     13  C   UNL     1      14.642  16.877  26.373  1.00  0.00    -0.002 C 
ATOM     14  C   UNL     1      15.423  17.995  26.220  1.00  0.00    -0.069 C 
ATOM     15  C   UNL     1      16.388  18.441  27.298  1.00  0.00     0.039 C 
ATOM     16  C   UNL     1      15.328  18.876  24.993  1.00  0.00     0.039 C 
BRANCH  13  17
ATOM     17  C   UNL     1      14.694  16.092  27.683  1.00  0.00     0.066 CG0
ATOM     18  G   UNL     1      15.407  14.760  27.589  1.00  0.00     0.000 G0
ENDBRANCH  13  17
ENDBRANCH  11  13
ENDBRANCH  10  11
ENDBRANCH   1  10
TORSDOF 0
ENDMDL
MODEL 2
REMARK VINA RESULT:    -2.815      2.032      3.509
REMARK INTER + INTRA:          -2.897
REMARK INTER:                  -3.776
REMARK INTRA:                   0.878
REMARK UNBOUND:                 1.070
REMARK SMILES CC1=CCC(=C(C)C)C(=O)CC(C)=CCC1
REMARK SMILES IDX 12 1 14 2 13 3 15 4 16 5 2 6 1 7 3 8 11 10 9 11 10 12 5 13
REMARK SMILES IDX 6 14 7 15 8 16 4 17
REMARK H PARENT
REMARK Flexibility Score: 60.00
ROOT
ATOM      1  C   UNL     1      13.307  17.191  28.079  1.00  0.00    -0.070 C 
ATOM      2  C   UNL     1      12.252  16.340  28.084  1.00  0.00    -0.027 C 
ATOM      3  C   UNL     1      13.016  18.671  28.040  1.00  0.00     0.039 C 
ENDROOT
BRANCH   2   4
ATOM      4  C   UNL     1      12.353  14.836  28.098  1.00  0.00     0.032 C 
BRANCH   4   5
ATOM      5  C   UNL     1      12.927  14.306  26.773  1.00  0.00     0.034 C 
BRANCH   5   6
ATOM      6  C   UNL     1      12.454  15.081  25.558  1.00  0.00    -0.077 C 
ATOM      7  C   UNL     1      10.997  15.006  25.176  1.00  0.00     0.039 C 
ATOM      8  C   UNL     1      13.250  15.910  24.837  1.00  0.00    -0.023 CG0
ATOM      9  G   UNL     1      14.751  16.068  24.965  1.00  0.00     0.000 G0
ENDBRANCH   5   6
ENDBRANCH   4   5
ENDBRANCH   2   4
BRANCH   1  10
ATOM     10  C   UNL     1      14.757  16.727  28.119  1.00  0.00     0.111 C 
BRANCH  10  11
ATOM     11  C   UNL     1      15.584  17.400  27.049  1.00  0.00     0.163 C 
ATOM     12  O   UNL     1      16.593  18.048  27.440  1.00  0.00    -0.294 OA
BRANCH  11  13
ATOM     13  C   UNL     1      15.260  17.349  25.578  1.00  0.00    -0.002 C 
ATOM     14  C   UNL     1      15.392  18.458  24.783  1.00  0.00    -0.069 C 
ATOM     15  C   UNL     1      15.000  18.436  23.320  1.00  0.00     0.039 C 
ATOM     16  C   UNL     1      15.986  19.750  25.302  1.00  0.00     0.039 C 
BRANCH  13  17
ATOM     17  C   UNL     1      14.765  16.037  24.971  1.00  0.00     0.066 CG0
ATOM     18  G   UNL     1      13.260  15.933  24.842  1.00  0.00     0.000 G0
ENDBRANCH  13  17
ENDBRANCH  11  13
ENDBRANCH  10  11
ENDBRANCH   1  10
TORSDOF 0
ENDMDL
MODEL 3
REMARK VINA RESULT:    -2.792      1.507      4.109
REMARK INTER + INTRA:          -2.865
REMARK INTER:                  -3.471
REMARK INTRA:                   0.606
REMARK UNBOUND:                 1.070
REMARK SMILES CC1=CCC(=C(C)C)C(=O)CC(C)=CCC1
REMARK SMILES IDX 12 1 14 2 13 3 15 4 16 5 2 6 1 7 3 8 11 10 9 11 10 12 5 13
REMARK SMILES IDX 6 14 7 15 8 16 4 17
REMARK H PARENT
REMARK Flexibility Score: 60.00
ROOT
ATOM      1  C   UNL     1      11.803  14.933  24.773  1.00  0.00    -0.070 C 
ATOM      2  C   UNL     1      12.709  15.842  24.335  1.00  0.00    -0.027 C 
ATOM      3  C   UNL     1      11.538  13.730  23.902  1.00  0.00     0.039 C 
ENDROOT
BRANCH   2   4
ATOM      4  C   UNL     1      13.082  17.111  25.059  1.00  0.00     0.032 C 
BRANCH   4   5
ATOM      5  C   UNL     1      14.593  17.163  25.343  1.00  0.00     0.034 C 
BRANCH   5   6
ATOM      6  C   UNL     1      14.928  17.169  26.822  1.00  0.00    -0.077 C 
ATOM      7  C   UNL     1      15.302  18.478  27.473  1.00  0.00     0.039 C 
ATOM      8  C   UNL     1      14.831  16.077  27.621  1.00  0.00    -0.023 CG0
ATOM      9  G   UNL     1      14.578  14.649  27.182  1.00  0.00     0.000 G0
ENDBRANCH   5   6
ENDBRANCH   4   5
ENDBRANCH   2   4
BRANCH   1  10
ATOM     10  C   UNL     1      11.057  15.065  26.093  1.00  0.00     0.111 C 
BRANCH  10  11
ATOM     11  C   UNL     1      12.008  15.105  27.266  1.00  0.00     0.163 C 
ATOM     12  O   UNL     1      11.811  16.009  28.122  1.00  0.00    -0.294 OA
BRANCH  11  13
ATOM     13  C   UNL     1      13.160  14.150  27.448  1.00  0.00    -0.002 C 
ATOM     14  C   UNL     1      12.954  12.858  27.859  1.00  0.00    -0.069 C 
ATOM     15  C   UNL     1      14.110  11.914  28.114  1.00  0.00     0.039 C 
ATOM     16  C   UNL     1      11.564  12.284  28.029  1.00  0.00     0.039 C 
BRANCH  13  17
ATOM     17  C   UNL     1      14.581  14.640  27.179  1.00  0.00     0.066 CG0
ATOM     18  G   UNL     1      14.850  16.064  27.620  1.00  0.00     0.000 G0
ENDBRANCH  13  17
ENDBRANCH  11  13
ENDBRANCH  10  11
ENDBRANCH   1  10
TORSDOF 0
ENDMDL
MODEL 4
REMARK VINA RESULT:    -2.641      1.782      3.533
REMARK INTER + INTRA:          -2.652
REMARK INTER:                  -4.099
REMARK INTRA:                   1.447
REMARK UNBOUND:                 1.070
REMARK SMILES CC1=CCC(=C(C)C)C(=O)CC(C)=CCC1
REMARK SMILES IDX 12 1 14 2 13 3 15 4 16 5 2 6 1 7 3 8 11 10 9 11 10 12 5 13
REMARK SMILES IDX 6 14 7 15 8 16 4 17
REMARK H PARENT
REMARK Flexibility Score: 60.00
ROOT
ATOM      1  C   UNL     1      14.603  14.012  27.577  1.00  0.00    -0.070 C 
ATOM      2  C   UNL     1      13.390  14.266  28.125  1.00  0.00    -0.027 C 
ATOM      3  C   UNL     1      15.341  12.781  28.043  1.00  0.00     0.039 C 
ENDROOT
BRANCH   2   4
ATOM      4  C   UNL     1      12.524  15.457  27.799  1.00  0.00     0.032 C 
BRANCH   4   5
ATOM      5  C   UNL     1      11.429  15.086  26.785  1.00  0.00     0.034 C 
BRANCH   5   6
ATOM      6  C   UNL     1      11.871  15.226  25.342  1.00  0.00    -0.077 C 
ATOM      7  C   UNL     1      11.508  14.134  24.366  1.00  0.00     0.039 C 
ATOM      8  C   UNL     1      12.507  16.320  24.852  1.00  0.00    -0.023 CG0
ATOM      9  G   UNL     1      13.062  17.482  25.648  1.00  0.00     0.000 G0
ENDBRANCH   5   6
ENDBRANCH   4   5
ENDBRANCH   2   4
BRANCH   1  10
ATOM     10  C   UNL     1      15.246  14.898  26.519  1.00  0.00     0.111 C 
BRANCH  10  11
ATOM     11  C   UNL     1      15.092  16.362  26.854  1.00  0.00     0.163 C 
ATOM     12  O   UNL     1      15.401  16.710  28.026  1.00  0.00    -0.294 OA
BRANCH  11  13
ATOM     13  C   UNL     1      14.583  17.398  25.884  1.00  0.00    -0.002 C 
ATOM     14  C   UNL     1      15.443  18.251  25.239  1.00  0.00    -0.069 C 
ATOM     15  C   UNL     1      14.936  19.341  24.319  1.00  0.00     0.039 C 
ATOM     16  C   UNL     1      16.945  18.119  25.365  1.00  0.00     0.039 C 
BRANCH  13  17
ATOM     17  C   UNL     1      13.081  17.502  25.628  1.00  0.00     0.066 CG0
ATOM     18  G   UNL     1      12.492  16.337  24.861  1.00  0.00     0.000 G0
ENDBRANCH  13  17
ENDBRANCH  11  13
ENDBRANCH  10  11
ENDBRANCH   1  10
TORSDOF 0
ENDMDL
MODEL 5
REMARK VINA RESULT:    -2.513      1.764      2.424
REMARK INTER + INTRA:          -2.471
REMARK INTER:                  -3.643
REMARK INTRA:                   1.172
REMARK UNBOUND:                 1.070
REMARK SMILES CC1=CCC(=C(C)C)C(=O)CC(C)=CCC1
REMARK SMILES IDX 12 1 14 2 13 3 15 4 16 5 2 6 1 7 3 8 11 10 9 11 10 12 5 13
REMARK SMILES IDX 6 14 7 15 8 16 4 17
REMARK H PARENT
REMARK Flexibility Score: 60.00
ROOT
ATOM      1  C   UNL     1      12.669  15.426  24.873  1.00  0.00    -0.070 C 
ATOM      2  C   UNL     1      12.603  14.457  25.819  1.00  0.00    -0.027 C 
ATOM      3  C   UNL     1      11.468  15.620  23.982  1.00  0.00     0.039 C 
ENDROOT
BRANCH   2   4
ATOM      4  C   UNL     1      13.712  14.108  26.780  1.00  0.00     0.032 C 
BRANCH   4   5
ATOM      5  C   UNL     1      13.534  14.837  28.122  1.00  0.00     0.034 C 
BRANCH   5   6
ATOM      6  C   UNL     1      12.458  15.905  28.090  1.00  0.00    -0.077 C 
ATOM      7  C   UNL     1      11.012  15.474  28.113  1.00  0.00     0.039 C 
ATOM      8  C   UNL     1      12.717  17.236  28.125  1.00  0.00    -0.023 CG0
ATOM      9  G   UNL     1      14.071  17.903  28.003  1.00  0.00     0.000 G0
ENDBRANCH   5   6
ENDBRANCH   4   5
ENDBRANCH   2   4
BRANCH   1  10
ATOM     10  C   UNL     1      13.883  16.323  24.677  1.00  0.00     0.111 C 
BRANCH  10  11
ATOM     11  C   UNL     1      13.749  17.615  25.448  1.00  0.00     0.163 C 
ATOM     12  O   UNL     1      12.842  18.406  25.071  1.00  0.00    -0.294 OA
BRANCH  11  13
ATOM     13  C   UNL     1      14.634  18.000  26.605  1.00  0.00    -0.002 C 
ATOM     14  C   UNL     1      15.929  18.407  26.404  1.00  0.00    -0.069 C 
ATOM     15  C   UNL     1      16.848  18.727  27.565  1.00  0.00     0.039 C 
ATOM     16  C   UNL     1      16.498  18.613  25.017  1.00  0.00     0.039 C 
BRANCH  13  17
ATOM     17  C   UNL     1      14.077  17.924  28.025  1.00  0.00     0.066 CG0
ATOM     18  G   UNL     1      12.734  17.233  28.137  1.00  0.00     0.000 G0
ENDBRANCH  13  17
ENDBRANCH  11  13
ENDBRANCH  10  11
ENDBRANCH   1  10
TORSDOF 0
ENDMDL
MODEL 6
REMARK VINA RESULT:    -2.476      1.808      2.818
REMARK INTER + INTRA:          -2.419
REMARK INTER:                  -2.788
REMARK INTRA:                   0.369
REMARK UNBOUND:                 1.070
REMARK SMILES CC1=CCC(=C(C)C)C(=O)CC(C)=CCC1
REMARK SMILES IDX 12 1 14 2 13 3 15 4 16 5 2 6 1 7 3 8 11 10 9 11 10 12 5 13
REMARK SMILES IDX 6 14 7 15 8 16 4 17
REMARK H PARENT
REMARK Flexibility Score: 60.00
ROOT
ATOM      1  C   UNL     1      13.884  16.773  24.306  1.00  0.00    -0.070 C 
ATOM      2  C   UNL     1      12.545  16.618  24.449  1.00  0.00    -0.027 C 
ATOM      3  C   UNL     1      14.386  18.090  23.768  1.00  0.00     0.039 C 
ENDROOT
BRANCH   2   4
ATOM      4  C   UNL     1      11.866  15.368  24.947  1.00  0.00     0.032 C 
BRANCH   4   5
ATOM      5  C   UNL     1      11.226  15.597  26.327  1.00  0.00     0.034 C 
BRANCH   5   6
ATOM      6  C   UNL     1      11.926  14.850  27.447  1.00  0.00    -0.077 C 
ATOM      7  C   UNL     1      11.441  13.468  27.807  1.00  0.00     0.039 C 
ATOM      8  C   UNL     1      13.022  15.319  28.094  1.00  0.00    -0.023 CG0
ATOM      9  G   UNL     1      13.622  16.705  27.981  1.00  0.00     0.000 G0
ENDBRANCH   5   6
ENDBRANCH   4   5
ENDBRANCH   2   4
BRANCH   1  10
ATOM     10  C   UNL     1      14.895  15.694  24.669  1.00  0.00     0.111 C 
BRANCH  10  11
ATOM     11  C   UNL     1      15.196  15.691  26.149  1.00  0.00     0.163 C 
ATOM     12  O   UNL     1      15.750  14.656  26.610  1.00  0.00    -0.294 OA
BRANCH  11  13
ATOM     13  C   UNL     1      14.859  16.828  27.078  1.00  0.00    -0.002 C 
ATOM     14  C   UNL     1      15.645  17.951  27.141  1.00  0.00    -0.069 C 
ATOM     15  C   UNL     1      15.355  19.066  28.124  1.00  0.00     0.039 C 
ATOM     16  C   UNL     1      16.810  18.166  26.201  1.00  0.00     0.039 C 
BRANCH  13  17
ATOM     17  C   UNL     1      13.624  16.718  27.972  1.00  0.00     0.066 CG0
ATOM     18  G   UNL     1      13.059  15.318  28.093  1.00  0.00     0.000 G0
ENDBRANCH  13  17
ENDBRANCH  11  13
ENDBRANCH  10  11
ENDBRANCH   1  10
TORSDOF 0
ENDMDL
MODEL 7
REMARK VINA RESULT:    -2.282      2.282      4.373
REMARK INTER + INTRA:          -2.147
REMARK INTER:                  -3.121
REMARK INTRA:                   0.974
REMARK UNBOUND:                 1.070
REMARK SMILES CC1=CCC(=C(C)C)C(=O)CC(C)=CCC1
REMARK SMILES IDX 12 1 14 2 13 3 15 4 16 5 2 6 1 7 3 8 11 10 9 11 10 12 5 13
REMARK SMILES IDX 6 14 7 15 8 16 4 17
REMARK H PARENT
REMARK Flexibility Score: 60.00
ROOT
ATOM      1  C   UNL     1      15.938  17.580  27.692  1.00  0.00    -0.070 C 
ATOM      2  C   UNL     1      15.600  16.339  28.121  1.00  0.00    -0.027 C 
ATOM      3  C   UNL     1      17.273  18.133  28.123  1.00  0.00     0.039 C 
ENDROOT
BRANCH   2   4
ATOM      4  C   UNL     1      14.302  15.638  27.809  1.00  0.00     0.032 C 
BRANCH   4   5
ATOM      5  C   UNL     1      14.301  15.084  26.375  1.00  0.00     0.034 C 
BRANCH   5   6
ATOM      6  C   UNL     1      13.208  15.672  25.503  1.00  0.00    -0.077 C 
ATOM      7  C   UNL     1      11.771  15.353  25.831  1.00  0.00     0.039 C 
ATOM      8  C   UNL     1      13.443  16.542  24.487  1.00  0.00    -0.023 CG0
ATOM      9  G   UNL     1      14.789  16.926  23.912  1.00  0.00     0.000 G0
ENDBRANCH   5   6
ENDBRANCH   4   5
ENDBRANCH   2   4
BRANCH   1  10
ATOM     10  C   UNL     1      15.044  18.428  26.798  1.00  0.00     0.111 C 
BRANCH  10  11
ATOM     11  C   UNL     1      15.735  18.787  25.504  1.00  0.00     0.163 C 
ATOM     12  O   UNL     1      16.780  19.486  25.596  1.00  0.00    -0.294 OA
BRANCH  11  13
ATOM     13  C   UNL     1      15.237  18.375  24.142  1.00  0.00    -0.002 C 
ATOM     14  C   UNL     1      15.157  19.277  23.112  1.00  0.00    -0.069 C 
ATOM     15  C   UNL     1      14.590  18.889  21.762  1.00  0.00     0.039 C 
ATOM     16  C   UNL     1      15.676  20.692  23.244  1.00  0.00     0.039 C 
BRANCH  13  17
ATOM     17  C   UNL     1      14.806  16.927  23.915  1.00  0.00     0.066 CG0
ATOM     18  G   UNL     1      13.451  16.576  24.492  1.00  0.00     0.000 G0
ENDBRANCH  13  17
ENDBRANCH  11  13
ENDBRANCH  10  11
ENDBRANCH   1  10
TORSDOF 0
ENDMDL
MODEL 8
REMARK VINA RESULT:    -1.592      1.865      2.972
REMARK INTER + INTRA:          -1.174
REMARK INTER:                  -1.648
REMARK INTRA:                   0.474
REMARK UNBOUND:                 1.070
REMARK SMILES CC1=CCC(=C(C)C)C(=O)CC(C)=CCC1
REMARK SMILES IDX 12 1 14 2 13 3 15 4 16 5 2 6 1 7 3 8 11 10 9 11 10 12 5 13
REMARK SMILES IDX 6 14 7 15 8 16 4 17
REMARK H PARENT
REMARK Flexibility Score: 60.00
ROOT
ATOM      1  C   UNL     1      12.977  15.478  25.504  1.00  0.00    -0.070 C 
ATOM      2  C   UNL     1      13.449  14.922  26.646  1.00  0.00    -0.027 C 
ATOM      3  C   UNL     1      11.541  15.204  25.130  1.00  0.00     0.039 C 
ENDROOT
BRANCH   2   4
ATOM      4  C   UNL     1      14.858  15.067  27.162  1.00  0.00     0.032 C 
BRANCH   4   5
ATOM      5  C   UNL     1      15.075  16.448  27.804  1.00  0.00     0.034 C 
BRANCH   5   6
ATOM      6  C   UNL     1      16.468  17.003  27.582  1.00  0.00    -0.077 C 
ATOM      7  C   UNL     1      17.649  16.222  28.101  1.00  0.00     0.039 C 
ATOM      8  C   UNL     1      16.726  18.128  26.867  1.00  0.00    -0.023 CG0
ATOM      9  G   UNL     1      15.712  19.123  26.342  1.00  0.00     0.000 G0
ENDBRANCH   5   6
ENDBRANCH   4   5
ENDBRANCH   2   4
BRANCH   1  10
ATOM     10  C   UNL     1      13.818  16.364  24.595  1.00  0.00     0.111 C 
BRANCH  10  11
ATOM     11  C   UNL     1      13.845  17.793  25.084  1.00  0.00     0.163 C 
ATOM     12  O   UNL     1      12.769  18.249  25.556  1.00  0.00    -0.294 OA
BRANCH  11  13
ATOM     13  C   UNL     1      15.062  18.680  25.021  1.00  0.00    -0.002 C 
ATOM     14  C   UNL     1      15.582  19.089  23.819  1.00  0.00    -0.069 C 
ATOM     15  C   UNL     1      16.845  19.920  23.744  1.00  0.00     0.039 C 
ATOM     16  C   UNL     1      14.898  18.781  22.505  1.00  0.00     0.039 C 
BRANCH  13  17
ATOM     17  C   UNL     1      15.730  19.120  26.323  1.00  0.00     0.066 CG0
ATOM     18  G   UNL     1      16.737  18.134  26.876  1.00  0.00     0.000 G0
ENDBRANCH  13  17
ENDBRANCH  11  13
ENDBRANCH  10  11
ENDBRANCH   1  10
TORSDOF 0
ENDMDL
MODEL 9
REMARK VINA RESULT:    -1.527      1.839      3.742
REMARK INTER + INTRA:          -1.083
REMARK INTER:                  -3.502
REMARK INTRA:                   2.419
REMARK UNBOUND:                 1.070
REMARK SMILES CC1=CCC(=C(C)C)C(=O)CC(C)=CCC1
REMARK SMILES IDX 12 1 14 2 13 3 15 4 16 5 2 6 1 7 3 8 11 10 9 11 10 12 5 13
REMARK SMILES IDX 6 14 7 15 8 16 4 17
REMARK H PARENT
REMARK Flexibility Score: 60.00
ROOT
ATOM      1  C   UNL     1      12.017  14.732  25.297  1.00  0.00    -0.070 C 
ATOM      2  C   UNL     1      11.781  15.916  24.680  1.00  0.00    -0.027 C 
ATOM      3  C   UNL     1      11.120  13.569  24.953  1.00  0.00     0.039 C 
ENDROOT
BRANCH   2   4
ATOM      4  C   UNL     1      12.557  17.186  24.917  1.00  0.00     0.032 C 
BRANCH   4   5
ATOM      5  C   UNL     1      13.991  17.070  24.374  1.00  0.00     0.034 C 
BRANCH   5   6
ATOM      6  C   UNL     1      14.907  18.181  24.849  1.00  0.00    -0.077 C 
ATOM      7  C   UNL     1      15.768  18.891  23.833  1.00  0.00     0.039 C 
ATOM      8  C   UNL     1      14.940  18.636  26.127  1.00  0.00    -0.023 CG0
ATOM      9  G   UNL     1      14.252  18.022  27.328  1.00  0.00     0.000 G0
ENDBRANCH   5   6
ENDBRANCH   4   5
ENDBRANCH   2   4
BRANCH   1  10
ATOM     10  C   UNL     1      13.139  14.523  26.304  1.00  0.00     0.111 C 
BRANCH  10  11
ATOM     11  C   UNL     1      13.197  15.648  27.311  1.00  0.00     0.163 C 
ATOM     12  O   UNL     1      12.160  15.843  28.001  1.00  0.00    -0.294 OA
BRANCH  11  13
ATOM     13  C   UNL     1      14.399  16.536  27.512  1.00  0.00    -0.002 C 
ATOM     14  C   UNL     1      15.621  16.011  27.850  1.00  0.00    -0.069 C 
ATOM     15  C   UNL     1      16.815  16.900  28.125  1.00  0.00     0.039 C 
ATOM     16  C   UNL     1      15.862  14.519  27.914  1.00  0.00     0.039 C 
BRANCH  13  17
ATOM     17  C   UNL     1      14.243  18.046  27.346  1.00  0.00     0.066 CG0
ATOM     18  G   UNL     1      14.962  18.623  26.144  1.00  0.00     0.000 G0
ENDBRANCH  13  17
ENDBRANCH  11  13
ENDBRANCH  10  11
ENDBRANCH   1  10
TORSDOF 0
ENDMDL
