MODEL 1
REMARK VINA RESULT:    -4.575      0.000      0.000
REMARK INTER + INTRA:         -13.892
REMARK INTER:                 -11.529
REMARK INTRA:                  -2.363
REMARK UNBOUND:                -2.363
REMARK SMILES CCCCCCCCCCCCCCCCCCCCCCCCCCCC(=O)[O-]
REMARK SMILES IDX 15 1 16 2 17 3 18 4 19 5 20 6 21 7 22 8 23 9 24 10 25 11
REMARK SMILES IDX 26 12 27 13 28 14 29 15 30 16 14 17 13 18 12 19 11 20 10 21
REMARK SMILES IDX 9 22 8 23 7 24 6 25 5 26 4 27 3 28 2 29 1 30
REMARK H PARENT
REMARK Flexibility Score: inf
ROOT
ATOM      1  C   UNL     1      -9.114  -3.615  -8.161  1.00  0.00     0.000 C 
ENDROOT
BRANCH   1   2
ATOM      2  C   UNL     1     -10.042  -2.389  -8.292  1.00  0.00     0.000 C 
BRANCH   2   3
ATOM      3  C   UNL     1     -10.188  -1.828  -9.718  1.00  0.00     0.000 C 
BRANCH   3   4
ATOM      4  C   UNL     1     -11.589  -2.050 -10.304  1.00  0.00     0.000 C 
BRANCH   4   5
ATOM      5  C   UNL     1     -12.421  -2.979  -9.406  1.00  0.00     0.000 C 
BRANCH   5   6
ATOM      6  C   UNL     1     -13.475  -3.773 -10.195  1.00  0.00     0.000 C 
BRANCH   6   7
ATOM      7  C   UNL     1     -14.915  -3.393  -9.807  1.00  0.00     0.000 C 
BRANCH   7   8
ATOM      8  C   UNL     1     -15.094  -1.874  -9.644  1.00  0.00     0.000 C 
BRANCH   8   9
ATOM      9  C   UNL     1     -14.831  -1.112 -10.955  1.00  0.00     0.000 C 
BRANCH   9  10
ATOM     10  C   UNL     1     -14.088   0.215 -10.733  1.00  0.00     0.000 C 
BRANCH  10  11
ATOM     11  C   UNL     1     -14.364   0.889  -9.375  1.00  0.00     0.000 C 
BRANCH  11  12
ATOM     12  C   UNL     1     -13.997   2.387  -9.339  1.00  0.00     0.006 C 
BRANCH  12  13
ATOM     13  C   UNL     1     -12.479   2.609  -9.297  1.00  0.00     0.053 C 
BRANCH  13  14
ATOM     14  C   UNL     1     -12.139   3.916  -8.651  1.00  0.00     0.041 C 
ATOM     15  O   UNL     1     -10.955   4.159  -8.294  1.00  0.00    -0.550 OA
ATOM     16  O   UNL     1     -13.126   4.880  -8.471  1.00  0.00    -0.550 OA
ENDBRANCH  13  14
ENDBRANCH  12  13
ENDBRANCH  11  12
ENDBRANCH  10  11
ENDBRANCH   9  10
ENDBRANCH   8   9
ENDBRANCH   7   8
ENDBRANCH   6   7
ENDBRANCH   5   6
ENDBRANCH   4   5
ENDBRANCH   3   4
ENDBRANCH   2   3
ENDBRANCH   1   2
BRANCH   1  17
ATOM     17  C   UNL     1      -9.828  -4.935  -7.822  1.00  0.00     0.000 C 
BRANCH  17  18
ATOM     18  C   UNL     1     -10.319  -5.684  -9.073  1.00  0.00     0.000 C 
BRANCH  18  19
ATOM     19  C   UNL     1     -10.431  -7.202  -8.850  1.00  0.00     0.000 C 
BRANCH  19  20
ATOM     20  C   UNL     1     -11.850  -7.784  -9.025  1.00  0.00     0.000 C 
BRANCH  20  21
ATOM     21  C   UNL     1     -12.536  -7.456 -10.363  1.00  0.00     0.000 C 
BRANCH  21  22
ATOM     22  C   UNL     1     -13.997  -7.002 -10.193  1.00  0.00    -0.000 C 
BRANCH  22  23
ATOM     23  C   UNL     1     -14.568  -7.347  -8.808  1.00  0.00    -0.000 C 
BRANCH  23  24
ATOM     24  C   UNL     1     -14.328  -6.240  -7.770  1.00  0.00    -0.000 C 
BRANCH  24  25
ATOM     25  C   UNL     1     -15.125  -6.512  -6.485  1.00  0.00    -0.000 C 
BRANCH  25  26
ATOM     26  C   UNL     1     -14.693  -7.808  -5.780  1.00  0.00    -0.000 C 
BRANCH  26  27
ATOM     27  C   UNL     1     -13.187  -8.124  -5.872  1.00  0.00    -0.000 C 
BRANCH  27  28
ATOM     28  C   UNL     1     -12.281  -6.989  -5.349  1.00  0.00    -0.000 C 
BRANCH  28  29
ATOM     29  C   UNL     1     -10.981  -7.518  -4.725  1.00  0.00    -0.003 C 
ATOM     30  C   UNL     1     -10.044  -8.069  -5.794  1.00  0.00     0.004 C 
ENDBRANCH  28  29
ENDBRANCH  27  28
ENDBRANCH  26  27
ENDBRANCH  25  26
ENDBRANCH  24  25
ENDBRANCH  23  24
ENDBRANCH  22  23
ENDBRANCH  21  22
ENDBRANCH  20  21
ENDBRANCH  19  20
ENDBRANCH  18  19
ENDBRANCH  17  18
ENDBRANCH   1  17
TORSDOF 26
ENDMDL
MODEL 2
REMARK VINA RESULT:    -4.186      3.118      7.961
REMARK INTER + INTRA:         -12.910
REMARK INTER:                 -10.098
REMARK INTRA:                  -2.812
REMARK UNBOUND:                -2.363
REMARK SMILES CCCCCCCCCCCCCCCCCCCCCCCCCCCC(=O)[O-]
REMARK SMILES IDX 15 1 16 2 17 3 18 4 19 5 20 6 21 7 22 8 23 9 24 10 25 11
REMARK SMILES IDX 26 12 27 13 28 14 29 15 30 16 14 17 13 18 12 19 11 20 10 21
REMARK SMILES IDX 9 22 8 23 7 24 6 25 5 26 4 27 3 28 2 29 1 30
REMARK H PARENT
REMARK Flexibility Score: inf
ROOT
ATOM      1  C   UNL     1      -8.788  -2.611  -7.705  1.00  0.00     0.000 C 
ENDROOT
BRANCH   1   2
ATOM      2  C   UNL     1      -8.631  -4.083  -8.139  1.00  0.00     0.000 C 
BRANCH   2   3
ATOM      3  C   UNL     1      -9.886  -4.956  -7.960  1.00  0.00     0.000 C 
BRANCH   3   4
ATOM      4  C   UNL     1      -9.935  -6.137  -8.939  1.00  0.00     0.000 C 
BRANCH   4   5
ATOM      5  C   UNL     1     -11.370  -6.660  -9.100  1.00  0.00     0.000 C 
BRANCH   5   6
ATOM      6  C   UNL     1     -12.424  -5.558  -8.899  1.00  0.00     0.000 C 
BRANCH   6   7
ATOM      7  C   UNL     1     -13.615  -5.695  -9.863  1.00  0.00     0.000 C 
BRANCH   7   8
ATOM      8  C   UNL     1     -14.959  -5.396  -9.177  1.00  0.00     0.000 C 
BRANCH   8   9
ATOM      9  C   UNL     1     -15.020  -5.957  -7.746  1.00  0.00     0.000 C 
BRANCH   9  10
ATOM     10  C   UNL     1     -15.028  -7.494  -7.709  1.00  0.00     0.000 C 
BRANCH  10  11
ATOM     11  C   UNL     1     -13.907  -8.124  -6.861  1.00  0.00     0.000 C 
BRANCH  11  12
ATOM     12  C   UNL     1     -13.797  -7.534  -5.440  1.00  0.00     0.006 C 
BRANCH  12  13
ATOM     13  C   UNL     1     -12.501  -7.961  -4.736  1.00  0.00     0.053 C 
BRANCH  13  14
ATOM     14  C   UNL     1     -11.327  -7.180  -5.240  1.00  0.00     0.041 C 
ATOM     15  O   UNL     1     -10.509  -7.708  -6.040  1.00  0.00    -0.550 OA
ATOM     16  O   UNL     1     -11.154  -5.856  -4.851  1.00  0.00    -0.550 OA
ENDBRANCH  13  14
ENDBRANCH  12  13
ENDBRANCH  11  12
ENDBRANCH  10  11
ENDBRANCH   9  10
ENDBRANCH   8   9
ENDBRANCH   7   8
ENDBRANCH   6   7
ENDBRANCH   5   6
ENDBRANCH   4   5
ENDBRANCH   3   4
ENDBRANCH   2   3
ENDBRANCH   1   2
BRANCH   1  17
ATOM     17  C   UNL     1     -10.054  -1.911  -8.231  1.00  0.00     0.000 C 
BRANCH  17  18
ATOM     18  C   UNL     1     -10.021  -1.690  -9.753  1.00  0.00     0.000 C 
BRANCH  18  19
ATOM     19  C   UNL     1     -10.766  -0.414 -10.182  1.00  0.00     0.000 C 
BRANCH  19  20
ATOM     20  C   UNL     1     -11.977  -0.647 -11.111  1.00  0.00     0.000 C 
BRANCH  20  21
ATOM     21  C   UNL     1     -12.611  -2.047 -11.028  1.00  0.00     0.000 C 
BRANCH  21  22
ATOM     22  C   UNL     1     -13.431  -2.258  -9.743  1.00  0.00    -0.000 C 
BRANCH  22  23
ATOM     23  C   UNL     1     -14.915  -1.897  -9.920  1.00  0.00    -0.000 C 
BRANCH  23  24
ATOM     24  C   UNL     1     -15.125  -0.449 -10.389  1.00  0.00    -0.000 C 
BRANCH  24  25
ATOM     25  C   UNL     1     -14.737   0.546  -9.284  1.00  0.00    -0.000 C 
BRANCH  25  26
ATOM     26  C   UNL     1     -14.542   1.976  -9.813  1.00  0.00    -0.000 C 
BRANCH  26  27
ATOM     27  C   UNL     1     -13.666   2.881  -8.923  1.00  0.00    -0.000 C 
BRANCH  27  28
ATOM     28  C   UNL     1     -12.150   2.686  -9.140  1.00  0.00    -0.000 C 
BRANCH  28  29
ATOM     29  C   UNL     1     -11.309   3.667  -8.309  1.00  0.00    -0.003 C 
ATOM     30  C   UNL     1     -12.198   4.634  -7.536  1.00  0.00     0.004 C 
ENDBRANCH  28  29
ENDBRANCH  27  28
ENDBRANCH  26  27
ENDBRANCH  25  26
ENDBRANCH  24  25
ENDBRANCH  23  24
ENDBRANCH  22  23
ENDBRANCH  21  22
ENDBRANCH  20  21
ENDBRANCH  19  20
ENDBRANCH  18  19
ENDBRANCH  17  18
ENDBRANCH   1  17
TORSDOF 26
ENDMDL
MODEL 3
REMARK VINA RESULT:    -3.983     15.987     19.585
REMARK INTER + INTRA:         -12.401
REMARK INTER:                  -9.004
REMARK INTRA:                  -3.397
REMARK UNBOUND:                -2.363
REMARK SMILES CCCCCCCCCCCCCCCCCCCCCCCCCCCC(=O)[O-]
REMARK SMILES IDX 15 1 16 2 17 3 18 4 19 5 20 6 21 7 22 8 23 9 24 10 25 11
REMARK SMILES IDX 26 12 27 13 28 14 29 15 30 16 14 17 13 18 12 19 11 20 10 21
REMARK SMILES IDX 9 22 8 23 7 24 6 25 5 26 4 27 3 28 2 29 1 30
REMARK H PARENT
REMARK Flexibility Score: inf
ROOT
ATOM      1  C   UNL     1     -11.032   5.351   8.405  1.00  0.00     0.000 C 
ENDROOT
BRANCH   1   2
ATOM      2  C   UNL     1     -11.927   4.366   7.624  1.00  0.00     0.000 C 
BRANCH   2   3
ATOM      3  C   UNL     1     -12.796   5.002   6.524  1.00  0.00     0.000 C 
BRANCH   3   4
ATOM      4  C   UNL     1     -12.287   4.690   5.110  1.00  0.00     0.000 C 
BRANCH   4   5
ATOM      5  C   UNL     1     -12.701   5.791   4.121  1.00  0.00     0.000 C 
BRANCH   5   6
ATOM      6  C   UNL     1     -14.180   5.692   3.713  1.00  0.00     0.000 C 
BRANCH   6   7
ATOM      7  C   UNL     1     -14.913   7.040   3.811  1.00  0.00     0.000 C 
BRANCH   7   8
ATOM      8  C   UNL     1     -14.139   8.065   4.657  1.00  0.00     0.000 C 
BRANCH   8   9
ATOM      9  C   UNL     1     -14.299   9.500   4.124  1.00  0.00     0.000 C 
BRANCH   9  10
ATOM     10  C   UNL     1     -13.775  10.561   5.106  1.00  0.00     0.000 C 
BRANCH  10  11
ATOM     11  C   UNL     1     -13.844  12.009   4.587  1.00  0.00     0.000 C 
BRANCH  11  12
ATOM     12  C   UNL     1     -13.737  12.125   3.051  1.00  0.00     0.006 C 
BRANCH  12  13
ATOM     13  C   UNL     1     -12.293  11.952   2.559  1.00  0.00     0.053 C 
BRANCH  13  14
ATOM     14  C   UNL     1     -12.241  11.135   1.306  1.00  0.00     0.041 C 
ATOM     15  O   UNL     1     -11.533  11.509   0.332  1.00  0.00    -0.550 OA
ATOM     16  O   UNL     1     -12.952   9.942   1.223  1.00  0.00    -0.550 OA
ENDBRANCH  13  14
ENDBRANCH  12  13
ENDBRANCH  11  12
ENDBRANCH  10  11
ENDBRANCH   9  10
ENDBRANCH   8   9
ENDBRANCH   7   8
ENDBRANCH   6   7
ENDBRANCH   5   6
ENDBRANCH   4   5
ENDBRANCH   3   4
ENDBRANCH   2   3
ENDBRANCH   1   2
BRANCH   1  17
ATOM     17  C   UNL     1      -9.567   5.406   7.938  1.00  0.00     0.000 C 
BRANCH  17  18
ATOM     18  C   UNL     1      -9.123   6.825   7.544  1.00  0.00     0.000 C 
BRANCH  18  19
ATOM     19  C   UNL     1      -9.598   7.225   6.136  1.00  0.00     0.000 C 
BRANCH  19  20
ATOM     20  C   UNL     1     -10.851   8.124   6.100  1.00  0.00     0.000 C 
BRANCH  20  21
ATOM     21  C   UNL     1     -10.591   9.625   6.323  1.00  0.00     0.000 C 
BRANCH  21  22
ATOM     22  C   UNL     1     -10.040  10.330   5.071  1.00  0.00    -0.000 C 
BRANCH  22  23
ATOM     23  C   UNL     1      -9.465  11.723   5.379  1.00  0.00    -0.000 C 
BRANCH  23  24
ATOM     24  C   UNL     1      -7.930  11.762   5.315  1.00  0.00    -0.000 C 
BRANCH  24  25
ATOM     25  C   UNL     1      -7.314  11.006   6.501  1.00  0.00    -0.000 C 
BRANCH  25  26
ATOM     26  C   UNL     1      -6.330   9.909   6.062  1.00  0.00    -0.000 C 
BRANCH  26  27
ATOM     27  C   UNL     1      -4.873  10.127   6.516  1.00  0.00    -0.000 C 
BRANCH  27  28
ATOM     28  C   UNL     1      -4.403  11.594   6.415  1.00  0.00    -0.000 C 
BRANCH  28  29
ATOM     29  C   UNL     1      -3.048  11.727   5.703  1.00  0.00    -0.003 C 
ATOM     30  C   UNL     1      -3.235  12.035   4.221  1.00  0.00     0.004 C 
ENDBRANCH  28  29
ENDBRANCH  27  28
ENDBRANCH  26  27
ENDBRANCH  25  26
ENDBRANCH  24  25
ENDBRANCH  23  24
ENDBRANCH  22  23
ENDBRANCH  21  22
ENDBRANCH  20  21
ENDBRANCH  19  20
ENDBRANCH  18  19
ENDBRANCH  17  18
ENDBRANCH   1  17
TORSDOF 26
ENDMDL
MODEL 4
REMARK VINA RESULT:    -3.928     16.356     19.820
REMARK INTER + INTRA:         -12.262
REMARK INTER:                  -9.404
REMARK INTRA:                  -2.858
REMARK UNBOUND:                -2.363
REMARK SMILES CCCCCCCCCCCCCCCCCCCCCCCCCCCC(=O)[O-]
REMARK SMILES IDX 15 1 16 2 17 3 18 4 19 5 20 6 21 7 22 8 23 9 24 10 25 11
REMARK SMILES IDX 26 12 27 13 28 14 29 15 30 16 14 17 13 18 12 19 11 20 10 21
REMARK SMILES IDX 9 22 8 23 7 24 6 25 5 26 4 27 3 28 2 29 1 30
REMARK H PARENT
REMARK Flexibility Score: inf
ROOT
ATOM      1  C   UNL     1     -10.023   4.763   7.286  1.00  0.00     0.000 C 
ENDROOT
BRANCH   1   2
ATOM      2  C   UNL     1     -10.969   5.414   8.317  1.00  0.00     0.000 C 
BRANCH   2   3
ATOM      3  C   UNL     1     -11.015   6.952   8.283  1.00  0.00     0.000 C 
BRANCH   3   4
ATOM      4  C   UNL     1     -11.696   7.499   7.021  1.00  0.00     0.000 C 
BRANCH   4   5
ATOM      5  C   UNL     1     -11.595   9.031   6.963  1.00  0.00     0.000 C 
BRANCH   5   6
ATOM      6  C   UNL     1     -10.536   9.515   5.958  1.00  0.00     0.000 C 
BRANCH   6   7
ATOM      7  C   UNL     1     -10.201  11.007   6.124  1.00  0.00     0.000 C 
BRANCH   7   8
ATOM      8  C   UNL     1      -8.900  11.396   5.402  1.00  0.00     0.000 C 
BRANCH   8   9
ATOM      9  C   UNL     1      -7.959  10.194   5.208  1.00  0.00     0.000 C 
BRANCH   9  10
ATOM     10  C   UNL     1      -6.492  10.612   5.015  1.00  0.00     0.000 C 
BRANCH  10  11
ATOM     11  C   UNL     1      -5.759  11.009   6.310  1.00  0.00     0.000 C 
BRANCH  11  12
ATOM     12  C   UNL     1      -4.246  10.703   6.287  1.00  0.00     0.006 C 
BRANCH  12  13
ATOM     13  C   UNL     1      -3.401  11.979   6.165  1.00  0.00     0.053 C 
BRANCH  13  14
ATOM     14  C   UNL     1      -2.478  11.908   4.989  1.00  0.00     0.041 C 
ATOM     15  O   UNL     1      -1.231  11.865   5.163  1.00  0.00    -0.550 OA
ATOM     16  O   UNL     1      -2.997  11.857   3.700  1.00  0.00    -0.550 OA
ENDBRANCH  13  14
ENDBRANCH  12  13
ENDBRANCH  11  12
ENDBRANCH  10  11
ENDBRANCH   9  10
ENDBRANCH   8   9
ENDBRANCH   7   8
ENDBRANCH   6   7
ENDBRANCH   5   6
ENDBRANCH   4   5
ENDBRANCH   3   4
ENDBRANCH   2   3
ENDBRANCH   1   2
BRANCH   1  17
ATOM     17  C   UNL     1      -9.120   5.747   6.522  1.00  0.00     0.000 C 
BRANCH  17  18
ATOM     18  C   UNL     1      -9.401   5.758   5.010  1.00  0.00     0.000 C 
BRANCH  18  19
ATOM     19  C   UNL     1     -10.476   4.737   4.599  1.00  0.00     0.000 C 
BRANCH  19  20
ATOM     20  C   UNL     1     -11.836   5.347   4.196  1.00  0.00     0.000 C 
BRANCH  20  21
ATOM     21  C   UNL     1     -13.003   5.040   5.152  1.00  0.00     0.000 C 
BRANCH  21  22
ATOM     22  C   UNL     1     -14.051   6.167   5.200  1.00  0.00    -0.000 C 
BRANCH  22  23
ATOM     23  C   UNL     1     -14.010   7.069   3.955  1.00  0.00    -0.000 C 
BRANCH  23  24
ATOM     24  C   UNL     1     -14.753   8.398   4.157  1.00  0.00    -0.000 C 
BRANCH  24  25
ATOM     25  C   UNL     1     -13.769   9.532   4.481  1.00  0.00    -0.000 C 
BRANCH  25  26
ATOM     26  C   UNL     1     -14.420  10.923   4.411  1.00  0.00    -0.000 C 
BRANCH  26  27
ATOM     27  C   UNL     1     -13.426  12.101   4.364  1.00  0.00    -0.000 C 
BRANCH  27  28
ATOM     28  C   UNL     1     -12.318  11.938   3.302  1.00  0.00    -0.000 C 
BRANCH  28  29
ATOM     29  C   UNL     1     -12.856  12.074   1.869  1.00  0.00    -0.003 C 
ATOM     30  C   UNL     1     -11.960  11.343   0.875  1.00  0.00     0.004 C 
ENDBRANCH  28  29
ENDBRANCH  27  28
ENDBRANCH  26  27
ENDBRANCH  25  26
ENDBRANCH  24  25
ENDBRANCH  23  24
ENDBRANCH  22  23
ENDBRANCH  21  22
ENDBRANCH  20  21
ENDBRANCH  19  20
ENDBRANCH  18  19
ENDBRANCH  17  18
ENDBRANCH   1  17
TORSDOF 26
ENDMDL
MODEL 5
REMARK VINA RESULT:    -3.340     16.880     20.318
REMARK INTER + INTRA:         -10.778
REMARK INTER:                  -7.419
REMARK INTRA:                  -3.359
REMARK UNBOUND:                -2.363
REMARK SMILES CCCCCCCCCCCCCCCCCCCCCCCCCCCC(=O)[O-]
REMARK SMILES IDX 15 1 16 2 17 3 18 4 19 5 20 6 21 7 22 8 23 9 24 10 25 11
REMARK SMILES IDX 26 12 27 13 28 14 29 15 30 16 14 17 13 18 12 19 11 20 10 21
REMARK SMILES IDX 9 22 8 23 7 24 6 25 5 26 4 27 3 28 2 29 1 30
REMARK H PARENT
REMARK Flexibility Score: inf
ROOT
ATOM      1  C   UNL     1     -10.523   4.271   8.795  1.00  0.00     0.000 C 
ENDROOT
BRANCH   1   2
ATOM      2  C   UNL     1     -11.142   5.683   8.740  1.00  0.00     0.000 C 
BRANCH   2   3
ATOM      3  C   UNL     1     -10.163   6.813   8.375  1.00  0.00     0.000 C 
BRANCH   3   4
ATOM      4  C   UNL     1      -9.286   6.472   7.162  1.00  0.00     0.000 C 
BRANCH   4   5
ATOM      5  C   UNL     1      -8.271   7.591   6.885  1.00  0.00     0.000 C 
BRANCH   5   6
ATOM      6  C   UNL     1      -8.631   8.420   5.641  1.00  0.00     0.000 C 
BRANCH   6   7
ATOM      7  C   UNL     1     -10.123   8.792   5.590  1.00  0.00     0.000 C 
BRANCH   7   8
ATOM      8  C   UNL     1     -10.370  10.267   5.951  1.00  0.00     0.000 C 
BRANCH   8   9
ATOM      9  C   UNL     1      -9.368  11.211   5.264  1.00  0.00     0.000 C 
BRANCH   9  10
ATOM     10  C   UNL     1      -8.594  12.087   6.262  1.00  0.00     0.000 C 
BRANCH  10  11
ATOM     11  C   UNL     1      -8.400  11.458   7.655  1.00  0.00     0.000 C 
BRANCH  11  12
ATOM     12  C   UNL     1      -6.922  11.335   8.081  1.00  0.00     0.006 C 
BRANCH  12  13
ATOM     13  C   UNL     1      -5.971  11.958   7.049  1.00  0.00     0.053 C 
BRANCH  13  14
ATOM     14  C   UNL     1      -5.168  10.908   6.347  1.00  0.00     0.041 C 
ATOM     15  O   UNL     1      -5.407   9.687   6.547  1.00  0.00    -0.550 OA
ATOM     16  O   UNL     1      -4.174  11.278   5.447  1.00  0.00    -0.550 OA
ENDBRANCH  13  14
ENDBRANCH  12  13
ENDBRANCH  11  12
ENDBRANCH  10  11
ENDBRANCH   9  10
ENDBRANCH   8   9
ENDBRANCH   7   8
ENDBRANCH   6   7
ENDBRANCH   5   6
ENDBRANCH   4   5
ENDBRANCH   3   4
ENDBRANCH   2   3
ENDBRANCH   1   2
BRANCH   1  17
ATOM     17  C   UNL     1     -10.681   3.442   7.509  1.00  0.00     0.000 C 
BRANCH  17  18
ATOM     18  C   UNL     1     -11.782   3.988   6.584  1.00  0.00     0.000 C 
BRANCH  18  19
ATOM     19  C   UNL     1     -11.217   4.657   5.318  1.00  0.00     0.000 C 
BRANCH  19  20
ATOM     20  C   UNL     1     -12.123   5.735   4.689  1.00  0.00     0.000 C 
BRANCH  20  21
ATOM     21  C   UNL     1     -13.416   6.044   5.466  1.00  0.00     0.000 C 
BRANCH  21  22
ATOM     22  C   UNL     1     -14.378   6.961   4.690  1.00  0.00    -0.000 C 
BRANCH  22  23
ATOM     23  C   UNL     1     -13.643   8.041   3.878  1.00  0.00    -0.000 C 
BRANCH  23  24
ATOM     24  C   UNL     1     -14.383   9.388   3.869  1.00  0.00    -0.000 C 
BRANCH  24  25
ATOM     25  C   UNL     1     -14.566   9.920   5.299  1.00  0.00    -0.000 C 
BRANCH  25  26
ATOM     26  C   UNL     1     -13.866  11.270   5.525  1.00  0.00    -0.000 C 
BRANCH  26  27
ATOM     27  C   UNL     1     -14.460  12.124   6.663  1.00  0.00    -0.000 C 
BRANCH  27  28
ATOM     28  C   UNL     1     -14.725  11.332   7.961  1.00  0.00    -0.000 C 
BRANCH  28  29
ATOM     29  C   UNL     1     -13.819  11.783   9.118  1.00  0.00    -0.003 C 
ATOM     30  C   UNL     1     -12.362  11.859   8.676  1.00  0.00     0.004 C 
ENDBRANCH  28  29
ENDBRANCH  27  28
ENDBRANCH  26  27
ENDBRANCH  25  26
ENDBRANCH  24  25
ENDBRANCH  23  24
ENDBRANCH  22  23
ENDBRANCH  21  22
ENDBRANCH  20  21
ENDBRANCH  19  20
ENDBRANCH  18  19
ENDBRANCH  17  18
ENDBRANCH   1  17
TORSDOF 26
ENDMDL
MODEL 6
REMARK VINA RESULT:    -3.128      1.397      3.850
REMARK INTER + INTRA:         -10.244
REMARK INTER:                  -9.211
REMARK INTRA:                  -1.034
REMARK UNBOUND:                -2.363
REMARK SMILES CCCCCCCCCCCCCCCCCCCCCCCCCCCC(=O)[O-]
REMARK SMILES IDX 15 1 16 2 17 3 18 4 19 5 20 6 21 7 22 8 23 9 24 10 25 11
REMARK SMILES IDX 26 12 27 13 28 14 29 15 30 16 14 17 13 18 12 19 11 20 10 21
REMARK SMILES IDX 9 22 8 23 7 24 6 25 5 26 4 27 3 28 2 29 1 30
REMARK H PARENT
REMARK Flexibility Score: inf
ROOT
ATOM      1  C   UNL     1     -11.873  -4.253  -8.954  1.00  0.00     0.000 C 
ENDROOT
BRANCH   1   2
ATOM      2  C   UNL     1     -12.906  -5.282  -9.456  1.00  0.00     0.000 C 
BRANCH   2   3
ATOM      3  C   UNL     1     -14.374  -4.946  -9.136  1.00  0.00     0.000 C 
BRANCH   3   4
ATOM      4  C   UNL     1     -15.117  -4.328 -10.329  1.00  0.00     0.000 C 
BRANCH   4   5
ATOM      5  C   UNL     1     -14.302  -3.185 -10.953  1.00  0.00     0.000 C 
BRANCH   5   6
ATOM      6  C   UNL     1     -15.122  -1.894 -11.111  1.00  0.00     0.000 C 
BRANCH   6   7
ATOM      7  C   UNL     1     -14.838  -0.871  -9.997  1.00  0.00     0.000 C 
BRANCH   7   8
ATOM      8  C   UNL     1     -13.821   0.197 -10.433  1.00  0.00     0.000 C 
BRANCH   8   9
ATOM      9  C   UNL     1     -14.229   1.610  -9.981  1.00  0.00     0.000 C 
BRANCH   9  10
ATOM     10  C   UNL     1     -14.555   1.684  -8.480  1.00  0.00     0.000 C 
BRANCH  10  11
ATOM     11  C   UNL     1     -14.909   3.092  -7.966  1.00  0.00     0.000 C 
BRANCH  11  12
ATOM     12  C   UNL     1     -13.686   3.907  -7.494  1.00  0.00     0.006 C 
BRANCH  12  13
ATOM     13  C   UNL     1     -13.016   4.664  -8.650  1.00  0.00     0.053 C 
BRANCH  13  14
ATOM     14  C   UNL     1     -11.602   4.215  -8.845  1.00  0.00     0.041 C 
ATOM     15  O   UNL     1     -10.923   3.810  -7.864  1.00  0.00    -0.550 OA
ATOM     16  O   UNL     1     -11.043   4.215 -10.118  1.00  0.00    -0.550 OA
ENDBRANCH  13  14
ENDBRANCH  12  13
ENDBRANCH  11  12
ENDBRANCH  10  11
ENDBRANCH   9  10
ENDBRANCH   8   9
ENDBRANCH   7   8
ENDBRANCH   6   7
ENDBRANCH   5   6
ENDBRANCH   4   5
ENDBRANCH   3   4
ENDBRANCH   2   3
ENDBRANCH   1   2
BRANCH   1  17
ATOM     17  C   UNL     1     -10.714  -3.969  -9.926  1.00  0.00     0.000 C 
BRANCH  17  18
ATOM     18  C   UNL     1     -10.453  -2.465 -10.115  1.00  0.00     0.000 C 
BRANCH  18  19
ATOM     19  C   UNL     1     -10.167  -1.741  -8.788  1.00  0.00     0.000 C 
BRANCH  19  20
ATOM     20  C   UNL     1      -9.793  -2.664  -7.609  1.00  0.00     0.000 C 
BRANCH  20  21
ATOM     21  C   UNL     1      -8.568  -3.567  -7.842  1.00  0.00     0.000 C 
BRANCH  21  22
ATOM     22  C   UNL     1      -8.835  -5.041  -7.492  1.00  0.00    -0.000 C 
BRANCH  22  23
ATOM     23  C   UNL     1     -10.008  -5.216  -6.513  1.00  0.00    -0.000 C 
BRANCH  23  24
ATOM     24  C   UNL     1      -9.990  -6.576  -5.798  1.00  0.00    -0.000 C 
BRANCH  24  25
ATOM     25  C   UNL     1      -9.955  -7.728  -6.814  1.00  0.00    -0.000 C 
BRANCH  25  26
ATOM     26  C   UNL     1     -11.094  -7.649  -7.843  1.00  0.00    -0.000 C 
BRANCH  26  27
ATOM     27  C   UNL     1     -12.467  -8.124  -7.327  1.00  0.00    -0.000 C 
BRANCH  27  28
ATOM     28  C   UNL     1     -13.072  -7.211  -6.240  1.00  0.00    -0.000 C 
BRANCH  28  29
ATOM     29  C   UNL     1     -14.601  -7.105  -6.348  1.00  0.00    -0.003 C 
ATOM     30  C   UNL     1     -15.125  -5.905  -5.567  1.00  0.00     0.004 C 
ENDBRANCH  28  29
ENDBRANCH  27  28
ENDBRANCH  26  27
ENDBRANCH  25  26
ENDBRANCH  24  25
ENDBRANCH  23  24
ENDBRANCH  22  23
ENDBRANCH  21  22
ENDBRANCH  20  21
ENDBRANCH  19  20
ENDBRANCH  18  19
ENDBRANCH  17  18
ENDBRANCH   1  17
TORSDOF 26
ENDMDL
MODEL 7
REMARK VINA RESULT:    -3.070     16.511     20.531
REMARK INTER + INTRA:         -10.100
REMARK INTER:                  -7.760
REMARK INTRA:                  -2.340
REMARK UNBOUND:                -2.363
REMARK SMILES CCCCCCCCCCCCCCCCCCCCCCCCCCCC(=O)[O-]
REMARK SMILES IDX 15 1 16 2 17 3 18 4 19 5 20 6 21 7 22 8 23 9 24 10 25 11
REMARK SMILES IDX 26 12 27 13 28 14 29 15 30 16 14 17 13 18 12 19 11 20 10 21
REMARK SMILES IDX 9 22 8 23 7 24 6 25 5 26 4 27 3 28 2 29 1 30
REMARK H PARENT
REMARK Flexibility Score: inf
ROOT
ATOM      1  C   UNL     1      -9.873   7.250   5.952  1.00  0.00     0.000 C 
ENDROOT
BRANCH   1   2
ATOM      2  C   UNL     1      -9.718   6.098   6.966  1.00  0.00     0.000 C 
BRANCH   2   3
ATOM      3  C   UNL     1     -11.037   5.459   7.438  1.00  0.00     0.000 C 
BRANCH   3   4
ATOM      4  C   UNL     1     -11.469   4.272   6.566  1.00  0.00     0.000 C 
BRANCH   4   5
ATOM      5  C   UNL     1     -12.060   4.756   5.232  1.00  0.00     0.000 C 
BRANCH   5   6
ATOM      6  C   UNL     1     -13.376   5.530   5.417  1.00  0.00     0.000 C 
BRANCH   6   7
ATOM      7  C   UNL     1     -13.706   6.432   4.215  1.00  0.00     0.000 C 
BRANCH   7   8
ATOM      8  C   UNL     1     -14.397   7.739   4.638  1.00  0.00     0.000 C 
BRANCH   8   9
ATOM      9  C   UNL     1     -13.613   8.984   4.190  1.00  0.00     0.000 C 
BRANCH   9  10
ATOM     10  C   UNL     1     -13.017   9.769   5.370  1.00  0.00     0.000 C 
BRANCH  10  11
ATOM     11  C   UNL     1     -13.673  11.138   5.630  1.00  0.00     0.000 C 
BRANCH  11  12
ATOM     12  C   UNL     1     -13.857  11.992   4.357  1.00  0.00     0.006 C 
BRANCH  12  13
ATOM     13  C   UNL     1     -12.552  12.125   3.559  1.00  0.00     0.053 C 
BRANCH  13  14
ATOM     14  C   UNL     1     -12.784  11.901   2.097  1.00  0.00     0.041 C 
ATOM     15  O   UNL     1     -13.956  11.890   1.635  1.00  0.00    -0.550 OA
ATOM     16  O   UNL     1     -11.703  11.734   1.239  1.00  0.00    -0.550 OA
ENDBRANCH  13  14
ENDBRANCH  12  13
ENDBRANCH  11  12
ENDBRANCH  10  11
ENDBRANCH   9  10
ENDBRANCH   8   9
ENDBRANCH   7   8
ENDBRANCH   6   7
ENDBRANCH   5   6
ENDBRANCH   4   5
ENDBRANCH   3   4
ENDBRANCH   2   3
ENDBRANCH   1   2
BRANCH   1  17
ATOM     17  C   UNL     1      -8.638   7.508   5.070  1.00  0.00     0.000 C 
BRANCH  17  18
ATOM     18  C   UNL     1      -8.235   8.992   5.034  1.00  0.00     0.000 C 
BRANCH  18  19
ATOM     19  C   UNL     1      -9.450   9.936   5.016  1.00  0.00     0.000 C 
BRANCH  19  20
ATOM     20  C   UNL     1      -9.385  11.102   6.025  1.00  0.00     0.000 C 
BRANCH  20  21
ATOM     21  C   UNL     1      -8.750  10.761   7.386  1.00  0.00     0.000 C 
BRANCH  21  22
ATOM     22  C   UNL     1      -8.179  11.995   8.107  1.00  0.00    -0.000 C 
BRANCH  22  23
ATOM     23  C   UNL     1      -6.641  12.017   8.116  1.00  0.00    -0.000 C 
BRANCH  23  24
ATOM     24  C   UNL     1      -6.034  11.904   6.709  1.00  0.00    -0.000 C 
BRANCH  24  25
ATOM     25  C   UNL     1      -4.596  11.366   6.776  1.00  0.00    -0.000 C 
BRANCH  25  26
ATOM     26  C   UNL     1      -3.635  12.121   5.843  1.00  0.00    -0.000 C 
BRANCH  26  27
ATOM     27  C   UNL     1      -2.442  11.289   5.333  1.00  0.00    -0.000 C 
BRANCH  27  28
ATOM     28  C   UNL     1      -1.365  12.125   4.608  1.00  0.00    -0.000 C 
BRANCH  28  29
ATOM     29  C   UNL     1       0.022  11.466   4.662  1.00  0.00    -0.003 C 
ATOM     30  C   UNL     1      -0.086   9.984   5.001  1.00  0.00     0.004 C 
ENDBRANCH  28  29
ENDBRANCH  27  28
ENDBRANCH  26  27
ENDBRANCH  25  26
ENDBRANCH  24  25
ENDBRANCH  23  24
ENDBRANCH  22  23
ENDBRANCH  21  22
ENDBRANCH  20  21
ENDBRANCH  19  20
ENDBRANCH  18  19
ENDBRANCH  17  18
ENDBRANCH   1  17
TORSDOF 26
ENDMDL
