MODEL 1
REMARK VINA RESULT:    -3.957      0.000      0.000
REMARK INTER + INTRA:          -9.353
REMARK INTER:                  -7.195
REMARK INTRA:                  -2.158
REMARK UNBOUND:                -2.158
REMARK SMILES CCCCCC=CCC=CCCCCCCCC(=O)[O-]
REMARK SMILES IDX 11 1 12 2 13 3 14 4 15 5 16 6 17 7 18 8 19 9 20 10 10 11
REMARK SMILES IDX 9 12 8 13 7 14 6 15 5 16 4 17 3 18 2 19 1 20
REMARK H PARENT
REMARK Flexibility Score: inf
ROOT
ATOM      1  C   UNL     1      18.968   6.227   2.229  1.00  0.00     0.027 C 
ENDROOT
BRANCH   1   2
ATOM      2  C   UNL     1      18.896   5.437   0.912  1.00  0.00     0.004 C 
BRANCH   2   3
ATOM      3  C   UNL     1      17.945   4.226   0.951  1.00  0.00     0.000 C 
BRANCH   3   4
ATOM      4  C   UNL     1      17.268   3.956  -0.400  1.00  0.00     0.000 C 
BRANCH   4   5
ATOM      5  C   UNL     1      16.127   4.955  -0.650  1.00  0.00     0.000 C 
BRANCH   5   6
ATOM      6  C   UNL     1      16.433   5.936  -1.797  1.00  0.00     0.006 C 
BRANCH   6   7
ATOM      7  C   UNL     1      16.068   7.398  -1.492  1.00  0.00     0.053 C 
BRANCH   7   8
ATOM      8  C   UNL     1      17.255   8.305  -1.593  1.00  0.00     0.041 C 
ATOM      9  O   UNL     1      17.096   9.548  -1.719  1.00  0.00    -0.550 OA
ATOM     10  O   UNL     1      18.540   7.781  -1.515  1.00  0.00    -0.550 OA
ENDBRANCH   7   8
ENDBRANCH   6   7
ENDBRANCH   5   6
ENDBRANCH   4   5
ENDBRANCH   3   4
ENDBRANCH   2   3
ENDBRANCH   1   2
BRANCH   1  11
ATOM     11  C   UNL     1      18.146   7.488   2.194  1.00  0.00    -0.031 C 
ATOM     12  C   UNL     1      16.804   7.454   2.209  1.00  0.00    -0.027 C 
BRANCH  12  13
ATOM     13  C   UNL     1      15.988   8.716   2.176  1.00  0.00     0.054 C 
BRANCH  13  14
ATOM     14  C   UNL     1      16.823   9.892   1.751  1.00  0.00    -0.027 C 
ATOM     15  C   UNL     1      16.263  11.067   1.430  1.00  0.00    -0.031 C 
BRANCH  15  16
ATOM     16  C   UNL     1      17.095  12.247   1.005  1.00  0.00     0.027 C 
BRANCH  16  17
ATOM     17  C   UNL     1      17.333  13.247   2.150  1.00  0.00     0.004 C 
BRANCH  17  18
ATOM     18  C   UNL     1      18.594  12.960   2.987  1.00  0.00     0.000 C 
BRANCH  18  19
ATOM     19  C   UNL     1      18.310  12.933   4.495  1.00  0.00    -0.003 C 
ATOM     20  C   UNL     1      17.348  11.804   4.853  1.00  0.00     0.004 C 
ENDBRANCH  18  19
ENDBRANCH  17  18
ENDBRANCH  16  17
ENDBRANCH  15  16
ENDBRANCH  13  14
ENDBRANCH  12  13
ENDBRANCH   1  11
TORSDOF 14
ENDMDL
MODEL 2
REMARK VINA RESULT:    -3.938      2.352      6.751
REMARK INTER + INTRA:          -9.320
REMARK INTER:                  -6.847
REMARK INTRA:                  -2.473
REMARK UNBOUND:                -2.158
REMARK SMILES CCCCCC=CCC=CCCCCCCCC(=O)[O-]
REMARK SMILES IDX 11 1 12 2 13 3 14 4 15 5 16 6 17 7 18 8 19 9 20 10 10 11
REMARK SMILES IDX 9 12 8 13 7 14 6 15 5 16 4 17 3 18 2 19 1 20
REMARK H PARENT
REMARK Flexibility Score: inf
ROOT
ATOM      1  C   UNL     1      18.449   9.961   3.356  1.00  0.00     0.027 C 
ENDROOT
BRANCH   1   2
ATOM      2  C   UNL     1      18.413  11.115   4.372  1.00  0.00     0.004 C 
BRANCH   2   3
ATOM      3  C   UNL     1      17.001  11.657   4.663  1.00  0.00     0.000 C 
BRANCH   3   4
ATOM      4  C   UNL     1      16.854  13.148   4.324  1.00  0.00     0.000 C 
BRANCH   4   5
ATOM      5  C   UNL     1      18.167  13.713   3.760  1.00  0.00     0.000 C 
BRANCH   5   6
ATOM      6  C   UNL     1      18.041  14.168   2.294  1.00  0.00     0.006 C 
BRANCH   6   7
ATOM      7  C   UNL     1      16.596  14.414   1.831  1.00  0.00     0.053 C 
BRANCH   7   8
ATOM      8  C   UNL     1      16.543  15.070   0.485  1.00  0.00     0.041 C 
ATOM      9  O   UNL     1      16.855  16.284   0.358  1.00  0.00    -0.550 OA
ATOM     10  O   UNL     1      16.179  14.333  -0.634  1.00  0.00    -0.550 OA
ENDBRANCH   7   8
ENDBRANCH   6   7
ENDBRANCH   5   6
ENDBRANCH   4   5
ENDBRANCH   3   4
ENDBRANCH   2   3
ENDBRANCH   1   2
BRANCH   1  11
ATOM     11  C   UNL     1      17.431  10.122   2.259  1.00  0.00    -0.031 C 
ATOM     12  C   UNL     1      17.732  10.735   1.104  1.00  0.00    -0.027 C 
BRANCH  12  13
ATOM     13  C   UNL     1      16.712  10.892   0.010  1.00  0.00     0.054 C 
BRANCH  13  14
ATOM     14  C   UNL     1      16.303   9.556  -0.546  1.00  0.00    -0.027 C 
ATOM     15  C   UNL     1      17.164   8.795  -1.238  1.00  0.00    -0.031 C 
BRANCH  15  16
ATOM     16  C   UNL     1      16.760   7.456  -1.796  1.00  0.00     0.027 C 
BRANCH  16  17
ATOM     17  C   UNL     1      17.092   6.294  -0.845  1.00  0.00     0.004 C 
BRANCH  17  18
ATOM     18  C   UNL     1      18.352   6.519   0.013  1.00  0.00     0.000 C 
BRANCH  18  19
ATOM     19  C   UNL     1      18.100   6.284   1.509  1.00  0.00    -0.003 C 
ATOM     20  C   UNL     1      16.656   6.610   1.880  1.00  0.00     0.004 C 
ENDBRANCH  18  19
ENDBRANCH  17  18
ENDBRANCH  16  17
ENDBRANCH  15  16
ENDBRANCH  13  14
ENDBRANCH  12  13
ENDBRANCH   1  11
TORSDOF 14
ENDMDL
MODEL 3
REMARK VINA RESULT:    -3.845      2.405      7.007
REMARK INTER + INTRA:          -9.149
REMARK INTER:                  -7.228
REMARK INTRA:                  -1.921
REMARK UNBOUND:                -2.158
REMARK SMILES CCCCCC=CCC=CCCCCCCCC(=O)[O-]
REMARK SMILES IDX 11 1 12 2 13 3 14 4 15 5 16 6 17 7 18 8 19 9 20 10 10 11
REMARK SMILES IDX 9 12 8 13 7 14 6 15 5 16 4 17 3 18 2 19 1 20
REMARK H PARENT
REMARK Flexibility Score: inf
ROOT
ATOM      1  C   UNL     1      17.382  10.166  -0.302  1.00  0.00     0.027 C 
ENDROOT
BRANCH   1   2
ATOM      2  C   UNL     1      17.332  10.595   1.174  1.00  0.00     0.004 C 
BRANCH   2   3
ATOM      3  C   UNL     1      16.294  11.691   1.481  1.00  0.00     0.000 C 
BRANCH   3   4
ATOM      4  C   UNL     1      16.728  13.078   0.984  1.00  0.00     0.000 C 
BRANCH   4   5
ATOM      5  C   UNL     1      17.035  14.011   2.165  1.00  0.00     0.000 C 
BRANCH   5   6
ATOM      6  C   UNL     1      18.453  13.808   2.733  1.00  0.00     0.006 C 
BRANCH   6   7
ATOM      7  C   UNL     1      18.500  13.608   4.257  1.00  0.00     0.053 C 
BRANCH   7   8
ATOM      8  C   UNL     1      17.774  12.369   4.682  1.00  0.00     0.041 C 
ATOM      9  O   UNL     1      16.615  12.448   5.167  1.00  0.00    -0.550 OA
ATOM     10  O   UNL     1      18.366  11.124   4.513  1.00  0.00    -0.550 OA
ENDBRANCH   7   8
ENDBRANCH   6   7
ENDBRANCH   5   6
ENDBRANCH   4   5
ENDBRANCH   3   4
ENDBRANCH   2   3
ENDBRANCH   1   2
BRANCH   1  11
ATOM     11  C   UNL     1      16.667   8.866  -0.551  1.00  0.00    -0.031 C 
ATOM     12  C   UNL     1      16.637   8.300  -1.768  1.00  0.00    -0.027 C 
BRANCH  12  13
ATOM     13  C   UNL     1      15.923   7.000  -2.012  1.00  0.00     0.054 C 
BRANCH  13  14
ATOM     14  C   UNL     1      16.288   5.977  -0.972  1.00  0.00    -0.027 C 
ATOM     15  C   UNL     1      17.401   5.237  -1.081  1.00  0.00    -0.031 C 
BRANCH  15  16
ATOM     16  C   UNL     1      17.772   4.212  -0.042  1.00  0.00     0.027 C 
BRANCH  16  17
ATOM     17  C   UNL     1      17.855   4.808   1.374  1.00  0.00     0.004 C 
BRANCH  17  18
ATOM     18  C   UNL     1      18.870   5.958   1.517  1.00  0.00     0.000 C 
BRANCH  18  19
ATOM     19  C   UNL     1      18.330   7.124   2.357  1.00  0.00    -0.003 C 
ATOM     20  C   UNL     1      16.811   7.051   2.485  1.00  0.00     0.004 C 
ENDBRANCH  18  19
ENDBRANCH  17  18
ENDBRANCH  16  17
ENDBRANCH  15  16
ENDBRANCH  13  14
ENDBRANCH  12  13
ENDBRANCH   1  11
TORSDOF 14
ENDMDL
MODEL 4
REMARK VINA RESULT:    -3.753      2.246      6.827
REMARK INTER + INTRA:          -8.982
REMARK INTER:                  -7.313
REMARK INTRA:                  -1.670
REMARK UNBOUND:                -2.158
REMARK SMILES CCCCCC=CCC=CCCCCCCCC(=O)[O-]
REMARK SMILES IDX 11 1 12 2 13 3 14 4 15 5 16 6 17 7 18 8 19 9 20 10 10 11
REMARK SMILES IDX 9 12 8 13 7 14 6 15 5 16 4 17 3 18 2 19 1 20
REMARK H PARENT
REMARK Flexibility Score: inf
ROOT
ATOM      1  C   UNL     1      17.158  11.069   1.437  1.00  0.00     0.027 C 
ENDROOT
BRANCH   1   2
ATOM      2  C   UNL     1      16.662  10.526   2.788  1.00  0.00     0.004 C 
BRANCH   2   3
ATOM      3  C   UNL     1      17.196  11.293   4.012  1.00  0.00     0.000 C 
BRANCH   3   4
ATOM      4  C   UNL     1      18.540  11.983   3.743  1.00  0.00     0.000 C 
BRANCH   4   5
ATOM      5  C   UNL     1      18.419  13.505   3.915  1.00  0.00     0.000 C 
BRANCH   5   6
ATOM      6  C   UNL     1      18.256  14.246   2.575  1.00  0.00     0.006 C 
BRANCH   6   7
ATOM      7  C   UNL     1      16.795  14.474   2.153  1.00  0.00     0.053 C 
BRANCH   7   8
ATOM      8  C   UNL     1      16.688  14.925   0.729  1.00  0.00     0.041 C 
ATOM      9  O   UNL     1      16.331  14.116  -0.168  1.00  0.00    -0.550 OA
ATOM     10  O   UNL     1      16.950  16.248   0.396  1.00  0.00    -0.550 OA
ENDBRANCH   7   8
ENDBRANCH   6   7
ENDBRANCH   5   6
ENDBRANCH   4   5
ENDBRANCH   3   4
ENDBRANCH   2   3
ENDBRANCH   1   2
BRANCH   1  11
ATOM     11  C   UNL     1      17.417   9.976   0.433  1.00  0.00    -0.031 C 
ATOM     12  C   UNL     1      16.987  10.069  -0.835  1.00  0.00    -0.027 C 
BRANCH  12  13
ATOM     13  C   UNL     1      17.249   8.977  -1.834  1.00  0.00     0.054 C 
BRANCH  13  14
ATOM     14  C   UNL     1      17.853   7.770  -1.171  1.00  0.00    -0.027 C 
ATOM     15  C   UNL     1      17.392   6.535  -1.415  1.00  0.00    -0.031 C 
BRANCH  15  16
ATOM     16  C   UNL     1      17.994   5.322  -0.755  1.00  0.00     0.027 C 
BRANCH  16  17
ATOM     17  C   UNL     1      17.737   5.284   0.761  1.00  0.00     0.004 C 
BRANCH  17  18
ATOM     18  C   UNL     1      18.839   5.951   1.605  1.00  0.00     0.000 C 
BRANCH  18  19
ATOM     19  C   UNL     1      18.323   7.148   2.416  1.00  0.00    -0.003 C 
ATOM     20  C   UNL     1      16.799   7.136   2.502  1.00  0.00     0.004 C 
ENDBRANCH  18  19
ENDBRANCH  17  18
ENDBRANCH  16  17
ENDBRANCH  15  16
ENDBRANCH  13  14
ENDBRANCH  12  13
ENDBRANCH   1  11
TORSDOF 14
ENDMDL
MODEL 5
REMARK VINA RESULT:    -3.628      1.719      3.215
REMARK INTER + INTRA:          -8.755
REMARK INTER:                  -7.010
REMARK INTRA:                  -1.745
REMARK UNBOUND:                -2.158
REMARK SMILES CCCCCC=CCC=CCCCCCCCC(=O)[O-]
REMARK SMILES IDX 11 1 12 2 13 3 14 4 15 5 16 6 17 7 18 8 19 9 20 10 10 11
REMARK SMILES IDX 9 12 8 13 7 14 6 15 5 16 4 17 3 18 2 19 1 20
REMARK H PARENT
REMARK Flexibility Score: inf
ROOT
ATOM      1  C   UNL     1      17.683   7.557  -1.490  1.00  0.00     0.027 C 
ENDROOT
BRANCH   1   2
ATOM      2  C   UNL     1      16.357   6.822  -1.750  1.00  0.00     0.004 C 
BRANCH   2   3
ATOM      3  C   UNL     1      16.132   5.587  -0.857  1.00  0.00     0.000 C 
BRANCH   3   4
ATOM      4  C   UNL     1      17.119   4.449  -1.155  1.00  0.00     0.000 C 
BRANCH   4   5
ATOM      5  C   UNL     1      18.073   4.228   0.028  1.00  0.00     0.000 C 
BRANCH   5   6
ATOM      6  C   UNL     1      17.644   4.996   1.293  1.00  0.00     0.006 C 
BRANCH   6   7
ATOM      7  C   UNL     1      18.587   6.145   1.685  1.00  0.00     0.053 C 
BRANCH   7   8
ATOM      8  C   UNL     1      17.842   7.307   2.266  1.00  0.00     0.041 C 
ATOM      9  O   UNL     1      16.591   7.384   2.143  1.00  0.00    -0.550 OA
ATOM     10  O   UNL     1      18.526   8.290   2.971  1.00  0.00    -0.550 OA
ENDBRANCH   7   8
ENDBRANCH   6   7
ENDBRANCH   5   6
ENDBRANCH   4   5
ENDBRANCH   3   4
ENDBRANCH   2   3
ENDBRANCH   1   2
BRANCH   1  11
ATOM     11  C   UNL     1      17.502   9.045  -1.350  1.00  0.00    -0.031 C 
ATOM     12  C   UNL     1      16.635   9.569  -0.471  1.00  0.00    -0.027 C 
BRANCH  12  13
ATOM     13  C   UNL     1      16.460  11.056  -0.334  1.00  0.00     0.054 C 
BRANCH  13  14
ATOM     14  C   UNL     1      15.875  11.412   1.005  1.00  0.00    -0.027 C 
ATOM     15  C   UNL     1      16.546  11.183   2.143  1.00  0.00    -0.031 C 
BRANCH  15  16
ATOM     16  C   UNL     1      15.966  11.539   3.486  1.00  0.00     0.027 C 
BRANCH  16  17
ATOM     17  C   UNL     1      17.012  11.497   4.613  1.00  0.00     0.004 C 
BRANCH  17  18
ATOM     18  C   UNL     1      18.443  11.844   4.160  1.00  0.00     0.000 C 
BRANCH  18  19
ATOM     19  C   UNL     1      18.782  13.329   4.350  1.00  0.00    -0.003 C 
ATOM     20  C   UNL     1      18.537  14.117   3.066  1.00  0.00     0.004 C 
ENDBRANCH  18  19
ENDBRANCH  17  18
ENDBRANCH  16  17
ENDBRANCH  15  16
ENDBRANCH  13  14
ENDBRANCH  12  13
ENDBRANCH   1  11
TORSDOF 14
ENDMDL
MODEL 6
REMARK VINA RESULT:    -3.612      1.920      3.789
REMARK INTER + INTRA:          -8.726
REMARK INTER:                  -7.152
REMARK INTRA:                  -1.575
REMARK UNBOUND:                -2.158
REMARK SMILES CCCCCC=CCC=CCCCCCCCC(=O)[O-]
REMARK SMILES IDX 11 1 12 2 13 3 14 4 15 5 16 6 17 7 18 8 19 9 20 10 10 11
REMARK SMILES IDX 9 12 8 13 7 14 6 15 5 16 4 17 3 18 2 19 1 20
REMARK H PARENT
REMARK Flexibility Score: inf
ROOT
ATOM      1  C   UNL     1      16.974  10.630  -0.701  1.00  0.00     0.027 C 
ENDROOT
BRANCH   1   2
ATOM      2  C   UNL     1      17.291   9.297  -1.401  1.00  0.00     0.004 C 
BRANCH   2   3
ATOM      3  C   UNL     1      16.057   8.572  -1.970  1.00  0.00     0.000 C 
BRANCH   3   4
ATOM      4  C   UNL     1      15.990   7.095  -1.555  1.00  0.00     0.000 C 
BRANCH   4   5
ATOM      5  C   UNL     1      17.397   6.480  -1.492  1.00  0.00     0.000 C 
BRANCH   5   6
ATOM      6  C   UNL     1      17.432   5.147  -0.721  1.00  0.00     0.006 C 
BRANCH   6   7
ATOM      7  C   UNL     1      18.581   5.034   0.293  1.00  0.00     0.053 C 
BRANCH   7   8
ATOM      8  C   UNL     1      18.306   5.815   1.541  1.00  0.00     0.041 C 
ATOM      9  O   UNL     1      17.120   6.048   1.895  1.00  0.00    -0.550 OA
ATOM     10  O   UNL     1      19.359   6.258   2.332  1.00  0.00    -0.550 OA
ENDBRANCH   7   8
ENDBRANCH   6   7
ENDBRANCH   5   6
ENDBRANCH   4   5
ENDBRANCH   3   4
ENDBRANCH   2   3
ENDBRANCH   1   2
BRANCH   1  11
ATOM     11  C   UNL     1      17.415  10.648   0.737  1.00  0.00    -0.031 C 
ATOM     12  C   UNL     1      17.506   9.521   1.460  1.00  0.00    -0.027 C 
BRANCH  12  13
ATOM     13  C   UNL     1      17.949   9.544   2.897  1.00  0.00     0.054 C 
BRANCH  13  14
ATOM     14  C   UNL     1      17.768  10.910   3.498  1.00  0.00    -0.027 C 
ATOM     15  C   UNL     1      18.821  11.665   3.844  1.00  0.00    -0.031 C 
BRANCH  15  16
ATOM     16  C   UNL     1      18.646  13.034   4.446  1.00  0.00     0.027 C 
BRANCH  16  17
ATOM     17  C   UNL     1      18.519  14.138   3.381  1.00  0.00     0.004 C 
BRANCH  17  18
ATOM     18  C   UNL     1      17.206  14.091   2.577  1.00  0.00     0.000 C 
BRANCH  18  19
ATOM     19  C   UNL     1      17.349  14.696   1.173  1.00  0.00    -0.003 C 
ATOM     20  C   UNL     1      16.258  14.179   0.240  1.00  0.00     0.004 C 
ENDBRANCH  18  19
ENDBRANCH  17  18
ENDBRANCH  16  17
ENDBRANCH  15  16
ENDBRANCH  13  14
ENDBRANCH  12  13
ENDBRANCH   1  11
TORSDOF 14
ENDMDL
MODEL 7
REMARK VINA RESULT:    -3.585      2.619      6.693
REMARK INTER + INTRA:          -8.676
REMARK INTER:                  -7.178
REMARK INTRA:                  -1.499
REMARK UNBOUND:                -2.158
REMARK SMILES CCCCCC=CCC=CCCCCCCCC(=O)[O-]
REMARK SMILES IDX 11 1 12 2 13 3 14 4 15 5 16 6 17 7 18 8 19 9 20 10 10 11
REMARK SMILES IDX 9 12 8 13 7 14 6 15 5 16 4 17 3 18 2 19 1 20
REMARK H PARENT
REMARK Flexibility Score: inf
ROOT
ATOM      1  C   UNL     1      17.560   9.502   2.878  1.00  0.00     0.027 C 
ENDROOT
BRANCH   1   2
ATOM      2  C   UNL     1      16.187  10.114   2.550  1.00  0.00     0.004 C 
BRANCH   2   3
ATOM      3  C   UNL     1      16.122  10.829   1.187  1.00  0.00     0.000 C 
BRANCH   3   4
ATOM      4  C   UNL     1      17.251  11.853   0.997  1.00  0.00     0.000 C 
BRANCH   4   5
ATOM      5  C   UNL     1      16.684  13.272   0.845  1.00  0.00     0.000 C 
BRANCH   5   6
ATOM      6  C   UNL     1      16.970  14.164   2.067  1.00  0.00     0.006 C 
BRANCH   6   7
ATOM      7  C   UNL     1      18.303  13.861   2.772  1.00  0.00     0.053 C 
BRANCH   7   8
ATOM      8  C   UNL     1      18.098  13.149   4.074  1.00  0.00     0.041 C 
ATOM      9  O   UNL     1      19.086  12.711   4.720  1.00  0.00    -0.550 OA
ATOM     10  O   UNL     1      16.817  12.996   4.590  1.00  0.00    -0.550 OA
ENDBRANCH   7   8
ENDBRANCH   6   7
ENDBRANCH   5   6
ENDBRANCH   4   5
ENDBRANCH   3   4
ENDBRANCH   2   3
ENDBRANCH   1   2
BRANCH   1  11
ATOM     11  C   UNL     1      17.811   8.214   2.142  1.00  0.00    -0.031 C 
ATOM     12  C   UNL     1      18.593   7.251   2.655  1.00  0.00    -0.027 C 
BRANCH  12  13
ATOM     13  C   UNL     1      18.839   5.965   1.917  1.00  0.00     0.054 C 
BRANCH  13  14
ATOM     14  C   UNL     1      17.789   5.732   0.866  1.00  0.00    -0.027 C 
ATOM     15  C   UNL     1      18.075   5.828  -0.440  1.00  0.00    -0.031 C 
BRANCH  15  16
ATOM     16  C   UNL     1      17.027   5.595  -1.496  1.00  0.00     0.027 C 
BRANCH  16  17
ATOM     17  C   UNL     1      16.218   6.864  -1.818  1.00  0.00     0.004 C 
BRANCH  17  18
ATOM     18  C   UNL     1      16.720   8.131  -1.100  1.00  0.00     0.000 C 
BRANCH  18  19
ATOM     19  C   UNL     1      17.791   8.882  -1.902  1.00  0.00    -0.003 C 
ATOM     20  C   UNL     1      17.201  10.110  -2.591  1.00  0.00     0.004 C 
ENDBRANCH  18  19
ENDBRANCH  17  18
ENDBRANCH  16  17
ENDBRANCH  15  16
ENDBRANCH  13  14
ENDBRANCH  12  13
ENDBRANCH   1  11
TORSDOF 14
ENDMDL
MODEL 8
REMARK VINA RESULT:    -3.491      3.638      7.807
REMARK INTER + INTRA:          -8.506
REMARK INTER:                  -6.911
REMARK INTRA:                  -1.595
REMARK UNBOUND:                -2.158
REMARK SMILES CCCCCC=CCC=CCCCCCCCC(=O)[O-]
REMARK SMILES IDX 11 1 12 2 13 3 14 4 15 5 16 6 17 7 18 8 19 9 20 10 10 11
REMARK SMILES IDX 9 12 8 13 7 14 6 15 5 16 4 17 3 18 2 19 1 20
REMARK H PARENT
REMARK Flexibility Score: inf
ROOT
ATOM      1  C   UNL     1      18.812  13.041   4.265  1.00  0.00     0.027 C 
ENDROOT
BRANCH   1   2
ATOM      2  C   UNL     1      18.493  14.125   3.221  1.00  0.00     0.004 C 
BRANCH   2   3
ATOM      3  C   UNL     1      17.069  14.044   2.639  1.00  0.00     0.000 C 
BRANCH   3   4
ATOM      4  C   UNL     1      17.036  14.249   1.118  1.00  0.00     0.000 C 
BRANCH   4   5
ATOM      5  C   UNL     1      16.109  15.416   0.743  1.00  0.00     0.000 C 
BRANCH   5   6
ATOM      6  C   UNL     1      16.679  16.292  -0.388  1.00  0.00     0.006 C 
BRANCH   6   7
ATOM      7  C   UNL     1      17.020  17.730   0.037  1.00  0.00     0.053 C 
BRANCH   7   8
ATOM      8  C   UNL     1      18.498  17.947   0.146  1.00  0.00     0.041 C 
ATOM      9  O   UNL     1      19.030  18.965  -0.371  1.00  0.00    -0.550 OA
ATOM     10  O   UNL     1      19.285  17.040   0.845  1.00  0.00    -0.550 OA
ENDBRANCH   7   8
ENDBRANCH   6   7
ENDBRANCH   5   6
ENDBRANCH   4   5
ENDBRANCH   3   4
ENDBRANCH   2   3
ENDBRANCH   1   2
BRANCH   1  11
ATOM     11  C   UNL     1      18.071  11.756   4.010  1.00  0.00    -0.031 C 
ATOM     12  C   UNL     1      18.484  10.876   3.085  1.00  0.00    -0.027 C 
BRANCH  12  13
ATOM     13  C   UNL     1      17.742   9.593   2.835  1.00  0.00     0.054 C 
BRANCH  13  14
ATOM     14  C   UNL     1      17.033   9.625   1.510  1.00  0.00    -0.027 C 
ATOM     15  C   UNL     1      17.416  10.460   0.533  1.00  0.00    -0.031 C 
BRANCH  15  16
ATOM     16  C   UNL     1      16.711  10.495  -0.797  1.00  0.00     0.027 C 
BRANCH  16  17
ATOM     17  C   UNL     1      17.176   9.376  -1.744  1.00  0.00     0.004 C 
BRANCH  17  18
ATOM     18  C   UNL     1      16.223   8.168  -1.809  1.00  0.00     0.000 C 
BRANCH  18  19
ATOM     19  C   UNL     1      16.950   6.829  -1.615  1.00  0.00    -0.003 C 
ATOM     20  C   UNL     1      18.259   7.021  -0.856  1.00  0.00     0.004 C 
ENDBRANCH  18  19
ENDBRANCH  17  18
ENDBRANCH  16  17
ENDBRANCH  15  16
ENDBRANCH  13  14
ENDBRANCH  12  13
ENDBRANCH   1  11
TORSDOF 14
ENDMDL
MODEL 9
REMARK VINA RESULT:    -3.464      3.796      6.677
REMARK INTER + INTRA:          -8.457
REMARK INTER:                  -6.987
REMARK INTRA:                  -1.470
REMARK UNBOUND:                -2.158
REMARK SMILES CCCCCC=CCC=CCCCCCCCC(=O)[O-]
REMARK SMILES IDX 11 1 12 2 13 3 14 4 15 5 16 6 17 7 18 8 19 9 20 10 10 11
REMARK SMILES IDX 9 12 8 13 7 14 6 15 5 16 4 17 3 18 2 19 1 20
REMARK H PARENT
REMARK Flexibility Score: inf
ROOT
ATOM      1  C   UNL     1      18.893  13.470   3.063  1.00  0.00     0.027 C 
ENDROOT
BRANCH   1   2
ATOM      2  C   UNL     1      18.461  12.983   4.457  1.00  0.00     0.004 C 
BRANCH   2   3
ATOM      3  C   UNL     1      18.008  11.512   4.501  1.00  0.00     0.000 C 
BRANCH   3   4
ATOM      4  C   UNL     1      16.506  11.343   4.234  1.00  0.00     0.000 C 
BRANCH   4   5
ATOM      5  C   UNL     1      16.264  10.419   3.031  1.00  0.00     0.000 C 
BRANCH   5   6
ATOM      6  C   UNL     1      17.572   9.936   2.376  1.00  0.00     0.006 C 
BRANCH   6   7
ATOM      7  C   UNL     1      17.376   9.202   1.040  1.00  0.00     0.053 C 
BRANCH   7   8
ATOM      8  C   UNL     1      17.827   7.775   1.114  1.00  0.00     0.041 C 
ATOM      9  O   UNL     1      18.118   7.147   0.062  1.00  0.00    -0.550 OA
ATOM     10  O   UNL     1      17.956   7.149   2.347  1.00  0.00    -0.550 OA
ENDBRANCH   7   8
ENDBRANCH   6   7
ENDBRANCH   5   6
ENDBRANCH   4   5
ENDBRANCH   3   4
ENDBRANCH   2   3
ENDBRANCH   1   2
BRANCH   1  11
ATOM     11  C   UNL     1      17.787  14.180   2.329  1.00  0.00    -0.031 C 
ATOM     12  C   UNL     1      17.123  13.594   1.320  1.00  0.00    -0.027 C 
BRANCH  12  13
ATOM     13  C   UNL     1      16.017  14.306   0.591  1.00  0.00     0.054 C 
BRANCH  13  14
ATOM     14  C   UNL     1      16.158  15.798   0.717  1.00  0.00    -0.027 C 
ATOM     15  C   UNL     1      16.861  16.511  -0.175  1.00  0.00    -0.031 C 
BRANCH  15  16
ATOM     16  C   UNL     1      17.004  18.005  -0.055  1.00  0.00     0.027 C 
BRANCH  16  17
ATOM     17  C   UNL     1      18.463  18.446   0.155  1.00  0.00     0.004 C 
BRANCH  17  18
ATOM     18  C   UNL     1      18.873  19.682  -0.667  1.00  0.00     0.000 C 
BRANCH  18  19
ATOM     19  C   UNL     1      19.885  19.350  -1.773  1.00  0.00    -0.003 C 
ATOM     20  C   UNL     1      19.231  18.542  -2.890  1.00  0.00     0.004 C 
ENDBRANCH  18  19
ENDBRANCH  17  18
ENDBRANCH  16  17
ENDBRANCH  15  16
ENDBRANCH  13  14
ENDBRANCH  12  13
ENDBRANCH   1  11
TORSDOF 14
ENDMDL
