MODEL 1
REMARK VINA RESULT:    -3.908      0.000      0.000
REMARK INTER + INTRA:          -6.346
REMARK INTER:                  -5.507
REMARK INTRA:                  -0.840
REMARK UNBOUND:                -0.840
REMARK SMILES CCCCCCCCC(=O)[O-]
REMARK SMILES IDX 6 1 7 2 8 3 9 4 10 5 11 6 5 7 4 8 3 9 2 10 1 11
REMARK H PARENT
REMARK Flexibility Score: inf
ROOT
ATOM      1  C   UNL     1     -17.505  44.214  -5.952  1.00  0.00     0.000 C 
ENDROOT
BRANCH   1   2
ATOM      2  C   UNL     1     -19.014  44.434  -5.759  1.00  0.00     0.006 C 
BRANCH   2   3
ATOM      3  C   UNL     1     -19.573  45.537  -6.667  1.00  0.00     0.053 C 
BRANCH   3   4
ATOM      4  C   UNL     1     -18.762  46.787  -6.528  1.00  0.00     0.041 C 
ATOM      5  O   UNL     1     -18.217  47.304  -7.540  1.00  0.00    -0.550 OA
ATOM      6  O   UNL     1     -18.649  47.408  -5.292  1.00  0.00    -0.550 OA
ENDBRANCH   3   4
ENDBRANCH   2   3
ENDBRANCH   1   2
BRANCH   1   7
ATOM      7  C   UNL     1     -17.196  43.146  -7.017  1.00  0.00     0.000 C 
BRANCH   7   8
ATOM      8  C   UNL     1     -16.693  43.757  -8.336  1.00  0.00    -0.000 C 
BRANCH   8   9
ATOM      9  C   UNL     1     -17.761  43.746  -9.441  1.00  0.00    -0.000 C 
BRANCH   9  10
ATOM     10  C   UNL     1     -18.697  42.543  -9.286  1.00  0.00    -0.003 C 
ATOM     11  C   UNL     1     -20.161  42.973  -9.321  1.00  0.00     0.004 C 
ENDBRANCH   9  10
ENDBRANCH   8   9
ENDBRANCH   7   8
ENDBRANCH   1   7
TORSDOF 7
ENDMDL
MODEL 2
REMARK VINA RESULT:    -3.900      2.221      3.385
REMARK INTER + INTRA:          -6.335
REMARK INTER:                  -5.438
REMARK INTRA:                  -0.897
REMARK UNBOUND:                -0.840
REMARK SMILES CCCCCCCCC(=O)[O-]
REMARK SMILES IDX 6 1 7 2 8 3 9 4 10 5 11 6 5 7 4 8 3 9 2 10 1 11
REMARK H PARENT
REMARK Flexibility Score: inf
ROOT
ATOM      1  C   UNL     1     -19.119  45.722  -5.956  1.00  0.00     0.000 C 
ENDROOT
BRANCH   1   2
ATOM      2  C   UNL     1     -19.859  45.872  -7.295  1.00  0.00     0.006 C 
BRANCH   2   3
ATOM      3  C   UNL     1     -20.702  44.639  -7.647  1.00  0.00     0.053 C 
BRANCH   3   4
ATOM      4  C   UNL     1     -20.296  44.094  -8.980  1.00  0.00     0.041 C 
ATOM      5  O   UNL     1     -20.453  42.871  -9.237  1.00  0.00    -0.550 OA
ATOM      6  O   UNL     1     -19.791  44.944  -9.954  1.00  0.00    -0.550 OA
ENDBRANCH   3   4
ENDBRANCH   2   3
ENDBRANCH   1   2
BRANCH   1   7
ATOM      7  C   UNL     1     -18.660  44.276  -5.695  1.00  0.00     0.000 C 
BRANCH   7   8
ATOM      8  C   UNL     1     -17.232  44.010  -6.201  1.00  0.00    -0.000 C 
BRANCH   8   9
ATOM      9  C   UNL     1     -17.178  42.918  -7.281  1.00  0.00    -0.000 C 
BRANCH   9  10
ATOM     10  C   UNL     1     -16.630  43.477  -8.598  1.00  0.00    -0.003 C 
ATOM     11  C   UNL     1     -16.333  44.969  -8.484  1.00  0.00     0.004 C 
ENDBRANCH   9  10
ENDBRANCH   8   9
ENDBRANCH   7   8
ENDBRANCH   1   7
TORSDOF 7
ENDMDL
MODEL 3
REMARK VINA RESULT:    -3.898      0.980      1.488
REMARK INTER + INTRA:          -6.332
REMARK INTER:                  -5.585
REMARK INTRA:                  -0.747
REMARK UNBOUND:                -0.840
REMARK SMILES CCCCCCCCC(=O)[O-]
REMARK SMILES IDX 6 1 7 2 8 3 9 4 10 5 11 6 5 7 4 8 3 9 2 10 1 11
REMARK H PARENT
REMARK Flexibility Score: inf
ROOT
ATOM      1  C   UNL     1     -17.007  44.012  -7.140  1.00  0.00     0.000 C 
ENDROOT
BRANCH   1   2
ATOM      2  C   UNL     1     -17.812  43.984  -5.830  1.00  0.00     0.006 C 
BRANCH   2   3
ATOM      3  C   UNL     1     -19.157  44.714  -5.946  1.00  0.00     0.053 C 
BRANCH   3   4
ATOM      4  C   UNL     1     -18.940  46.186  -6.098  1.00  0.00     0.041 C 
ATOM      5  O   UNL     1     -19.659  46.854  -6.888  1.00  0.00    -0.550 OA
ATOM      6  O   UNL     1     -17.977  46.829  -5.332  1.00  0.00    -0.550 OA
ENDBRANCH   3   4
ENDBRANCH   2   3
ENDBRANCH   1   2
BRANCH   1   7
ATOM      7  C   UNL     1     -17.258  42.769  -8.013  1.00  0.00     0.000 C 
BRANCH   7   8
ATOM      8  C   UNL     1     -17.995  43.105  -9.321  1.00  0.00    -0.000 C 
BRANCH   8   9
ATOM      9  C   UNL     1     -19.322  42.344  -9.467  1.00  0.00    -0.000 C 
BRANCH   9  10
ATOM     10  C   UNL     1     -20.515  43.271  -9.214  1.00  0.00    -0.003 C 
ATOM     11  C   UNL     1     -20.205  44.701  -9.643  1.00  0.00     0.004 C 
ENDBRANCH   9  10
ENDBRANCH   8   9
ENDBRANCH   7   8
ENDBRANCH   1   7
TORSDOF 7
ENDMDL
MODEL 4
REMARK VINA RESULT:    -3.884      1.784      3.185
REMARK INTER + INTRA:          -6.313
REMARK INTER:                  -5.396
REMARK INTRA:                  -0.917
REMARK UNBOUND:                -0.840
REMARK SMILES CCCCCCCCC(=O)[O-]
REMARK SMILES IDX 6 1 7 2 8 3 9 4 10 5 11 6 5 7 4 8 3 9 2 10 1 11
REMARK H PARENT
REMARK Flexibility Score: inf
ROOT
ATOM      1  C   UNL     1     -19.090  44.292  -5.785  1.00  0.00     0.000 C 
ENDROOT
BRANCH   1   2
ATOM      2  C   UNL     1     -17.579  44.028  -5.882  1.00  0.00     0.006 C 
BRANCH   2   3
ATOM      3  C   UNL     1     -17.206  43.155  -7.087  1.00  0.00     0.053 C 
BRANCH   3   4
ATOM      4  C   UNL     1     -16.638  43.997  -8.185  1.00  0.00     0.041 C 
ATOM      5  O   UNL     1     -16.571  43.545  -9.359  1.00  0.00    -0.550 OA
ATOM      6  O   UNL     1     -16.229  45.297  -7.923  1.00  0.00    -0.550 OA
ENDBRANCH   3   4
ENDBRANCH   2   3
ENDBRANCH   1   2
BRANCH   1   7
ATOM      7  C   UNL     1     -19.474  45.706  -6.257  1.00  0.00     0.000 C 
BRANCH   7   8
ATOM      8  C   UNL     1     -20.039  45.718  -7.688  1.00  0.00    -0.000 C 
BRANCH   8   9
ATOM      9  C   UNL     1     -20.635  44.364  -8.103  1.00  0.00    -0.000 C 
BRANCH   9  10
ATOM     10  C   UNL     1     -20.193  43.981  -9.519  1.00  0.00    -0.003 C 
ATOM     11  C   UNL     1     -19.972  42.476  -9.641  1.00  0.00     0.004 C 
ENDBRANCH   9  10
ENDBRANCH   8   9
ENDBRANCH   7   8
ENDBRANCH   1   7
TORSDOF 7
ENDMDL
MODEL 5
REMARK VINA RESULT:    -3.854      2.749      4.097
REMARK INTER + INTRA:          -6.270
REMARK INTER:                  -5.460
REMARK INTRA:                  -0.810
REMARK UNBOUND:                -0.840
REMARK SMILES CCCCCCCCC(=O)[O-]
REMARK SMILES IDX 6 1 7 2 8 3 9 4 10 5 11 6 5 7 4 8 3 9 2 10 1 11
REMARK H PARENT
REMARK Flexibility Score: inf
ROOT
ATOM      1  C   UNL     1     -19.746  45.613  -7.019  1.00  0.00     0.000 C 
ENDROOT
BRANCH   1   2
ATOM      2  C   UNL     1     -20.346  45.222  -8.379  1.00  0.00     0.006 C 
BRANCH   2   3
ATOM      3  C   UNL     1     -20.648  43.721  -8.484  1.00  0.00     0.053 C 
BRANCH   3   4
ATOM      4  C   UNL     1     -20.322  43.219  -9.855  1.00  0.00     0.041 C 
ATOM      5  O   UNL     1     -19.967  42.022 -10.024  1.00  0.00    -0.550 OA
ATOM      6  O   UNL     1     -20.459  44.058 -10.953  1.00  0.00    -0.550 OA
ENDBRANCH   3   4
ENDBRANCH   2   3
ENDBRANCH   1   2
BRANCH   1   7
ATOM      7  C   UNL     1     -19.852  44.482  -5.980  1.00  0.00     0.000 C 
BRANCH   7   8
ATOM      8  C   UNL     1     -18.478  44.028  -5.459  1.00  0.00    -0.000 C 
BRANCH   8   9
ATOM      9  C   UNL     1     -17.346  44.286  -6.465  1.00  0.00    -0.000 C 
BRANCH   9  10
ATOM     10  C   UNL     1     -17.079  43.043  -7.319  1.00  0.00    -0.003 C 
ATOM     11  C   UNL     1     -16.762  43.421  -8.763  1.00  0.00     0.004 C 
ENDBRANCH   9  10
ENDBRANCH   8   9
ENDBRANCH   7   8
ENDBRANCH   1   7
TORSDOF 7
ENDMDL
MODEL 6
REMARK VINA RESULT:    -3.819      1.697      2.716
REMARK INTER + INTRA:          -6.222
REMARK INTER:                  -5.374
REMARK INTRA:                  -0.847
REMARK UNBOUND:                -0.840
REMARK SMILES CCCCCCCCC(=O)[O-]
REMARK SMILES IDX 6 1 7 2 8 3 9 4 10 5 11 6 5 7 4 8 3 9 2 10 1 11
REMARK H PARENT
REMARK Flexibility Score: inf
ROOT
ATOM      1  C   UNL     1     -18.976  44.991  -5.867  1.00  0.00     0.000 C 
ENDROOT
BRANCH   1   2
ATOM      2  C   UNL     1     -17.917  43.877  -5.854  1.00  0.00     0.006 C 
BRANCH   2   3
ATOM      3  C   UNL     1     -17.057  43.862  -7.124  1.00  0.00     0.053 C 
BRANCH   3   4
ATOM      4  C   UNL     1     -16.426  45.201  -7.342  1.00  0.00     0.041 C 
ATOM      5  O   UNL     1     -16.712  45.876  -8.366  1.00  0.00    -0.550 OA
ATOM      6  O   UNL     1     -15.561  45.725  -6.390  1.00  0.00    -0.550 OA
ENDBRANCH   3   4
ENDBRANCH   2   3
ENDBRANCH   1   2
BRANCH   1   7
ATOM      7  C   UNL     1     -20.244  44.591  -6.643  1.00  0.00     0.000 C 
BRANCH   7   8
ATOM      8  C   UNL     1     -20.469  45.459  -7.893  1.00  0.00    -0.000 C 
BRANCH   8   9
ATOM      9  C   UNL     1     -20.121  44.723  -9.197  1.00  0.00    -0.000 C 
BRANCH   9  10
ATOM     10  C   UNL     1     -20.497  43.241  -9.106  1.00  0.00    -0.003 C 
ATOM     11  C   UNL     1     -19.364  42.352  -9.610  1.00  0.00     0.004 C 
ENDBRANCH   9  10
ENDBRANCH   8   9
ENDBRANCH   7   8
ENDBRANCH   1   7
TORSDOF 7
ENDMDL
MODEL 7
REMARK VINA RESULT:    -3.805      1.921      4.181
REMARK INTER + INTRA:          -6.201
REMARK INTER:                  -5.457
REMARK INTRA:                  -0.745
REMARK UNBOUND:                -0.840
REMARK SMILES CCCCCCCCC(=O)[O-]
REMARK SMILES IDX 6 1 7 2 8 3 9 4 10 5 11 6 5 7 4 8 3 9 2 10 1 11
REMARK H PARENT
REMARK Flexibility Score: inf
ROOT
ATOM      1  C   UNL     1     -17.088  42.997  -7.276  1.00  0.00     0.000 C 
ENDROOT
BRANCH   1   2
ATOM      2  C   UNL     1     -16.999  43.570  -8.700  1.00  0.00     0.006 C 
BRANCH   2   3
ATOM      3  C   UNL     1     -18.133  43.076  -9.609  1.00  0.00     0.053 C 
BRANCH   3   4
ATOM      4  C   UNL     1     -19.390  43.839  -9.334  1.00  0.00     0.041 C 
ATOM      5  O   UNL     1     -19.415  45.091  -9.472  1.00  0.00    -0.550 OA
ATOM      6  O   UNL     1     -20.549  43.163  -8.974  1.00  0.00    -0.550 OA
ENDBRANCH   3   4
ENDBRANCH   2   3
ENDBRANCH   1   2
BRANCH   1   7
ATOM      7  C   UNL     1     -17.300  44.089  -6.213  1.00  0.00     0.000 C 
BRANCH   7   8
ATOM      8  C   UNL     1     -18.723  44.076  -5.628  1.00  0.00    -0.000 C 
BRANCH   8   9
ATOM      9  C   UNL     1     -19.498  45.369  -5.923  1.00  0.00    -0.000 C 
BRANCH   9  10
ATOM     10  C   UNL     1     -18.544  46.502  -6.316  1.00  0.00    -0.003 C 
ATOM     11  C   UNL     1     -18.423  47.535  -5.200  1.00  0.00     0.004 C 
ENDBRANCH   9  10
ENDBRANCH   8   9
ENDBRANCH   7   8
ENDBRANCH   1   7
TORSDOF 7
ENDMDL
MODEL 8
REMARK VINA RESULT:    -3.731      1.983      4.207
REMARK INTER + INTRA:          -6.098
REMARK INTER:                  -5.261
REMARK INTRA:                  -0.837
REMARK UNBOUND:                -0.840
REMARK SMILES CCCCCCCCC(=O)[O-]
REMARK SMILES IDX 6 1 7 2 8 3 9 4 10 5 11 6 5 7 4 8 3 9 2 10 1 11
REMARK H PARENT
REMARK Flexibility Score: inf
ROOT
ATOM      1  C   UNL     1     -20.255  43.148  -9.193  1.00  0.00     0.000 C 
ENDROOT
BRANCH   1   2
ATOM      2  C   UNL     1     -18.843  42.547  -9.289  1.00  0.00     0.006 C 
BRANCH   2   3
ATOM      3  C   UNL     1     -17.745  43.618  -9.330  1.00  0.00     0.053 C 
BRANCH   3   4
ATOM      4  C   UNL     1     -16.959  43.608  -8.057  1.00  0.00     0.041 C 
ATOM      5  O   UNL     1     -16.962  42.587  -7.319  1.00  0.00    -0.550 OA
ATOM      6  O   UNL     1     -16.184  44.707  -7.710  1.00  0.00    -0.550 OA
ENDBRANCH   3   4
ENDBRANCH   2   3
ENDBRANCH   1   2
BRANCH   1   7
ATOM      7  C   UNL     1     -20.243  44.687  -9.212  1.00  0.00     0.000 C 
BRANCH   7   8
ATOM      8  C   UNL     1     -20.720  45.298  -7.883  1.00  0.00    -0.000 C 
BRANCH   8   9
ATOM      9  C   UNL     1     -19.658  46.193  -7.226  1.00  0.00    -0.000 C 
BRANCH   9  10
ATOM     10  C   UNL     1     -19.161  45.580  -5.913  1.00  0.00    -0.003 C 
ATOM     11  C   UNL     1     -19.944  44.318  -5.561  1.00  0.00     0.004 C 
ENDBRANCH   9  10
ENDBRANCH   8   9
ENDBRANCH   7   8
ENDBRANCH   1   7
TORSDOF 7
ENDMDL
MODEL 9
REMARK VINA RESULT:    -3.727      1.404      2.828
REMARK INTER + INTRA:          -6.091
REMARK INTER:                  -5.256
REMARK INTRA:                  -0.836
REMARK UNBOUND:                -0.840
REMARK SMILES CCCCCCCCC(=O)[O-]
REMARK SMILES IDX 6 1 7 2 8 3 9 4 10 5 11 6 5 7 4 8 3 9 2 10 1 11
REMARK H PARENT
REMARK Flexibility Score: inf
ROOT
ATOM      1  C   UNL     1     -20.304  44.737  -9.159  1.00  0.00     0.000 C 
ENDROOT
BRANCH   1   2
ATOM      2  C   UNL     1     -20.722  45.194  -7.752  1.00  0.00     0.006 C 
BRANCH   2   3
ATOM      3  C   UNL     1     -19.692  46.127  -7.102  1.00  0.00     0.053 C 
BRANCH   3   4
ATOM      4  C   UNL     1     -18.908  45.392  -6.061  1.00  0.00     0.041 C 
ATOM      5  O   UNL     1     -19.406  44.389  -5.484  1.00  0.00    -0.550 OA
ATOM      6  O   UNL     1     -17.609  45.784  -5.764  1.00  0.00    -0.550 OA
ENDBRANCH   3   4
ENDBRANCH   2   3
ENDBRANCH   1   2
BRANCH   1   7
ATOM      7  C   UNL     1     -20.293  43.205  -9.303  1.00  0.00     0.000 C 
BRANCH   7   8
ATOM      8  C   UNL     1     -18.868  42.626  -9.337  1.00  0.00    -0.000 C 
BRANCH   8   9
ATOM      9  C   UNL     1     -17.809  43.674  -9.712  1.00  0.00    -0.000 C 
BRANCH   9  10
ATOM     10  C   UNL     1     -16.663  43.682  -8.695  1.00  0.00    -0.003 C 
ATOM     11  C   UNL     1     -16.936  42.716  -7.546  1.00  0.00     0.004 C 
ENDBRANCH   9  10
ENDBRANCH   8   9
ENDBRANCH   7   8
ENDBRANCH   1   7
TORSDOF 7
ENDMDL
