MODEL 1
REMARK VINA RESULT:    -3.991      0.000      0.000
REMARK INTER + INTRA:          -8.674
REMARK INTER:                  -7.257
REMARK INTRA:                  -1.417
REMARK UNBOUND:                -1.417
REMARK SMILES CCCCCC=CCC=CCCCCCCCC(=O)[O-]
REMARK SMILES IDX 11 1 12 2 13 3 14 4 15 5 16 6 17 7 18 8 19 9 20 10 10 11
REMARK SMILES IDX 9 12 8 13 7 14 6 15 5 16 4 17 3 18 2 19 1 20
REMARK H PARENT
REMARK Flexibility Score: inf
ROOT
ATOM      1  C   UNL     1      13.073  -1.307 -20.950  1.00  0.00     0.027 C 
ENDROOT
BRANCH   1   2
ATOM      2  C   UNL     1      11.984  -1.526 -22.010  1.00  0.00     0.004 C 
BRANCH   2   3
ATOM      3  C   UNL     1      10.596  -1.789 -21.399  1.00  0.00     0.000 C 
BRANCH   3   4
ATOM      4  C   UNL     1      10.566  -1.890 -19.863  1.00  0.00     0.000 C 
BRANCH   4   5
ATOM      5  C   UNL     1       9.915  -0.668 -19.194  1.00  0.00     0.000 C 
BRANCH   5   6
ATOM      6  C   UNL     1      10.669  -0.210 -17.931  1.00  0.00     0.006 C 
BRANCH   6   7
ATOM      7  C   UNL     1      11.624   0.973 -18.155  1.00  0.00     0.053 C 
BRANCH   7   8
ATOM      8  C   UNL     1      12.556   1.169 -16.998  1.00  0.00     0.041 C 
ATOM      9  O   UNL     1      13.380   2.121 -17.003  1.00  0.00    -0.550 OA
ATOM     10  O   UNL     1      12.491   0.319 -15.902  1.00  0.00    -0.550 OA
ENDBRANCH   7   8
ENDBRANCH   6   7
ENDBRANCH   5   6
ENDBRANCH   4   5
ENDBRANCH   3   4
ENDBRANCH   2   3
ENDBRANCH   1   2
BRANCH   1  11
ATOM     11  C   UNL     1      13.721   0.041 -21.111  1.00  0.00    -0.031 C 
ATOM     12  C   UNL     1      13.022   1.176 -20.960  1.00  0.00    -0.027 C 
BRANCH  12  13
ATOM     13  C   UNL     1      13.666   2.522 -21.129  1.00  0.00     0.054 C 
BRANCH  13  14
ATOM     14  C   UNL     1      13.127   3.490 -20.105  1.00  0.00    -0.027 C 
ATOM     15  C   UNL     1      13.396   4.809 -20.070  1.00  0.00    -0.031 C 
BRANCH  15  16
ATOM     16  C   UNL     1      14.243   5.542 -21.078  1.00  0.00     0.027 C 
BRANCH  16  17
ATOM     17  C   UNL     1      15.607   5.920 -20.481  1.00  0.00     0.004 C 
BRANCH  17  18
ATOM     18  C   UNL     1      16.749   5.813 -21.504  1.00  0.00     0.000 C 
BRANCH  18  19
ATOM     19  C   UNL     1      16.245   5.821 -22.955  1.00  0.00    -0.003 C 
ATOM     20  C   UNL     1      16.649   4.542 -23.684  1.00  0.00     0.004 C 
ENDBRANCH  18  19
ENDBRANCH  17  18
ENDBRANCH  16  17
ENDBRANCH  15  16
ENDBRANCH  13  14
ENDBRANCH  12  13
ENDBRANCH   1  11
TORSDOF 14
ENDMDL
MODEL 2
REMARK VINA RESULT:    -3.725      2.891      7.572
REMARK INTER + INTRA:          -8.191
REMARK INTER:                  -6.996
REMARK INTRA:                  -1.195
REMARK UNBOUND:                -1.417
REMARK SMILES CCCCCC=CCC=CCCCCCCCC(=O)[O-]
REMARK SMILES IDX 11 1 12 2 13 3 14 4 15 5 16 6 17 7 18 8 19 9 20 10 10 11
REMARK SMILES IDX 9 12 8 13 7 14 6 15 5 16 4 17 3 18 2 19 1 20
REMARK H PARENT
REMARK Flexibility Score: inf
ROOT
ATOM      1  C   UNL     1      13.265   3.175 -18.969  1.00  0.00     0.027 C 
ENDROOT
BRANCH   1   2
ATOM      2  C   UNL     1      13.186   3.595 -20.444  1.00  0.00     0.004 C 
BRANCH   2   3
ATOM      3  C   UNL     1      13.343   5.113 -20.645  1.00  0.00     0.000 C 
BRANCH   3   4
ATOM      4  C   UNL     1      14.746   5.670 -20.345  1.00  0.00     0.000 C 
BRANCH   4   5
ATOM      5  C   UNL     1      15.577   5.922 -21.615  1.00  0.00     0.000 C 
BRANCH   5   6
ATOM      6  C   UNL     1      17.087   5.730 -21.386  1.00  0.00     0.006 C 
BRANCH   6   7
ATOM      7  C   UNL     1      17.934   5.773 -22.669  1.00  0.00     0.053 C 
BRANCH   7   8
ATOM      8  C   UNL     1      17.202   5.201 -23.844  1.00  0.00     0.041 C 
ATOM      9  O   UNL     1      17.124   5.850 -24.920  1.00  0.00    -0.550 OA
ATOM     10  O   UNL     1      16.632   3.937 -23.759  1.00  0.00    -0.550 OA
ENDBRANCH   7   8
ENDBRANCH   6   7
ENDBRANCH   5   6
ENDBRANCH   4   5
ENDBRANCH   3   4
ENDBRANCH   2   3
ENDBRANCH   1   2
BRANCH   1  11
ATOM     11  C   UNL     1      12.422   1.956 -18.709  1.00  0.00    -0.031 C 
ATOM     12  C   UNL     1      12.460   1.317 -17.531  1.00  0.00    -0.027 C 
BRANCH  12  13
ATOM     13  C   UNL     1      11.625   0.095 -17.275  1.00  0.00     0.054 C 
BRANCH  13  14
ATOM     14  C   UNL     1      10.323   0.185 -18.033  1.00  0.00    -0.027 C 
ATOM     15  C   UNL     1       9.956  -0.629 -19.040  1.00  0.00    -0.031 C 
BRANCH  15  16
ATOM     16  C   UNL     1      10.768  -1.796 -19.543  1.00  0.00     0.027 C 
BRANCH  16  17
ATOM     17  C   UNL     1      10.775  -1.843 -21.078  1.00  0.00     0.004 C 
BRANCH  17  18
ATOM     18  C   UNL     1      11.777  -0.855 -21.694  1.00  0.00     0.000 C 
BRANCH  18  19
ATOM     19  C   UNL     1      13.227  -1.354 -21.610  1.00  0.00    -0.003 C 
ATOM     20  C   UNL     1      13.986  -0.651 -20.488  1.00  0.00     0.004 C 
ENDBRANCH  18  19
ENDBRANCH  17  18
ENDBRANCH  16  17
ENDBRANCH  15  16
ENDBRANCH  13  14
ENDBRANCH  12  13
ENDBRANCH   1  11
TORSDOF 14
ENDMDL
MODEL 3
REMARK VINA RESULT:    -3.338      1.655      3.156
REMARK INTER + INTRA:          -7.487
REMARK INTER:                  -6.374
REMARK INTRA:                  -1.112
REMARK UNBOUND:                -1.417
REMARK SMILES CCCCCC=CCC=CCCCCCCCC(=O)[O-]
REMARK SMILES IDX 11 1 12 2 13 3 14 4 15 5 16 6 17 7 18 8 19 9 20 10 10 11
REMARK SMILES IDX 9 12 8 13 7 14 6 15 5 16 4 17 3 18 2 19 1 20
REMARK H PARENT
REMARK Flexibility Score: inf
ROOT
ATOM      1  C   UNL     1      11.995   0.822 -17.061  1.00  0.00     0.027 C 
ENDROOT
BRANCH   1   2
ATOM      2  C   UNL     1      10.805   0.564 -17.996  1.00  0.00     0.004 C 
BRANCH   2   3
ATOM      3  C   UNL     1      10.766  -0.878 -18.533  1.00  0.00     0.000 C 
BRANCH   3   4
ATOM      4  C   UNL     1       9.891  -1.086 -19.784  1.00  0.00     0.000 C 
BRANCH   4   5
ATOM      5  C   UNL     1      10.503  -2.080 -20.785  1.00  0.00     0.000 C 
BRANCH   5   6
ATOM      6  C   UNL     1      11.240  -1.381 -21.942  1.00  0.00     0.006 C 
BRANCH   6   7
ATOM      7  C   UNL     1      12.772  -1.493 -21.879  1.00  0.00     0.053 C 
BRANCH   7   8
ATOM      8  C   UNL     1      13.378  -0.430 -21.014  1.00  0.00     0.041 C 
ATOM      9  O   UNL     1      13.992  -0.744 -19.960  1.00  0.00    -0.550 OA
ATOM     10  O   UNL     1      13.290   0.904 -21.389  1.00  0.00    -0.550 OA
ENDBRANCH   7   8
ENDBRANCH   6   7
ENDBRANCH   5   6
ENDBRANCH   4   5
ENDBRANCH   3   4
ENDBRANCH   2   3
ENDBRANCH   1   2
BRANCH   1  11
ATOM     11  C   UNL     1      12.947   1.820 -17.663  1.00  0.00    -0.031 C 
ATOM     12  C   UNL     1      12.634   2.505 -18.772  1.00  0.00    -0.027 C 
BRANCH  12  13
ATOM     13  C   UNL     1      13.588   3.495 -19.378  1.00  0.00     0.054 C 
BRANCH  13  14
ATOM     14  C   UNL     1      12.832   4.519 -20.187  1.00  0.00    -0.027 C 
ATOM     15  C   UNL     1      13.345   5.677 -20.644  1.00  0.00    -0.031 C 
BRANCH  15  16
ATOM     16  C   UNL     1      14.776   6.116 -20.462  1.00  0.00     0.027 C 
BRANCH  16  17
ATOM     17  C   UNL     1      15.539   6.077 -21.794  1.00  0.00     0.004 C 
BRANCH  17  18
ATOM     18  C   UNL     1      17.032   5.765 -21.609  1.00  0.00     0.000 C 
BRANCH  18  19
ATOM     19  C   UNL     1      17.602   4.906 -22.748  1.00  0.00    -0.003 C 
ATOM     20  C   UNL     1      16.775   5.061 -24.021  1.00  0.00     0.004 C 
ENDBRANCH  18  19
ENDBRANCH  17  18
ENDBRANCH  16  17
ENDBRANCH  15  16
ENDBRANCH  13  14
ENDBRANCH  12  13
ENDBRANCH   1  11
TORSDOF 14
ENDMDL
MODEL 4
REMARK VINA RESULT:    -3.334      2.654      3.824
REMARK INTER + INTRA:          -7.478
REMARK INTER:                  -6.290
REMARK INTRA:                  -1.188
REMARK UNBOUND:                -1.417
REMARK SMILES CCCCCC=CCC=CCCCCCCCC(=O)[O-]
REMARK SMILES IDX 11 1 12 2 13 3 14 4 15 5 16 6 17 7 18 8 19 9 20 10 10 11
REMARK SMILES IDX 9 12 8 13 7 14 6 15 5 16 4 17 3 18 2 19 1 20
REMARK H PARENT
REMARK Flexibility Score: inf
ROOT
ATOM      1  C   UNL     1      12.472   1.502 -16.978  1.00  0.00     0.027 C 
ENDROOT
BRANCH   1   2
ATOM      2  C   UNL     1      11.904   0.121 -17.333  1.00  0.00     0.004 C 
BRANCH   2   3
ATOM      3  C   UNL     1      10.490   0.190 -17.937  1.00  0.00     0.000 C 
BRANCH   3   4
ATOM      4  C   UNL     1      10.277  -0.659 -19.204  1.00  0.00     0.000 C 
BRANCH   4   5
ATOM      5  C   UNL     1      11.395  -1.691 -19.430  1.00  0.00     0.000 C 
BRANCH   5   6
ATOM      6  C   UNL     1      12.473  -1.196 -20.412  1.00  0.00     0.006 C 
BRANCH   6   7
ATOM      7  C   UNL     1      11.918  -0.598 -21.715  1.00  0.00     0.053 C 
BRANCH   7   8
ATOM      8  C   UNL     1      11.646  -1.652 -22.745  1.00  0.00     0.041 C 
ATOM      9  O   UNL     1      12.529  -1.953 -23.591  1.00  0.00    -0.550 OA
ATOM     10  O   UNL     1      10.430  -2.322 -22.749  1.00  0.00    -0.550 OA
ENDBRANCH   7   8
ENDBRANCH   6   7
ENDBRANCH   5   6
ENDBRANCH   4   5
ENDBRANCH   3   4
ENDBRANCH   2   3
ENDBRANCH   1   2
BRANCH   1  11
ATOM     11  C   UNL     1      13.233   2.087 -18.136  1.00  0.00    -0.031 C 
ATOM     12  C   UNL     1      12.628   2.855 -19.055  1.00  0.00    -0.027 C 
BRANCH  12  13
ATOM     13  C   UNL     1      13.386   3.432 -20.216  1.00  0.00     0.054 C 
BRANCH  13  14
ATOM     14  C   UNL     1      13.060   4.897 -20.375  1.00  0.00    -0.027 C 
ATOM     15  C   UNL     1      13.964   5.873 -20.578  1.00  0.00    -0.031 C 
BRANCH  15  16
ATOM     16  C   UNL     1      15.448   5.654 -20.729  1.00  0.00     0.027 C 
BRANCH  16  17
ATOM     17  C   UNL     1      15.912   5.981 -22.157  1.00  0.00     0.004 C 
BRANCH  17  18
ATOM     18  C   UNL     1      17.341   5.493 -22.439  1.00  0.00     0.000 C 
BRANCH  18  19
ATOM     19  C   UNL     1      17.811   5.829 -23.862  1.00  0.00    -0.003 C 
ATOM     20  C   UNL     1      17.103   4.957 -24.895  1.00  0.00     0.004 C 
ENDBRANCH  18  19
ENDBRANCH  17  18
ENDBRANCH  16  17
ENDBRANCH  15  16
ENDBRANCH  13  14
ENDBRANCH  12  13
ENDBRANCH   1  11
TORSDOF 14
ENDMDL
MODEL 5
REMARK VINA RESULT:    -3.276      2.735      6.794
REMARK INTER + INTRA:          -7.375
REMARK INTER:                  -5.283
REMARK INTRA:                  -2.092
REMARK UNBOUND:                -1.417
REMARK SMILES CCCCCC=CCC=CCCCCCCCC(=O)[O-]
REMARK SMILES IDX 11 1 12 2 13 3 14 4 15 5 16 6 17 7 18 8 19 9 20 10 10 11
REMARK SMILES IDX 9 12 8 13 7 14 6 15 5 16 4 17 3 18 2 19 1 20
REMARK H PARENT
REMARK Flexibility Score: inf
ROOT
ATOM      1  C   UNL     1      12.523   1.054 -17.240  1.00  0.00     0.027 C 
ENDROOT
BRANCH   1   2
ATOM      2  C   UNL     1      13.217   2.325 -17.750  1.00  0.00     0.004 C 
BRANCH   2   3
ATOM      3  C   UNL     1      12.626   2.841 -19.075  1.00  0.00     0.000 C 
BRANCH   3   4
ATOM      4  C   UNL     1      13.564   3.737 -19.904  1.00  0.00     0.000 C 
BRANCH   4   5
ATOM      5  C   UNL     1      12.932   5.092 -20.269  1.00  0.00     0.000 C 
BRANCH   5   6
ATOM      6  C   UNL     1      13.917   6.034 -20.986  1.00  0.00     0.006 C 
BRANCH   6   7
ATOM      7  C   UNL     1      15.375   5.905 -20.516  1.00  0.00     0.053 C 
BRANCH   7   8
ATOM      8  C   UNL     1      16.326   5.771 -21.667  1.00  0.00     0.041 C 
ATOM      9  O   UNL     1      17.544   5.532 -21.457  1.00  0.00    -0.550 OA
ATOM     10  O   UNL     1      15.859   5.880 -22.970  1.00  0.00    -0.550 OA
ENDBRANCH   7   8
ENDBRANCH   6   7
ENDBRANCH   5   6
ENDBRANCH   4   5
ENDBRANCH   3   4
ENDBRANCH   2   3
ENDBRANCH   1   2
BRANCH   1  11
ATOM     11  C   UNL     1      11.269   0.773 -18.022  1.00  0.00    -0.031 C 
ATOM     12  C   UNL     1      11.003  -0.451 -18.502  1.00  0.00    -0.027 C 
BRANCH  12  13
ATOM     13  C   UNL     1       9.755  -0.730 -19.290  1.00  0.00     0.054 C 
BRANCH  13  14
ATOM     14  C   UNL     1       9.757  -2.156 -19.782  1.00  0.00    -0.027 C 
ATOM     15  C   UNL     1      10.089  -2.545 -21.028  1.00  0.00    -0.031 C 
BRANCH  15  16
ATOM     16  C   UNL     1      10.560  -1.620 -22.121  1.00  0.00     0.027 C 
BRANCH  16  17
ATOM     17  C   UNL     1      12.086  -1.445 -22.077  1.00  0.00     0.004 C 
BRANCH  17  18
ATOM     18  C   UNL     1      12.505  -0.015 -21.704  1.00  0.00     0.000 C 
BRANCH  18  19
ATOM     19  C   UNL     1      13.764   0.022 -20.825  1.00  0.00    -0.003 C 
ATOM     20  C   UNL     1      13.971  -1.308 -20.105  1.00  0.00     0.004 C 
ENDBRANCH  18  19
ENDBRANCH  17  18
ENDBRANCH  16  17
ENDBRANCH  15  16
ENDBRANCH  13  14
ENDBRANCH  12  13
ENDBRANCH   1  11
TORSDOF 14
ENDMDL
MODEL 6
REMARK VINA RESULT:    -3.247      2.470      3.885
REMARK INTER + INTRA:          -7.321
REMARK INTER:                  -6.242
REMARK INTRA:                  -1.079
REMARK UNBOUND:                -1.417
REMARK SMILES CCCCCC=CCC=CCCCCCCCC(=O)[O-]
REMARK SMILES IDX 11 1 12 2 13 3 14 4 15 5 16 6 17 7 18 8 19 9 20 10 10 11
REMARK SMILES IDX 9 12 8 13 7 14 6 15 5 16 4 17 3 18 2 19 1 20
REMARK H PARENT
REMARK Flexibility Score: inf
ROOT
ATOM      1  C   UNL     1      12.867   2.179 -19.291  1.00  0.00     0.027 C 
ENDROOT
BRANCH   1   2
ATOM      2  C   UNL     1      12.720   1.816 -17.806  1.00  0.00     0.004 C 
BRANCH   2   3
ATOM      3  C   UNL     1      11.893   0.537 -17.581  1.00  0.00     0.000 C 
BRANCH   3   4
ATOM      4  C   UNL     1      10.623   0.419 -18.444  1.00  0.00     0.000 C 
BRANCH   4   5
ATOM      5  C   UNL     1      10.224  -1.039 -18.729  1.00  0.00     0.000 C 
BRANCH   5   6
ATOM      6  C   UNL     1      11.031  -1.662 -19.883  1.00  0.00     0.006 C 
BRANCH   6   7
ATOM      7  C   UNL     1      11.473  -0.660 -20.961  1.00  0.00     0.053 C 
BRANCH   7   8
ATOM      8  C   UNL     1      12.774  -1.054 -21.593  1.00  0.00     0.041 C 
ATOM      9  O   UNL     1      13.863  -0.793 -21.017  1.00  0.00    -0.550 OA
ATOM     10  O   UNL     1      12.780  -1.737 -22.802  1.00  0.00    -0.550 OA
ENDBRANCH   7   8
ENDBRANCH   6   7
ENDBRANCH   5   6
ENDBRANCH   4   5
ENDBRANCH   3   4
ENDBRANCH   2   3
ENDBRANCH   1   2
BRANCH   1  11
ATOM     11  C   UNL     1      13.251   3.624 -19.457  1.00  0.00    -0.031 C 
ATOM     12  C   UNL     1      13.090   4.262 -20.626  1.00  0.00    -0.027 C 
BRANCH  12  13
ATOM     13  C   UNL     1      13.481   5.702 -20.794  1.00  0.00     0.054 C 
BRANCH  13  14
ATOM     14  C   UNL     1      14.896   5.917 -20.318  1.00  0.00    -0.027 C 
ATOM     15  C   UNL     1      15.992   5.855 -21.098  1.00  0.00    -0.031 C 
BRANCH  15  16
ATOM     16  C   UNL     1      15.978   5.609 -22.585  1.00  0.00     0.027 C 
BRANCH  16  17
ATOM     17  C   UNL     1      17.267   6.125 -23.243  1.00  0.00     0.004 C 
BRANCH  17  18
ATOM     18  C   UNL     1      18.518   5.378 -22.754  1.00  0.00     0.000 C 
BRANCH  18  19
ATOM     19  C   UNL     1      19.782   5.766 -23.535  1.00  0.00    -0.003 C 
ATOM     20  C   UNL     1      21.020   5.699 -22.645  1.00  0.00     0.004 C 
ENDBRANCH  18  19
ENDBRANCH  17  18
ENDBRANCH  16  17
ENDBRANCH  15  16
ENDBRANCH  13  14
ENDBRANCH  12  13
ENDBRANCH   1  11
TORSDOF 14
ENDMDL
MODEL 7
REMARK VINA RESULT:    -2.686      2.895      7.210
REMARK INTER + INTRA:          -6.302
REMARK INTER:                  -5.160
REMARK INTRA:                  -1.141
REMARK UNBOUND:                -1.417
REMARK SMILES CCCCCC=CCC=CCCCCCCCC(=O)[O-]
REMARK SMILES IDX 11 1 12 2 13 3 14 4 15 5 16 6 17 7 18 8 19 9 20 10 10 11
REMARK SMILES IDX 9 12 8 13 7 14 6 15 5 16 4 17 3 18 2 19 1 20
REMARK H PARENT
REMARK Flexibility Score: inf
ROOT
ATOM      1  C   UNL     1      13.759   1.165 -20.738  1.00  0.00     0.027 C 
ENDROOT
BRANCH   1   2
ATOM      2  C   UNL     1      12.882   2.419 -20.864  1.00  0.00     0.004 C 
BRANCH   2   3
ATOM      3  C   UNL     1      13.358   3.577 -19.968  1.00  0.00     0.000 C 
BRANCH   3   4
ATOM      4  C   UNL     1      13.125   4.987 -20.543  1.00  0.00     0.000 C 
BRANCH   4   5
ATOM      5  C   UNL     1      14.365   5.890 -20.439  1.00  0.00     0.000 C 
BRANCH   5   6
ATOM      6  C   UNL     1      15.557   5.362 -21.259  1.00  0.00     0.006 C 
BRANCH   6   7
ATOM      7  C   UNL     1      15.814   6.124 -22.569  1.00  0.00     0.053 C 
BRANCH   7   8
ATOM      8  C   UNL     1      17.080   5.681 -23.236  1.00  0.00     0.041 C 
ATOM      9  O   UNL     1      17.902   4.953 -22.618  1.00  0.00    -0.550 OA
ATOM     10  O   UNL     1      17.338   6.047 -24.551  1.00  0.00    -0.550 OA
ENDBRANCH   7   8
ENDBRANCH   6   7
ENDBRANCH   5   6
ENDBRANCH   4   5
ENDBRANCH   3   4
ENDBRANCH   2   3
ENDBRANCH   1   2
BRANCH   1  11
ATOM     11  C   UNL     1      12.960  -0.081 -21.002  1.00  0.00    -0.031 C 
ATOM     12  C   UNL     1      11.802  -0.040 -21.678  1.00  0.00    -0.027 C 
BRANCH  12  13
ATOM     13  C   UNL     1      10.999  -1.283 -21.934  1.00  0.00     0.054 C 
BRANCH  13  14
ATOM     14  C   UNL     1      10.982  -2.155 -20.703  1.00  0.00    -0.027 C 
ATOM     15  C   UNL     1      10.512  -1.784 -19.498  1.00  0.00    -0.031 C 
BRANCH  15  16
ATOM     16  C   UNL     1       9.880  -0.449 -19.194  1.00  0.00     0.027 C 
BRANCH  16  17
ATOM     17  C   UNL     1      10.321   0.070 -17.817  1.00  0.00     0.004 C 
BRANCH  17  18
ATOM     18  C   UNL     1      11.689   0.768 -17.861  1.00  0.00     0.000 C 
BRANCH  18  19
ATOM     19  C   UNL     1      12.400   0.763 -16.500  1.00  0.00    -0.003 C 
ATOM     20  C   UNL     1      13.665   1.615 -16.537  1.00  0.00     0.004 C 
ENDBRANCH  18  19
ENDBRANCH  17  18
ENDBRANCH  16  17
ENDBRANCH  15  16
ENDBRANCH  13  14
ENDBRANCH  12  13
ENDBRANCH   1  11
TORSDOF 14
ENDMDL
MODEL 8
REMARK VINA RESULT:    -2.345      3.490      8.065
REMARK INTER + INTRA:          -5.680
REMARK INTER:                  -4.406
REMARK INTRA:                  -1.274
REMARK UNBOUND:                -1.417
REMARK SMILES CCCCCC=CCC=CCCCCCCCC(=O)[O-]
REMARK SMILES IDX 11 1 12 2 13 3 14 4 15 5 16 6 17 7 18 8 19 9 20 10 10 11
REMARK SMILES IDX 9 12 8 13 7 14 6 15 5 16 4 17 3 18 2 19 1 20
REMARK H PARENT
REMARK Flexibility Score: inf
ROOT
ATOM      1  C   UNL     1      13.231   3.683 -20.116  1.00  0.00     0.027 C 
ENDROOT
BRANCH   1   2
ATOM      2  C   UNL     1      14.398   4.301 -20.899  1.00  0.00     0.004 C 
BRANCH   2   3
ATOM      3  C   UNL     1      14.656   5.773 -20.530  1.00  0.00     0.000 C 
BRANCH   3   4
ATOM      4  C   UNL     1      16.124   6.125 -20.228  1.00  0.00     0.000 C 
BRANCH   4   5
ATOM      5  C   UNL     1      17.053   5.909 -21.435  1.00  0.00     0.000 C 
BRANCH   5   6
ATOM      6  C   UNL     1      16.340   6.125 -22.782  1.00  0.00     0.006 C 
BRANCH   6   7
ATOM      7  C   UNL     1      16.276   4.875 -23.674  1.00  0.00     0.053 C 
BRANCH   7   8
ATOM      8  C   UNL     1      17.180   4.987 -24.863  1.00  0.00     0.041 C 
ATOM      9  O   UNL     1      18.015   5.927 -24.938  1.00  0.00    -0.550 OA
ATOM     10  O   UNL     1      17.122   4.035 -25.873  1.00  0.00    -0.550 OA
ENDBRANCH   7   8
ENDBRANCH   6   7
ENDBRANCH   5   6
ENDBRANCH   4   5
ENDBRANCH   3   4
ENDBRANCH   2   3
ENDBRANCH   1   2
BRANCH   1  11
ATOM     11  C   UNL     1      12.686   2.473 -20.825  1.00  0.00    -0.031 C 
ATOM     12  C   UNL     1      13.394   1.337 -20.916  1.00  0.00    -0.027 C 
BRANCH  12  13
ATOM     13  C   UNL     1      12.853   0.132 -21.631  1.00  0.00     0.054 C 
BRANCH  13  14
ATOM     14  C   UNL     1      13.115  -1.114 -20.823  1.00  0.00    -0.027 C 
ATOM     15  C   UNL     1      12.172  -1.844 -20.198  1.00  0.00    -0.031 C 
BRANCH  15  16
ATOM     16  C   UNL     1      10.692  -1.560 -20.246  1.00  0.00     0.027 C 
BRANCH  16  17
ATOM     17  C   UNL     1      10.136  -1.290 -18.840  1.00  0.00     0.004 C 
BRANCH  17  18
ATOM     18  C   UNL     1      10.261   0.185 -18.430  1.00  0.00     0.000 C 
BRANCH  18  19
ATOM     19  C   UNL     1      11.140   0.381 -17.185  1.00  0.00    -0.003 C 
ATOM     20  C   UNL     1      12.588   0.663 -17.573  1.00  0.00     0.004 C 
ENDBRANCH  18  19
ENDBRANCH  17  18
ENDBRANCH  16  17
ENDBRANCH  15  16
ENDBRANCH  13  14
ENDBRANCH  12  13
ENDBRANCH   1  11
TORSDOF 14
ENDMDL
MODEL 9
REMARK VINA RESULT:    -1.648      1.818      4.008
REMARK INTER + INTRA:          -4.414
REMARK INTER:                  -4.049
REMARK INTRA:                  -0.364
REMARK UNBOUND:                -1.417
REMARK SMILES CCCCCC=CCC=CCCCCCCCC(=O)[O-]
REMARK SMILES IDX 11 1 12 2 13 3 14 4 15 5 16 6 17 7 18 8 19 9 20 10 10 11
REMARK SMILES IDX 9 12 8 13 7 14 6 15 5 16 4 17 3 18 2 19 1 20
REMARK H PARENT
REMARK Flexibility Score: inf
ROOT
ATOM      1  C   UNL     1       9.851  -0.500 -19.521  1.00  0.00     0.027 C 
ENDROOT
BRANCH   1   2
ATOM      2  C   UNL     1      10.014  -2.017 -19.688  1.00  0.00     0.004 C 
BRANCH   2   3
ATOM      3  C   UNL     1       9.338  -2.557 -20.962  1.00  0.00     0.000 C 
BRANCH   3   4
ATOM      4  C   UNL     1      10.269  -2.719 -22.178  1.00  0.00     0.000 C 
BRANCH   4   5
ATOM      5  C   UNL     1      10.951  -1.404 -22.591  1.00  0.00     0.000 C 
BRANCH   5   6
ATOM      6  C   UNL     1      12.484  -1.528 -22.671  1.00  0.00     0.006 C 
BRANCH   6   7
ATOM      7  C   UNL     1      13.177  -1.719 -21.313  1.00  0.00     0.053 C 
BRANCH   7   8
ATOM      8  C   UNL     1      13.576  -0.412 -20.698  1.00  0.00     0.041 C 
ATOM      9  O   UNL     1      14.189  -0.390 -19.598  1.00  0.00    -0.550 OA
ATOM     10  O   UNL     1      13.298   0.779 -21.355  1.00  0.00    -0.550 OA
ENDBRANCH   7   8
ENDBRANCH   6   7
ENDBRANCH   5   6
ENDBRANCH   4   5
ENDBRANCH   3   4
ENDBRANCH   2   3
ENDBRANCH   1   2
BRANCH   1  11
ATOM     11  C   UNL     1      10.255  -0.063 -18.139  1.00  0.00    -0.031 C 
ATOM     12  C   UNL     1      11.541   0.147 -17.819  1.00  0.00    -0.027 C 
BRANCH  12  13
ATOM     13  C   UNL     1      11.945   0.576 -16.438  1.00  0.00     0.054 C 
BRANCH  13  14
ATOM     14  C   UNL     1      13.185   1.433 -16.499  1.00  0.00    -0.027 C 
ATOM     15  C   UNL     1      13.462   2.325 -17.469  1.00  0.00    -0.031 C 
BRANCH  15  16
ATOM     16  C   UNL     1      12.552   2.648 -18.627  1.00  0.00     0.027 C 
BRANCH  16  17
ATOM     17  C   UNL     1      13.323   3.351 -19.754  1.00  0.00     0.004 C 
BRANCH  17  18
ATOM     18  C   UNL     1      12.630   4.639 -20.228  1.00  0.00     0.000 C 
BRANCH  18  19
ATOM     19  C   UNL     1      13.595   5.831 -20.316  1.00  0.00    -0.003 C 
ATOM     20  C   UNL     1      14.978   5.386 -20.781  1.00  0.00     0.004 C 
ENDBRANCH  18  19
ENDBRANCH  17  18
ENDBRANCH  16  17
ENDBRANCH  15  16
ENDBRANCH  13  14
ENDBRANCH  12  13
ENDBRANCH   1  11
TORSDOF 14
ENDMDL
