MODEL 1
REMARK VINA RESULT:    -3.125      0.000      0.000
REMARK INTER + INTRA:          -3.777
REMARK INTER:                  -3.674
REMARK INTRA:                  -0.104
REMARK UNBOUND:                -0.104
REMARK SMILES O=C([O-])CCC(=O)[O-]
REMARK SMILES IDX 4 1 2 2 1 3 3 4 5 5 6 6 7 7 8 8
REMARK H PARENT
REMARK Flexibility Score: inf
ROOT
ATOM      1  C   UNL     1      24.907  57.113  24.059  1.00  0.00     0.059 C 
ENDROOT
BRANCH   1   2
ATOM      2  C   UNL     1      23.800  56.246  24.574  1.00  0.00     0.042 C 
ATOM      3  O   UNL     1      22.949  55.767  23.780  1.00  0.00    -0.550 OA
ATOM      4  O   UNL     1      23.731  55.934  25.927  1.00  0.00    -0.550 OA
ENDBRANCH   1   2
BRANCH   1   5
ATOM      5  C   UNL     1      26.273  56.657  24.584  1.00  0.00     0.059 C 
BRANCH   5   6
ATOM      6  C   UNL     1      26.902  57.696  25.460  1.00  0.00     0.042 C 
ATOM      7  O   UNL     1      28.064  57.525  25.914  1.00  0.00    -0.550 OA
ATOM      8  O   UNL     1      26.189  58.836  25.810  1.00  0.00    -0.550 OA
ENDBRANCH   5   6
ENDBRANCH   1   5
TORSDOF 3
ENDMDL
MODEL 2
REMARK VINA RESULT:    -3.113      0.141      3.961
REMARK INTER + INTRA:          -3.763
REMARK INTER:                  -3.667
REMARK INTRA:                  -0.096
REMARK UNBOUND:                -0.104
REMARK SMILES O=C([O-])CCC(=O)[O-]
REMARK SMILES IDX 4 1 2 2 1 3 3 4 5 5 6 6 7 7 8 8
REMARK H PARENT
REMARK Flexibility Score: inf
ROOT
ATOM      1  C   UNL     1      26.229  56.614  24.594  1.00  0.00     0.059 C 
ENDROOT
BRANCH   1   2
ATOM      2  C   UNL     1      26.878  57.624  25.489  1.00  0.00     0.042 C 
ATOM      3  O   UNL     1      28.048  57.435  25.913  1.00  0.00    -0.550 OA
ATOM      4  O   UNL     1      26.206  58.794  25.823  1.00  0.00    -0.550 OA
ENDBRANCH   1   2
BRANCH   1   5
ATOM      5  C   UNL     1      24.877  57.109  24.070  1.00  0.00     0.059 C 
BRANCH   5   6
ATOM      6  C   UNL     1      23.757  56.211  24.498  1.00  0.00     0.042 C 
ATOM      7  O   UNL     1      23.675  55.826  25.694  1.00  0.00    -0.550 OA
ATOM      8  O   UNL     1      22.827  55.767  23.567  1.00  0.00    -0.550 OA
ENDBRANCH   5   6
ENDBRANCH   1   5
TORSDOF 3
ENDMDL
MODEL 3
REMARK VINA RESULT:    -3.033      0.165      3.954
REMARK INTER + INTRA:          -3.669
REMARK INTER:                  -3.560
REMARK INTRA:                  -0.109
REMARK UNBOUND:                -0.104
REMARK SMILES O=C([O-])CCC(=O)[O-]
REMARK SMILES IDX 4 1 2 2 1 3 3 4 5 5 6 6 7 7 8 8
REMARK H PARENT
REMARK Flexibility Score: inf
ROOT
ATOM      1  C   UNL     1      26.182  56.619  24.751  1.00  0.00     0.059 C 
ENDROOT
BRANCH   1   2
ATOM      2  C   UNL     1      26.792  57.770  25.490  1.00  0.00     0.042 C 
ATOM      3  O   UNL     1      26.092  58.771  25.793  1.00  0.00    -0.550 OA
ATOM      4  O   UNL     1      28.125  57.719  25.880  1.00  0.00    -0.550 OA
ENDBRANCH   1   2
BRANCH   1   5
ATOM      5  C   UNL     1      24.901  57.033  24.018  1.00  0.00     0.059 C 
BRANCH   5   6
ATOM      6  C   UNL     1      23.713  56.261  24.505  1.00  0.00     0.042 C 
ATOM      7  O   UNL     1      22.865  55.819  23.686  1.00  0.00    -0.550 OA
ATOM      8  O   UNL     1      23.521  56.065  25.867  1.00  0.00    -0.550 OA
ENDBRANCH   5   6
ENDBRANCH   1   5
TORSDOF 3
ENDMDL
MODEL 4
REMARK VINA RESULT:    -3.015     21.341     22.671
REMARK INTER + INTRA:          -3.647
REMARK INTER:                  -3.532
REMARK INTRA:                  -0.116
REMARK UNBOUND:                -0.104
REMARK SMILES O=C([O-])CCC(=O)[O-]
REMARK SMILES IDX 4 1 2 2 1 3 3 4 5 5 6 6 7 7 8 8
REMARK H PARENT
REMARK Flexibility Score: inf
ROOT
ATOM      1  C   UNL     1      10.520  55.699  41.587  1.00  0.00     0.059 C 
ENDROOT
BRANCH   1   2
ATOM      2  C   UNL     1      12.000  55.915  41.671  1.00  0.00     0.042 C 
ATOM      3  O   UNL     1      12.752  55.511  40.746  1.00  0.00    -0.550 OA
ATOM      4  O   UNL     1      12.545  56.598  42.751  1.00  0.00    -0.550 OA
ENDBRANCH   1   2
BRANCH   1   5
ATOM      5  C   UNL     1       9.767  56.537  42.624  1.00  0.00     0.059 C 
BRANCH   5   6
ATOM      6  C   UNL     1       9.114  57.732  42.000  1.00  0.00     0.042 C 
ATOM      7  O   UNL     1       7.876  57.732  41.771  1.00  0.00    -0.550 OA
ATOM      8  O   UNL     1       9.881  58.831  41.633  1.00  0.00    -0.550 OA
ENDBRANCH   5   6
ENDBRANCH   1   5
TORSDOF 3
ENDMDL
MODEL 5
REMARK VINA RESULT:    -2.992     14.273     15.087
REMARK INTER + INTRA:          -3.620
REMARK INTER:                  -3.545
REMARK INTRA:                  -0.075
REMARK UNBOUND:                -0.104
REMARK SMILES O=C([O-])CCC(=O)[O-]
REMARK SMILES IDX 4 1 2 2 1 3 3 4 5 5 6 6 7 7 8 8
REMARK H PARENT
REMARK Flexibility Score: inf
ROOT
ATOM      1  C   UNL     1      21.704  52.285  37.722  1.00  0.00     0.059 C 
ENDROOT
BRANCH   1   2
ATOM      2  C   UNL     1      20.627  53.315  37.872  1.00  0.00     0.042 C 
ATOM      3  O   UNL     1      20.128  53.548  39.004  1.00  0.00    -0.550 OA
ATOM      4  O   UNL     1      20.202  54.045  36.769  1.00  0.00    -0.550 OA
ENDBRANCH   1   2
BRANCH   1   5
ATOM      5  C   UNL     1      22.886  52.562  38.657  1.00  0.00     0.059 C 
BRANCH   5   6
ATOM      6  C   UNL     1      23.086  51.448  39.638  1.00  0.00     0.042 C 
ATOM      7  O   UNL     1      22.790  50.265  39.324  1.00  0.00    -0.550 OA
ATOM      8  O   UNL     1      23.561  51.721  40.914  1.00  0.00    -0.550 OA
ENDBRANCH   5   6
ENDBRANCH   1   5
TORSDOF 3
ENDMDL
MODEL 6
REMARK VINA RESULT:    -2.988     14.321     15.279
REMARK INTER + INTRA:          -3.616
REMARK INTER:                  -3.534
REMARK INTRA:                  -0.082
REMARK UNBOUND:                -0.104
REMARK SMILES O=C([O-])CCC(=O)[O-]
REMARK SMILES IDX 4 1 2 2 1 3 3 4 5 5 6 6 7 7 8 8
REMARK H PARENT
REMARK Flexibility Score: inf
ROOT
ATOM      1  C   UNL     1      22.890  52.499  38.638  1.00  0.00     0.059 C 
ENDROOT
BRANCH   1   2
ATOM      2  C   UNL     1      22.904  51.422  39.679  1.00  0.00     0.042 C 
ATOM      3  O   UNL     1      22.817  50.213  39.340  1.00  0.00    -0.550 OA
ATOM      4  O   UNL     1      23.056  51.752  41.020  1.00  0.00    -0.550 OA
ENDBRANCH   1   2
BRANCH   1   5
ATOM      5  C   UNL     1      21.711  52.337  37.673  1.00  0.00     0.059 C 
BRANCH   5   6
ATOM      6  C   UNL     1      20.668  53.389  37.894  1.00  0.00     0.042 C 
ATOM      7  O   UNL     1      20.259  54.089  36.931  1.00  0.00    -0.550 OA
ATOM      8  O   UNL     1      20.177  53.623  39.172  1.00  0.00    -0.550 OA
ENDBRANCH   5   6
ENDBRANCH   1   5
TORSDOF 3
ENDMDL
MODEL 7
REMARK VINA RESULT:    -2.986     22.096     23.187
REMARK INTER + INTRA:          -3.614
REMARK INTER:                  -3.501
REMARK INTRA:                  -0.113
REMARK UNBOUND:                -0.104
REMARK SMILES O=C([O-])CCC(=O)[O-]
REMARK SMILES IDX 4 1 2 2 1 3 3 4 5 5 6 6 7 7 8 8
REMARK H PARENT
REMARK Flexibility Score: inf
ROOT
ATOM      1  C   UNL     1       9.849  58.282  42.766  1.00  0.00     0.059 C 
ENDROOT
BRANCH   1   2
ATOM      2  C   UNL     1       8.954  57.211  42.222  1.00  0.00     0.042 C 
ATOM      3  O   UNL     1       7.875  57.518  41.650  1.00  0.00    -0.550 OA
ATOM      4  O   UNL     1       9.330  55.877  42.311  1.00  0.00    -0.550 OA
ENDBRANCH   1   2
BRANCH   1   5
ATOM      5  C   UNL     1      10.655  58.963  41.656  1.00  0.00     0.059 C 
BRANCH   5   6
ATOM      6  C   UNL     1      10.138  60.338  41.362  1.00  0.00     0.042 C 
ATOM      7  O   UNL     1       8.996  60.685  41.762  1.00  0.00    -0.550 OA
ATOM      8  O   UNL     1      10.901  61.222  40.610  1.00  0.00    -0.550 OA
ENDBRANCH   5   6
ENDBRANCH   1   5
TORSDOF 3
ENDMDL
MODEL 8
REMARK VINA RESULT:    -2.974     11.604     13.241
REMARK INTER + INTRA:          -3.599
REMARK INTER:                  -3.534
REMARK INTRA:                  -0.065
REMARK UNBOUND:                -0.104
REMARK SMILES O=C([O-])CCC(=O)[O-]
REMARK SMILES IDX 4 1 2 2 1 3 3 4 5 5 6 6 7 7 8 8
REMARK H PARENT
REMARK Flexibility Score: inf
ROOT
ATOM      1  C   UNL     1      13.861  52.941  29.602  1.00  0.00     0.059 C 
ENDROOT
BRANCH   1   2
ATOM      2  C   UNL     1      15.059  53.711  30.066  1.00  0.00     0.042 C 
ATOM      3  O   UNL     1      15.690  54.444  29.261  1.00  0.00    -0.550 OA
ATOM      4  O   UNL     1      15.453  53.652  31.397  1.00  0.00    -0.550 OA
ENDBRANCH   1   2
BRANCH   1   5
ATOM      5  C   UNL     1      13.037  53.735  28.583  1.00  0.00     0.059 C 
BRANCH   5   6
ATOM      6  C   UNL     1      12.605  52.878  27.434  1.00  0.00     0.042 C 
ATOM      7  O   UNL     1      12.925  51.661  27.394  1.00  0.00    -0.550 OA
ATOM      8  O   UNL     1      11.883  53.433  26.385  1.00  0.00    -0.550 OA
ENDBRANCH   5   6
ENDBRANCH   1   5
TORSDOF 3
ENDMDL
