MODEL 1
REMARK VINA RESULT:    -4.115      0.000      0.000
REMARK INTER + INTRA:          -7.813
REMARK INTER:                  -6.641
REMARK INTRA:                  -1.172
REMARK UNBOUND:                -1.172
REMARK SMILES CCCCCCCCCCCCO
REMARK SMILES IDX 7 1 6 2 5 3 4 4 3 5 2 6 1 7 8 8 9 9 10 10 11 11 12 12 13 13
REMARK H PARENT 13 14
REMARK Flexibility Score: inf
ROOT
ATOM      1  C   UNL     1       8.528 -26.591  51.655  1.00  0.00     0.000 C 
ENDROOT
BRANCH   1   2
ATOM      2  C   UNL     1       8.973 -28.058  51.545  1.00  0.00    -0.000 C 
BRANCH   2   3
ATOM      3  C   UNL     1      10.451 -28.202  51.148  1.00  0.00    -0.000 C 
BRANCH   3   4
ATOM      4  C   UNL     1      11.295 -28.677  52.337  1.00  0.00    -0.000 C 
BRANCH   4   5
ATOM      5  C   UNL     1      11.773 -27.487  53.182  1.00  0.00    -0.000 C 
BRANCH   5   6
ATOM      6  C   UNL     1      11.367 -27.612  54.660  1.00  0.00    -0.003 C 
ATOM      7  C   UNL     1      10.496 -28.838  54.932  1.00  0.00     0.004 C 
ENDBRANCH   5   6
ENDBRANCH   4   5
ENDBRANCH   3   4
ENDBRANCH   2   3
ENDBRANCH   1   2
BRANCH   1   8
ATOM      8  C   UNL     1       8.181 -26.186  53.098  1.00  0.00     0.000 C 
BRANCH   8   9
ATOM      9  C   UNL     1       8.769 -24.819  53.486  1.00  0.00     0.000 C 
BRANCH   9  10
ATOM     10  C   UNL     1       9.037 -24.694  54.996  1.00  0.00     0.002 C 
BRANCH  10  11
ATOM     11  C   UNL     1       7.995 -23.819  55.709  1.00  0.00     0.028 C 
BRANCH  11  12
ATOM     12  C   UNL     1       8.531 -22.427  56.059  1.00  0.00     0.156 C 
BRANCH  12  13
ATOM     13  O   UNL     1       9.833 -22.524  56.570  1.00  0.00    -0.396 OA
ATOM     14  H   UNL     1      10.449 -22.336  55.815  1.00  0.00     0.210 HD
ENDBRANCH  12  13
ENDBRANCH  11  12
ENDBRANCH  10  11
ENDBRANCH   9  10
ENDBRANCH   8   9
ENDBRANCH   1   8
TORSDOF 11
ENDMDL
MODEL 2
REMARK VINA RESULT:    -4.041      1.170      1.696
REMARK INTER + INTRA:          -7.693
REMARK INTER:                  -6.455
REMARK INTRA:                  -1.238
REMARK UNBOUND:                -1.172
REMARK SMILES CCCCCCCCCCCCO
REMARK SMILES IDX 7 1 6 2 5 3 4 4 3 5 2 6 1 7 8 8 9 9 10 10 11 11 12 12 13 13
REMARK H PARENT 13 14
REMARK Flexibility Score: inf
ROOT
ATOM      1  C   UNL     1       9.074 -28.054  51.421  1.00  0.00     0.000 C 
ENDROOT
BRANCH   1   2
ATOM      2  C   UNL     1      10.195 -27.529  50.508  1.00  0.00    -0.000 C 
BRANCH   2   3
ATOM      3  C   UNL     1      11.598 -27.862  51.040  1.00  0.00    -0.000 C 
BRANCH   3   4
ATOM      4  C   UNL     1      11.988 -26.921  52.186  1.00  0.00    -0.000 C 
BRANCH   4   5
ATOM      5  C   UNL     1      12.285 -27.711  53.469  1.00  0.00    -0.000 C 
BRANCH   5   6
ATOM      6  C   UNL     1      11.206 -27.514  54.547  1.00  0.00    -0.003 C 
ATOM      7  C   UNL     1      10.455 -28.804  54.873  1.00  0.00     0.004 C 
ENDBRANCH   5   6
ENDBRANCH   4   5
ENDBRANCH   3   4
ENDBRANCH   2   3
ENDBRANCH   1   2
BRANCH   1   8
ATOM      8  C   UNL     1       8.253 -26.920  52.058  1.00  0.00     0.000 C 
BRANCH   8   9
ATOM      9  C   UNL     1       8.606 -25.539  51.482  1.00  0.00     0.000 C 
BRANCH   9  10
ATOM     10  C   UNL     1       8.749 -24.460  52.571  1.00  0.00     0.002 C 
BRANCH  10  11
ATOM     11  C   UNL     1       8.033 -24.841  53.875  1.00  0.00     0.028 C 
BRANCH  11  12
ATOM     12  C   UNL     1       8.609 -24.121  55.099  1.00  0.00     0.156 C 
BRANCH  12  13
ATOM     13  O   UNL     1       9.760 -24.781  55.550  1.00  0.00    -0.396 OA
ATOM     14  H   UNL     1       9.827 -25.624  55.030  1.00  0.00     0.210 HD
ENDBRANCH  12  13
ENDBRANCH  11  12
ENDBRANCH  10  11
ENDBRANCH   9  10
ENDBRANCH   8   9
ENDBRANCH   1   8
TORSDOF 11
ENDMDL
MODEL 3
REMARK VINA RESULT:    -3.953      1.581      2.203
REMARK INTER + INTRA:          -7.551
REMARK INTER:                  -6.182
REMARK INTRA:                  -1.369
REMARK UNBOUND:                -1.172
REMARK SMILES CCCCCCCCCCCCO
REMARK SMILES IDX 7 1 6 2 5 3 4 4 3 5 2 6 1 7 8 8 9 9 10 10 11 11 12 12 13 13
REMARK H PARENT 13 14
REMARK Flexibility Score: inf
ROOT
ATOM      1  C   UNL     1       9.749 -25.934  49.906  1.00  0.00     0.000 C 
ENDROOT
BRANCH   1   2
ATOM      2  C   UNL     1      10.538 -27.248  50.027  1.00  0.00    -0.000 C 
BRANCH   2   3
ATOM      3  C   UNL     1       9.879 -28.249  50.988  1.00  0.00    -0.000 C 
BRANCH   3   4
ATOM      4  C   UNL     1      10.896 -28.786  52.003  1.00  0.00    -0.000 C 
BRANCH   4   5
ATOM      5  C   UNL     1      11.557 -27.638  52.779  1.00  0.00    -0.000 C 
BRANCH   5   6
ATOM      6  C   UNL     1      11.934 -28.036  54.215  1.00  0.00    -0.003 C 
ATOM      7  C   UNL     1      10.751 -28.601  55.001  1.00  0.00     0.004 C 
ENDBRANCH   5   6
ENDBRANCH   4   5
ENDBRANCH   3   4
ENDBRANCH   2   3
ENDBRANCH   1   2
BRANCH   1   8
ATOM      8  C   UNL     1      10.489 -24.741  50.535  1.00  0.00     0.000 C 
BRANCH   8   9
ATOM      9  C   UNL     1       9.934 -24.365  51.919  1.00  0.00     0.000 C 
BRANCH   9  10
ATOM     10  C   UNL     1       8.550 -24.981  52.191  1.00  0.00     0.002 C 
BRANCH  10  11
ATOM     11  C   UNL     1       8.489 -25.722  53.535  1.00  0.00     0.028 C 
BRANCH  11  12
ATOM     12  C   UNL     1       8.786 -24.808  54.729  1.00  0.00     0.156 C 
BRANCH  12  13
ATOM     13  O   UNL     1       9.966 -25.214  55.367  1.00  0.00    -0.396 OA
ATOM     14  H   UNL     1       9.765 -26.077  55.813  1.00  0.00     0.210 HD
ENDBRANCH  12  13
ENDBRANCH  11  12
ENDBRANCH  10  11
ENDBRANCH   9  10
ENDBRANCH   8   9
ENDBRANCH   1   8
TORSDOF 11
ENDMDL
MODEL 4
REMARK VINA RESULT:    -3.882      1.462      2.627
REMARK INTER + INTRA:          -7.437
REMARK INTER:                  -6.007
REMARK INTRA:                  -1.430
REMARK UNBOUND:                -1.172
REMARK SMILES CCCCCCCCCCCCO
REMARK SMILES IDX 7 1 6 2 5 3 4 4 3 5 2 6 1 7 8 8 9 9 10 10 11 11 12 12 13 13
REMARK H PARENT 13 14
REMARK Flexibility Score: inf
ROOT
ATOM      1  C   UNL     1      11.163 -27.919  50.511  1.00  0.00     0.000 C 
ENDROOT
BRANCH   1   2
ATOM      2  C   UNL     1      11.834 -26.602  50.933  1.00  0.00    -0.000 C 
BRANCH   2   3
ATOM      3  C   UNL     1      12.553 -26.710  52.287  1.00  0.00    -0.000 C 
BRANCH   3   4
ATOM      4  C   UNL     1      13.309 -28.039  52.402  1.00  0.00    -0.000 C 
BRANCH   4   5
ATOM      5  C   UNL     1      12.841 -28.834  53.630  1.00  0.00    -0.000 C 
BRANCH   5   6
ATOM      6  C   UNL     1      11.882 -28.030  54.523  1.00  0.00    -0.003 C 
ATOM      7  C   UNL     1      10.607 -28.801  54.864  1.00  0.00     0.004 C 
ENDBRANCH   5   6
ENDBRANCH   4   5
ENDBRANCH   3   4
ENDBRANCH   2   3
ENDBRANCH   1   2
BRANCH   1   8
ATOM      8  C   UNL     1       9.857 -28.189  51.277  1.00  0.00     0.000 C 
BRANCH   8   9
ATOM      9  C   UNL     1       8.977 -26.934  51.403  1.00  0.00     0.000 C 
BRANCH   9  10
ATOM     10  C   UNL     1       8.660 -26.575  52.866  1.00  0.00     0.002 C 
BRANCH  10  11
ATOM     11  C   UNL     1       9.051 -25.131  53.216  1.00  0.00     0.028 C 
BRANCH  11  12
ATOM     12  C   UNL     1       8.855 -24.808  54.701  1.00  0.00     0.156 C 
BRANCH  12  13
ATOM     13  O   UNL     1       9.919 -25.322  55.453  1.00  0.00    -0.396 OA
ATOM     14  H   UNL     1       9.593 -26.161  55.871  1.00  0.00     0.210 HD
ENDBRANCH  12  13
ENDBRANCH  11  12
ENDBRANCH  10  11
ENDBRANCH   9  10
ENDBRANCH   8   9
ENDBRANCH   1   8
TORSDOF 11
ENDMDL
MODEL 5
REMARK VINA RESULT:    -3.879      1.701      4.609
REMARK INTER + INTRA:          -7.432
REMARK INTER:                  -6.318
REMARK INTRA:                  -1.115
REMARK UNBOUND:                -1.172
REMARK SMILES CCCCCCCCCCCCO
REMARK SMILES IDX 7 1 6 2 5 3 4 4 3 5 2 6 1 7 8 8 9 9 10 10 11 11 12 12 13 13
REMARK H PARENT 13 14
REMARK Flexibility Score: inf
ROOT
ATOM      1  C   UNL     1       9.539 -27.263  51.061  1.00  0.00     0.000 C 
ENDROOT
BRANCH   1   2
ATOM      2  C   UNL     1       8.221 -27.415  51.837  1.00  0.00    -0.000 C 
BRANCH   2   3
ATOM      3  C   UNL     1       8.099 -26.418  53.001  1.00  0.00    -0.000 C 
BRANCH   3   4
ATOM      4  C   UNL     1       8.388 -24.987  52.530  1.00  0.00    -0.000 C 
BRANCH   4   5
ATOM      5  C   UNL     1       9.233 -24.228  53.564  1.00  0.00    -0.000 C 
BRANCH   5   6
ATOM      6  C   UNL     1       8.879 -24.609  55.010  1.00  0.00    -0.003 C 
ATOM      7  C   UNL     1       7.934 -23.607  55.671  1.00  0.00     0.004 C 
ENDBRANCH   5   6
ENDBRANCH   4   5
ENDBRANCH   3   4
ENDBRANCH   2   3
ENDBRANCH   1   2
BRANCH   1   8
ATOM      8  C   UNL     1      10.466 -28.479  51.229  1.00  0.00     0.000 C 
BRANCH   8   9
ATOM      9  C   UNL     1       9.875 -29.547  52.165  1.00  0.00     0.000 C 
BRANCH   9  10
ATOM     10  C   UNL     1      10.753 -29.803  53.403  1.00  0.00     0.002 C 
BRANCH  10  11
ATOM     11  C   UNL     1      10.436 -28.841  54.558  1.00  0.00     0.028 C 
BRANCH  11  12
ATOM     12  C   UNL     1      11.612 -27.921  54.902  1.00  0.00     0.156 C 
BRANCH  12  13
ATOM     13  O   UNL     1      11.600 -26.791  54.074  1.00  0.00    -0.396 OA
ATOM     14  H   UNL     1      11.248 -27.087  53.194  1.00  0.00     0.210 HD
ENDBRANCH  12  13
ENDBRANCH  11  12
ENDBRANCH  10  11
ENDBRANCH   9  10
ENDBRANCH   8   9
ENDBRANCH   1   8
TORSDOF 11
ENDMDL
MODEL 6
REMARK VINA RESULT:    -3.808      2.091      4.500
REMARK INTER + INTRA:          -7.318
REMARK INTER:                  -6.029
REMARK INTRA:                  -1.288
REMARK UNBOUND:                -1.172
REMARK SMILES CCCCCCCCCCCCO
REMARK SMILES IDX 7 1 6 2 5 3 4 4 3 5 2 6 1 7 8 8 9 9 10 10 11 11 12 12 13 13
REMARK H PARENT 13 14
REMARK Flexibility Score: inf
ROOT
ATOM      1  C   UNL     1       9.545 -28.804  51.880  1.00  0.00     0.000 C 
ENDROOT
BRANCH   1   2
ATOM      2  C   UNL     1      10.314 -28.066  50.772  1.00  0.00    -0.000 C 
BRANCH   2   3
ATOM      3  C   UNL     1       9.673 -26.720  50.400  1.00  0.00    -0.000 C 
BRANCH   3   4
ATOM      4  C   UNL     1       8.572 -26.342  51.399  1.00  0.00    -0.000 C 
BRANCH   4   5
ATOM      5  C   UNL     1       9.093 -25.342  52.440  1.00  0.00    -0.000 C 
BRANCH   5   6
ATOM      6  C   UNL     1       8.402 -25.496  53.805  1.00  0.00    -0.003 C 
ATOM      7  C   UNL     1       9.091 -24.695  54.909  1.00  0.00     0.004 C 
ENDBRANCH   5   6
ENDBRANCH   4   5
ENDBRANCH   3   4
ENDBRANCH   2   3
ENDBRANCH   1   2
BRANCH   1   8
ATOM      8  C   UNL     1      10.476 -29.386  52.957  1.00  0.00     0.000 C 
BRANCH   8   9
ATOM      9  C   UNL     1      10.491 -28.542  54.243  1.00  0.00     0.000 C 
BRANCH   9  10
ATOM     10  C   UNL     1      11.569 -27.444  54.219  1.00  0.00     0.002 C 
BRANCH  10  11
ATOM     11  C   UNL     1      12.911 -27.947  53.666  1.00  0.00     0.028 C 
BRANCH  11  12
ATOM     12  C   UNL     1      13.423 -27.102  52.494  1.00  0.00     0.156 C 
BRANCH  12  13
ATOM     13  O   UNL     1      13.915 -25.876  52.961  1.00  0.00    -0.396 OA
ATOM     14  H   UNL     1      13.860 -25.906  53.952  1.00  0.00     0.210 HD
ENDBRANCH  12  13
ENDBRANCH  11  12
ENDBRANCH  10  11
ENDBRANCH   9  10
ENDBRANCH   8   9
ENDBRANCH   1   8
TORSDOF 11
ENDMDL
MODEL 7
REMARK VINA RESULT:    -3.779      1.896      2.821
REMARK INTER + INTRA:          -7.270
REMARK INTER:                  -6.287
REMARK INTRA:                  -0.983
REMARK UNBOUND:                -1.172
REMARK SMILES CCCCCCCCCCCCO
REMARK SMILES IDX 7 1 6 2 5 3 4 4 3 5 2 6 1 7 8 8 9 9 10 10 11 11 12 12 13 13
REMARK H PARENT 13 14
REMARK Flexibility Score: inf
ROOT
ATOM      1  C   UNL     1       9.654 -24.922  51.583  1.00  0.00     0.000 C 
ENDROOT
BRANCH   1   2
ATOM      2  C   UNL     1       8.283 -25.604  51.711  1.00  0.00    -0.000 C 
BRANCH   2   3
ATOM      3  C   UNL     1       8.365 -26.979  52.395  1.00  0.00    -0.000 C 
BRANCH   3   4
ATOM      4  C   UNL     1       8.834 -28.055  51.408  1.00  0.00    -0.000 C 
BRANCH   4   5
ATOM      5  C   UNL     1       9.786 -29.048  52.089  1.00  0.00    -0.000 C 
BRANCH   5   6
ATOM      6  C   UNL     1      11.119 -29.198  51.338  1.00  0.00    -0.003 C 
ATOM      7  C   UNL     1      11.381 -28.049  50.365  1.00  0.00     0.004 C 
ENDBRANCH   5   6
ENDBRANCH   4   5
ENDBRANCH   3   4
ENDBRANCH   2   3
ENDBRANCH   1   2
BRANCH   1   8
ATOM      8  C   UNL     1       9.626 -23.452  52.035  1.00  0.00     0.000 C 
BRANCH   8   9
ATOM      9  C   UNL     1       8.197 -22.932  52.264  1.00  0.00     0.000 C 
BRANCH   9  10
ATOM     10  C   UNL     1       7.965 -22.449  53.707  1.00  0.00     0.002 C 
BRANCH  10  11
ATOM     11  C   UNL     1       7.668 -23.604  54.675  1.00  0.00     0.028 C 
BRANCH  11  12
ATOM     12  C   UNL     1       8.786 -23.819  55.702  1.00  0.00     0.156 C 
BRANCH  12  13
ATOM     13  O   UNL     1       9.549 -24.943  55.358  1.00  0.00    -0.396 OA
ATOM     14  H   UNL     1       8.979 -25.737  55.533  1.00  0.00     0.210 HD
ENDBRANCH  12  13
ENDBRANCH  11  12
ENDBRANCH  10  11
ENDBRANCH   9  10
ENDBRANCH   8   9
ENDBRANCH   1   8
TORSDOF 11
ENDMDL
MODEL 8
REMARK VINA RESULT:    -3.768      2.340      5.096
REMARK INTER + INTRA:          -7.253
REMARK INTER:                  -6.471
REMARK INTRA:                  -0.782
REMARK UNBOUND:                -1.172
REMARK SMILES CCCCCCCCCCCCO
REMARK SMILES IDX 7 1 6 2 5 3 4 4 3 5 2 6 1 7 8 8 9 9 10 10 11 11 12 12 13 13
REMARK H PARENT 13 14
REMARK Flexibility Score: inf
ROOT
ATOM      1  C   UNL     1       8.276 -26.198  53.371  1.00  0.00     0.000 C 
ENDROOT
BRANCH   1   2
ATOM      2  C   UNL     1       8.363 -25.526  51.991  1.00  0.00    -0.000 C 
BRANCH   2   3
ATOM      3  C   UNL     1       8.938 -24.102  52.059  1.00  0.00    -0.000 C 
BRANCH   3   4
ATOM      4  C   UNL     1       8.246 -23.283  53.156  1.00  0.00    -0.000 C 
BRANCH   4   5
ATOM      5  C   UNL     1       9.268 -22.472  53.965  1.00  0.00    -0.000 C 
BRANCH   5   6
ATOM      6  C   UNL     1       9.119 -22.676  55.481  1.00  0.00    -0.003 C 
ATOM      7  C   UNL     1       7.860 -23.461  55.850  1.00  0.00     0.004 C 
ENDBRANCH   5   6
ENDBRANCH   4   5
ENDBRANCH   3   4
ENDBRANCH   2   3
ENDBRANCH   1   2
BRANCH   1   8
ATOM      8  C   UNL     1       9.645 -26.297  54.066  1.00  0.00     0.000 C 
BRANCH   8   9
ATOM      9  C   UNL     1      10.404 -27.582  53.694  1.00  0.00     0.000 C 
BRANCH   9  10
ATOM     10  C   UNL     1      11.668 -27.793  54.548  1.00  0.00     0.002 C 
BRANCH  10  11
ATOM     11  C   UNL     1      12.931 -27.973  53.693  1.00  0.00     0.028 C 
BRANCH  11  12
ATOM     12  C   UNL     1      13.036 -26.942  52.564  1.00  0.00     0.156 C 
BRANCH  12  13
ATOM     13  O   UNL     1      13.885 -25.894  52.944  1.00  0.00    -0.396 OA
ATOM     14  H   UNL     1      14.813 -26.228  52.839  1.00  0.00     0.210 HD
ENDBRANCH  12  13
ENDBRANCH  11  12
ENDBRANCH  10  11
ENDBRANCH   9  10
ENDBRANCH   8   9
ENDBRANCH   1   8
TORSDOF 11
ENDMDL
MODEL 9
REMARK VINA RESULT:    -3.720      1.901      3.078
REMARK INTER + INTRA:          -7.175
REMARK INTER:                  -5.777
REMARK INTRA:                  -1.398
REMARK UNBOUND:                -1.172
REMARK SMILES CCCCCCCCCCCCO
REMARK SMILES IDX 7 1 6 2 5 3 4 4 3 5 2 6 1 7 8 8 9 9 10 10 11 11 12 12 13 13
REMARK H PARENT 13 14
REMARK Flexibility Score: inf
ROOT
ATOM      1  C   UNL     1       9.593 -26.321  54.029  1.00  0.00     0.000 C 
ENDROOT
BRANCH   1   2
ATOM      2  C   UNL     1      10.388 -27.554  54.489  1.00  0.00    -0.000 C 
BRANCH   2   3
ATOM      3  C   UNL     1      11.877 -27.474  54.118  1.00  0.00    -0.000 C 
BRANCH   3   4
ATOM      4  C   UNL     1      12.107 -27.931  52.672  1.00  0.00    -0.000 C 
BRANCH   4   5
ATOM      5  C   UNL     1      12.492 -26.746  51.775  1.00  0.00    -0.000 C 
BRANCH   5   6
ATOM      6  C   UNL     1      11.661 -26.689  50.483  1.00  0.00    -0.003 C 
ATOM      7  C   UNL     1      10.713 -27.878  50.337  1.00  0.00     0.004 C 
ENDBRANCH   5   6
ENDBRANCH   4   5
ENDBRANCH   3   4
ENDBRANCH   2   3
ENDBRANCH   1   2
BRANCH   1   8
ATOM      8  C   UNL     1       8.495 -26.673  53.012  1.00  0.00     0.000 C 
BRANCH   8   9
ATOM      9  C   UNL     1       8.232 -25.536  52.010  1.00  0.00     0.000 C 
BRANCH   9  10
ATOM     10  C   UNL     1       9.277 -24.410  52.103  1.00  0.00     0.002 C 
BRANCH  10  11
ATOM     11  C   UNL     1       8.636 -23.021  52.245  1.00  0.00     0.028 C 
BRANCH  11  12
ATOM     12  C   UNL     1       8.107 -22.755  53.659  1.00  0.00     0.156 C 
BRANCH  12  13
ATOM     13  O   UNL     1       6.709 -22.846  53.677  1.00  0.00    -0.396 OA
ATOM     14  H   UNL     1       6.397 -22.289  54.437  1.00  0.00     0.210 HD
ENDBRANCH  12  13
ENDBRANCH  11  12
ENDBRANCH  10  11
ENDBRANCH   9  10
ENDBRANCH   8   9
ENDBRANCH   1   8
TORSDOF 11
ENDMDL
