MODEL 1
REMARK VINA RESULT:    -4.158      0.000      0.000
REMARK INTER + INTRA:          -4.422
REMARK INTER:                  -4.401
REMARK INTRA:                  -0.021
REMARK UNBOUND:                -0.021
REMARK SMILES O=C([O-])c1cccnc1
REMARK SMILES IDX 4 1 5 2 9 3 6 4 8 5 7 6 2 7 1 8 3 9
REMARK H PARENT
REMARK Flexibility Score: inf
ROOT
ATOM      1  C   UNL     1      18.086  21.992  23.368  1.00  0.00     0.016 A 
ATOM      2  C   UNL     1      19.279  21.492  22.822  1.00  0.00     0.013 A 
ATOM      3  C   UNL     1      16.993  22.198  22.508  1.00  0.00     0.120 A 
ATOM      4  C   UNL     1      19.362  21.210  21.458  1.00  0.00     0.021 A 
ATOM      5  N   UNL     1      17.100  21.916  21.182  1.00  0.00    -0.264 NA
ATOM      6  C   UNL     1      18.251  21.432  20.644  1.00  0.00     0.111 A 
ENDROOT
BRANCH   1   7
ATOM      7  C   UNL     1      17.986  22.294  24.812  1.00  0.00     0.073 C 
ATOM      8  O   UNL     1      18.973  22.759  25.439  1.00  0.00    -0.545 OA
ATOM      9  O   UNL     1      16.796  22.068  25.497  1.00  0.00    -0.545 OA
ENDBRANCH   1   7
TORSDOF 1
ENDMDL
MODEL 2
REMARK VINA RESULT:    -4.063     14.134     14.844
REMARK INTER + INTRA:          -4.322
REMARK INTER:                  -4.299
REMARK INTRA:                  -0.023
REMARK UNBOUND:                -0.021
REMARK SMILES O=C([O-])c1cccnc1
REMARK SMILES IDX 4 1 5 2 9 3 6 4 8 5 7 6 2 7 1 8 3 9
REMARK H PARENT
REMARK Flexibility Score: inf
ROOT
ATOM      1  C   UNL     1      28.406  31.333  18.120  1.00  0.00     0.016 A 
ATOM      2  C   UNL     1      27.592  32.165  17.335  1.00  0.00     0.013 A 
ATOM      3  C   UNL     1      27.974  30.017  18.367  1.00  0.00     0.120 A 
ATOM      4  C   UNL     1      26.388  31.686  16.819  1.00  0.00     0.021 A 
ATOM      5  N   UNL     1      26.796  29.574  17.852  1.00  0.00    -0.264 NA
ATOM      6  C   UNL     1      26.001  30.373  17.092  1.00  0.00     0.111 A 
ENDROOT
BRANCH   1   7
ATOM      7  C   UNL     1      29.684  31.830  18.673  1.00  0.00     0.073 C 
ATOM      8  O   UNL     1      30.250  31.225  19.621  1.00  0.00    -0.545 OA
ATOM      9  O   UNL     1      30.279  32.974  18.151  1.00  0.00    -0.545 OA
ENDBRANCH   1   7
TORSDOF 1
ENDMDL
MODEL 3
REMARK VINA RESULT:    -4.054      2.145      2.768
REMARK INTER + INTRA:          -4.312
REMARK INTER:                  -4.295
REMARK INTRA:                  -0.016
REMARK UNBOUND:                -0.021
REMARK SMILES O=C([O-])c1cccnc1
REMARK SMILES IDX 4 1 5 2 9 3 6 4 8 5 7 6 2 7 1 8 3 9
REMARK H PARENT
REMARK Flexibility Score: inf
ROOT
ATOM      1  C   UNL     1      19.434  20.845  23.499  1.00  0.00     0.016 A 
ATOM      2  C   UNL     1      19.152  21.394  22.238  1.00  0.00     0.013 A 
ATOM      3  C   UNL     1      20.487  19.918  23.603  1.00  0.00     0.120 A 
ATOM      4  C   UNL     1      19.906  21.020  21.125  1.00  0.00     0.021 A 
ATOM      5  N   UNL     1      21.206  19.571  22.503  1.00  0.00    -0.264 NA
ATOM      6  C   UNL     1      20.940  20.096  21.278  1.00  0.00     0.111 A 
ENDROOT
BRANCH   1   7
ATOM      7  C   UNL     1      18.642  21.233  24.686  1.00  0.00     0.073 C 
ATOM      8  O   UNL     1      17.764  20.459  25.151  1.00  0.00    -0.545 OA
ATOM      9  O   UNL     1      18.858  22.459  25.305  1.00  0.00    -0.545 OA
ENDBRANCH   1   7
TORSDOF 1
ENDMDL
MODEL 4
REMARK VINA RESULT:    -4.036     13.551     14.537
REMARK INTER + INTRA:          -4.293
REMARK INTER:                  -4.270
REMARK INTRA:                  -0.024
REMARK UNBOUND:                -0.021
REMARK SMILES O=C([O-])c1cccnc1
REMARK SMILES IDX 4 1 5 2 9 3 6 4 8 5 7 6 2 7 1 8 3 9
REMARK H PARENT
REMARK Flexibility Score: inf
ROOT
ATOM      1  C   UNL     1      21.165  33.451  30.229  1.00  0.00     0.016 A 
ATOM      2  C   UNL     1      20.891  32.319  31.013  1.00  0.00     0.013 A 
ATOM      3  C   UNL     1      20.844  34.718  30.750  1.00  0.00     0.120 A 
ATOM      4  C   UNL     1      20.315  32.463  32.276  1.00  0.00     0.021 A 
ATOM      5  N   UNL     1      20.284  34.830  31.983  1.00  0.00    -0.264 NA
ATOM      6  C   UNL     1      20.015  33.740  32.750  1.00  0.00     0.111 A 
ENDROOT
BRANCH   1   7
ATOM      7  C   UNL     1      21.774  33.311  28.889  1.00  0.00     0.073 C 
ATOM      8  O   UNL     1      21.801  32.193  28.310  1.00  0.00    -0.545 OA
ATOM      9  O   UNL     1      22.326  34.416  28.249  1.00  0.00    -0.545 OA
ENDBRANCH   1   7
TORSDOF 1
ENDMDL
MODEL 5
REMARK VINA RESULT:    -3.952      3.594      4.616
REMARK INTER + INTRA:          -4.204
REMARK INTER:                  -4.186
REMARK INTRA:                  -0.018
REMARK UNBOUND:                -0.021
REMARK SMILES O=C([O-])c1cccnc1
REMARK SMILES IDX 4 1 5 2 9 3 6 4 8 5 7 6 2 7 1 8 3 9
REMARK H PARENT
REMARK Flexibility Score: inf
ROOT
ATOM      1  C   UNL     1      20.356  20.339  22.725  1.00  0.00     0.016 A 
ATOM      2  C   UNL     1      19.359  21.280  22.422  1.00  0.00     0.013 A 
ATOM      3  C   UNL     1      20.506  19.933  24.063  1.00  0.00     0.120 A 
ATOM      4  C   UNL     1      18.545  21.791  23.434  1.00  0.00     0.021 A 
ATOM      5  N   UNL     1      19.700  20.447  25.030  1.00  0.00    -0.264 NA
ATOM      6  C   UNL     1      18.733  21.359  24.747  1.00  0.00     0.111 A 
ENDROOT
BRANCH   1   7
ATOM      7  C   UNL     1      21.225  19.791  21.662  1.00  0.00     0.073 C 
ATOM      8  O   UNL     1      20.729  19.160  20.691  1.00  0.00    -0.545 OA
ATOM      9  O   UNL     1      22.603  19.965  21.720  1.00  0.00    -0.545 OA
ENDBRANCH   1   7
TORSDOF 1
ENDMDL
MODEL 6
REMARK VINA RESULT:    -3.915      1.864      2.419
REMARK INTER + INTRA:          -4.165
REMARK INTER:                  -4.149
REMARK INTRA:                  -0.016
REMARK UNBOUND:                -0.021
REMARK SMILES O=C([O-])c1cccnc1
REMARK SMILES IDX 4 1 5 2 9 3 6 4 8 5 7 6 2 7 1 8 3 9
REMARK H PARENT
REMARK Flexibility Score: inf
ROOT
ATOM      1  C   UNL     1      19.410  20.852  23.487  1.00  0.00     0.016 A 
ATOM      2  C   UNL     1      20.433  19.907  23.661  1.00  0.00     0.013 A 
ATOM      3  C   UNL     1      19.214  21.395  22.205  1.00  0.00     0.120 A 
ATOM      4  C   UNL     1      21.227  19.525  22.580  1.00  0.00     0.021 A 
ATOM      5  N   UNL     1      20.002  21.006  21.167  1.00  0.00    -0.264 NA
ATOM      6  C   UNL     1      20.995  20.092  21.326  1.00  0.00     0.111 A 
ENDROOT
BRANCH   1   7
ATOM      7  C   UNL     1      18.561  21.265  24.626  1.00  0.00     0.073 C 
ATOM      8  O   UNL     1      17.575  20.565  24.977  1.00  0.00    -0.545 OA
ATOM      9  O   UNL     1      18.843  22.433  25.326  1.00  0.00    -0.545 OA
ENDBRANCH   1   7
TORSDOF 1
ENDMDL
MODEL 7
REMARK VINA RESULT:    -3.858     17.465     18.132
REMARK INTER + INTRA:          -4.105
REMARK INTER:                  -4.083
REMARK INTRA:                  -0.021
REMARK UNBOUND:                -0.021
REMARK SMILES O=C([O-])c1cccnc1
REMARK SMILES IDX 4 1 5 2 9 3 6 4 8 5 7 6 2 7 1 8 3 9
REMARK H PARENT
REMARK Flexibility Score: inf
ROOT
ATOM      1  C   UNL     1      31.542  32.897  20.312  1.00  0.00     0.016 A 
ATOM      2  C   UNL     1      31.858  34.261  20.415  1.00  0.00     0.013 A 
ATOM      3  C   UNL     1      32.213  31.990  21.152  1.00  0.00     0.120 A 
ATOM      4  C   UNL     1      32.817  34.692  21.333  1.00  0.00     0.021 A 
ATOM      5  N   UNL     1      33.143  32.436  22.039  1.00  0.00    -0.264 NA
ATOM      6  C   UNL     1      33.456  33.754  22.146  1.00  0.00     0.111 A 
ENDROOT
BRANCH   1   7
ATOM      7  C   UNL     1      30.528  32.429  19.342  1.00  0.00     0.073 C 
ATOM      8  O   UNL     1      29.803  31.433  19.604  1.00  0.00    -0.545 OA
ATOM      9  O   UNL     1      30.363  33.083  18.127  1.00  0.00    -0.545 OA
ENDBRANCH   1   7
TORSDOF 1
ENDMDL
MODEL 8
REMARK VINA RESULT:    -3.843     13.830     14.538
REMARK INTER + INTRA:          -4.089
REMARK INTER:                  -4.071
REMARK INTRA:                  -0.018
REMARK UNBOUND:                -0.021
REMARK SMILES O=C([O-])c1cccnc1
REMARK SMILES IDX 4 1 5 2 9 3 6 4 8 5 7 6 2 7 1 8 3 9
REMARK H PARENT
REMARK Flexibility Score: inf
ROOT
ATOM      1  C   UNL     1      28.381  30.880  17.862  1.00  0.00     0.016 A 
ATOM      2  C   UNL     1      28.556  29.575  17.375  1.00  0.00     0.013 A 
ATOM      3  C   UNL     1      27.108  31.469  17.751  1.00  0.00     0.120 A 
ATOM      4  C   UNL     1      27.485  28.892  16.797  1.00  0.00     0.021 A 
ATOM      5  N   UNL     1      26.082  30.782  17.183  1.00  0.00    -0.264 NA
ATOM      6  C   UNL     1      26.242  29.519  16.708  1.00  0.00     0.111 A 
ENDROOT
BRANCH   1   7
ATOM      7  C   UNL     1      29.508  31.615  18.476  1.00  0.00     0.073 C 
ATOM      8  O   UNL     1      29.923  32.691  17.971  1.00  0.00    -0.545 OA
ATOM      9  O   UNL     1      30.125  31.125  19.623  1.00  0.00    -0.545 OA
ENDBRANCH   1   7
TORSDOF 1
ENDMDL
MODEL 9
REMARK VINA RESULT:    -3.781     13.793     14.487
REMARK INTER + INTRA:          -4.023
REMARK INTER:                  -3.999
REMARK INTRA:                  -0.024
REMARK UNBOUND:                -0.021
REMARK SMILES O=C([O-])c1cccnc1
REMARK SMILES IDX 4 1 5 2 9 3 6 4 8 5 7 6 2 7 1 8 3 9
REMARK H PARENT
REMARK Flexibility Score: inf
ROOT
ATOM      1  C   UNL     1      27.393  30.677  17.583  1.00  0.00     0.016 A 
ATOM      2  C   UNL     1      27.705  31.925  17.023  1.00  0.00     0.013 A 
ATOM      3  C   UNL     1      28.307  30.103  18.486  1.00  0.00     0.120 A 
ATOM      4  C   UNL     1      28.895  32.569  17.362  1.00  0.00     0.021 A 
ATOM      5  N   UNL     1      29.460  30.751  18.800  1.00  0.00    -0.264 NA
ATOM      6  C   UNL     1      29.771  31.960  18.262  1.00  0.00     0.111 A 
ENDROOT
BRANCH   1   7
ATOM      7  C   UNL     1      26.135  29.984  17.231  1.00  0.00     0.073 C 
ATOM      8  O   UNL     1      25.267  30.555  16.518  1.00  0.00    -0.545 OA
ATOM      9  O   UNL     1      25.894  28.691  17.682  1.00  0.00    -0.545 OA
ENDBRANCH   1   7
TORSDOF 1
ENDMDL
