MODEL 1
REMARK VINA RESULT:    -4.562      0.000      0.000
REMARK INTER + INTRA:          -6.328
REMARK INTER:                  -6.162
REMARK INTRA:                  -0.166
REMARK UNBOUND:                -0.166
REMARK SMILES CCCCCCCC(=O)[O-]
REMARK SMILES IDX 5 1 6 2 7 3 8 4 9 5 10 6 4 7 3 8 2 9 1 10
REMARK H PARENT
REMARK Flexibility Score: inf
ROOT
ATOM      1  C   UNL     1      12.175   1.995  -1.482  1.00  0.00     0.000 C 
ENDROOT
BRANCH   1   2
ATOM      2  C   UNL     1      11.034   1.855  -2.500  1.00  0.00     0.006 C 
BRANCH   2   3
ATOM      3  C   UNL     1      11.520   1.162  -3.776  1.00  0.00     0.053 C 
BRANCH   3   4
ATOM      4  C   UNL     1      11.360   2.065  -4.958  1.00  0.00     0.041 C 
ATOM      5  O   UNL     1      11.484   1.610  -6.125  1.00  0.00    -0.550 OA
ATOM      6  O   UNL     1      11.023   3.400  -4.771  1.00  0.00    -0.550 OA
ENDBRANCH   3   4
ENDBRANCH   2   3
ENDBRANCH   1   2
BRANCH   1   7
ATOM      7  C   UNL     1      11.943   1.174  -0.200  1.00  0.00     0.000 C 
BRANCH   7   8
ATOM      8  C   UNL     1      13.057   0.167   0.137  1.00  0.00    -0.000 C 
BRANCH   8   9
ATOM      9  C   UNL     1      12.759  -0.651   1.402  1.00  0.00    -0.003 C 
ATOM     10  C   UNL     1      13.666  -0.228   2.555  1.00  0.00     0.004 C 
ENDBRANCH   8   9
ENDBRANCH   7   8
ENDBRANCH   1   7
TORSDOF 6
ENDMDL
MODEL 2
REMARK VINA RESULT:    -4.424      2.242      3.142
REMARK INTER + INTRA:          -6.141
REMARK INTER:                  -5.941
REMARK INTRA:                  -0.200
REMARK UNBOUND:                -0.166
REMARK SMILES CCCCCCCC(=O)[O-]
REMARK SMILES IDX 5 1 6 2 7 3 8 4 9 5 10 6 4 7 3 8 2 9 1 10
REMARK H PARENT
REMARK Flexibility Score: inf
ROOT
ATOM      1  C   UNL     1      12.245   2.416  -1.967  1.00  0.00     0.000 C 
ENDROOT
BRANCH   1   2
ATOM      2  C   UNL     1      11.785   2.423  -3.432  1.00  0.00     0.006 C 
BRANCH   2   3
ATOM      3  C   UNL     1      11.529   0.999  -3.935  1.00  0.00     0.053 C 
BRANCH   3   4
ATOM      4  C   UNL     1      11.562   0.957  -5.430  1.00  0.00     0.041 C 
ATOM      5  O   UNL     1      11.222   1.967  -6.100  1.00  0.00    -0.550 OA
ATOM      6  O   UNL     1      12.017  -0.182  -6.083  1.00  0.00    -0.550 OA
ENDBRANCH   3   4
ENDBRANCH   2   3
ENDBRANCH   1   2
BRANCH   1   7
ATOM      7  C   UNL     1      11.329   1.581  -1.054  1.00  0.00     0.000 C 
BRANCH   7   8
ATOM      8  C   UNL     1       9.988   2.246  -0.695  1.00  0.00    -0.000 C 
BRANCH   8   9
ATOM      9  C   UNL     1      10.021   2.963   0.662  1.00  0.00    -0.003 C 
ATOM     10  C   UNL     1       8.697   3.670   0.942  1.00  0.00     0.004 C 
ENDBRANCH   8   9
ENDBRANCH   7   8
ENDBRANCH   1   7
TORSDOF 6
ENDMDL
MODEL 3
REMARK VINA RESULT:    -4.329      3.345      5.417
REMARK INTER + INTRA:          -6.014
REMARK INTER:                  -5.689
REMARK INTRA:                  -0.324
REMARK UNBOUND:                -0.166
REMARK SMILES CCCCCCCC(=O)[O-]
REMARK SMILES IDX 5 1 6 2 7 3 8 4 9 5 10 6 4 7 3 8 2 9 1 10
REMARK H PARENT
REMARK Flexibility Score: inf
ROOT
ATOM      1  C   UNL     1      11.498   1.610  -0.389  1.00  0.00     0.000 C 
ENDROOT
BRANCH   1   2
ATOM      2  C   UNL     1      10.114   2.273  -0.435  1.00  0.00     0.006 C 
BRANCH   2   3
ATOM      3  C   UNL     1       9.897   3.174   0.783  1.00  0.00     0.053 C 
BRANCH   3   4
ATOM      4  C   UNL     1       8.699   4.049   0.582  1.00  0.00     0.041 C 
ATOM      5  O   UNL     1       8.382   4.898   1.456  1.00  0.00    -0.550 OA
ATOM      6  O   UNL     1       7.963   3.960  -0.592  1.00  0.00    -0.550 OA
ENDBRANCH   3   4
ENDBRANCH   2   3
ENDBRANCH   1   2
BRANCH   1   7
ATOM      7  C   UNL     1      12.225   1.639  -1.746  1.00  0.00     0.000 C 
BRANCH   7   8
ATOM      8  C   UNL     1      11.891   2.850  -2.637  1.00  0.00    -0.000 C 
BRANCH   8   9
ATOM      9  C   UNL     1      11.525   2.451  -4.074  1.00  0.00    -0.003 C 
ATOM     10  C   UNL     1      11.526   0.933  -4.240  1.00  0.00     0.004 C 
ENDBRANCH   8   9
ENDBRANCH   7   8
ENDBRANCH   1   7
TORSDOF 6
ENDMDL
MODEL 4
REMARK VINA RESULT:    -4.324      2.428      3.714
REMARK INTER + INTRA:          -6.007
REMARK INTER:                  -5.625
REMARK INTRA:                  -0.382
REMARK UNBOUND:                -0.166
REMARK SMILES CCCCCCCC(=O)[O-]
REMARK SMILES IDX 5 1 6 2 7 3 8 4 9 5 10 6 4 7 3 8 2 9 1 10
REMARK H PARENT
REMARK Flexibility Score: inf
ROOT
ATOM      1  C   UNL     1      11.449   1.624  -0.325  1.00  0.00     0.000 C 
ENDROOT
BRANCH   1   2
ATOM      2  C   UNL     1      12.275   1.600  -1.619  1.00  0.00     0.006 C 
BRANCH   2   3
ATOM      3  C   UNL     1      11.892   2.766  -2.536  1.00  0.00     0.053 C 
BRANCH   3   4
ATOM      4  C   UNL     1      11.555   2.267  -3.906  1.00  0.00     0.041 C 
ATOM      5  O   UNL     1      11.185   3.073  -4.800  1.00  0.00    -0.550 OA
ATOM      6  O   UNL     1      11.698   0.920  -4.210  1.00  0.00    -0.550 OA
ENDBRANCH   3   4
ENDBRANCH   2   3
ENDBRANCH   1   2
BRANCH   1   7
ATOM      7  C   UNL     1      10.245   2.581  -0.397  1.00  0.00     0.000 C 
BRANCH   7   8
ATOM      8  C   UNL     1       9.785   3.151   0.957  1.00  0.00    -0.000 C 
BRANCH   8   9
ATOM      9  C   UNL     1       9.412   4.638   0.883  1.00  0.00    -0.003 C 
ATOM     10  C   UNL     1       9.982   5.286  -0.376  1.00  0.00     0.004 C 
ENDBRANCH   8   9
ENDBRANCH   7   8
ENDBRANCH   1   7
TORSDOF 6
ENDMDL
MODEL 5
REMARK VINA RESULT:    -4.286      3.160      5.417
REMARK INTER + INTRA:          -5.956
REMARK INTER:                  -5.691
REMARK INTRA:                  -0.265
REMARK UNBOUND:                -0.166
REMARK SMILES CCCCCCCC(=O)[O-]
REMARK SMILES IDX 5 1 6 2 7 3 8 4 9 5 10 6 4 7 3 8 2 9 1 10
REMARK H PARENT
REMARK Flexibility Score: inf
ROOT
ATOM      1  C   UNL     1      12.237   2.018  -2.225  1.00  0.00     0.000 C 
ENDROOT
BRANCH   1   2
ATOM      2  C   UNL     1      11.550   1.710  -0.887  1.00  0.00     0.006 C 
BRANCH   2   3
ATOM      3  C   UNL     1      10.042   1.969  -0.973  1.00  0.00     0.053 C 
BRANCH   3   4
ATOM      4  C   UNL     1       9.676   3.196  -0.201  1.00  0.00     0.041 C 
ATOM      5  O   UNL     1       9.962   4.337  -0.651  1.00  0.00    -0.550 OA
ATOM      6  O   UNL     1       8.973   3.083   0.992  1.00  0.00    -0.550 OA
ENDBRANCH   3   4
ENDBRANCH   2   3
ENDBRANCH   1   2
BRANCH   1   7
ATOM      7  C   UNL     1      11.494   1.425  -3.435  1.00  0.00     0.000 C 
BRANCH   7   8
ATOM      8  C   UNL     1      11.461   2.324  -4.683  1.00  0.00    -0.000 C 
BRANCH   8   9
ATOM      9  C   UNL     1      11.400   1.526  -5.994  1.00  0.00    -0.003 C 
ATOM     10  C   UNL     1      11.833   0.079  -5.776  1.00  0.00     0.004 C 
ENDBRANCH   8   9
ENDBRANCH   7   8
ENDBRANCH   1   7
TORSDOF 6
ENDMDL
MODEL 6
REMARK VINA RESULT:    -4.215      3.428      4.223
REMARK INTER + INTRA:          -5.859
REMARK INTER:                  -5.676
REMARK INTRA:                  -0.183
REMARK UNBOUND:                -0.166
REMARK SMILES CCCCCCCC(=O)[O-]
REMARK SMILES IDX 5 1 6 2 7 3 8 4 9 5 10 6 4 7 3 8 2 9 1 10
REMARK H PARENT
REMARK Flexibility Score: inf
ROOT
ATOM      1  C   UNL     1      10.672   2.019  -2.397  1.00  0.00     0.000 C 
ENDROOT
BRANCH   1   2
ATOM      2  C   UNL     1       9.644   2.296  -1.291  1.00  0.00     0.006 C 
BRANCH   2   3
ATOM      3  C   UNL     1       9.704   3.757  -0.838  1.00  0.00     0.053 C 
BRANCH   3   4
ATOM      4  C   UNL     1       9.361   3.871   0.613  1.00  0.00     0.041 C 
ATOM      5  O   UNL     1       8.574   3.044   1.145  1.00  0.00    -0.550 OA
ATOM      6  O   UNL     1       9.948   4.861   1.391  1.00  0.00    -0.550 OA
ENDBRANCH   3   4
ENDBRANCH   2   3
ENDBRANCH   1   2
BRANCH   1   7
ATOM      7  C   UNL     1      12.051   1.611  -1.847  1.00  0.00     0.000 C 
BRANCH   7   8
ATOM      8  C   UNL     1      12.064   1.197  -0.365  1.00  0.00    -0.000 C 
BRANCH   8   9
ATOM      9  C   UNL     1      13.113   0.120  -0.054  1.00  0.00    -0.003 C 
ATOM     10  C   UNL     1      12.937  -0.426   1.361  1.00  0.00     0.004 C 
ENDBRANCH   8   9
ENDBRANCH   7   8
ENDBRANCH   1   7
TORSDOF 6
ENDMDL
MODEL 7
REMARK VINA RESULT:    -4.182      2.424      2.845
REMARK INTER + INTRA:          -5.815
REMARK INTER:                  -5.578
REMARK INTRA:                  -0.237
REMARK UNBOUND:                -0.166
REMARK SMILES CCCCCCCC(=O)[O-]
REMARK SMILES IDX 5 1 6 2 7 3 8 4 9 5 10 6 4 7 3 8 2 9 1 10
REMARK H PARENT
REMARK Flexibility Score: inf
ROOT
ATOM      1  C   UNL     1      12.176   1.911  -1.611  1.00  0.00     0.000 C 
ENDROOT
BRANCH   1   2
ATOM      2  C   UNL     1      10.865   1.943  -2.409  1.00  0.00     0.006 C 
BRANCH   2   3
ATOM      3  C   UNL     1       9.659   2.083  -1.476  1.00  0.00     0.053 C 
BRANCH   3   4
ATOM      4  C   UNL     1       9.070   3.454  -1.581  1.00  0.00     0.041 C 
ATOM      5  O   UNL     1       9.734   4.458  -1.214  1.00  0.00    -0.550 OA
ATOM      6  O   UNL     1       7.806   3.627  -2.131  1.00  0.00    -0.550 OA
ENDBRANCH   3   4
ENDBRANCH   2   3
ENDBRANCH   1   2
BRANCH   1   7
ATOM      7  C   UNL     1      12.021   1.262  -0.224  1.00  0.00     0.000 C 
BRANCH   7   8
ATOM      8  C   UNL     1      13.046   0.158   0.096  1.00  0.00    -0.000 C 
BRANCH   8   9
ATOM      9  C   UNL     1      12.699  -0.628   1.369  1.00  0.00    -0.003 C 
ATOM     10  C   UNL     1      13.632  -0.253   2.517  1.00  0.00     0.004 C 
ENDBRANCH   8   9
ENDBRANCH   7   8
ENDBRANCH   1   7
TORSDOF 6
ENDMDL
MODEL 8
REMARK VINA RESULT:    -4.166      4.013      5.690
REMARK INTER + INTRA:          -5.793
REMARK INTER:                  -5.568
REMARK INTRA:                  -0.225
REMARK UNBOUND:                -0.166
REMARK SMILES CCCCCCCC(=O)[O-]
REMARK SMILES IDX 5 1 6 2 7 3 8 4 9 5 10 6 4 7 3 8 2 9 1 10
REMARK H PARENT
REMARK Flexibility Score: inf
ROOT
ATOM      1  C   UNL     1      10.337   2.822  -0.415  1.00  0.00     0.000 C 
ENDROOT
BRANCH   1   2
ATOM      2  C   UNL     1       9.788   3.150   0.980  1.00  0.00     0.006 C 
BRANCH   2   3
ATOM      3  C   UNL     1       9.019   4.474   0.971  1.00  0.00     0.053 C 
BRANCH   3   4
ATOM      4  C   UNL     1       9.932   5.612   1.303  1.00  0.00     0.041 C 
ATOM      5  O   UNL     1      10.258   6.443   0.415  1.00  0.00    -0.550 OA
ATOM      6  O   UNL     1      10.381   5.785   2.606  1.00  0.00    -0.550 OA
ENDBRANCH   3   4
ENDBRANCH   2   3
ENDBRANCH   1   2
BRANCH   1   7
ATOM      7  C   UNL     1      11.315   1.633  -0.414  1.00  0.00     0.000 C 
BRANCH   7   8
ATOM      8  C   UNL     1      12.394   1.677  -1.510  1.00  0.00    -0.000 C 
BRANCH   8   9
ATOM      9  C   UNL     1      11.906   2.347  -2.803  1.00  0.00    -0.003 C 
ATOM     10  C   UNL     1      11.603   1.307  -3.879  1.00  0.00     0.004 C 
ENDBRANCH   8   9
ENDBRANCH   7   8
ENDBRANCH   1   7
TORSDOF 6
ENDMDL
MODEL 9
REMARK VINA RESULT:    -4.126      3.118      4.773
REMARK INTER + INTRA:          -5.740
REMARK INTER:                  -5.246
REMARK INTRA:                  -0.494
REMARK UNBOUND:                -0.166
REMARK SMILES CCCCCCCC(=O)[O-]
REMARK SMILES IDX 5 1 6 2 7 3 8 4 9 5 10 6 4 7 3 8 2 9 1 10
REMARK H PARENT
REMARK Flexibility Score: inf
ROOT
ATOM      1  C   UNL     1      10.336   1.924  -0.725  1.00  0.00     0.000 C 
ENDROOT
BRANCH   1   2
ATOM      2  C   UNL     1      10.165   2.852   0.486  1.00  0.00     0.006 C 
BRANCH   2   3
ATOM      3  C   UNL     1       9.040   3.864   0.248  1.00  0.00     0.053 C 
BRANCH   3   4
ATOM      4  C   UNL     1       9.305   4.660  -0.990  1.00  0.00     0.041 C 
ATOM      5  O   UNL     1       8.470   4.661  -1.933  1.00  0.00    -0.550 OA
ATOM      6  O   UNL     1      10.449   5.442  -1.083  1.00  0.00    -0.550 OA
ENDBRANCH   3   4
ENDBRANCH   2   3
ENDBRANCH   1   2
BRANCH   1   7
ATOM      7  C   UNL     1      11.805   1.759  -1.154  1.00  0.00     0.000 C 
BRANCH   7   8
ATOM      8  C   UNL     1      12.228   2.607  -2.367  1.00  0.00    -0.000 C 
BRANCH   8   9
ATOM      9  C   UNL     1      11.304   2.419  -3.579  1.00  0.00    -0.003 C 
ATOM     10  C   UNL     1      11.518   1.053  -4.225  1.00  0.00     0.004 C 
ENDBRANCH   8   9
ENDBRANCH   7   8
ENDBRANCH   1   7
TORSDOF 6
ENDMDL
