MODEL 1
REMARK VINA RESULT:     1.013      0.000      0.000
REMARK INTER + INTRA:           0.885
REMARK INTER:                   1.250
REMARK INTRA:                  -0.365
REMARK UNBOUND:                -0.365
REMARK SMILES O=c1c(O)c(-c2cc(O)c(O)c(O)c2)oc2cc(O)cc(O)c12
REMARK SMILES IDX 5 1 3 2 2 3 1 4 23 5 21 6 20 7 18 8 17 9 16 10 15 11 6 12
REMARK SMILES IDX 7 13 8 14 14 15 10 16 12 17 9 18 11 20 13 22 4 24 22 26
REMARK SMILES IDX 19 28
REMARK H PARENT 9 19 11 21 13 23 4 25 22 27 19 29
REMARK Flexibility Score: inf
ROOT
ATOM      1  C   UNL     1      29.368  37.846  27.291  1.00  0.00     0.180 A 
ATOM      2  C   UNL     1      28.061  38.094  26.839  1.00  0.00     0.208 A 
ATOM      3  C   UNL     1      27.341  37.053  26.232  1.00  0.00     0.238 A 
ATOM      4  O   UNL     1      26.146  37.260  25.897  1.00  0.00    -0.285 OA
ATOM      5  C   UNL     1      27.956  35.793  26.033  1.00  0.00     0.111 A 
ATOM      6  C   UNL     1      27.337  34.679  25.388  1.00  0.00     0.134 A 
ATOM      7  C   UNL     1      28.005  33.449  25.343  1.00  0.00     0.093 A 
ATOM      8  C   UNL     1      29.295  33.309  25.863  1.00  0.00     0.123 A 
ATOM      9  C   UNL     1      29.928  34.404  26.444  1.00  0.00     0.094 A 
ATOM     10  C   UNL     1      29.273  35.634  26.539  1.00  0.00     0.146 A 
ATOM     11  O   UNL     1      29.907  36.645  27.120  1.00  0.00    -0.452 OA
ENDROOT
BRANCH   1  12
ATOM     12  C   UNL     1      30.183  38.890  27.954  1.00  0.00     0.029 A 
ATOM     13  C   UNL     1      31.054  39.677  27.185  1.00  0.00     0.062 A 
ATOM     14  C   UNL     1      31.851  40.655  27.786  1.00  0.00     0.162 A 
ATOM     15  C   UNL     1      30.149  39.071  29.347  1.00  0.00     0.062 A 
ATOM     16  C   UNL     1      31.797  40.848  29.177  1.00  0.00     0.200 A 
ATOM     17  C   UNL     1      30.946  40.048  29.958  1.00  0.00     0.162 A 
BRANCH  14  18
ATOM     18  O   UNL     1      32.692  41.427  26.984  1.00  0.00    -0.504 OA
ATOM     19  H   UNL     1      33.448  41.019  26.445  1.00  0.00     0.293 HD
ENDBRANCH  14  18
BRANCH  16  20
ATOM     20  O   UNL     1      32.594  41.829  29.768  1.00  0.00    -0.502 OA
ATOM     21  H   UNL     1      33.288  41.608  30.473  1.00  0.00     0.293 HD
ENDBRANCH  16  20
BRANCH  17  22
ATOM     22  O   UNL     1      30.898  40.224  31.340  1.00  0.00    -0.504 OA
ATOM     23  H   UNL     1      31.210  39.500  31.979  1.00  0.00     0.293 HD
ENDBRANCH  17  22
ENDBRANCH   1  12
BRANCH   2  24
ATOM     24  O   UNL     1      27.498  39.366  26.975  1.00  0.00    -0.502 OA
ATOM     25  H   UNL     1      28.052  40.214  26.925  1.00  0.00     0.293 HD
ENDBRANCH   2  24
BRANCH   6  26
ATOM     26  O   UNL     1      26.091  34.732  24.759  1.00  0.00    -0.507 OA
ATOM     27  H   UNL     1      25.249  35.101  25.174  1.00  0.00     0.293 HD
ENDBRANCH   6  26
BRANCH   8  28
ATOM     28  O   UNL     1      29.958  32.085  25.797  1.00  0.00    -0.508 OA
ATOM     29  H   UNL     1      30.841  31.934  26.271  1.00  0.00     0.293 HD
ENDBRANCH   8  28
TORSDOF 7
ENDMDL
MODEL 2
REMARK VINA RESULT:     3.343      3.081      5.789
REMARK INTER + INTRA:           3.759
REMARK INTER:                   4.127
REMARK INTRA:                  -0.367
REMARK UNBOUND:                -0.365
REMARK SMILES O=c1c(O)c(-c2cc(O)c(O)c(O)c2)oc2cc(O)cc(O)c12
REMARK SMILES IDX 5 1 3 2 2 3 1 4 23 5 21 6 20 7 18 8 17 9 16 10 15 11 6 12
REMARK SMILES IDX 7 13 8 14 14 15 10 16 12 17 9 18 11 20 13 22 4 24 22 26
REMARK SMILES IDX 19 28
REMARK H PARENT 9 19 11 21 13 23 4 25 22 27 19 29
REMARK Flexibility Score: inf
ROOT
ATOM      1  C   UNL     1      29.451  37.825  26.596  1.00  0.00     0.180 A 
ATOM      2  C   UNL     1      28.128  37.365  26.708  1.00  0.00     0.208 A 
ATOM      3  C   UNL     1      27.480  37.452  27.950  1.00  0.00     0.238 A 
ATOM      4  O   UNL     1      26.273  37.105  28.025  1.00  0.00    -0.285 OA
ATOM      5  C   UNL     1      28.179  37.945  29.078  1.00  0.00     0.111 A 
ATOM      6  C   UNL     1      27.636  38.036  30.396  1.00  0.00     0.134 A 
ATOM      7  C   UNL     1      28.387  38.640  31.412  1.00  0.00     0.093 A 
ATOM      8  C   UNL     1      29.685  39.101  31.173  1.00  0.00     0.123 A 
ATOM      9  C   UNL     1      30.243  38.967  29.905  1.00  0.00     0.094 A 
ATOM     10  C   UNL     1      29.506  38.403  28.861  1.00  0.00     0.146 A 
ATOM     11  O   UNL     1      30.071  38.315  27.663  1.00  0.00    -0.452 OA
ENDROOT
BRANCH   1  12
ATOM     12  C   UNL     1      30.195  37.781  25.316  1.00  0.00     0.029 A 
ATOM     13  C   UNL     1      31.044  36.696  25.050  1.00  0.00     0.062 A 
ATOM     14  C   UNL     1      31.775  36.636  23.859  1.00  0.00     0.162 A 
ATOM     15  C   UNL     1      30.116  38.831  24.386  1.00  0.00     0.062 A 
ATOM     16  C   UNL     1      31.676  37.679  22.922  1.00  0.00     0.200 A 
ATOM     17  C   UNL     1      30.846  38.781  23.190  1.00  0.00     0.162 A 
BRANCH  14  18
ATOM     18  O   UNL     1      32.596  35.533  23.626  1.00  0.00    -0.504 OA
ATOM     19  H   UNL     1      33.491  35.617  23.158  1.00  0.00     0.293 HD
ENDBRANCH  14  18
BRANCH  16  20
ATOM     20  O   UNL     1      32.406  37.610  21.735  1.00  0.00    -0.502 OA
ATOM     21  H   UNL     1      32.053  37.139  20.911  1.00  0.00     0.293 HD
ENDBRANCH  16  20
BRANCH  17  22
ATOM     22  O   UNL     1      30.755  39.825  22.272  1.00  0.00    -0.504 OA
ATOM     23  H   UNL     1      31.113  40.751  22.481  1.00  0.00     0.293 HD
ENDBRANCH  17  22
ENDBRANCH   1  12
BRANCH   2  24
ATOM     24  O   UNL     1      27.481  36.809  25.601  1.00  0.00    -0.502 OA
ATOM     25  H   UNL     1      27.981  36.509  24.772  1.00  0.00     0.293 HD
ENDBRANCH   2  24
BRANCH   6  26
ATOM     26  O   UNL     1      26.387  37.529  30.764  1.00  0.00    -0.507 OA
ATOM     27  H   UNL     1      25.933  37.697  31.648  1.00  0.00     0.293 HD
ENDBRANCH   6  26
BRANCH   8  28
ATOM     28  O   UNL     1      30.430  39.685  32.195  1.00  0.00    -0.508 OA
ATOM     29  H   UNL     1      30.932  39.124  32.873  1.00  0.00     0.293 HD
ENDBRANCH   8  28
TORSDOF 7
ENDMDL
MODEL 3
REMARK VINA RESULT:     3.519      3.095      5.714
REMARK INTER + INTRA:           3.977
REMARK INTER:                   4.330
REMARK INTRA:                  -0.353
REMARK UNBOUND:                -0.365
REMARK SMILES O=c1c(O)c(-c2cc(O)c(O)c(O)c2)oc2cc(O)cc(O)c12
REMARK SMILES IDX 5 1 3 2 2 3 1 4 23 5 21 6 20 7 18 8 17 9 16 10 15 11 6 12
REMARK SMILES IDX 7 13 8 14 14 15 10 16 12 17 9 18 11 20 13 22 4 24 22 26
REMARK SMILES IDX 19 28
REMARK H PARENT 9 19 11 21 13 23 4 25 22 27 19 29
REMARK Flexibility Score: inf
ROOT
ATOM      1  C   UNL     1      29.546  37.784  26.605  1.00  0.00     0.180 A 
ATOM      2  C   UNL     1      28.224  37.316  26.694  1.00  0.00     0.208 A 
ATOM      3  C   UNL     1      27.548  37.412  27.920  1.00  0.00     0.238 A 
ATOM      4  O   UNL     1      26.341  37.059  27.973  1.00  0.00    -0.285 OA
ATOM      5  C   UNL     1      28.219  37.923  29.058  1.00  0.00     0.111 A 
ATOM      6  C   UNL     1      27.647  38.025  30.362  1.00  0.00     0.134 A 
ATOM      7  C   UNL     1      28.371  38.645  31.388  1.00  0.00     0.093 A 
ATOM      8  C   UNL     1      29.671  39.110  31.172  1.00  0.00     0.123 A 
ATOM      9  C   UNL     1      30.258  38.966  29.919  1.00  0.00     0.094 A 
ATOM     10  C   UNL     1      29.548  38.386  28.865  1.00  0.00     0.146 A 
ATOM     11  O   UNL     1      30.139  38.288  27.681  1.00  0.00    -0.452 OA
ENDROOT
BRANCH   1  12
ATOM     12  C   UNL     1      30.318  37.730  25.343  1.00  0.00     0.029 A 
ATOM     13  C   UNL     1      30.188  38.770  24.411  1.00  0.00     0.062 A 
ATOM     14  C   UNL     1      30.889  38.737  23.201  1.00  0.00     0.162 A 
ATOM     15  C   UNL     1      31.136  36.631  25.030  1.00  0.00     0.062 A 
ATOM     16  C   UNL     1      31.722  37.646  22.902  1.00  0.00     0.200 A 
ATOM     17  C   UNL     1      31.841  36.588  23.820  1.00  0.00     0.162 A 
BRANCH  14  18
ATOM     18  O   UNL     1      30.743  39.798  22.307  1.00  0.00    -0.504 OA
ATOM     19  H   UNL     1      29.931  40.405  22.318  1.00  0.00     0.293 HD
ENDBRANCH  14  18
BRANCH  16  20
ATOM     20  O   UNL     1      32.420  37.622  21.694  1.00  0.00    -0.502 OA
ATOM     21  H   UNL     1      32.706  36.756  21.253  1.00  0.00     0.293 HD
ENDBRANCH  16  20
BRANCH  17  22
ATOM     22  O   UNL     1      32.654  35.496  23.523  1.00  0.00    -0.504 OA
ATOM     23  H   UNL     1      32.951  35.295  22.575  1.00  0.00     0.293 HD
ENDBRANCH  17  22
ENDBRANCH   1  12
BRANCH   2  24
ATOM     24  O   UNL     1      27.605  36.744  25.579  1.00  0.00    -0.502 OA
ATOM     25  H   UNL     1      27.169  37.301  24.853  1.00  0.00     0.293 HD
ENDBRANCH   2  24
BRANCH   6  26
ATOM     26  O   UNL     1      26.393  37.514  30.708  1.00  0.00    -0.507 OA
ATOM     27  H   UNL     1      26.202  36.548  30.923  1.00  0.00     0.293 HD
ENDBRANCH   6  26
BRANCH   8  28
ATOM     28  O   UNL     1      30.390  39.711  32.204  1.00  0.00    -0.508 OA
ATOM     29  H   UNL     1      29.963  40.390  32.823  1.00  0.00     0.293 HD
ENDBRANCH   8  28
TORSDOF 7
ENDMDL
MODEL 4
REMARK VINA RESULT:     3.602      3.050      5.588
REMARK INTER + INTRA:           4.079
REMARK INTER:                   4.444
REMARK INTRA:                  -0.365
REMARK UNBOUND:                -0.365
REMARK SMILES O=c1c(O)c(-c2cc(O)c(O)c(O)c2)oc2cc(O)cc(O)c12
REMARK SMILES IDX 5 1 3 2 2 3 1 4 23 5 21 6 20 7 18 8 17 9 16 10 15 11 6 12
REMARK SMILES IDX 7 13 8 14 14 15 10 16 12 17 9 18 11 20 13 22 4 24 22 26
REMARK SMILES IDX 19 28
REMARK H PARENT 9 19 11 21 13 23 4 25 22 27 19 29
REMARK Flexibility Score: inf
ROOT
ATOM      1  C   UNL     1      29.428  37.343  26.755  1.00  0.00     0.180 A 
ATOM      2  C   UNL     1      28.129  37.669  27.182  1.00  0.00     0.208 A 
ATOM      3  C   UNL     1      27.437  38.701  26.530  1.00  0.00     0.238 A 
ATOM      4  O   UNL     1      26.249  38.939  26.869  1.00  0.00    -0.285 OA
ATOM      5  C   UNL     1      28.071  39.434  25.497  1.00  0.00     0.111 A 
ATOM      6  C   UNL     1      27.482  40.530  24.798  1.00  0.00     0.134 A 
ATOM      7  C   UNL     1      28.165  41.110  23.721  1.00  0.00     0.093 A 
ATOM      8  C   UNL     1      29.443  40.675  23.360  1.00  0.00     0.123 A 
ATOM      9  C   UNL     1      30.049  39.643  24.071  1.00  0.00     0.094 A 
ATOM     10  C   UNL     1      29.377  39.018  25.125  1.00  0.00     0.146 A 
ATOM     11  O   UNL     1      29.985  38.025  25.762  1.00  0.00    -0.452 OA
ENDROOT
BRANCH   1  12
ATOM     12  C   UNL     1      30.214  36.256  27.383  1.00  0.00     0.029 A 
ATOM     13  C   UNL     1      31.143  36.570  28.386  1.00  0.00     0.062 A 
ATOM     14  C   UNL     1      31.915  35.568  28.983  1.00  0.00     0.162 A 
ATOM     15  C   UNL     1      30.093  34.924  26.956  1.00  0.00     0.062 A 
ATOM     16  C   UNL     1      31.775  34.232  28.567  1.00  0.00     0.200 A 
ATOM     17  C   UNL     1      30.863  33.912  27.547  1.00  0.00     0.162 A 
BRANCH  14  18
ATOM     18  O   UNL     1      32.817  35.919  29.987  1.00  0.00    -0.504 OA
ATOM     19  H   UNL     1      33.669  36.432  29.792  1.00  0.00     0.293 HD
ENDBRANCH  14  18
BRANCH  16  20
ATOM     20  O   UNL     1      32.546  33.238  29.171  1.00  0.00    -0.502 OA
ATOM     21  H   UNL     1      33.237  32.705  28.656  1.00  0.00     0.293 HD
ENDBRANCH  16  20
BRANCH  17  22
ATOM     22  O   UNL     1      30.730  32.593  27.120  1.00  0.00    -0.504 OA
ATOM     23  H   UNL     1      30.523  31.842  27.769  1.00  0.00     0.293 HD
ENDBRANCH  17  22
ENDBRANCH   1  12
BRANCH   2  24
ATOM     24  O   UNL     1      27.549  36.986  28.255  1.00  0.00    -0.502 OA
ATOM     25  H   UNL     1      27.365  37.430  29.147  1.00  0.00     0.293 HD
ENDBRANCH   2  24
BRANCH   6  26
ATOM     26  O   UNL     1      26.251  41.101  25.132  1.00  0.00    -0.507 OA
ATOM     27  H   UNL     1      25.678  41.646  24.507  1.00  0.00     0.293 HD
ENDBRANCH   6  26
BRANCH   8  28
ATOM     28  O   UNL     1      30.121  41.270  22.298  1.00  0.00    -0.508 OA
ATOM     29  H   UNL     1      30.013  42.254  22.085  1.00  0.00     0.293 HD
ENDBRANCH   8  28
TORSDOF 7
ENDMDL
MODEL 5
REMARK VINA RESULT:     3.766      3.062      5.541
REMARK INTER + INTRA:           4.282
REMARK INTER:                   4.632
REMARK INTRA:                  -0.350
REMARK UNBOUND:                -0.365
REMARK SMILES O=c1c(O)c(-c2cc(O)c(O)c(O)c2)oc2cc(O)cc(O)c12
REMARK SMILES IDX 5 1 3 2 2 3 1 4 23 5 21 6 20 7 18 8 17 9 16 10 15 11 6 12
REMARK SMILES IDX 7 13 8 14 14 15 10 16 12 17 9 18 11 20 13 22 4 24 22 26
REMARK SMILES IDX 19 28
REMARK H PARENT 9 19 11 21 13 23 4 25 22 27 19 29
REMARK Flexibility Score: inf
ROOT
ATOM      1  C   UNL     1      29.508  37.400  26.731  1.00  0.00     0.180 A 
ATOM      2  C   UNL     1      28.212  37.718  27.174  1.00  0.00     0.208 A 
ATOM      3  C   UNL     1      27.501  38.737  26.521  1.00  0.00     0.238 A 
ATOM      4  O   UNL     1      26.315  38.967  26.875  1.00  0.00    -0.285 OA
ATOM      5  C   UNL     1      28.113  39.464  25.472  1.00  0.00     0.111 A 
ATOM      6  C   UNL     1      27.503  40.547  24.769  1.00  0.00     0.134 A 
ATOM      7  C   UNL     1      28.164  41.123  23.677  1.00  0.00     0.093 A 
ATOM      8  C   UNL     1      29.441  40.695  23.301  1.00  0.00     0.123 A 
ATOM      9  C   UNL     1      30.067  39.677  24.014  1.00  0.00     0.094 A 
ATOM     10  C   UNL     1      29.417  39.058  25.084  1.00  0.00     0.146 A 
ATOM     11  O   UNL     1      30.043  38.076  25.722  1.00  0.00    -0.452 OA
ENDROOT
BRANCH   1  12
ATOM     12  C   UNL     1      30.313  36.328  27.359  1.00  0.00     0.029 A 
ATOM     13  C   UNL     1      30.132  34.999  26.947  1.00  0.00     0.062 A 
ATOM     14  C   UNL     1      30.864  33.963  27.535  1.00  0.00     0.162 A 
ATOM     15  C   UNL     1      31.215  36.603  28.400  1.00  0.00     0.062 A 
ATOM     16  C   UNL     1      31.781  34.246  28.562  1.00  0.00     0.200 A 
ATOM     17  C   UNL     1      31.952  35.571  28.997  1.00  0.00     0.162 A 
BRANCH  14  18
ATOM     18  O   UNL     1      30.665  32.657  27.087  1.00  0.00    -0.504 OA
ATOM     19  H   UNL     1      31.184  32.269  26.308  1.00  0.00     0.293 HD
ENDBRANCH  14  18
BRANCH  16  20
ATOM     20  O   UNL     1      32.509  33.206  29.141  1.00  0.00    -0.502 OA
ATOM     21  H   UNL     1      32.842  33.248  30.097  1.00  0.00     0.293 HD
ENDBRANCH  16  20
BRANCH  17  22
ATOM     22  O   UNL     1      32.848  35.857  30.025  1.00  0.00    -0.504 OA
ATOM     23  H   UNL     1      32.547  35.924  30.991  1.00  0.00     0.293 HD
ENDBRANCH  17  22
ENDBRANCH   1  12
BRANCH   2  24
ATOM     24  O   UNL     1      27.655  37.041  28.262  1.00  0.00    -0.502 OA
ATOM     25  H   UNL     1      28.213  36.495  28.907  1.00  0.00     0.293 HD
ENDBRANCH   2  24
BRANCH   6  26
ATOM     26  O   UNL     1      26.271  41.110  25.116  1.00  0.00    -0.507 OA
ATOM     27  H   UNL     1      25.997  42.061  24.925  1.00  0.00     0.293 HD
ENDBRANCH   6  26
BRANCH   8  28
ATOM     28  O   UNL     1      30.098  41.286  22.223  1.00  0.00    -0.508 OA
ATOM     29  H   UNL     1      29.797  42.174  21.841  1.00  0.00     0.293 HD
ENDBRANCH   8  28
TORSDOF 7
ENDMDL
