MODEL 1
REMARK VINA RESULT:    -2.116      0.000      0.000
REMARK INTER + INTRA:          -2.116
REMARK INTER:                  -2.116
REMARK INTRA:                   0.000
REMARK UNBOUND:                 0.000
REMARK SMILES CC(=O)[O-]
REMARK SMILES IDX 1 1 2 2 3 3 4 4
REMARK H PARENT
REMARK Flexibility Score: inf
ROOT
ATOM      1  C   UNL     1     148.637 152.555 147.186  1.00  0.00     0.063 C 
ATOM      2  C   UNL     1     149.770 151.625 146.914  1.00  0.00     0.038 C 
ATOM      3  O   UNL     1     149.746 150.878 145.902  1.00  0.00    -0.550 OA
ATOM      4  O   UNL     1     150.881 151.620 147.748  1.00  0.00    -0.550 OA
ENDROOT
TORSDOF 0
ENDMDL
MODEL 2
REMARK VINA RESULT:    -2.041      1.564      1.925
REMARK INTER + INTRA:          -2.041
REMARK INTER:                  -2.041
REMARK INTRA:                   0.000
REMARK UNBOUND:                 0.000
REMARK SMILES CC(=O)[O-]
REMARK SMILES IDX 1 1 2 2 3 3 4 4
REMARK H PARENT
REMARK Flexibility Score: inf
ROOT
ATOM      1  C   UNL     1     150.705 151.767 147.428  1.00  0.00     0.063 C 
ATOM      2  C   UNL     1     149.349 151.913 146.827  1.00  0.00     0.038 C 
ATOM      3  O   UNL     1     148.662 150.892 146.563  1.00  0.00    -0.550 OA
ATOM      4  O   UNL     1     148.818 153.177 146.606  1.00  0.00    -0.550 OA
ENDROOT
TORSDOF 0
ENDMDL
MODEL 3
REMARK VINA RESULT:    -2.039      0.287      1.645
REMARK INTER + INTRA:          -2.039
REMARK INTER:                  -2.039
REMARK INTRA:                   0.000
REMARK UNBOUND:                 0.000
REMARK SMILES CC(=O)[O-]
REMARK SMILES IDX 1 1 2 2 3 3 4 4
REMARK H PARENT
REMARK Flexibility Score: inf
ROOT
ATOM      1  C   UNL     1     148.961 152.910 147.184  1.00  0.00     0.063 C 
ATOM      2  C   UNL     1     149.960 151.833 146.931  1.00  0.00     0.038 C 
ATOM      3  O   UNL     1     150.947 151.693 147.697  1.00  0.00    -0.550 OA
ATOM      4  O   UNL     1     149.774 150.946 145.878  1.00  0.00    -0.550 OA
ENDROOT
TORSDOF 0
ENDMDL
MODEL 4
REMARK VINA RESULT:    -1.914      1.496      2.102
REMARK INTER + INTRA:          -1.914
REMARK INTER:                  -1.914
REMARK INTRA:                   0.000
REMARK UNBOUND:                 0.000
REMARK SMILES CC(=O)[O-]
REMARK SMILES IDX 1 1 2 2 3 3 4 4
REMARK H PARENT
REMARK Flexibility Score: inf
ROOT
ATOM      1  C   UNL     1     149.024 153.190 147.316  1.00  0.00     0.063 C 
ATOM      2  C   UNL     1     150.489 152.976 147.485  1.00  0.00     0.038 C 
ATOM      3  O   UNL     1     151.273 153.960 147.511  1.00  0.00    -0.550 OA
ATOM      4  O   UNL     1     150.988 151.693 147.668  1.00  0.00    -0.550 OA
ENDROOT
TORSDOF 0
ENDMDL
MODEL 5
REMARK VINA RESULT:    -1.913     13.190     13.506
REMARK INTER + INTRA:          -1.913
REMARK INTER:                  -1.913
REMARK INTRA:                   0.000
REMARK UNBOUND:                 0.000
REMARK SMILES CC(=O)[O-]
REMARK SMILES IDX 1 1 2 2 3 3 4 4
REMARK H PARENT
REMARK Flexibility Score: inf
ROOT
ATOM      1  C   UNL     1     153.579 153.181 159.339  1.00  0.00     0.063 C 
ATOM      2  C   UNL     1     152.817 152.072 159.980  1.00  0.00     0.038 C 
ATOM      3  O   UNL     1     153.118 150.875 159.737  1.00  0.00    -0.550 OA
ATOM      4  O   UNL     1     151.806 152.357 160.890  1.00  0.00    -0.550 OA
ENDROOT
TORSDOF 0
ENDMDL
MODEL 6
REMARK VINA RESULT:    -1.879     12.423     12.941
REMARK INTER + INTRA:          -1.879
REMARK INTER:                  -1.879
REMARK INTRA:                   0.000
REMARK UNBOUND:                 0.000
REMARK SMILES CC(=O)[O-]
REMARK SMILES IDX 1 1 2 2 3 3 4 4
REMARK H PARENT
REMARK Flexibility Score: inf
ROOT
ATOM      1  C   UNL     1     152.808 151.970 160.825  1.00  0.00     0.063 C 
ATOM      2  C   UNL     1     152.868 151.717 159.357  1.00  0.00     0.038 C 
ATOM      3  O   UNL     1     153.681 150.877 158.893  1.00  0.00    -0.550 OA
ATOM      4  O   UNL     1     151.989 152.371 158.502  1.00  0.00    -0.550 OA
ENDROOT
TORSDOF 0
ENDMDL
MODEL 7
REMARK VINA RESULT:    -1.872     11.590     12.228
REMARK INTER + INTRA:          -1.872
REMARK INTER:                  -1.872
REMARK INTRA:                   0.000
REMARK UNBOUND:                 0.000
REMARK SMILES CC(=O)[O-]
REMARK SMILES IDX 1 1 2 2 3 3 4 4
REMARK H PARENT
REMARK Flexibility Score: inf
ROOT
ATOM      1  C   UNL     1     153.555 150.875 157.440  1.00  0.00     0.063 C 
ATOM      2  C   UNL     1     152.853 151.482 158.607  1.00  0.00     0.038 C 
ATOM      3  O   UNL     1     153.190 151.171 159.778  1.00  0.00    -0.550 OA
ATOM      4  O   UNL     1     151.859 152.431 158.404  1.00  0.00    -0.550 OA
ENDROOT
TORSDOF 0
ENDMDL
MODEL 8
REMARK VINA RESULT:    -1.765     11.775     12.047
REMARK INTER + INTRA:          -1.765
REMARK INTER:                  -1.765
REMARK INTRA:                   0.000
REMARK UNBOUND:                 0.000
REMARK SMILES CC(=O)[O-]
REMARK SMILES IDX 1 1 2 2 3 3 4 4
REMARK H PARENT
REMARK Flexibility Score: inf
ROOT
ATOM      1  C   UNL     1     153.715 151.203 157.503  1.00  0.00     0.063 C 
ATOM      2  C   UNL     1     155.111 151.709 157.628  1.00  0.00     0.038 C 
ATOM      3  O   UNL     1     155.325 152.876 158.046  1.00  0.00    -0.550 OA
ATOM      4  O   UNL     1     156.183 150.875 157.335  1.00  0.00    -0.550 OA
ENDROOT
TORSDOF 0
ENDMDL
