MODEL 1
REMARK VINA RESULT:    -3.679      0.000      0.000
REMARK INTER + INTRA:          -3.787
REMARK INTER:                  -3.787
REMARK INTRA:                   0.000
REMARK UNBOUND:                 0.000
REMARK SMILES Cc1ccccc1O
REMARK SMILES IDX 1 1 2 2 3 3 4 4 5 5 6 6 7 7 8 8
REMARK H PARENT 8 9
REMARK Flexibility Score: inf
ROOT
ATOM      1  C   UNL     1      29.111  -6.208 -24.707  1.00  0.00     0.048 C 
ATOM      2  C   UNL     1      30.425  -6.839 -24.337  1.00  0.00    -0.009 A 
ATOM      3  C   UNL     1      31.102  -6.409 -23.182  1.00  0.00     0.007 A 
ATOM      4  C   UNL     1      32.323  -6.983 -22.822  1.00  0.00     0.001 A 
ATOM      5  C   UNL     1      32.882  -7.991 -23.609  1.00  0.00     0.004 A 
ATOM      6  C   UNL     1      32.221  -8.427 -24.759  1.00  0.00     0.046 A 
ATOM      7  C   UNL     1      30.995  -7.860 -25.133  1.00  0.00     0.118 A 
ENDROOT
BRANCH   7   8
ATOM      8  O   UNL     1      30.374  -8.331 -26.291  1.00  0.00    -0.508 OA
ATOM      9  H   UNL     1      30.890  -8.661 -27.098  1.00  0.00     0.293 HD
ENDBRANCH   7   8
TORSDOF 1
ENDMDL
MODEL 2
REMARK VINA RESULT:    -3.574      5.518      6.670
REMARK INTER + INTRA:          -3.678
REMARK INTER:                  -3.678
REMARK INTRA:                   0.000
REMARK UNBOUND:                 0.000
REMARK SMILES Cc1ccccc1O
REMARK SMILES IDX 1 1 2 2 3 3 4 4 5 5 6 6 7 7 8 8
REMARK H PARENT 8 9
REMARK Flexibility Score: inf
ROOT
ATOM      1  C   UNL     1      32.618  -7.660 -17.918  1.00  0.00     0.048 C 
ATOM      2  C   UNL     1      33.140  -6.282 -18.219  1.00  0.00    -0.009 A 
ATOM      3  C   UNL     1      33.594  -5.466 -17.168  1.00  0.00     0.007 A 
ATOM      4  C   UNL     1      34.083  -4.184 -17.427  1.00  0.00     0.001 A 
ATOM      5  C   UNL     1      34.125  -3.702 -18.737  1.00  0.00     0.004 A 
ATOM      6  C   UNL     1      33.677  -4.502 -19.790  1.00  0.00     0.046 A 
ATOM      7  C   UNL     1      33.183  -5.790 -19.544  1.00  0.00     0.118 A 
ENDROOT
BRANCH   7   8
ATOM      8  O   UNL     1      32.747  -6.550 -20.631  1.00  0.00    -0.508 OA
ATOM      9  H   UNL     1      32.661  -7.559 -20.600  1.00  0.00     0.293 HD
ENDBRANCH   7   8
TORSDOF 1
ENDMDL
MODEL 3
REMARK VINA RESULT:    -3.526      1.818      2.920
REMARK INTER + INTRA:          -3.629
REMARK INTER:                  -3.629
REMARK INTRA:                   0.000
REMARK UNBOUND:                 0.000
REMARK SMILES Cc1ccccc1O
REMARK SMILES IDX 1 1 2 2 3 3 4 4 5 5 6 6 7 7 8 8
REMARK H PARENT 8 9
REMARK Flexibility Score: inf
ROOT
ATOM      1  C   UNL     1      32.660  -5.834 -21.826  1.00  0.00     0.048 C 
ATOM      2  C   UNL     1      32.079  -6.584 -22.994  1.00  0.00    -0.009 A 
ATOM      3  C   UNL     1      30.798  -6.249 -23.466  1.00  0.00     0.007 A 
ATOM      4  C   UNL     1      30.241  -6.933 -24.550  1.00  0.00     0.001 A 
ATOM      5  C   UNL     1      30.956  -7.957 -25.173  1.00  0.00     0.004 A 
ATOM      6  C   UNL     1      32.229  -8.299 -24.714  1.00  0.00     0.046 A 
ATOM      7  C   UNL     1      32.800  -7.622 -23.629  1.00  0.00     0.118 A 
ENDROOT
BRANCH   7   8
ATOM      8  O   UNL     1      34.076  -8.002 -23.208  1.00  0.00    -0.508 OA
ATOM      9  H   UNL     1      34.264  -8.372 -22.284  1.00  0.00     0.293 HD
ENDBRANCH   7   8
TORSDOF 1
ENDMDL
MODEL 4
REMARK VINA RESULT:    -3.408      2.314      3.696
REMARK INTER + INTRA:          -3.507
REMARK INTER:                  -3.507
REMARK INTRA:                   0.000
REMARK UNBOUND:                 0.000
REMARK SMILES Cc1ccccc1O
REMARK SMILES IDX 1 1 2 2 3 3 4 4 5 5 6 6 7 7 8 8
REMARK H PARENT 8 9
REMARK Flexibility Score: inf
ROOT
ATOM      1  C   UNL     1      32.601  -8.833 -23.258  1.00  0.00     0.048 C 
ATOM      2  C   UNL     1      31.848  -7.531 -23.256  1.00  0.00    -0.009 A 
ATOM      3  C   UNL     1      30.689  -7.397 -24.041  1.00  0.00     0.007 A 
ATOM      4  C   UNL     1      29.975  -6.197 -24.052  1.00  0.00     0.001 A 
ATOM      5  C   UNL     1      30.409  -5.117 -23.280  1.00  0.00     0.004 A 
ATOM      6  C   UNL     1      31.558  -5.236 -22.496  1.00  0.00     0.046 A 
ATOM      7  C   UNL     1      32.284  -6.434 -22.476  1.00  0.00     0.118 A 
ENDROOT
BRANCH   7   8
ATOM      8  O   UNL     1      33.426  -6.503 -21.675  1.00  0.00    -0.508 OA
ATOM      9  H   UNL     1      34.364  -6.388 -22.041  1.00  0.00     0.293 HD
ENDBRANCH   7   8
TORSDOF 1
ENDMDL
MODEL 5
REMARK VINA RESULT:    -3.400      5.431      6.679
REMARK INTER + INTRA:          -3.499
REMARK INTER:                  -3.499
REMARK INTRA:                   0.000
REMARK UNBOUND:                 0.000
REMARK SMILES Cc1ccccc1O
REMARK SMILES IDX 1 1 2 2 3 3 4 4 5 5 6 6 7 7 8 8
REMARK H PARENT 8 9
REMARK Flexibility Score: inf
ROOT
ATOM      1  C   UNL     1      32.767  -5.846 -20.911  1.00  0.00     0.048 C 
ATOM      2  C   UNL     1      33.197  -5.553 -19.500  1.00  0.00    -0.009 A 
ATOM      3  C   UNL     1      33.720  -4.288 -19.181  1.00  0.00     0.007 A 
ATOM      4  C   UNL     1      34.125  -3.996 -17.876  1.00  0.00     0.001 A 
ATOM      5  C   UNL     1      34.012  -4.963 -16.876  1.00  0.00     0.004 A 
ATOM      6  C   UNL     1      33.494  -6.224 -17.179  1.00  0.00     0.046 A 
ATOM      7  C   UNL     1      33.085  -6.531 -18.483  1.00  0.00     0.118 A 
ENDROOT
BRANCH   7   8
ATOM      8  O   UNL     1      32.574  -7.805 -18.735  1.00  0.00    -0.508 OA
ATOM      9  H   UNL     1      31.742  -7.966 -19.289  1.00  0.00     0.293 HD
ENDBRANCH   7   8
TORSDOF 1
ENDMDL
MODEL 6
REMARK VINA RESULT:    -3.392      0.811      2.675
REMARK INTER + INTRA:          -3.491
REMARK INTER:                  -3.491
REMARK INTRA:                   0.000
REMARK UNBOUND:                 0.000
REMARK SMILES Cc1ccccc1O
REMARK SMILES IDX 1 1 2 2 3 3 4 4 5 5 6 6 7 7 8 8
REMARK H PARENT 8 9
REMARK Flexibility Score: inf
ROOT
ATOM      1  C   UNL     1      32.454  -8.374 -24.228  1.00  0.00     0.048 C 
ATOM      2  C   UNL     1      31.364  -7.338 -24.263  1.00  0.00    -0.009 A 
ATOM      3  C   UNL     1      31.346  -6.315 -23.299  1.00  0.00     0.007 A 
ATOM      4  C   UNL     1      30.342  -5.344 -23.315  1.00  0.00     0.001 A 
ATOM      5  C   UNL     1      29.346  -5.382 -24.292  1.00  0.00     0.004 A 
ATOM      6  C   UNL     1      29.352  -6.393 -25.256  1.00  0.00     0.046 A 
ATOM      7  C   UNL     1      30.352  -7.374 -25.252  1.00  0.00     0.118 A 
ENDROOT
BRANCH   7   8
ATOM      8  O   UNL     1      30.314  -8.363 -26.236  1.00  0.00    -0.508 OA
ATOM      9  H   UNL     1      30.505  -9.339 -26.045  1.00  0.00     0.293 HD
ENDBRANCH   7   8
TORSDOF 1
ENDMDL
MODEL 7
REMARK VINA RESULT:    -3.370      2.221      2.733
REMARK INTER + INTRA:          -3.468
REMARK INTER:                  -3.468
REMARK INTRA:                   0.000
REMARK UNBOUND:                 0.000
REMARK SMILES Cc1ccccc1O
REMARK SMILES IDX 1 1 2 2 3 3 4 4 5 5 6 6 7 7 8 8
REMARK H PARENT 8 9
REMARK Flexibility Score: inf
ROOT
ATOM      1  C   UNL     1      34.125  -4.948 -24.762  1.00  0.00     0.048 C 
ATOM      2  C   UNL     1      33.339  -6.071 -24.142  1.00  0.00    -0.009 A 
ATOM      3  C   UNL     1      32.663  -5.859 -22.928  1.00  0.00     0.007 A 
ATOM      4  C   UNL     1      31.928  -6.889 -22.337  1.00  0.00     0.001 A 
ATOM      5  C   UNL     1      31.859  -8.141 -22.951  1.00  0.00     0.004 A 
ATOM      6  C   UNL     1      32.526  -8.365 -24.157  1.00  0.00     0.046 A 
ATOM      7  C   UNL     1      33.267  -7.341 -24.761  1.00  0.00     0.118 A 
ENDROOT
BRANCH   7   8
ATOM      8  O   UNL     1      33.915  -7.616 -25.966  1.00  0.00    -0.508 OA
ATOM      9  H   UNL     1      33.657  -8.388 -26.568  1.00  0.00     0.293 HD
ENDBRANCH   7   8
TORSDOF 1
ENDMDL
MODEL 8
REMARK VINA RESULT:    -3.287      1.459      2.293
REMARK INTER + INTRA:          -3.383
REMARK INTER:                  -3.383
REMARK INTRA:                   0.000
REMARK UNBOUND:                 0.000
REMARK SMILES Cc1ccccc1O
REMARK SMILES IDX 1 1 2 2 3 3 4 4 5 5 6 6 7 7 8 8
REMARK H PARENT 8 9
REMARK Flexibility Score: inf
ROOT
ATOM      1  C   UNL     1      30.036  -7.989 -25.887  1.00  0.00     0.048 C 
ATOM      2  C   UNL     1      31.012  -7.587 -24.816  1.00  0.00    -0.009 A 
ATOM      3  C   UNL     1      32.206  -8.312 -24.656  1.00  0.00     0.007 A 
ATOM      4  C   UNL     1      33.125  -7.953 -23.667  1.00  0.00     0.001 A 
ATOM      5  C   UNL     1      32.864  -6.869 -22.828  1.00  0.00     0.004 A 
ATOM      6  C   UNL     1      31.682  -6.140 -22.976  1.00  0.00     0.046 A 
ATOM      7  C   UNL     1      30.750  -6.488 -23.963  1.00  0.00     0.118 A 
ENDROOT
BRANCH   7   8
ATOM      8  O   UNL     1      29.584  -5.728 -24.071  1.00  0.00    -0.508 OA
ATOM      9  H   UNL     1      29.201  -5.195 -23.300  1.00  0.00     0.293 HD
ENDBRANCH   7   8
TORSDOF 1
ENDMDL
MODEL 9
REMARK VINA RESULT:    -3.262      2.164      2.589
REMARK INTER + INTRA:          -3.358
REMARK INTER:                  -3.358
REMARK INTRA:                   0.000
REMARK UNBOUND:                 0.000
REMARK SMILES Cc1ccccc1O
REMARK SMILES IDX 1 1 2 2 3 3 4 4 5 5 6 6 7 7 8 8
REMARK H PARENT 8 9
REMARK Flexibility Score: inf
ROOT
ATOM      1  C   UNL     1      30.174  -7.771 -23.988  1.00  0.00     0.048 C 
ATOM      2  C   UNL     1      31.558  -7.394 -24.441  1.00  0.00    -0.009 A 
ATOM      3  C   UNL     1      31.720  -6.425 -25.446  1.00  0.00     0.007 A 
ATOM      4  C   UNL     1      32.997  -6.062 -25.880  1.00  0.00     0.001 A 
ATOM      5  C   UNL     1      34.125  -6.660 -25.316  1.00  0.00     0.004 A 
ATOM      6  C   UNL     1      33.978  -7.624 -24.317  1.00  0.00     0.046 A 
ATOM      7  C   UNL     1      32.703  -7.999 -23.872  1.00  0.00     0.118 A 
ENDROOT
BRANCH   7   8
ATOM      8  O   UNL     1      32.610  -8.967 -22.871  1.00  0.00    -0.508 OA
ATOM      9  H   UNL     1      31.775  -9.107 -22.315  1.00  0.00     0.293 HD
ENDBRANCH   7   8
TORSDOF 1
ENDMDL
