MODEL 1
REMARK VINA RESULT:    10.136      0.000      0.000
REMARK INTER + INTRA:          17.847
REMARK INTER:                  19.024
REMARK INTRA:                  -1.178
REMARK UNBOUND:                -1.178
REMARK SMILES CCCCCCCCC=CCCCCCCCC(=O)[O-]
REMARK SMILES IDX 10 1 9 2 11 3 12 4 13 5 14 6 15 7 16 8 17 9 18 10 19 11
REMARK SMILES IDX 20 12 8 13 7 14 6 15 5 16 4 17 3 18 2 19 1 20
REMARK H PARENT
REMARK Flexibility Score: inf
ROOT
ATOM      1  C   UNL     1      -5.063 107.403  67.517  1.00  0.00    -0.031 C 
ATOM      2  C   UNL     1      -5.183 106.063  67.465  1.00  0.00    -0.031 C 
ENDROOT
BRANCH   1   3
ATOM      3  C   UNL     1      -5.698 108.367  66.542  1.00  0.00     0.027 C 
BRANCH   3   4
ATOM      4  C   UNL     1      -4.719 108.755  65.427  1.00  0.00     0.004 C 
BRANCH   4   5
ATOM      5  C   UNL     1      -3.695 109.802  65.898  1.00  0.00     0.000 C 
BRANCH   5   6
ATOM      6  C   UNL     1      -4.365 110.970  66.654  1.00  0.00     0.000 C 
BRANCH   6   7
ATOM      7  C   UNL     1      -3.727 112.338  66.358  1.00  0.00     0.000 C 
BRANCH   7   8
ATOM      8  C   UNL     1      -4.104 113.410  67.394  1.00  0.00     0.006 C 
BRANCH   8   9
ATOM      9  C   UNL     1      -5.601 113.744  67.364  1.00  0.00     0.053 C 
BRANCH   9  10
ATOM     10  C   UNL     1      -5.855 115.195  67.636  1.00  0.00     0.041 C 
ATOM     11  O   UNL     1      -5.765 115.644  68.809  1.00  0.00    -0.550 OA
ATOM     12  O   UNL     1      -6.160 116.057  66.591  1.00  0.00    -0.550 OA
ENDBRANCH   9  10
ENDBRANCH   8   9
ENDBRANCH   7   8
ENDBRANCH   6   7
ENDBRANCH   5   6
ENDBRANCH   4   5
ENDBRANCH   3   4
ENDBRANCH   1   3
BRANCH   2  13
ATOM     13  C   UNL     1      -6.022 105.314  66.461  1.00  0.00     0.027 C 
BRANCH  13  14
ATOM     14  C   UNL     1      -5.137 104.526  65.481  1.00  0.00     0.004 C 
BRANCH  14  15
ATOM     15  C   UNL     1      -4.723 105.357  64.257  1.00  0.00     0.000 C 
BRANCH  15  16
ATOM     16  C   UNL     1      -3.925 104.536  63.229  1.00  0.00     0.000 C 
BRANCH  16  17
ATOM     17  C   UNL     1      -4.799 103.513  62.484  1.00  0.00    -0.000 C 
BRANCH  17  18
ATOM     18  C   UNL     1      -4.085 102.165  62.281  1.00  0.00    -0.000 C 
BRANCH  18  19
ATOM     19  C   UNL     1      -3.701 101.497  63.611  1.00  0.00    -0.003 C 
ATOM     20  C   UNL     1      -2.266 100.970  63.618  1.00  0.00     0.004 C 
ENDBRANCH  18  19
ENDBRANCH  17  18
ENDBRANCH  16  17
ENDBRANCH  15  16
ENDBRANCH  14  15
ENDBRANCH  13  14
ENDBRANCH   2  13
TORSDOF 15
ENDMDL
MODEL 2
REMARK VINA RESULT:    10.202      4.911     10.015
REMARK INTER + INTRA:          17.971
REMARK INTER:                  18.762
REMARK INTRA:                  -0.791
REMARK UNBOUND:                -1.178
REMARK SMILES CCCCCCCCC=CCCCCCCCC(=O)[O-]
REMARK SMILES IDX 10 1 9 2 11 3 12 4 13 5 14 6 15 7 16 8 17 9 18 10 19 11
REMARK SMILES IDX 20 12 8 13 7 14 6 15 5 16 4 17 3 18 2 19 1 20
REMARK H PARENT
REMARK Flexibility Score: inf
ROOT
ATOM      1  C   UNL     1      -4.229 108.198  66.116  1.00  0.00    -0.031 C 
ATOM      2  C   UNL     1      -3.305 108.954  65.494  1.00  0.00    -0.031 C 
ENDROOT
BRANCH   1   3
ATOM      3  C   UNL     1      -5.710 108.498  66.154  1.00  0.00     0.027 C 
BRANCH   3   4
ATOM      4  C   UNL     1      -6.455 107.506  67.056  1.00  0.00     0.004 C 
BRANCH   4   5
ATOM      5  C   UNL     1      -5.584 106.290  67.416  1.00  0.00     0.000 C 
BRANCH   5   6
ATOM      6  C   UNL     1      -5.907 105.063  66.536  1.00  0.00     0.000 C 
BRANCH   6   7
ATOM      7  C   UNL     1      -5.152 105.054  65.196  1.00  0.00     0.000 C 
BRANCH   7   8
ATOM      8  C   UNL     1      -4.837 103.634  64.698  1.00  0.00     0.006 C 
BRANCH   8   9
ATOM      9  C   UNL     1      -4.119 103.642  63.341  1.00  0.00     0.053 C 
BRANCH   9  10
ATOM     10  C   UNL     1      -3.895 102.255  62.820  1.00  0.00     0.041 C 
ATOM     11  O   UNL     1      -4.426 101.893  61.738  1.00  0.00    -0.550 OA
ATOM     12  O   UNL     1      -3.074 101.375  63.512  1.00  0.00    -0.550 OA
ENDBRANCH   9  10
ENDBRANCH   8   9
ENDBRANCH   7   8
ENDBRANCH   6   7
ENDBRANCH   5   6
ENDBRANCH   4   5
ENDBRANCH   3   4
ENDBRANCH   1   3
BRANCH   2  13
ATOM     13  C   UNL     1      -3.608 110.190  64.685  1.00  0.00     0.027 C 
BRANCH  13  14
ATOM     14  C   UNL     1      -2.421 111.166  64.705  1.00  0.00     0.004 C 
BRANCH  14  15
ATOM     15  C   UNL     1      -2.736 112.468  65.457  1.00  0.00     0.000 C 
BRANCH  15  16
ATOM     16  C   UNL     1      -3.793 112.273  66.559  1.00  0.00     0.000 C 
BRANCH  16  17
ATOM     17  C   UNL     1      -4.107 113.575  67.313  1.00  0.00    -0.000 C 
BRANCH  17  18
ATOM     18  C   UNL     1      -5.598 113.952  67.244  1.00  0.00    -0.000 C 
BRANCH  18  19
ATOM     19  C   UNL     1      -5.857 115.404  67.676  1.00  0.00    -0.003 C 
ATOM     20  C   UNL     1      -5.406 115.688  69.108  1.00  0.00     0.004 C 
ENDBRANCH  18  19
ENDBRANCH  17  18
ENDBRANCH  16  17
ENDBRANCH  15  16
ENDBRANCH  14  15
ENDBRANCH  13  14
ENDBRANCH   2  13
TORSDOF 15
ENDMDL
MODEL 3
REMARK VINA RESULT:    10.331      5.082      9.905
REMARK INTER + INTRA:          18.212
REMARK INTER:                  19.343
REMARK INTRA:                  -1.131
REMARK UNBOUND:                -1.178
REMARK SMILES CCCCCCCCC=CCCCCCCCC(=O)[O-]
REMARK SMILES IDX 10 1 9 2 11 3 12 4 13 5 14 6 15 7 16 8 17 9 18 10 19 11
REMARK SMILES IDX 20 12 8 13 7 14 6 15 5 16 4 17 3 18 2 19 1 20
REMARK H PARENT
REMARK Flexibility Score: inf
ROOT
ATOM      1  C   UNL     1      -4.004 102.423  62.506  1.00  0.00    -0.031 C 
ATOM      2  C   UNL     1      -4.506 103.665  62.646  1.00  0.00    -0.031 C 
ENDROOT
BRANCH   1   3
ATOM      3  C   UNL     1      -3.429 101.591  63.629  1.00  0.00     0.027 C 
BRANCH   3   4
ATOM      4  C   UNL     1      -2.151 100.868  63.186  1.00  0.00     0.004 C 
BRANCH   4   5
ATOM      5  C   UNL     1      -1.672 101.342  61.802  1.00  0.00     0.000 C 
BRANCH   5   6
ATOM      6  C   UNL     1      -0.786 100.290  61.102  1.00  0.00     0.000 C 
BRANCH   6   7
ATOM      7  C   UNL     1       0.560 100.849  60.611  1.00  0.00     0.000 C 
BRANCH   7   8
ATOM      8  C   UNL     1       1.356 101.554  61.721  1.00  0.00     0.006 C 
BRANCH   8   9
ATOM      9  C   UNL     1       1.686 103.010  61.363  1.00  0.00     0.053 C 
BRANCH   9  10
ATOM     10  C   UNL     1       1.012 103.979  62.286  1.00  0.00     0.041 C 
ATOM     11  O   UNL     1       0.466 103.570  63.343  1.00  0.00    -0.550 OA
ATOM     12  O   UNL     1       1.017 105.336  61.994  1.00  0.00    -0.550 OA
ENDBRANCH   9  10
ENDBRANCH   8   9
ENDBRANCH   7   8
ENDBRANCH   6   7
ENDBRANCH   5   6
ENDBRANCH   4   5
ENDBRANCH   3   4
ENDBRANCH   1   3
BRANCH   2  13
ATOM     13  C   UNL     1      -4.630 104.399  63.957  1.00  0.00     0.027 C 
BRANCH  13  14
ATOM     14  C   UNL     1      -3.958 105.780  63.880  1.00  0.00     0.004 C 
BRANCH  14  15
ATOM     15  C   UNL     1      -3.962 106.516  65.229  1.00  0.00     0.000 C 
BRANCH  15  16
ATOM     16  C   UNL     1      -4.155 108.035  65.072  1.00  0.00     0.000 C 
BRANCH  16  17
ATOM     17  C   UNL     1      -4.930 108.655  66.245  1.00  0.00    -0.000 C 
BRANCH  17  18
ATOM     18  C   UNL     1      -5.922 107.668  66.886  1.00  0.00    -0.000 C 
BRANCH  18  19
ATOM     19  C   UNL     1      -7.376 107.945  66.473  1.00  0.00    -0.003 C 
ATOM     20  C   UNL     1      -7.903 109.275  67.009  1.00  0.00     0.004 C 
ENDBRANCH  18  19
ENDBRANCH  17  18
ENDBRANCH  16  17
ENDBRANCH  15  16
ENDBRANCH  14  15
ENDBRANCH  13  14
ENDBRANCH   2  13
TORSDOF 15
ENDMDL
MODEL 4
REMARK VINA RESULT:    10.356      5.045     10.207
REMARK INTER + INTRA:          18.261
REMARK INTER:                  18.689
REMARK INTRA:                  -0.429
REMARK UNBOUND:                -1.178
REMARK SMILES CCCCCCCCC=CCCCCCCCC(=O)[O-]
REMARK SMILES IDX 10 1 9 2 11 3 12 4 13 5 14 6 15 7 16 8 17 9 18 10 19 11
REMARK SMILES IDX 20 12 8 13 7 14 6 15 5 16 4 17 3 18 2 19 1 20
REMARK H PARENT
REMARK Flexibility Score: inf
ROOT
ATOM      1  C   UNL     1      -5.192 106.877  67.563  1.00  0.00    -0.031 C 
ATOM      2  C   UNL     1      -4.342 107.776  67.031  1.00  0.00    -0.031 C 
ENDROOT
BRANCH   1   3
ATOM      3  C   UNL     1      -6.594 106.611  67.063  1.00  0.00     0.027 C 
BRANCH   3   4
ATOM      4  C   UNL     1      -6.922 105.114  67.102  1.00  0.00     0.004 C 
BRANCH   4   5
ATOM      5  C   UNL     1      -5.772 104.257  66.544  1.00  0.00     0.000 C 
BRANCH   5   6
ATOM      6  C   UNL     1      -5.503 104.548  65.052  1.00  0.00     0.000 C 
BRANCH   6   7
ATOM      7  C   UNL     1      -4.442 103.625  64.428  1.00  0.00     0.000 C 
BRANCH   7   8
ATOM      8  C   UNL     1      -4.411 103.702  62.893  1.00  0.00     0.006 C 
BRANCH   8   9
ATOM      9  C   UNL     1      -4.303 102.314  62.246  1.00  0.00     0.053 C 
BRANCH   9  10
ATOM     10  C   UNL     1      -3.157 101.526  62.802  1.00  0.00     0.041 C 
ATOM     11  O   UNL     1      -3.255 100.976  63.930  1.00  0.00    -0.550 OA
ATOM     12  O   UNL     1      -1.993 101.372  62.061  1.00  0.00    -0.550 OA
ENDBRANCH   9  10
ENDBRANCH   8   9
ENDBRANCH   7   8
ENDBRANCH   6   7
ENDBRANCH   5   6
ENDBRANCH   4   5
ENDBRANCH   3   4
ENDBRANCH   1   3
BRANCH   2  13
ATOM     13  C   UNL     1      -4.631 108.618  65.815  1.00  0.00     0.027 C 
BRANCH  13  14
ATOM     14  C   UNL     1      -3.757 109.882  65.800  1.00  0.00     0.004 C 
BRANCH  14  15
ATOM     15  C   UNL     1      -4.360 111.029  66.625  1.00  0.00     0.000 C 
BRANCH  15  16
ATOM     16  C   UNL     1      -3.632 112.366  66.400  1.00  0.00     0.000 C 
BRANCH  16  17
ATOM     17  C   UNL     1      -4.076 113.454  67.391  1.00  0.00    -0.000 C 
BRANCH  17  18
ATOM     18  C   UNL     1      -5.580 113.765  67.292  1.00  0.00    -0.000 C 
BRANCH  18  19
ATOM     19  C   UNL     1      -5.890 115.251  67.535  1.00  0.00    -0.003 C 
ATOM     20  C   UNL     1      -5.569 115.699  68.960  1.00  0.00     0.004 C 
ENDBRANCH  18  19
ENDBRANCH  17  18
ENDBRANCH  16  17
ENDBRANCH  15  16
ENDBRANCH  14  15
ENDBRANCH  13  14
ENDBRANCH   2  13
TORSDOF 15
ENDMDL
MODEL 5
REMARK VINA RESULT:    10.386      3.935      6.742
REMARK INTER + INTRA:          18.315
REMARK INTER:                  19.198
REMARK INTRA:                  -0.883
REMARK UNBOUND:                -1.178
REMARK SMILES CCCCCCCCC=CCCCCCCCC(=O)[O-]
REMARK SMILES IDX 10 1 9 2 11 3 12 4 13 5 14 6 15 7 16 8 17 9 18 10 19 11
REMARK SMILES IDX 20 12 8 13 7 14 6 15 5 16 4 17 3 18 2 19 1 20
REMARK H PARENT
REMARK Flexibility Score: inf
ROOT
ATOM      1  C   UNL     1      -3.604 101.687  63.311  1.00  0.00    -0.031 C 
ATOM      2  C   UNL     1      -2.325 101.276  63.408  1.00  0.00    -0.031 C 
ENDROOT
BRANCH   1   3
ATOM      3  C   UNL     1      -4.228 102.288  62.072  1.00  0.00     0.027 C 
BRANCH   3   4
ATOM      4  C   UNL     1      -4.857 103.653  62.373  1.00  0.00     0.004 C 
BRANCH   4   5
ATOM      5  C   UNL     1      -4.386 104.218  63.726  1.00  0.00     0.000 C 
BRANCH   5   6
ATOM      6  C   UNL     1      -3.538 105.497  63.558  1.00  0.00     0.000 C 
BRANCH   6   7
ATOM      7  C   UNL     1      -4.241 106.769  64.061  1.00  0.00     0.000 C 
BRANCH   7   8
ATOM      8  C   UNL     1      -3.582 107.359  65.318  1.00  0.00     0.006 C 
BRANCH   8   9
ATOM      9  C   UNL     1      -4.463 108.420  65.991  1.00  0.00     0.053 C 
BRANCH   9  10
ATOM     10  C   UNL     1      -5.616 107.806  66.724  1.00  0.00     0.041 C 
ATOM     11  O   UNL     1      -5.432 106.811  67.473  1.00  0.00    -0.550 OA
ATOM     12  O   UNL     1      -6.887 108.352  66.606  1.00  0.00    -0.550 OA
ENDBRANCH   9  10
ENDBRANCH   8   9
ENDBRANCH   7   8
ENDBRANCH   6   7
ENDBRANCH   5   6
ENDBRANCH   4   5
ENDBRANCH   3   4
ENDBRANCH   1   3
BRANCH   2  13
ATOM     13  C   UNL     1      -1.329 101.293  62.277  1.00  0.00     0.027 C 
BRANCH  13  14
ATOM     14  C   UNL     1       0.059 101.733  62.773  1.00  0.00     0.004 C 
BRANCH  14  15
ATOM     15  C   UNL     1       1.021 102.066  61.622  1.00  0.00     0.000 C 
BRANCH  15  16
ATOM     16  C   UNL     1       1.825 103.353  61.877  1.00  0.00     0.000 C 
BRANCH  16  17
ATOM     17  C   UNL     1       0.923 104.571  62.132  1.00  0.00    -0.000 C 
BRANCH  17  18
ATOM     18  C   UNL     1       0.538 104.722  63.614  1.00  0.00    -0.000 C 
BRANCH  18  19
ATOM     19  C   UNL     1       1.536 105.593  64.395  1.00  0.00    -0.003 C 
ATOM     20  C   UNL     1       1.118 105.819  65.847  1.00  0.00     0.004 C 
ENDBRANCH  18  19
ENDBRANCH  17  18
ENDBRANCH  16  17
ENDBRANCH  15  16
ENDBRANCH  14  15
ENDBRANCH  13  14
ENDBRANCH   2  13
TORSDOF 15
ENDMDL
MODEL 6
REMARK VINA RESULT:    10.501      5.320      9.355
REMARK INTER + INTRA:          18.532
REMARK INTER:                  20.268
REMARK INTRA:                  -1.737
REMARK UNBOUND:                -1.178
REMARK SMILES CCCCCCCCC=CCCCCCCCC(=O)[O-]
REMARK SMILES IDX 10 1 9 2 11 3 12 4 13 5 14 6 15 7 16 8 17 9 18 10 19 11
REMARK SMILES IDX 20 12 8 13 7 14 6 15 5 16 4 17 3 18 2 19 1 20
REMARK H PARENT
REMARK Flexibility Score: inf
ROOT
ATOM      1  C   UNL     1      -5.170 104.386  65.612  1.00  0.00    -0.031 C 
ATOM      2  C   UNL     1      -6.077 104.592  66.586  1.00  0.00    -0.031 C 
ENDROOT
BRANCH   1   3
ATOM      3  C   UNL     1      -5.498 104.202  64.148  1.00  0.00     0.027 C 
BRANCH   3   4
ATOM      4  C   UNL     1      -4.224 104.039  63.310  1.00  0.00     0.004 C 
BRANCH   4   5
ATOM      5  C   UNL     1      -4.003 102.579  62.878  1.00  0.00     0.000 C 
BRANCH   5   6
ATOM      6  C   UNL     1      -3.144 101.796  63.894  1.00  0.00     0.000 C 
BRANCH   6   7
ATOM      7  C   UNL     1      -2.208 100.764  63.241  1.00  0.00     0.000 C 
BRANCH   7   8
ATOM      8  C   UNL     1      -1.176 101.405  62.299  1.00  0.00     0.006 C 
BRANCH   8   9
ATOM      9  C   UNL     1      -0.133 102.235  63.061  1.00  0.00     0.053 C 
BRANCH   9  10
ATOM     10  C   UNL     1       0.856 102.874  62.135  1.00  0.00     0.041 C 
ATOM     11  O   UNL     1       1.482 102.174  61.297  1.00  0.00    -0.550 OA
ATOM     12  O   UNL     1       1.063 104.247  62.178  1.00  0.00    -0.550 OA
ENDBRANCH   9  10
ENDBRANCH   8   9
ENDBRANCH   7   8
ENDBRANCH   6   7
ENDBRANCH   5   6
ENDBRANCH   4   5
ENDBRANCH   3   4
ENDBRANCH   1   3
BRANCH   2  13
ATOM     13  C   UNL     1      -7.561 104.734  66.361  1.00  0.00     0.027 C 
BRANCH  13  14
ATOM     14  C   UNL     1      -8.095 106.023  67.007  1.00  0.00     0.004 C 
BRANCH  14  15
ATOM     15  C   UNL     1      -8.125 107.208  66.030  1.00  0.00     0.000 C 
BRANCH  15  16
ATOM     16  C   UNL     1      -7.915 108.560  66.734  1.00  0.00     0.000 C 
BRANCH  16  17
ATOM     17  C   UNL     1      -6.429 108.909  66.911  1.00  0.00    -0.000 C 
BRANCH  17  18
ATOM     18  C   UNL     1      -5.531 108.216  65.870  1.00  0.00    -0.000 C 
BRANCH  18  19
ATOM     19  C   UNL     1      -4.183 107.772  66.459  1.00  0.00    -0.003 C 
ATOM     20  C   UNL     1      -4.245 107.525  67.966  1.00  0.00     0.004 C 
ENDBRANCH  18  19
ENDBRANCH  17  18
ENDBRANCH  16  17
ENDBRANCH  15  16
ENDBRANCH  14  15
ENDBRANCH  13  14
ENDBRANCH   2  13
TORSDOF 15
ENDMDL
MODEL 7
REMARK VINA RESULT:    10.550      5.220     10.403
REMARK INTER + INTRA:          18.624
REMARK INTER:                  19.050
REMARK INTRA:                  -0.426
REMARK UNBOUND:                -1.178
REMARK SMILES CCCCCCCCC=CCCCCCCCC(=O)[O-]
REMARK SMILES IDX 10 1 9 2 11 3 12 4 13 5 14 6 15 7 16 8 17 9 18 10 19 11
REMARK SMILES IDX 20 12 8 13 7 14 6 15 5 16 4 17 3 18 2 19 1 20
REMARK H PARENT
REMARK Flexibility Score: inf
ROOT
ATOM      1  C   UNL     1      -5.429 105.489  66.398  1.00  0.00    -0.031 C 
ATOM      2  C   UNL     1      -5.837 106.632  66.981  1.00  0.00    -0.031 C 
ENDROOT
BRANCH   1   3
ATOM      3  C   UNL     1      -4.811 105.392  65.022  1.00  0.00     0.027 C 
BRANCH   3   4
ATOM      4  C   UNL     1      -4.692 103.933  64.567  1.00  0.00     0.004 C 
BRANCH   4   5
ATOM      5  C   UNL     1      -4.081 103.816  63.159  1.00  0.00     0.000 C 
BRANCH   5   6
ATOM      6  C   UNL     1      -3.867 102.346  62.739  1.00  0.00     0.000 C 
BRANCH   6   7
ATOM      7  C   UNL     1      -2.700 101.662  63.471  1.00  0.00     0.000 C 
BRANCH   7   8
ATOM      8  C   UNL     1      -1.434 101.552  62.605  1.00  0.00     0.006 C 
BRANCH   8   9
ATOM      9  C   UNL     1      -0.262 102.352  63.188  1.00  0.00     0.053 C 
BRANCH   9  10
ATOM     10  C   UNL     1       0.777 102.656  62.152  1.00  0.00     0.041 C 
ATOM     11  O   UNL     1       1.318 103.792  62.112  1.00  0.00    -0.550 OA
ATOM     12  O   UNL     1       1.171 101.674  61.253  1.00  0.00    -0.550 OA
ENDBRANCH   9  10
ENDBRANCH   8   9
ENDBRANCH   7   8
ENDBRANCH   6   7
ENDBRANCH   5   6
ENDBRANCH   4   5
ENDBRANCH   3   4
ENDBRANCH   1   3
BRANCH   2  13
ATOM     13  C   UNL     1      -5.686 108.005  66.380  1.00  0.00     0.027 C 
BRANCH  13  14
ATOM     14  C   UNL     1      -4.203 108.398  66.271  1.00  0.00     0.004 C 
BRANCH  14  15
ATOM     15  C   UNL     1      -4.007 109.842  65.783  1.00  0.00     0.000 C 
BRANCH  15  16
ATOM     16  C   UNL     1      -4.386 110.883  66.851  1.00  0.00     0.000 C 
BRANCH  16  17
ATOM     17  C   UNL     1      -3.934 112.304  66.477  1.00  0.00    -0.000 C 
BRANCH  17  18
ATOM     18  C   UNL     1      -4.237 113.330  67.582  1.00  0.00    -0.000 C 
BRANCH  18  19
ATOM     19  C   UNL     1      -5.537 114.107  67.321  1.00  0.00    -0.003 C 
ATOM     20  C   UNL     1      -5.607 115.425  68.091  1.00  0.00     0.004 C 
ENDBRANCH  18  19
ENDBRANCH  17  18
ENDBRANCH  16  17
ENDBRANCH  15  16
ENDBRANCH  14  15
ENDBRANCH  13  14
ENDBRANCH   2  13
TORSDOF 15
ENDMDL
