MODEL 1
REMARK VINA RESULT:    -6.564      0.000      0.000
REMARK INTER + INTRA:         -12.073
REMARK INTER:                 -10.210
REMARK INTRA:                  -1.863
REMARK UNBOUND:                -1.863
REMARK SMILES C[C@@]12C[C@@]3(O)O[C@@H](O1)[C@]1(COC(=O)c4ccccc4)[C@H]3C[C@@]12O[C@H]1O[C@@H](CO)[C@@H](O)[C@H](O)[C@H]1O
REMARK SMILES IDX 1 1 2 2 3 3 4 4 20 5 21 6 22 7 9 8 7 9 8 10 6 11 23 12 24 13
REMARK SMILES IDX 33 14 25 15 31 16 26 17 29 18 34 19 32 21 27 23 28 24 30 26
REMARK SMILES IDX 5 28 10 30 11 31 12 32 13 33 14 34 15 35 19 36 16 37 18 38
REMARK SMILES IDX 17 39
REMARK H PARENT 34 20 32 22 28 25 30 27 5 29
REMARK Flexibility Score: inf
ROOT
ATOM      1  C   UNL     1     167.942 144.774 153.374  1.00  0.00     0.046 C 
ATOM      2  C   UNL     1     169.060 144.794 154.418  1.00  0.00     0.104 C 
ATOM      3  C   UNL     1     169.023 146.107 155.284  1.00  0.00     0.104 C 
ATOM      4  C   UNL     1     170.281 145.965 156.211  1.00  0.00     0.175 C 
ATOM      5  C   UNL     1     171.533 145.581 155.366  1.00  0.00     0.070 C 
ATOM      6  C   UNL     1     171.362 145.865 153.864  1.00  0.00     0.050 C 
ATOM      7  C   UNL     1     170.506 144.572 153.821  1.00  0.00     0.115 C 
ATOM      8  C   UNL     1     171.197 144.111 155.107  1.00  0.00     0.096 C 
ATOM      9  C   UNL     1     170.098 143.753 156.095  1.00  0.00     0.267 C 
ATOM     10  O   UNL     1     168.894 143.734 155.343  1.00  0.00    -0.342 OA
ATOM     11  O   UNL     1     170.048 144.825 157.024  1.00  0.00    -0.320 OA
ENDROOT
BRANCH   7  12
ATOM     12  O   UNL     1     170.491 143.668 152.706  1.00  0.00    -0.339 OA
BRANCH  12  13
ATOM     13  C   UNL     1     171.445 143.880 151.677  1.00  0.00     0.282 C 
ATOM     14  C   UNL     1     170.814 144.337 150.316  1.00  0.00     0.202 C 
ATOM     15  O   UNL     1     172.264 142.716 151.572  1.00  0.00    -0.341 OA
ATOM     16  C   UNL     1     170.299 143.182 149.439  1.00  0.00     0.179 C 
ATOM     17  C   UNL     1     171.708 141.640 150.821  1.00  0.00     0.178 C 
ATOM     18  C   UNL     1     171.349 142.078 149.393  1.00  0.00     0.177 C 
BRANCH  14  19
ATOM     19  O   UNL     1     169.814 145.315 150.499  1.00  0.00    -0.385 OA
ATOM     20  H   UNL     1     169.199 145.032 151.211  1.00  0.00     0.211 HD
ENDBRANCH  14  19
BRANCH  16  21
ATOM     21  O   UNL     1     170.056 143.645 148.135  1.00  0.00    -0.387 OA
ATOM     22  H   UNL     1     169.304 144.298 148.191  1.00  0.00     0.211 HD
ENDBRANCH  16  21
BRANCH  17  23
ATOM     23  C   UNL     1     170.580 140.877 151.571  1.00  0.00     0.191 C 
BRANCH  23  24
ATOM     24  O   UNL     1     170.833 140.875 152.948  1.00  0.00    -0.394 OA
ATOM     25  H   UNL     1     171.409 140.079 153.112  1.00  0.00     0.210 HD
ENDBRANCH  23  24
ENDBRANCH  17  23
BRANCH  18  26
ATOM     26  O   UNL     1     170.865 140.983 148.646  1.00  0.00    -0.387 OA
ATOM     27  H   UNL     1     169.895 140.869 148.864  1.00  0.00     0.211 HD
ENDBRANCH  18  26
ENDBRANCH  12  13
ENDBRANCH   7  12
BRANCH   4  28
ATOM     28  O   UNL     1     170.505 147.114 156.981  1.00  0.00    -0.365 OA
ATOM     29  H   UNL     1     170.089 147.873 156.488  1.00  0.00     0.214 HD
ENDBRANCH   4  28
BRANCH   8  30
ATOM     30  C   UNL     1     172.428 143.192 155.091  1.00  0.00     0.249 C 
BRANCH  30  31
ATOM     31  O   UNL     1     172.631 142.567 156.358  1.00  0.00    -0.461 OA
BRANCH  31  32
ATOM     32  C   UNL     1     173.673 142.915 157.231  1.00  0.00     0.338 C 
ATOM     33  O   UNL     1     174.587 142.082 157.494  1.00  0.00    -0.246 OA
BRANCH  32  34
ATOM     34  C   UNL     1     173.689 144.248 157.869  1.00  0.00     0.060 A 
ATOM     35  C   UNL     1     174.566 145.244 157.397  1.00  0.00     0.015 A 
ATOM     36  C   UNL     1     172.797 144.560 158.913  1.00  0.00     0.015 A 
ATOM     37  C   UNL     1     174.552 146.523 157.958  1.00  0.00     0.001 A 
ATOM     38  C   UNL     1     172.782 145.846 159.469  1.00  0.00     0.001 A 
ATOM     39  C   UNL     1     173.660 146.826 158.996  1.00  0.00     0.000 A 
ENDBRANCH  32  34
ENDBRANCH  31  32
ENDBRANCH  30  31
ENDBRANCH   8  30
TORSDOF 12
ENDMDL
MODEL 2
REMARK VINA RESULT:    -6.533      2.043      7.682
REMARK INTER + INTRA:         -12.024
REMARK INTER:                 -10.181
REMARK INTRA:                  -1.843
REMARK UNBOUND:                -1.863
REMARK SMILES C[C@@]12C[C@@]3(O)O[C@@H](O1)[C@]1(COC(=O)c4ccccc4)[C@H]3C[C@@]12O[C@H]1O[C@@H](CO)[C@@H](O)[C@H](O)[C@H]1O
REMARK SMILES IDX 1 1 2 2 3 3 4 4 20 5 21 6 22 7 9 8 7 9 8 10 6 11 23 12 24 13
REMARK SMILES IDX 33 14 25 15 31 16 26 17 29 18 34 19 32 21 27 23 28 24 30 26
REMARK SMILES IDX 5 28 10 30 11 31 12 32 13 33 14 34 15 35 19 36 16 37 18 38
REMARK SMILES IDX 17 39
REMARK H PARENT 34 20 32 22 28 25 30 27 5 29
REMARK Flexibility Score: inf
ROOT
ATOM      1  C   UNL     1     174.704 141.217 156.207  1.00  0.00     0.046 C 
ATOM      2  C   UNL     1     173.740 141.738 155.139  1.00  0.00     0.104 C 
ATOM      3  C   UNL     1     174.351 141.611 153.695  1.00  0.00     0.104 C 
ATOM      4  C   UNL     1     173.259 142.269 152.781  1.00  0.00     0.175 C 
ATOM      5  C   UNL     1     172.827 143.648 153.364  1.00  0.00     0.070 C 
ATOM      6  C   UNL     1     173.832 144.221 154.377  1.00  0.00     0.050 C 
ATOM      7  C   UNL     1     173.230 143.212 155.391  1.00  0.00     0.115 C 
ATOM      8  C   UNL     1     171.967 143.149 154.527  1.00  0.00     0.096 C 
ATOM      9  C   UNL     1     171.697 141.679 154.248  1.00  0.00     0.267 C 
ATOM     10  O   UNL     1     172.559 140.956 155.112  1.00  0.00    -0.342 OA
ATOM     11  O   UNL     1     172.099 141.460 152.903  1.00  0.00    -0.320 OA
ENDROOT
BRANCH   7  12
ATOM     12  O   UNL     1     173.074 143.492 156.790  1.00  0.00    -0.339 OA
BRANCH  12  13
ATOM     13  C   UNL     1     173.439 144.785 157.244  1.00  0.00     0.282 C 
ATOM     14  C   UNL     1     174.336 144.772 158.531  1.00  0.00     0.202 C 
ATOM     15  O   UNL     1     172.254 145.571 157.375  1.00  0.00    -0.341 OA
ATOM     16  C   UNL     1     173.549 144.659 159.849  1.00  0.00     0.179 C 
ATOM     17  C   UNL     1     171.513 145.369 158.576  1.00  0.00     0.178 C 
ATOM     18  C   UNL     1     172.376 145.631 159.819  1.00  0.00     0.177 C 
BRANCH  14  19
ATOM     19  O   UNL     1     175.345 143.789 158.461  1.00  0.00    -0.385 OA
ATOM     20  H   UNL     1     175.815 143.856 157.602  1.00  0.00     0.211 HD
ENDBRANCH  14  19
BRANCH  16  21
ATOM     21  O   UNL     1     174.386 144.975 160.932  1.00  0.00    -0.387 OA
ATOM     22  H   UNL     1     173.852 145.536 161.562  1.00  0.00     0.211 HD
ENDBRANCH  16  21
BRANCH  17  23
ATOM     23  C   UNL     1     170.724 144.029 158.601  1.00  0.00     0.191 C 
BRANCH  23  24
ATOM     24  O   UNL     1     169.462 144.224 159.176  1.00  0.00    -0.394 OA
ATOM     25  H   UNL     1     169.632 144.379 160.144  1.00  0.00     0.210 HD
ENDBRANCH  23  24
ENDBRANCH  17  23
BRANCH  18  26
ATOM     26  O   UNL     1     171.605 145.493 160.994  1.00  0.00    -0.387 OA
ATOM     27  H   UNL     1     171.974 144.720 161.512  1.00  0.00     0.211 HD
ENDBRANCH  18  26
ENDBRANCH  12  13
ENDBRANCH   7  12
BRANCH   4  28
ATOM     28  O   UNL     1     173.677 142.377 151.447  1.00  0.00    -0.365 OA
ATOM     29  H   UNL     1     174.356 143.105 151.420  1.00  0.00     0.214 HD
ENDBRANCH   4  28
BRANCH   8  30
ATOM     30  C   UNL     1     170.740 144.028 154.807  1.00  0.00     0.249 C 
BRANCH  30  31
ATOM     31  O   UNL     1     169.572 143.517 154.166  1.00  0.00    -0.461 OA
BRANCH  31  32
ATOM     32  C   UNL     1     168.946 144.155 153.083  1.00  0.00     0.338 C 
ATOM     33  O   UNL     1     167.775 144.614 153.207  1.00  0.00    -0.246 OA
BRANCH  32  34
ATOM     34  C   UNL     1     169.645 144.267 151.785  1.00  0.00     0.060 A 
ATOM     35  C   UNL     1     170.057 145.529 151.314  1.00  0.00     0.015 A 
ATOM     36  C   UNL     1     169.957 143.119 151.033  1.00  0.00     0.015 A 
ATOM     37  C   UNL     1     170.764 145.639 150.115  1.00  0.00     0.001 A 
ATOM     38  C   UNL     1     170.672 143.233 149.833  1.00  0.00     0.001 A 
ATOM     39  C   UNL     1     171.073 144.491 149.371  1.00  0.00     0.000 A 
ENDBRANCH  32  34
ENDBRANCH  31  32
ENDBRANCH  30  31
ENDBRANCH   8  30
TORSDOF 12
ENDMDL
MODEL 3
REMARK VINA RESULT:    -6.402      2.271      6.988
REMARK INTER + INTRA:         -11.820
REMARK INTER:                 -10.801
REMARK INTRA:                  -1.019
REMARK UNBOUND:                -1.863
REMARK SMILES C[C@@]12C[C@@]3(O)O[C@@H](O1)[C@]1(COC(=O)c4ccccc4)[C@H]3C[C@@]12O[C@H]1O[C@@H](CO)[C@@H](O)[C@H](O)[C@H]1O
REMARK SMILES IDX 1 1 2 2 3 3 4 4 20 5 21 6 22 7 9 8 7 9 8 10 6 11 23 12 24 13
REMARK SMILES IDX 33 14 25 15 31 16 26 17 29 18 34 19 32 21 27 23 28 24 30 26
REMARK SMILES IDX 5 28 10 30 11 31 12 32 13 33 14 34 15 35 19 36 16 37 18 38
REMARK SMILES IDX 17 39
REMARK H PARENT 34 20 32 22 28 25 30 27 5 29
REMARK Flexibility Score: inf
ROOT
ATOM      1  C   UNL     1     170.483 146.873 156.325  1.00  0.00     0.046 C 
ATOM      2  C   UNL     1     170.112 145.789 155.311  1.00  0.00     0.104 C 
ATOM      3  C   UNL     1     168.647 145.979 154.770  1.00  0.00     0.104 C 
ATOM      4  C   UNL     1     168.445 144.737 153.832  1.00  0.00     0.175 C 
ATOM      5  C   UNL     1     168.881 143.432 154.564  1.00  0.00     0.070 C 
ATOM      6  C   UNL     1     168.966 143.591 156.091  1.00  0.00     0.050 C 
ATOM      7  C   UNL     1     170.315 144.313 155.838  1.00  0.00     0.115 C 
ATOM      8  C   UNL     1     170.397 143.614 154.479  1.00  0.00     0.096 C 
ATOM      9  C   UNL     1     170.632 144.697 153.438  1.00  0.00     0.267 C 
ATOM     10  O   UNL     1     170.944 145.874 154.168  1.00  0.00    -0.342 OA
ATOM     11  O   UNL     1     169.386 144.877 152.779  1.00  0.00    -0.320 OA
ENDROOT
BRANCH   7  12
ATOM     12  O   UNL     1     171.446 144.211 156.716  1.00  0.00    -0.339 OA
BRANCH  12  13
ATOM     13  C   UNL     1     171.347 143.313 157.810  1.00  0.00     0.282 C 
ATOM     14  C   UNL     1     170.861 143.991 159.139  1.00  0.00     0.202 C 
ATOM     15  O   UNL     1     172.585 142.615 157.939  1.00  0.00    -0.341 OA
ATOM     16  C   UNL     1     171.980 144.670 159.949  1.00  0.00     0.179 C 
ATOM     17  C   UNL     1     173.619 143.318 158.622  1.00  0.00     0.178 C 
ATOM     18  C   UNL     1     173.178 143.732 160.034  1.00  0.00     0.177 C 
BRANCH  14  19
ATOM     19  O   UNL     1     169.789 144.881 158.917  1.00  0.00    -0.385 OA
ATOM     20  H   UNL     1     168.940 144.438 159.136  1.00  0.00     0.211 HD
ENDBRANCH  14  19
BRANCH  16  21
ATOM     21  O   UNL     1     171.523 144.957 161.246  1.00  0.00    -0.387 OA
ATOM     22  H   UNL     1     170.954 144.190 161.533  1.00  0.00     0.211 HD
ENDBRANCH  16  21
BRANCH  17  23
ATOM     23  C   UNL     1     174.256 144.459 157.779  1.00  0.00     0.191 C 
BRANCH  23  24
ATOM     24  O   UNL     1     174.430 144.039 156.454  1.00  0.00    -0.394 OA
ATOM     25  H   UNL     1     174.179 143.076 156.445  1.00  0.00     0.210 HD
ENDBRANCH  23  24
ENDBRANCH  17  23
BRANCH  18  26
ATOM     26  O   UNL     1     174.238 144.366 160.718  1.00  0.00    -0.387 OA
ATOM     27  H   UNL     1     174.822 144.807 160.034  1.00  0.00     0.211 HD
ENDBRANCH  18  26
ENDBRANCH  12  13
ENDBRANCH   7  12
BRANCH   4  28
ATOM     28  O   UNL     1     167.133 144.647 153.345  1.00  0.00    -0.365 OA
ATOM     29  H   UNL     1     166.998 143.700 153.067  1.00  0.00     0.214 HD
ENDBRANCH   4  28
BRANCH   8  30
ATOM     30  C   UNL     1     171.165 142.298 154.280  1.00  0.00     0.249 C 
BRANCH  30  31
ATOM     31  O   UNL     1     171.956 142.327 153.093  1.00  0.00    -0.461 OA
BRANCH  31  32
ATOM     32  C   UNL     1     173.355 142.212 153.096  1.00  0.00     0.338 C 
ATOM     33  O   UNL     1     174.003 142.366 154.170  1.00  0.00    -0.246 OA
BRANCH  32  34
ATOM     34  C   UNL     1     174.077 141.939 151.835  1.00  0.00     0.060 A 
ATOM     35  C   UNL     1     175.439 141.581 151.868  1.00  0.00     0.015 A 
ATOM     36  C   UNL     1     173.408 141.974 150.597  1.00  0.00     0.015 A 
ATOM     37  C   UNL     1     176.117 141.269 150.687  1.00  0.00     0.001 A 
ATOM     38  C   UNL     1     174.090 141.655 149.416  1.00  0.00     0.001 A 
ATOM     39  C   UNL     1     175.444 141.306 149.458  1.00  0.00     0.000 A 
ENDBRANCH  32  34
ENDBRANCH  31  32
ENDBRANCH  30  31
ENDBRANCH   8  30
TORSDOF 12
ENDMDL
MODEL 4
REMARK VINA RESULT:    -6.261      2.038      5.543
REMARK INTER + INTRA:         -11.601
REMARK INTER:                  -9.867
REMARK INTRA:                  -1.734
REMARK UNBOUND:                -1.863
REMARK SMILES C[C@@]12C[C@@]3(O)O[C@@H](O1)[C@]1(COC(=O)c4ccccc4)[C@H]3C[C@@]12O[C@H]1O[C@@H](CO)[C@@H](O)[C@H](O)[C@H]1O
REMARK SMILES IDX 1 1 2 2 3 3 4 4 20 5 21 6 22 7 9 8 7 9 8 10 6 11 23 12 24 13
REMARK SMILES IDX 33 14 25 15 31 16 26 17 29 18 34 19 32 21 27 23 28 24 30 26
REMARK SMILES IDX 5 28 10 30 11 31 12 32 13 33 14 34 15 35 19 36 16 37 18 38
REMARK SMILES IDX 17 39
REMARK H PARENT 34 20 32 22 28 25 30 27 5 29
REMARK Flexibility Score: inf
ROOT
ATOM      1  C   UNL     1     169.390 145.373 152.551  1.00  0.00     0.046 C 
ATOM      2  C   UNL     1     170.243 144.224 152.009  1.00  0.00     0.104 C 
ATOM      3  C   UNL     1     169.774 143.781 150.574  1.00  0.00     0.104 C 
ATOM      4  C   UNL     1     170.704 142.559 150.251  1.00  0.00     0.175 C 
ATOM      5  C   UNL     1     170.718 141.561 151.447  1.00  0.00     0.070 C 
ATOM      6  C   UNL     1     169.538 141.755 152.415  1.00  0.00     0.050 C 
ATOM      7  C   UNL     1     170.325 142.971 152.969  1.00  0.00     0.115 C 
ATOM      8  C   UNL     1     171.609 142.357 152.403  1.00  0.00     0.096 C 
ATOM      9  C   UNL     1     172.277 143.429 151.558  1.00  0.00     0.267 C 
ATOM     10  O   UNL     1     171.588 144.636 151.849  1.00  0.00    -0.342 OA
ATOM     11  O   UNL     1     172.028 143.068 150.207  1.00  0.00    -0.320 OA
ENDROOT
BRANCH   7  12
ATOM     12  O   UNL     1     170.318 143.357 154.352  1.00  0.00    -0.339 OA
BRANCH  12  13
ATOM     13  C   UNL     1     169.631 142.515 155.263  1.00  0.00     0.282 C 
ATOM     14  C   UNL     1     168.264 143.103 155.757  1.00  0.00     0.202 C 
ATOM     15  O   UNL     1     170.524 142.166 156.321  1.00  0.00    -0.341 OA
ATOM     16  C   UNL     1     168.386 144.083 156.938  1.00  0.00     0.179 C 
ATOM     17  C   UNL     1     170.670 143.142 157.349  1.00  0.00     0.178 C 
ATOM     18  C   UNL     1     169.318 143.491 157.988  1.00  0.00     0.177 C 
BRANCH  14  19
ATOM     19  O   UNL     1     167.522 143.675 154.702  1.00  0.00    -0.385 OA
ATOM     20  H   UNL     1     167.077 142.968 154.187  1.00  0.00     0.211 HD
ENDBRANCH  14  19
BRANCH  16  21
ATOM     21  O   UNL     1     167.121 144.301 157.509  1.00  0.00    -0.387 OA
ATOM     22  H   UNL     1     166.562 144.756 156.820  1.00  0.00     0.211 HD
ENDBRANCH  16  21
BRANCH  17  23
ATOM     23  C   UNL     1     171.525 144.369 156.922  1.00  0.00     0.191 C 
BRANCH  23  24
ATOM     24  O   UNL     1     172.180 144.910 158.036  1.00  0.00    -0.394 OA
ATOM     25  H   UNL     1     171.555 145.590 158.408  1.00  0.00     0.210 HD
ENDBRANCH  23  24
ENDBRANCH  17  23
BRANCH  18  26
ATOM     26  O   UNL     1     169.493 144.407 159.048  1.00  0.00    -0.387 OA
ATOM     27  H   UNL     1     169.515 145.328 158.656  1.00  0.00     0.211 HD
ENDBRANCH  18  26
ENDBRANCH  12  13
ENDBRANCH   7  12
BRANCH   4  28
ATOM     28  O   UNL     1     170.352 141.927 149.050  1.00  0.00    -0.365 OA
ATOM     29  H   UNL     1     169.502 141.437 149.226  1.00  0.00     0.214 HD
ENDBRANCH   4  28
BRANCH   8  30
ATOM     30  C   UNL     1     172.539 141.478 153.253  1.00  0.00     0.249 C 
BRANCH  30  31
ATOM     31  O   UNL     1     173.852 142.032 153.335  1.00  0.00    -0.461 OA
BRANCH  31  32
ATOM     32  C   UNL     1     174.504 142.292 154.550  1.00  0.00     0.338 C 
ATOM     33  O   UNL     1     174.957 141.339 155.245  1.00  0.00    -0.246 OA
BRANCH  32  34
ATOM     34  C   UNL     1     174.638 143.683 155.035  1.00  0.00     0.060 A 
ATOM     35  C   UNL     1     174.015 144.736 154.336  1.00  0.00     0.015 A 
ATOM     36  C   UNL     1     175.335 143.968 156.224  1.00  0.00     0.015 A 
ATOM     37  C   UNL     1     174.092 146.045 154.815  1.00  0.00     0.001 A 
ATOM     38  C   UNL     1     175.405 145.283 156.705  1.00  0.00     0.001 A 
ATOM     39  C   UNL     1     174.788 146.321 156.000  1.00  0.00     0.000 A 
ENDBRANCH  32  34
ENDBRANCH  31  32
ENDBRANCH  30  31
ENDBRANCH   8  30
TORSDOF 12
ENDMDL
MODEL 5
REMARK VINA RESULT:    -6.238      2.289      7.340
REMARK INTER + INTRA:         -11.565
REMARK INTER:                 -10.379
REMARK INTRA:                  -1.187
REMARK UNBOUND:                -1.863
REMARK SMILES C[C@@]12C[C@@]3(O)O[C@@H](O1)[C@]1(COC(=O)c4ccccc4)[C@H]3C[C@@]12O[C@H]1O[C@@H](CO)[C@@H](O)[C@H](O)[C@H]1O
REMARK SMILES IDX 1 1 2 2 3 3 4 4 20 5 21 6 22 7 9 8 7 9 8 10 6 11 23 12 24 13
REMARK SMILES IDX 33 14 25 15 31 16 26 17 29 18 34 19 32 21 27 23 28 24 30 26
REMARK SMILES IDX 5 28 10 30 11 31 12 32 13 33 14 34 15 35 19 36 16 37 18 38
REMARK SMILES IDX 17 39
REMARK H PARENT 34 20 32 22 28 25 30 27 5 29
REMARK Flexibility Score: inf
ROOT
ATOM      1  C   UNL     1     168.303 144.324 156.193  1.00  0.00     0.046 C 
ATOM      2  C   UNL     1     169.286 143.844 155.123  1.00  0.00     0.104 C 
ATOM      3  C   UNL     1     168.668 142.698 154.241  1.00  0.00     0.104 C 
ATOM      4  C   UNL     1     169.848 142.300 153.286  1.00  0.00     0.175 C 
ATOM      5  C   UNL     1     171.155 142.082 154.107  1.00  0.00     0.070 C 
ATOM      6  C   UNL     1     170.901 141.866 155.608  1.00  0.00     0.050 C 
ATOM      7  C   UNL     1     170.693 143.401 155.690  1.00  0.00     0.115 C 
ATOM      8  C   UNL     1     171.496 143.545 154.394  1.00  0.00     0.096 C 
ATOM      9  C   UNL     1     170.648 144.368 153.438  1.00  0.00     0.267 C 
ATOM     10  O   UNL     1     169.583 144.891 154.217  1.00  0.00    -0.342 OA
ATOM     11  O   UNL     1     170.122 143.445 152.495  1.00  0.00    -0.320 OA
ENDROOT
BRANCH   7  12
ATOM     12  O   UNL     1     171.089 144.196 156.817  1.00  0.00    -0.339 OA
BRANCH  12  13
ATOM     13  C   UNL     1     171.668 143.522 157.923  1.00  0.00     0.282 C 
ATOM     14  C   UNL     1     171.133 144.015 159.312  1.00  0.00     0.202 C 
ATOM     15  O   UNL     1     173.089 143.584 157.798  1.00  0.00    -0.341 OA
ATOM     16  C   UNL     1     171.842 145.268 159.856  1.00  0.00     0.179 C 
ATOM     17  C   UNL     1     173.693 144.798 158.235  1.00  0.00     0.178 C 
ATOM     18  C   UNL     1     173.348 145.101 159.701  1.00  0.00     0.177 C 
BRANCH  14  19
ATOM     19  O   UNL     1     169.733 144.190 159.308  1.00  0.00    -0.385 OA
ATOM     20  H   UNL     1     169.324 143.610 159.986  1.00  0.00     0.211 HD
ENDBRANCH  14  19
BRANCH  16  21
ATOM     21  O   UNL     1     171.531 145.441 161.215  1.00  0.00    -0.387 OA
ATOM     22  H   UNL     1     171.702 144.569 161.668  1.00  0.00     0.211 HD
ENDBRANCH  16  21
BRANCH  17  23
ATOM     23  C   UNL     1     173.474 145.987 157.257  1.00  0.00     0.191 C 
BRANCH  23  24
ATOM     24  O   UNL     1     174.421 146.990 157.499  1.00  0.00    -0.394 OA
ATOM     25  H   UNL     1     174.937 147.080 156.653  1.00  0.00     0.210 HD
ENDBRANCH  23  24
ENDBRANCH  17  23
BRANCH  18  26
ATOM     26  O   UNL     1     174.011 146.270 160.134  1.00  0.00    -0.387 OA
ATOM     27  H   UNL     1     174.277 146.134 161.089  1.00  0.00     0.211 HD
ENDBRANCH  18  26
ENDBRANCH  12  13
ENDBRANCH   7  12
BRANCH   4  28
ATOM     28  O   UNL     1     169.539 141.185 152.495  1.00  0.00    -0.365 OA
ATOM     29  H   UNL     1     168.933 140.611 153.038  1.00  0.00     0.214 HD
ENDBRANCH   4  28
BRANCH   8  30
ATOM     30  C   UNL     1     173.004 143.837 154.394  1.00  0.00     0.249 C 
BRANCH  30  31
ATOM     31  O   UNL     1     173.564 143.702 153.088  1.00  0.00    -0.461 OA
BRANCH  31  32
ATOM     32  C   UNL     1     174.265 142.562 152.665  1.00  0.00     0.338 C 
ATOM     33  O   UNL     1     175.115 142.019 153.427  1.00  0.00    -0.246 OA
BRANCH  32  34
ATOM     34  C   UNL     1     174.033 142.010 151.313  1.00  0.00     0.060 A 
ATOM     35  C   UNL     1     172.778 142.170 150.693  1.00  0.00     0.015 A 
ATOM     36  C   UNL     1     175.070 141.371 150.607  1.00  0.00     0.015 A 
ATOM     37  C   UNL     1     172.566 141.698 149.396  1.00  0.00     0.001 A 
ATOM     38  C   UNL     1     174.854 140.904 149.304  1.00  0.00     0.001 A 
ATOM     39  C   UNL     1     173.603 141.064 148.699  1.00  0.00     0.000 A 
ENDBRANCH  32  34
ENDBRANCH  31  32
ENDBRANCH  30  31
ENDBRANCH   8  30
TORSDOF 12
ENDMDL
MODEL 6
REMARK VINA RESULT:    -6.165      1.677      2.938
REMARK INTER + INTRA:         -11.452
REMARK INTER:                 -10.961
REMARK INTRA:                  -0.491
REMARK UNBOUND:                -1.863
REMARK SMILES C[C@@]12C[C@@]3(O)O[C@@H](O1)[C@]1(COC(=O)c4ccccc4)[C@H]3C[C@@]12O[C@H]1O[C@@H](CO)[C@@H](O)[C@H](O)[C@H]1O
REMARK SMILES IDX 1 1 2 2 3 3 4 4 20 5 21 6 22 7 9 8 7 9 8 10 6 11 23 12 24 13
REMARK SMILES IDX 33 14 25 15 31 16 26 17 29 18 34 19 32 21 27 23 28 24 30 26
REMARK SMILES IDX 5 28 10 30 11 31 12 32 13 33 14 34 15 35 19 36 16 37 18 38
REMARK SMILES IDX 17 39
REMARK H PARENT 34 20 32 22 28 25 30 27 5 29
REMARK Flexibility Score: inf
ROOT
ATOM      1  C   UNL     1     169.060 141.636 153.355  1.00  0.00     0.046 C 
ATOM      2  C   UNL     1     169.244 142.783 154.351  1.00  0.00     0.104 C 
ATOM      3  C   UNL     1     167.940 143.033 155.194  1.00  0.00     0.104 C 
ATOM      4  C   UNL     1     168.309 144.281 156.071  1.00  0.00     0.175 C 
ATOM      5  C   UNL     1     168.931 145.399 155.180  1.00  0.00     0.070 C 
ATOM      6  C   UNL     1     168.634 145.219 153.683  1.00  0.00     0.050 C 
ATOM      7  C   UNL     1     169.741 144.133 153.697  1.00  0.00     0.115 C 
ATOM      8  C   UNL     1     170.313 144.781 154.962  1.00  0.00     0.096 C 
ATOM      9  C   UNL     1     170.447 143.679 156.001  1.00  0.00     0.267 C 
ATOM     10  O   UNL     1     170.244 142.461 155.300  1.00  0.00    -0.342 OA
ATOM     11  O   UNL     1     169.376 143.873 156.912  1.00  0.00    -0.320 OA
ENDROOT
BRANCH   7  12
ATOM     12  O   UNL     1     170.636 143.898 152.600  1.00  0.00    -0.339 OA
BRANCH  12  13
ATOM     13  C   UNL     1     170.176 143.067 151.546  1.00  0.00     0.282 C 
ATOM     14  C   UNL     1     171.292 142.150 150.934  1.00  0.00     0.202 C 
ATOM     15  O   UNL     1     169.507 143.882 150.585  1.00  0.00    -0.341 OA
ATOM     16  C   UNL     1     172.154 142.836 149.859  1.00  0.00     0.179 C 
ATOM     17  C   UNL     1     170.352 144.565 149.663  1.00  0.00     0.178 C 
ATOM     18  C   UNL     1     171.247 143.585 148.890  1.00  0.00     0.177 C 
BRANCH  14  19
ATOM     19  O   UNL     1     172.101 141.564 151.930  1.00  0.00    -0.385 OA
ATOM     20  H   UNL     1     172.995 141.970 151.912  1.00  0.00     0.211 HD
ENDBRANCH  14  19
BRANCH  16  21
ATOM     21  O   UNL     1     172.892 141.871 149.152  1.00  0.00    -0.387 OA
ATOM     22  H   UNL     1     173.857 142.083 149.288  1.00  0.00     0.211 HD
ENDBRANCH  16  21
BRANCH  17  23
ATOM     23  C   UNL     1     171.101 145.776 150.288  1.00  0.00     0.191 C 
BRANCH  23  24
ATOM     24  O   UNL     1     170.218 146.542 151.060  1.00  0.00    -0.394 OA
ATOM     25  H   UNL     1     170.485 146.385 152.006  1.00  0.00     0.210 HD
ENDBRANCH  23  24
ENDBRANCH  17  23
BRANCH  18  26
ATOM     26  O   UNL     1     172.026 144.274 147.935  1.00  0.00    -0.387 OA
ATOM     27  H   UNL     1     172.971 144.290 148.266  1.00  0.00     0.211 HD
ENDBRANCH  18  26
ENDBRANCH  12  13
ENDBRANCH   7  12
BRANCH   4  28
ATOM     28  O   UNL     1     167.216 144.753 156.810  1.00  0.00    -0.365 OA
ATOM     29  H   UNL     1     166.612 145.211 156.164  1.00  0.00     0.214 HD
ENDBRANCH   4  28
BRANCH   8  30
ATOM     30  C   UNL     1     171.448 145.813 154.910  1.00  0.00     0.249 C 
BRANCH  30  31
ATOM     31  O   UNL     1     172.682 145.259 155.366  1.00  0.00    -0.461 OA
BRANCH  31  32
ATOM     32  C   UNL     1     173.389 145.756 156.471  1.00  0.00     0.338 C 
ATOM     33  O   UNL     1     174.522 146.293 156.311  1.00  0.00    -0.246 OA
BRANCH  32  34
ATOM     34  C   UNL     1     172.823 145.628 157.831  1.00  0.00     0.060 A 
ATOM     35  C   UNL     1     172.096 146.696 158.394  1.00  0.00     0.015 A 
ATOM     36  C   UNL     1     172.950 144.428 158.556  1.00  0.00     0.015 A 
ATOM     37  C   UNL     1     171.513 146.565 159.656  1.00  0.00     0.001 A 
ATOM     38  C   UNL     1     172.357 144.299 159.819  1.00  0.00     0.001 A 
ATOM     39  C   UNL     1     171.643 145.367 160.372  1.00  0.00     0.000 A 
ENDBRANCH  32  34
ENDBRANCH  31  32
ENDBRANCH  30  31
ENDBRANCH   8  30
TORSDOF 12
ENDMDL
MODEL 7
REMARK VINA RESULT:    -6.129      2.380      5.252
REMARK INTER + INTRA:         -11.395
REMARK INTER:                  -9.729
REMARK INTRA:                  -1.666
REMARK UNBOUND:                -1.863
REMARK SMILES C[C@@]12C[C@@]3(O)O[C@@H](O1)[C@]1(COC(=O)c4ccccc4)[C@H]3C[C@@]12O[C@H]1O[C@@H](CO)[C@@H](O)[C@H](O)[C@H]1O
REMARK SMILES IDX 1 1 2 2 3 3 4 4 20 5 21 6 22 7 9 8 7 9 8 10 6 11 23 12 24 13
REMARK SMILES IDX 33 14 25 15 31 16 26 17 29 18 34 19 32 21 27 23 28 24 30 26
REMARK SMILES IDX 5 28 10 30 11 31 12 32 13 33 14 34 15 35 19 36 16 37 18 38
REMARK SMILES IDX 17 39
REMARK H PARENT 34 20 32 22 28 25 30 27 5 29
REMARK Flexibility Score: inf
ROOT
ATOM      1  C   UNL     1     175.302 145.610 156.020  1.00  0.00     0.046 C 
ATOM      2  C   UNL     1     174.313 145.274 157.140  1.00  0.00     0.104 C 
ATOM      3  C   UNL     1     174.954 145.484 158.561  1.00  0.00     0.104 C 
ATOM      4  C   UNL     1     173.824 145.009 159.541  1.00  0.00     0.175 C 
ATOM      5  C   UNL     1     173.271 143.622 159.093  1.00  0.00     0.070 C 
ATOM      6  C   UNL     1     174.211 142.875 158.132  1.00  0.00     0.050 C 
ATOM      7  C   UNL     1     173.680 143.830 157.032  1.00  0.00     0.115 C 
ATOM      8  C   UNL     1     172.439 144.080 157.894  1.00  0.00     0.096 C 
ATOM      9  C   UNL     1     172.295 145.587 158.035  1.00  0.00     0.267 C 
ATOM     10  O   UNL     1     173.202 146.151 157.100  1.00  0.00    -0.342 OA
ATOM     11  O   UNL     1     172.734 145.896 159.350  1.00  0.00    -0.320 OA
ENDROOT
BRANCH   7  12
ATOM     12  O   UNL     1     173.481 143.435 155.667  1.00  0.00    -0.339 OA
BRANCH  12  13
ATOM     13  C   UNL     1     174.070 142.215 155.245  1.00  0.00     0.282 C 
ATOM     14  C   UNL     1     174.830 142.321 153.878  1.00  0.00     0.202 C 
ATOM     15  O   UNL     1     173.070 141.196 155.272  1.00  0.00    -0.341 OA
ATOM     16  C   UNL     1     173.929 142.177 152.639  1.00  0.00     0.179 C 
ATOM     17  C   UNL     1     172.203 141.157 154.141  1.00  0.00     0.178 C 
ATOM     18  C   UNL     1     172.992 140.990 152.834  1.00  0.00     0.177 C 
BRANCH  14  19
ATOM     19  O   UNL     1     175.613 143.492 153.798  1.00  0.00    -0.385 OA
ATOM     20  H   UNL     1     175.082 144.220 153.407  1.00  0.00     0.211 HD
ENDBRANCH  14  19
BRANCH  16  21
ATOM     21  O   UNL     1     174.718 141.963 151.497  1.00  0.00    -0.387 OA
ATOM     22  H   UNL     1     175.071 141.032 151.555  1.00  0.00     0.211 HD
ENDBRANCH  16  21
BRANCH  17  23
ATOM     23  C   UNL     1     171.151 142.302 154.125  1.00  0.00     0.191 C 
BRANCH  23  24
ATOM     24  O   UNL     1     170.018 141.904 153.406  1.00  0.00    -0.394 OA
ATOM     25  H   UNL     1     169.260 142.416 153.798  1.00  0.00     0.210 HD
ENDBRANCH  23  24
ENDBRANCH  17  23
BRANCH  18  26
ATOM     26  O   UNL     1     172.113 140.884 151.735  1.00  0.00    -0.387 OA
ATOM     27  H   UNL     1     172.320 141.634 151.105  1.00  0.00     0.211 HD
ENDBRANCH  18  26
ENDBRANCH  12  13
ENDBRANCH   7  12
BRANCH   4  28
ATOM     28  O   UNL     1     174.251 144.992 160.876  1.00  0.00    -0.365 OA
ATOM     29  H   UNL     1     174.490 145.930 161.110  1.00  0.00     0.214 HD
ENDBRANCH   4  28
BRANCH   8  30
ATOM     30  C   UNL     1     171.139 143.284 157.706  1.00  0.00     0.249 C 
BRANCH  30  31
ATOM     31  O   UNL     1     169.992 144.131 157.771  1.00  0.00    -0.461 OA
BRANCH  31  32
ATOM     32  C   UNL     1     168.867 143.969 156.949  1.00  0.00     0.338 C 
ATOM     33  O   UNL     1     167.893 143.263 157.337  1.00  0.00    -0.246 OA
BRANCH  32  34
ATOM     34  C   UNL     1     168.829 144.602 155.613  1.00  0.00     0.060 A 
ATOM     35  C   UNL     1     169.808 145.549 155.254  1.00  0.00     0.015 A 
ATOM     36  C   UNL     1     167.857 144.228 154.665  1.00  0.00     0.015 A 
ATOM     37  C   UNL     1     169.811 146.113 153.977  1.00  0.00     0.001 A 
ATOM     38  C   UNL     1     167.868 144.792 153.382  1.00  0.00     0.001 A 
ATOM     39  C   UNL     1     168.841 145.736 153.038  1.00  0.00     0.000 A 
ENDBRANCH  32  34
ENDBRANCH  31  32
ENDBRANCH  30  31
ENDBRANCH   8  30
TORSDOF 12
ENDMDL
MODEL 8
REMARK VINA RESULT:    -6.119      2.270      7.369
REMARK INTER + INTRA:         -11.379
REMARK INTER:                 -10.028
REMARK INTRA:                  -1.351
REMARK UNBOUND:                -1.863
REMARK SMILES C[C@@]12C[C@@]3(O)O[C@@H](O1)[C@]1(COC(=O)c4ccccc4)[C@H]3C[C@@]12O[C@H]1O[C@@H](CO)[C@@H](O)[C@H](O)[C@H]1O
REMARK SMILES IDX 1 1 2 2 3 3 4 4 20 5 21 6 22 7 9 8 7 9 8 10 6 11 23 12 24 13
REMARK SMILES IDX 33 14 25 15 31 16 26 17 29 18 34 19 32 21 27 23 28 24 30 26
REMARK SMILES IDX 5 28 10 30 11 31 12 32 13 33 14 34 15 35 19 36 16 37 18 38
REMARK SMILES IDX 17 39
REMARK H PARENT 34 20 32 22 28 25 30 27 5 29
REMARK Flexibility Score: inf
ROOT
ATOM      1  C   UNL     1     173.708 140.995 156.775  1.00  0.00     0.046 C 
ATOM      2  C   UNL     1     173.801 141.668 155.403  1.00  0.00     0.104 C 
ATOM      3  C   UNL     1     175.040 141.149 154.585  1.00  0.00     0.104 C 
ATOM      4  C   UNL     1     174.999 142.014 153.277  1.00  0.00     0.175 C 
ATOM      5  C   UNL     1     174.832 143.522 153.634  1.00  0.00     0.070 C 
ATOM      6  C   UNL     1     175.189 143.844 155.095  1.00  0.00     0.050 C 
ATOM      7  C   UNL     1     173.803 143.247 155.458  1.00  0.00     0.115 C 
ATOM      8  C   UNL     1     173.351 143.508 154.018  1.00  0.00     0.096 C 
ATOM      9  C   UNL     1     172.793 142.197 153.486  1.00  0.00     0.267 C 
ATOM     10  O   UNL     1     172.672 141.343 154.613  1.00  0.00    -0.342 OA
ATOM     11  O   UNL     1     173.789 141.678 152.616  1.00  0.00    -0.320 OA
ENDROOT
BRANCH   7  12
ATOM     12  O   UNL     1     172.979 143.747 156.521  1.00  0.00    -0.339 OA
BRANCH  12  13
ATOM     13  C   UNL     1     173.320 145.005 157.079  1.00  0.00     0.282 C 
ATOM     14  C   UNL     1     174.065 144.903 158.455  1.00  0.00     0.202 C 
ATOM     15  O   UNL     1     172.147 145.818 157.117  1.00  0.00    -0.341 OA
ATOM     16  C   UNL     1     173.132 144.751 159.670  1.00  0.00     0.179 C 
ATOM     17  C   UNL     1     171.270 145.581 158.215  1.00  0.00     0.178 C 
ATOM     18  C   UNL     1     171.993 145.756 159.559  1.00  0.00     0.177 C 
BRANCH  14  19
ATOM     19  O   UNL     1     175.053 143.896 158.449  1.00  0.00    -0.385 OA
ATOM     20  H   UNL     1     174.878 143.255 159.172  1.00  0.00     0.211 HD
ENDBRANCH  14  19
BRANCH  16  21
ATOM     21  O   UNL     1     173.848 144.990 160.855  1.00  0.00    -0.387 OA
ATOM     22  H   UNL     1     173.205 144.892 161.611  1.00  0.00     0.211 HD
ENDBRANCH  16  21
BRANCH  17  23
ATOM     23  C   UNL     1     170.453 144.265 158.083  1.00  0.00     0.191 C 
BRANCH  23  24
ATOM     24  O   UNL     1     169.351 144.294 158.947  1.00  0.00    -0.394 OA
ATOM     25  H   UNL     1     169.344 143.407 159.400  1.00  0.00     0.210 HD
ENDBRANCH  23  24
ENDBRANCH  17  23
BRANCH  18  26
ATOM     26  O   UNL     1     171.091 145.585 160.631  1.00  0.00    -0.387 OA
ATOM     27  H   UNL     1     170.382 144.943 160.334  1.00  0.00     0.211 HD
ENDBRANCH  18  26
ENDBRANCH  12  13
ENDBRANCH   7  12
BRANCH   4  28
ATOM     28  O   UNL     1     176.115 141.794 152.458  1.00  0.00    -0.365 OA
ATOM     29  H   UNL     1     176.859 142.335 152.841  1.00  0.00     0.214 HD
ENDBRANCH   4  28
BRANCH   8  30
ATOM     30  C   UNL     1     172.598 144.784 153.615  1.00  0.00     0.249 C 
BRANCH  30  31
ATOM     31  O   UNL     1     171.913 144.619 152.374  1.00  0.00    -0.461 OA
BRANCH  31  32
ATOM     32  C   UNL     1     170.550 144.908 152.202  1.00  0.00     0.338 C 
ATOM     33  O   UNL     1     170.137 145.396 151.111  1.00  0.00    -0.246 OA
BRANCH  32  34
ATOM     34  C   UNL     1     169.597 144.669 153.306  1.00  0.00     0.060 A 
ATOM     35  C   UNL     1     169.134 143.365 153.567  1.00  0.00     0.015 A 
ATOM     36  C   UNL     1     169.185 145.723 154.144  1.00  0.00     0.015 A 
ATOM     37  C   UNL     1     168.276 143.121 154.641  1.00  0.00     0.001 A 
ATOM     38  C   UNL     1     168.328 145.473 155.224  1.00  0.00     0.001 A 
ATOM     39  C   UNL     1     167.870 144.175 155.471  1.00  0.00     0.000 A 
ENDBRANCH  32  34
ENDBRANCH  31  32
ENDBRANCH  30  31
ENDBRANCH   8  30
TORSDOF 12
ENDMDL
