MODEL 1
REMARK VINA RESULT:    -6.649      0.000      0.000
REMARK INTER + INTRA:         -11.059
REMARK INTER:                 -10.147
REMARK INTRA:                  -0.912
REMARK UNBOUND:                -0.912
REMARK SMILES CC(=O)CCC=C(C)CCC=C(C)CCC=C(C)C
REMARK SMILES IDX 10 1 11 2 12 3 13 4 14 5 15 6 16 7 18 8 17 9 19 10 9 11 7 12
REMARK SMILES IDX 6 13 8 14 5 15 4 16 2 17 3 18 1 19
REMARK H PARENT
REMARK Flexibility Score: inf
ROOT
ATOM      1  C   UNL     1      20.109 205.350  15.872  1.00  0.00     0.032 C 
ENDROOT
BRANCH   1   2
ATOM      2  C   UNL     1      21.378 205.441  15.056  1.00  0.00    -0.028 C 
ATOM      3  C   UNL     1      21.825 206.539  14.402  1.00  0.00    -0.077 C 
ATOM      4  C   UNL     1      23.099 206.416  13.603  1.00  0.00     0.039 C 
BRANCH   3   5
ATOM      5  C   UNL     1      21.120 207.882  14.444  1.00  0.00     0.034 C 
BRANCH   5   6
ATOM      6  C   UNL     1      20.598 208.281  13.059  1.00  0.00     0.032 C 
BRANCH   6   7
ATOM      7  C   UNL     1      19.530 207.322  12.594  1.00  0.00    -0.028 C 
ATOM      8  C   UNL     1      17.812 206.403  11.097  1.00  0.00     0.039 C 
ATOM      9  C   UNL     1      18.888 207.411  11.408  1.00  0.00    -0.080 C 
ATOM     10  C   UNL     1      19.230 208.474  10.391  1.00  0.00     0.039 C 
ENDBRANCH   6   7
ENDBRANCH   5   6
ENDBRANCH   3   5
ENDBRANCH   1   2
BRANCH   1  11
ATOM     11  C   UNL     1      19.052 204.487  15.168  1.00  0.00     0.034 C 
BRANCH  11  12
ATOM     12  C   UNL     1      19.521 203.060  14.974  1.00  0.00    -0.077 C 
ATOM     13  C   UNL     1      19.951 202.353  16.043  1.00  0.00    -0.028 C 
ATOM     14  C   UNL     1      19.432 202.452  13.596  1.00  0.00     0.039 C 
BRANCH  13  15
ATOM     15  C   UNL     1      20.467 200.934  15.980  1.00  0.00     0.035 C 
BRANCH  15  16
ATOM     16  C   UNL     1      19.369 199.949  15.557  1.00  0.00     0.079 C 
BRANCH  16  17
ATOM     17  C   UNL     1      19.474 198.643  16.301  1.00  0.00     0.130 C 
ATOM     18  O   UNL     1      20.448 197.925  16.132  1.00  0.00    -0.300 OA
ATOM     19  C   UNL     1      18.402 198.229  17.262  1.00  0.00     0.087 C 
ENDBRANCH  16  17
ENDBRANCH  15  16
ENDBRANCH  13  15
ENDBRANCH  11  12
ENDBRANCH   1  11
TORSDOF 9
ENDMDL
MODEL 2
REMARK VINA RESULT:    -6.624      1.264      1.585
REMARK INTER + INTRA:         -11.021
REMARK INTER:                  -9.689
REMARK INTRA:                  -1.332
REMARK UNBOUND:                -0.912
REMARK SMILES CC(=O)CCC=C(C)CCC=C(C)CCC=C(C)C
REMARK SMILES IDX 10 1 11 2 12 3 13 4 14 5 15 6 16 7 18 8 17 9 19 10 9 11 7 12
REMARK SMILES IDX 6 13 8 14 5 15 4 16 2 17 3 18 1 19
REMARK H PARENT
REMARK Flexibility Score: inf
ROOT
ATOM      1  C   UNL     1      20.832 206.813  16.427  1.00  0.00     0.032 C 
ENDROOT
BRANCH   1   2
ATOM      2  C   UNL     1      21.936 206.626  15.410  1.00  0.00    -0.028 C 
ATOM      3  C   UNL     1      22.162 207.411  14.331  1.00  0.00    -0.077 C 
ATOM      4  C   UNL     1      23.293 207.033  13.407  1.00  0.00     0.039 C 
BRANCH   3   5
ATOM      5  C   UNL     1      21.350 208.654  14.015  1.00  0.00     0.034 C 
BRANCH   5   6
ATOM      6  C   UNL     1      20.879 208.655  12.555  1.00  0.00     0.032 C 
BRANCH   6   7
ATOM      7  C   UNL     1      19.759 207.663  12.355  1.00  0.00    -0.028 C 
ATOM      8  C   UNL     1      17.872 206.584  11.209  1.00  0.00     0.039 C 
ATOM      9  C   UNL     1      18.982 207.602  11.251  1.00  0.00    -0.080 C 
ATOM     10  C   UNL     1      19.206 208.509  10.064  1.00  0.00     0.039 C 
ENDBRANCH   6   7
ENDBRANCH   5   6
ENDBRANCH   3   5
ENDBRANCH   1   2
BRANCH   1  11
ATOM     11  C   UNL     1      19.532 206.135  15.972  1.00  0.00     0.034 C 
BRANCH  11  12
ATOM     12  C   UNL     1      19.789 204.786  15.333  1.00  0.00    -0.077 C 
ATOM     13  C   UNL     1      20.614 203.908  15.946  1.00  0.00    -0.028 C 
ATOM     14  C   UNL     1      19.059 204.441  14.057  1.00  0.00     0.039 C 
BRANCH  13  15
ATOM     15  C   UNL     1      20.971 202.544  15.402  1.00  0.00     0.035 C 
BRANCH  15  16
ATOM     16  C   UNL     1      20.407 201.418  16.279  1.00  0.00     0.079 C 
BRANCH  16  17
ATOM     17  C   UNL     1      19.687 200.380  15.458  1.00  0.00     0.130 C 
ATOM     18  O   UNL     1      19.321 200.649  14.324  1.00  0.00    -0.300 OA
ATOM     19  C   UNL     1      19.434 199.014  16.017  1.00  0.00     0.087 C 
ENDBRANCH  16  17
ENDBRANCH  15  16
ENDBRANCH  13  15
ENDBRANCH  11  12
ENDBRANCH   1  11
TORSDOF 9
ENDMDL
MODEL 3
REMARK VINA RESULT:    -6.452      2.679      7.075
REMARK INTER + INTRA:         -10.758
REMARK INTER:                  -9.366
REMARK INTRA:                  -1.392
REMARK UNBOUND:                -0.912
REMARK SMILES CC(=O)CCC=C(C)CCC=C(C)CCC=C(C)C
REMARK SMILES IDX 10 1 11 2 12 3 13 4 14 5 15 6 16 7 18 8 17 9 19 10 9 11 7 12
REMARK SMILES IDX 6 13 8 14 5 15 4 16 2 17 3 18 1 19
REMARK H PARENT
REMARK Flexibility Score: inf
ROOT
ATOM      1  C   UNL     1      22.210 207.104  16.613  1.00  0.00     0.032 C 
ENDROOT
BRANCH   1   2
ATOM      2  C   UNL     1      20.806 206.618  16.334  1.00  0.00    -0.028 C 
ATOM      3  C   UNL     1      20.441 205.335  16.098  1.00  0.00    -0.077 C 
ATOM      4  C   UNL     1      18.990 205.057  15.797  1.00  0.00     0.039 C 
BRANCH   3   5
ATOM      5  C   UNL     1      21.413 204.169  16.135  1.00  0.00     0.034 C 
BRANCH   5   6
ATOM      6  C   UNL     1      21.161 203.198  14.976  1.00  0.00     0.032 C 
BRANCH   6   7
ATOM      7  C   UNL     1      20.810 201.826  15.497  1.00  0.00    -0.028 C 
ATOM      8  C   UNL     1      19.639 199.666  15.568  1.00  0.00     0.039 C 
ATOM      9  C   UNL     1      19.922 200.992  14.911  1.00  0.00    -0.080 C 
ATOM     10  C   UNL     1      19.225 201.345  13.617  1.00  0.00     0.039 C 
ENDBRANCH   6   7
ENDBRANCH   5   6
ENDBRANCH   3   5
ENDBRANCH   1   2
BRANCH   1  11
ATOM     11  C   UNL     1      22.626 208.207  15.629  1.00  0.00     0.034 C 
BRANCH  11  12
ATOM     12  C   UNL     1      22.179 207.904  14.214  1.00  0.00    -0.077 C 
ATOM     13  C   UNL     1      21.139 208.588  13.687  1.00  0.00    -0.028 C 
ATOM     14  C   UNL     1      22.957 206.889  13.413  1.00  0.00     0.039 C 
BRANCH  13  15
ATOM     15  C   UNL     1      20.581 208.364  12.300  1.00  0.00     0.035 C 
BRANCH  15  16
ATOM     16  C   UNL     1      19.533 207.245  12.284  1.00  0.00     0.079 C 
BRANCH  16  17
ATOM     17  C   UNL     1      18.602 207.370  11.106  1.00  0.00     0.130 C 
ATOM     18  O   UNL     1      17.569 206.718  11.076  1.00  0.00    -0.300 OA
ATOM     19  C   UNL     1      18.925 208.305   9.980  1.00  0.00     0.087 C 
ENDBRANCH  16  17
ENDBRANCH  15  16
ENDBRANCH  13  15
ENDBRANCH  11  12
ENDBRANCH   1  11
TORSDOF 9
ENDMDL
MODEL 4
REMARK VINA RESULT:    -6.241      2.698      7.063
REMARK INTER + INTRA:         -10.436
REMARK INTER:                  -8.961
REMARK INTRA:                  -1.476
REMARK UNBOUND:                -0.912
REMARK SMILES CC(=O)CCC=C(C)CCC=C(C)CCC=C(C)C
REMARK SMILES IDX 10 1 11 2 12 3 13 4 14 5 15 6 16 7 18 8 17 9 19 10 9 11 7 12
REMARK SMILES IDX 6 13 8 14 5 15 4 16 2 17 3 18 1 19
REMARK H PARENT
REMARK Flexibility Score: inf
ROOT
ATOM      1  C   UNL     1      19.330 204.916  13.287  1.00  0.00     0.032 C 
ENDROOT
BRANCH   1   2
ATOM      2  C   UNL     1      18.724 204.636  14.644  1.00  0.00    -0.028 C 
ATOM      3  C   UNL     1      19.391 204.190  15.734  1.00  0.00    -0.077 C 
ATOM      4  C   UNL     1      18.596 203.929  16.990  1.00  0.00     0.039 C 
BRANCH   3   5
ATOM      5  C   UNL     1      20.890 203.956  15.761  1.00  0.00     0.034 C 
BRANCH   5   6
ATOM      6  C   UNL     1      21.271 202.697  14.972  1.00  0.00     0.032 C 
BRANCH   6   7
ATOM      7  C   UNL     1      20.758 201.458  15.663  1.00  0.00    -0.028 C 
ATOM      8  C   UNL     1      19.366 199.458  15.978  1.00  0.00     0.039 C 
ATOM      9  C   UNL     1      19.811 200.638  15.154  1.00  0.00    -0.080 C 
ATOM     10  C   UNL     1      19.207 200.864  13.788  1.00  0.00     0.039 C 
ENDBRANCH   6   7
ENDBRANCH   5   6
ENDBRANCH   3   5
ENDBRANCH   1   2
BRANCH   1  11
ATOM     11  C   UNL     1      18.497 205.940  12.502  1.00  0.00     0.034 C 
BRANCH  11  12
ATOM     12  C   UNL     1      19.257 207.229  12.268  1.00  0.00    -0.077 C 
ATOM     13  C   UNL     1      20.155 207.646  13.189  1.00  0.00    -0.028 C 
ATOM     14  C   UNL     1      19.033 207.975  10.975  1.00  0.00     0.039 C 
BRANCH  13  15
ATOM     15  C   UNL     1      20.958 208.922  13.086  1.00  0.00     0.035 C 
BRANCH  15  16
ATOM     16  C   UNL     1      22.463 208.639  12.997  1.00  0.00     0.079 C 
BRANCH  16  17
ATOM     17  C   UNL     1      22.909 207.656  14.048  1.00  0.00     0.130 C 
ATOM     18  O   UNL     1      23.076 208.030  15.199  1.00  0.00    -0.300 OA
ATOM     19  C   UNL     1      23.130 206.217  13.693  1.00  0.00     0.087 C 
ENDBRANCH  16  17
ENDBRANCH  15  16
ENDBRANCH  13  15
ENDBRANCH  11  12
ENDBRANCH   1  11
TORSDOF 9
ENDMDL
MODEL 5
REMARK VINA RESULT:    -6.191      1.891      2.961
REMARK INTER + INTRA:         -10.361
REMARK INTER:                  -9.277
REMARK INTRA:                  -1.084
REMARK UNBOUND:                -0.912
REMARK SMILES CC(=O)CCC=C(C)CCC=C(C)CCC=C(C)C
REMARK SMILES IDX 10 1 11 2 12 3 13 4 14 5 15 6 16 7 18 8 17 9 19 10 9 11 7 12
REMARK SMILES IDX 6 13 8 14 5 15 4 16 2 17 3 18 1 19
REMARK H PARENT
REMARK Flexibility Score: inf
ROOT
ATOM      1  C   UNL     1      19.054 205.838  16.119  1.00  0.00     0.032 C 
ENDROOT
BRANCH   1   2
ATOM      2  C   UNL     1      19.927 206.629  17.066  1.00  0.00    -0.028 C 
ATOM      3  C   UNL     1      20.227 207.945  16.957  1.00  0.00    -0.077 C 
ATOM      4  C   UNL     1      21.156 208.545  17.983  1.00  0.00     0.039 C 
BRANCH   3   5
ATOM      5  C   UNL     1      19.667 208.844  15.870  1.00  0.00     0.034 C 
BRANCH   5   6
ATOM      6  C   UNL     1      20.088 208.361  14.476  1.00  0.00     0.032 C 
BRANCH   6   7
ATOM      7  C   UNL     1      21.516 208.752  14.185  1.00  0.00    -0.028 C 
ATOM      8  C   UNL     1      23.922 208.415  13.818  1.00  0.00     0.039 C 
ATOM      9  C   UNL     1      22.538 207.875  14.071  1.00  0.00    -0.080 C 
ATOM     10  C   UNL     1      22.328 206.383  14.172  1.00  0.00     0.039 C 
ENDBRANCH   6   7
ENDBRANCH   5   6
ENDBRANCH   3   5
ENDBRANCH   1   2
BRANCH   1  11
ATOM     11  C   UNL     1      18.741 204.443  16.680  1.00  0.00     0.034 C 
BRANCH  11  12
ATOM     12  C   UNL     1      19.292 203.341  15.799  1.00  0.00    -0.077 C 
ATOM     13  C   UNL     1      19.899 202.277  16.371  1.00  0.00    -0.028 C 
ATOM     14  C   UNL     1      19.085 203.437  14.307  1.00  0.00     0.039 C 
BRANCH  13  15
ATOM     15  C   UNL     1      20.510 201.126  15.605  1.00  0.00     0.035 C 
BRANCH  15  16
ATOM     16  C   UNL     1      19.463 200.063  15.247  1.00  0.00     0.079 C 
BRANCH  16  17
ATOM     17  C   UNL     1      19.635 198.812  16.069  1.00  0.00     0.130 C 
ATOM     18  O   UNL     1      20.684 198.188  16.012  1.00  0.00    -0.300 OA
ATOM     19  C   UNL     1      18.536 198.340  16.970  1.00  0.00     0.087 C 
ENDBRANCH  16  17
ENDBRANCH  15  16
ENDBRANCH  13  15
ENDBRANCH  11  12
ENDBRANCH   1  11
TORSDOF 9
ENDMDL
MODEL 6
REMARK VINA RESULT:    -6.181      1.183      3.184
REMARK INTER + INTRA:         -10.345
REMARK INTER:                  -9.028
REMARK INTRA:                  -1.317
REMARK UNBOUND:                -0.912
REMARK SMILES CC(=O)CCC=C(C)CCC=C(C)CCC=C(C)C
REMARK SMILES IDX 10 1 11 2 12 3 13 4 14 5 15 6 16 7 18 8 17 9 19 10 9 11 7 12
REMARK SMILES IDX 6 13 8 14 5 15 4 16 2 17 3 18 1 19
REMARK H PARENT
REMARK Flexibility Score: inf
ROOT
ATOM      1  C   UNL     1      19.807 205.977  14.477  1.00  0.00     0.032 C 
ENDROOT
BRANCH   1   2
ATOM      2  C   UNL     1      19.182 206.026  13.101  1.00  0.00    -0.028 C 
ATOM      3  C   UNL     1      19.062 207.127  12.323  1.00  0.00    -0.077 C 
ATOM      4  C   UNL     1      18.366 206.979  10.993  1.00  0.00     0.039 C 
BRANCH   3   5
ATOM      5  C   UNL     1      19.601 208.491  12.713  1.00  0.00     0.034 C 
BRANCH   5   6
ATOM      6  C   UNL     1      21.071 208.646  12.304  1.00  0.00     0.032 C 
BRANCH   6   7
ATOM      7  C   UNL     1      21.925 208.985  13.502  1.00  0.00    -0.028 C 
ATOM      8  C   UNL     1      23.640 208.637  15.226  1.00  0.00     0.039 C 
ATOM      9  C   UNL     1      22.896 208.186  13.997  1.00  0.00    -0.080 C 
ATOM     10  C   UNL     1      23.261 206.873  13.345  1.00  0.00     0.039 C 
ENDBRANCH   6   7
ENDBRANCH   5   6
ENDBRANCH   3   5
ENDBRANCH   1   2
BRANCH   1  11
ATOM     11  C   UNL     1      20.679 204.724  14.652  1.00  0.00     0.034 C 
BRANCH  11  12
ATOM     12  C   UNL     1      19.990 203.666  15.489  1.00  0.00    -0.077 C 
ATOM     13  C   UNL     1      20.399 202.381  15.400  1.00  0.00    -0.028 C 
ATOM     14  C   UNL     1      18.906 204.096  16.448  1.00  0.00     0.039 C 
BRANCH  13  15
ATOM     15  C   UNL     1      19.781 201.231  16.161  1.00  0.00     0.035 C 
BRANCH  15  16
ATOM     16  C   UNL     1      19.708 199.959  15.305  1.00  0.00     0.079 C 
BRANCH  16  17
ATOM     17  C   UNL     1      19.710 198.715  16.155  1.00  0.00     0.130 C 
ATOM     18  O   UNL     1      20.681 197.974  16.145  1.00  0.00    -0.300 OA
ATOM     19  C   UNL     1      18.535 198.390  17.026  1.00  0.00     0.087 C 
ENDBRANCH  16  17
ENDBRANCH  15  16
ENDBRANCH  13  15
ENDBRANCH  11  12
ENDBRANCH   1  11
TORSDOF 9
ENDMDL
MODEL 7
REMARK VINA RESULT:    -6.149      2.661      3.969
REMARK INTER + INTRA:         -10.297
REMARK INTER:                  -8.692
REMARK INTRA:                  -1.605
REMARK UNBOUND:                -0.912
REMARK SMILES CC(=O)CCC=C(C)CCC=C(C)CCC=C(C)C
REMARK SMILES IDX 10 1 11 2 12 3 13 4 14 5 15 6 16 7 18 8 17 9 19 10 9 11 7 12
REMARK SMILES IDX 6 13 8 14 5 15 4 16 2 17 3 18 1 19
REMARK H PARENT
REMARK Flexibility Score: inf
ROOT
ATOM      1  C   UNL     1      22.701 207.227  15.998  1.00  0.00     0.032 C 
ENDROOT
BRANCH   1   2
ATOM      2  C   UNL     1      23.197 208.085  14.857  1.00  0.00    -0.028 C 
ATOM      3  C   UNL     1      22.692 208.106  13.601  1.00  0.00    -0.077 C 
ATOM      4  C   UNL     1      23.355 209.005  12.588  1.00  0.00     0.039 C 
BRANCH   3   5
ATOM      5  C   UNL     1      21.489 207.287  13.170  1.00  0.00     0.034 C 
BRANCH   5   6
ATOM      6  C   UNL     1      20.220 208.146  13.116  1.00  0.00     0.032 C 
BRANCH   6   7
ATOM      7  C   UNL     1      20.009 208.699  11.727  1.00  0.00    -0.028 C 
ATOM      8  C   UNL     1      19.068 208.819   9.461  1.00  0.00     0.039 C 
ATOM      9  C   UNL     1      19.142 208.186  10.826  1.00  0.00    -0.080 C 
ATOM     10  C   UNL     1      18.242 207.019  11.156  1.00  0.00     0.039 C 
ENDBRANCH   6   7
ENDBRANCH   5   6
ENDBRANCH   3   5
ENDBRANCH   1   2
BRANCH   1  11
ATOM     11  C   UNL     1      21.640 207.960  16.831  1.00  0.00     0.034 C 
BRANCH  11  12
ATOM     12  C   UNL     1      20.257 207.376  16.630  1.00  0.00    -0.077 C 
ATOM     13  C   UNL     1      20.115 206.038  16.504  1.00  0.00    -0.028 C 
ATOM     14  C   UNL     1      19.071 208.309  16.641  1.00  0.00     0.039 C 
BRANCH  13  15
ATOM     15  C   UNL     1      18.797 205.334  16.276  1.00  0.00     0.035 C 
BRANCH  15  16
ATOM     16  C   UNL     1      18.997 203.848  15.949  1.00  0.00     0.079 C 
BRANCH  16  17
ATOM     17  C   UNL     1      19.004 203.601  14.462  1.00  0.00     0.130 C 
ATOM     18  O   UNL     1      18.775 204.521  13.692  1.00  0.00    -0.300 OA
ATOM     19  C   UNL     1      19.309 202.237  13.923  1.00  0.00     0.087 C 
ENDBRANCH  16  17
ENDBRANCH  15  16
ENDBRANCH  13  15
ENDBRANCH  11  12
ENDBRANCH   1  11
TORSDOF 9
ENDMDL
MODEL 8
REMARK VINA RESULT:    -6.146      1.313      3.501
REMARK INTER + INTRA:         -10.292
REMARK INTER:                  -8.893
REMARK INTRA:                  -1.399
REMARK UNBOUND:                -0.912
REMARK SMILES CC(=O)CCC=C(C)CCC=C(C)CCC=C(C)C
REMARK SMILES IDX 10 1 11 2 12 3 13 4 14 5 15 6 16 7 18 8 17 9 19 10 9 11 7 12
REMARK SMILES IDX 6 13 8 14 5 15 4 16 2 17 3 18 1 19
REMARK H PARENT
REMARK Flexibility Score: inf
ROOT
ATOM      1  C   UNL     1      19.115 206.396  13.341  1.00  0.00     0.032 C 
ENDROOT
BRANCH   1   2
ATOM      2  C   UNL     1      19.040 206.912  11.921  1.00  0.00    -0.028 C 
ATOM      3  C   UNL     1      19.479 208.119  11.492  1.00  0.00    -0.077 C 
ATOM      4  C   UNL     1      19.275 208.467  10.038  1.00  0.00     0.039 C 
BRANCH   3   5
ATOM      5  C   UNL     1      20.174 209.125  12.390  1.00  0.00     0.034 C 
BRANCH   5   6
ATOM      6  C   UNL     1      21.654 208.773  12.581  1.00  0.00     0.032 C 
BRANCH   6   7
ATOM      7  C   UNL     1      21.964 208.543  14.040  1.00  0.00    -0.028 C 
ATOM      8  C   UNL     1      22.661 207.286  16.033  1.00  0.00     0.039 C 
ATOM      9  C   UNL     1      22.438 207.383  14.546  1.00  0.00    -0.080 C 
ATOM     10  C   UNL     1      22.762 206.199  13.665  1.00  0.00     0.039 C 
ENDBRANCH   6   7
ENDBRANCH   5   6
ENDBRANCH   3   5
ENDBRANCH   1   2
BRANCH   1  11
ATOM     11  C   UNL     1      18.785 204.898  13.410  1.00  0.00     0.034 C 
BRANCH  11  12
ATOM     12  C   UNL     1      19.458 204.222  14.586  1.00  0.00    -0.077 C 
ATOM     13  C   UNL     1      20.130 203.066  14.391  1.00  0.00    -0.028 C 
ATOM     14  C   UNL     1      19.409 204.901  15.934  1.00  0.00     0.039 C 
BRANCH  13  15
ATOM     15  C   UNL     1      20.822 202.282  15.482  1.00  0.00     0.035 C 
BRANCH  15  16
ATOM     16  C   UNL     1      19.865 201.301  16.170  1.00  0.00     0.079 C 
BRANCH  16  17
ATOM     17  C   UNL     1      19.689 200.038  15.367  1.00  0.00     0.130 C 
ATOM     18  O   UNL     1      19.223 200.095  14.240  1.00  0.00    -0.300 OA
ATOM     19  C   UNL     1      20.101 198.715  15.937  1.00  0.00     0.087 C 
ENDBRANCH  16  17
ENDBRANCH  15  16
ENDBRANCH  13  15
ENDBRANCH  11  12
ENDBRANCH   1  11
TORSDOF 9
ENDMDL
MODEL 9
REMARK VINA RESULT:    -6.076      3.022      7.671
REMARK INTER + INTRA:         -10.184
REMARK INTER:                  -8.930
REMARK INTRA:                  -1.255
REMARK UNBOUND:                -0.912
REMARK SMILES CC(=O)CCC=C(C)CCC=C(C)CCC=C(C)C
REMARK SMILES IDX 10 1 11 2 12 3 13 4 14 5 15 6 16 7 18 8 17 9 19 10 9 11 7 12
REMARK SMILES IDX 6 13 8 14 5 15 4 16 2 17 3 18 1 19
REMARK H PARENT
REMARK Flexibility Score: inf
ROOT
ATOM      1  C   UNL     1      19.056 205.037  15.552  1.00  0.00     0.032 C 
ENDROOT
BRANCH   1   2
ATOM      2  C   UNL     1      20.289 204.470  14.884  1.00  0.00    -0.028 C 
ATOM      3  C   UNL     1      20.961 203.360  15.271  1.00  0.00    -0.077 C 
ATOM      4  C   UNL     1      22.198 202.978  14.497  1.00  0.00     0.039 C 
BRANCH   3   5
ATOM      5  C   UNL     1      20.525 202.478  16.426  1.00  0.00     0.034 C 
BRANCH   5   6
ATOM      6  C   UNL     1      19.581 201.366  15.954  1.00  0.00     0.032 C 
BRANCH   6   7
ATOM      7  C   UNL     1      20.342 200.083  15.723  1.00  0.00    -0.028 C 
ATOM      8  C   UNL     1      20.819 197.678  15.882  1.00  0.00     0.039 C 
ATOM      9  C   UNL     1      19.933 198.867  16.149  1.00  0.00    -0.080 C 
ATOM     10  C   UNL     1      18.617 198.670  16.864  1.00  0.00     0.039 C 
ENDBRANCH   6   7
ENDBRANCH   5   6
ENDBRANCH   3   5
ENDBRANCH   1   2
BRANCH   1  11
ATOM     11  C   UNL     1      19.426 206.075  16.621  1.00  0.00     0.034 C 
BRANCH  11  12
ATOM     12  C   UNL     1      20.411 207.100  16.100  1.00  0.00    -0.077 C 
ATOM     13  C   UNL     1      20.113 207.796  14.980  1.00  0.00    -0.028 C 
ATOM     14  C   UNL     1      21.671 207.358  16.890  1.00  0.00     0.039 C 
BRANCH  13  15
ATOM     15  C   UNL     1      21.018 208.827  14.346  1.00  0.00     0.035 C 
BRANCH  15  16
ATOM     16  C   UNL     1      21.795 208.245  13.158  1.00  0.00     0.079 C 
BRANCH  16  17
ATOM     17  C   UNL     1      23.186 207.822  13.554  1.00  0.00     0.130 C 
ATOM     18  O   UNL     1      23.577 206.695  13.292  1.00  0.00    -0.300 OA
ATOM     19  C   UNL     1      24.100 208.783  14.252  1.00  0.00     0.087 C 
ENDBRANCH  16  17
ENDBRANCH  15  16
ENDBRANCH  13  15
ENDBRANCH  11  12
ENDBRANCH   1  11
TORSDOF 9
ENDMDL
