MODEL 1
REMARK VINA RESULT:    -1.295      0.000      0.000
REMARK INTER + INTRA:          -2.441
REMARK INTER:                  -1.598
REMARK INTRA:                  -0.843
REMARK UNBOUND:                -0.843
REMARK SMILES CCCCCc1ccccc1
REMARK SMILES IDX 4 1 3 2 2 3 1 4 5 5 6 6 7 7 11 8 8 9 10 10 9 11
REMARK H PARENT
REMARK Flexibility Score: inf
ROOT
ATOM      1  C   UNL     1     -13.242 -22.401  84.834  1.00  0.00     0.005 C 
ENDROOT
BRANCH   1   2
ATOM      2  C   UNL     1     -14.718 -22.338  85.268  1.00  0.00     0.000 C 
BRANCH   2   3
ATOM      3  C   UNL     1     -15.569 -23.444  84.623  1.00  0.00    -0.003 C 
ATOM      4  C   UNL     1     -16.493 -22.912  83.528  1.00  0.00     0.004 C 
ENDBRANCH   2   3
ENDBRANCH   1   2
BRANCH   1   5
ATOM      5  C   UNL     1     -12.875 -21.272  83.861  1.00  0.00     0.035 C 
BRANCH   5   6
ATOM      6  C   UNL     1     -13.267 -21.599  82.443  1.00  0.00    -0.048 A 
ATOM      7  C   UNL     1     -13.952 -20.653  81.662  1.00  0.00     0.004 A 
ATOM      8  C   UNL     1     -12.988 -22.865  81.900  1.00  0.00     0.004 A 
ATOM      9  C   UNL     1     -14.340 -20.964  80.356  1.00  0.00     0.000 A 
ATOM     10  C   UNL     1     -13.379 -23.173  80.593  1.00  0.00     0.000 A 
ATOM     11  C   UNL     1     -14.053 -22.223  79.822  1.00  0.00     0.000 A 
ENDBRANCH   5   6
ENDBRANCH   1   5
TORSDOF 4
ENDMDL
MODEL 2
REMARK VINA RESULT:    -1.240      1.213      4.015
REMARK INTER + INTRA:          -2.374
REMARK INTER:                  -1.687
REMARK INTRA:                  -0.687
REMARK UNBOUND:                -0.843
REMARK SMILES CCCCCc1ccccc1
REMARK SMILES IDX 4 1 3 2 2 3 1 4 5 5 6 6 7 7 11 8 8 9 10 10 9 11
REMARK H PARENT
REMARK Flexibility Score: inf
ROOT
ATOM      1  C   UNL     1     -12.880 -21.185  82.309  1.00  0.00     0.005 C 
ENDROOT
BRANCH   1   2
ATOM      2  C   UNL     1     -14.162 -20.693  81.615  1.00  0.00     0.000 C 
BRANCH   2   3
ATOM      3  C   UNL     1     -14.997 -21.844  81.033  1.00  0.00    -0.003 C 
ATOM      4  C   UNL     1     -14.189 -23.130  80.865  1.00  0.00     0.004 C 
ENDBRANCH   2   3
ENDBRANCH   1   2
BRANCH   1   5
ATOM      5  C   UNL     1     -12.977 -21.095  83.838  1.00  0.00     0.035 C 
BRANCH   5   6
ATOM      6  C   UNL     1     -13.516 -22.366  84.445  1.00  0.00    -0.048 A 
ATOM      7  C   UNL     1     -14.642 -22.326  85.284  1.00  0.00     0.004 A 
ATOM      8  C   UNL     1     -12.875 -23.594  84.212  1.00  0.00     0.004 A 
ATOM      9  C   UNL     1     -15.127 -23.500  85.870  1.00  0.00     0.000 A 
ATOM     10  C   UNL     1     -13.363 -24.766  84.799  1.00  0.00     0.000 A 
ATOM     11  C   UNL     1     -14.488 -24.719  85.627  1.00  0.00     0.000 A 
ENDBRANCH   5   6
ENDBRANCH   1   5
TORSDOF 4
ENDMDL
MODEL 3
REMARK VINA RESULT:    -1.217      1.661      4.046
REMARK INTER + INTRA:          -2.344
REMARK INTER:                  -1.486
REMARK INTRA:                  -0.859
REMARK UNBOUND:                -0.843
REMARK SMILES CCCCCc1ccccc1
REMARK SMILES IDX 4 1 3 2 2 3 1 4 5 5 6 6 7 7 11 8 8 9 10 10 9 11
REMARK H PARENT
REMARK Flexibility Score: inf
ROOT
ATOM      1  C   UNL     1     -14.538 -22.133  81.541  1.00  0.00     0.005 C 
ENDROOT
BRANCH   1   2
ATOM      2  C   UNL     1     -16.048 -22.227  81.821  1.00  0.00     0.000 C 
BRANCH   2   3
ATOM      3  C   UNL     1     -16.590 -23.656  81.660  1.00  0.00    -0.003 C 
ATOM      4  C   UNL     1     -16.672 -24.408  82.988  1.00  0.00     0.004 C 
ENDBRANCH   2   3
ENDBRANCH   1   2
BRANCH   1   5
ATOM      5  C   UNL     1     -13.759 -21.568  82.737  1.00  0.00     0.035 C 
BRANCH   5   6
ATOM      6  C   UNL     1     -13.658 -22.562  83.866  1.00  0.00    -0.048 A 
ATOM      7  C   UNL     1     -12.948 -23.761  83.691  1.00  0.00     0.004 A 
ATOM      8  C   UNL     1     -14.305 -22.319  85.090  1.00  0.00     0.004 A 
ATOM      9  C   UNL     1     -12.876 -24.697  84.727  1.00  0.00     0.000 A 
ATOM     10  C   UNL     1     -14.231 -23.256  86.124  1.00  0.00     0.000 A 
ATOM     11  C   UNL     1     -13.517 -24.444  85.944  1.00  0.00     0.000 A 
ENDBRANCH   5   6
ENDBRANCH   1   5
TORSDOF 4
ENDMDL
MODEL 4
REMARK VINA RESULT:    -1.196      1.449      4.503
REMARK INTER + INTRA:          -2.319
REMARK INTER:                  -1.437
REMARK INTRA:                  -0.882
REMARK UNBOUND:                -0.843
REMARK SMILES CCCCCc1ccccc1
REMARK SMILES IDX 4 1 3 2 2 3 1 4 5 5 6 6 7 7 11 8 8 9 10 10 9 11
REMARK H PARENT
REMARK Flexibility Score: inf
ROOT
ATOM      1  C   UNL     1     -16.086 -22.574  81.336  1.00  0.00     0.005 C 
ENDROOT
BRANCH   1   2
ATOM      2  C   UNL     1     -14.783 -22.009  80.744  1.00  0.00     0.000 C 
BRANCH   2   3
ATOM      3  C   UNL     1     -14.440 -20.617  81.295  1.00  0.00    -0.003 C 
ATOM      4  C   UNL     1     -13.188 -20.621  82.170  1.00  0.00     0.004 C 
ENDBRANCH   2   3
ENDBRANCH   1   2
BRANCH   1   5
ATOM      5  C   UNL     1     -15.851 -23.867  82.130  1.00  0.00     0.035 C 
BRANCH   5   6
ATOM      6  C   UNL     1     -14.947 -23.645  83.315  1.00  0.00    -0.048 A 
ATOM      7  C   UNL     1     -13.708 -24.301  83.393  1.00  0.00     0.004 A 
ATOM      8  C   UNL     1     -15.351 -22.811  84.373  1.00  0.00     0.004 A 
ATOM      9  C   UNL     1     -12.880 -24.118  84.504  1.00  0.00     0.000 A 
ATOM     10  C   UNL     1     -14.520 -22.629  85.483  1.00  0.00     0.000 A 
ATOM     11  C   UNL     1     -13.286 -23.281  85.548  1.00  0.00     0.000 A 
ENDBRANCH   5   6
ENDBRANCH   1   5
TORSDOF 4
ENDMDL
MODEL 5
REMARK VINA RESULT:    -1.167      1.691      3.864
REMARK INTER + INTRA:          -2.283
REMARK INTER:                  -1.369
REMARK INTRA:                  -0.914
REMARK UNBOUND:                -0.843
REMARK SMILES CCCCCc1ccccc1
REMARK SMILES IDX 4 1 3 2 2 3 1 4 5 5 6 6 7 7 11 8 8 9 10 10 9 11
REMARK H PARENT
REMARK Flexibility Score: inf
ROOT
ATOM      1  C   UNL     1     -16.176 -23.847  81.064  1.00  0.00     0.005 C 
ENDROOT
BRANCH   1   2
ATOM      2  C   UNL     1     -15.382 -25.111  81.440  1.00  0.00     0.000 C 
BRANCH   2   3
ATOM      3  C   UNL     1     -13.964 -25.114  80.849  1.00  0.00    -0.003 C 
ATOM      4  C   UNL     1     -12.878 -25.038  81.921  1.00  0.00     0.004 C 
ENDBRANCH   2   3
ENDBRANCH   1   2
BRANCH   1   5
ATOM      5  C   UNL     1     -16.483 -22.970  82.285  1.00  0.00     0.035 C 
BRANCH   5   6
ATOM      6  C   UNL     1     -15.235 -22.359  82.870  1.00  0.00    -0.048 A 
ATOM      7  C   UNL     1     -14.418 -21.529  82.085  1.00  0.00     0.004 A 
ATOM      8  C   UNL     1     -14.854 -22.645  84.193  1.00  0.00     0.004 A 
ATOM      9  C   UNL     1     -13.246 -20.984  82.617  1.00  0.00     0.000 A 
ATOM     10  C   UNL     1     -13.682 -22.098  84.722  1.00  0.00     0.000 A 
ATOM     11  C   UNL     1     -12.879 -21.268  83.936  1.00  0.00     0.000 A 
ENDBRANCH   5   6
ENDBRANCH   1   5
TORSDOF 4
ENDMDL
MODEL 6
REMARK VINA RESULT:    -1.132      1.613      3.262
REMARK INTER + INTRA:          -2.241
REMARK INTER:                  -1.358
REMARK INTRA:                  -0.882
REMARK UNBOUND:                -0.843
REMARK SMILES CCCCCc1ccccc1
REMARK SMILES IDX 4 1 3 2 2 3 1 4 5 5 6 6 7 7 11 8 8 9 10 10 9 11
REMARK H PARENT
REMARK Flexibility Score: inf
ROOT
ATOM      1  C   UNL     1     -13.185 -22.926  83.292  1.00  0.00     0.005 C 
ENDROOT
BRANCH   1   2
ATOM      2  C   UNL     1     -13.483 -22.061  84.530  1.00  0.00     0.000 C 
BRANCH   2   3
ATOM      3  C   UNL     1     -14.153 -22.860  85.659  1.00  0.00    -0.003 C 
ATOM      4  C   UNL     1     -15.585 -22.401  85.934  1.00  0.00     0.004 C 
ENDBRANCH   2   3
ENDBRANCH   1   2
BRANCH   1   5
ATOM      5  C   UNL     1     -14.086 -22.567  82.103  1.00  0.00     0.035 C 
BRANCH   5   6
ATOM      6  C   UNL     1     -15.493 -23.076  82.287  1.00  0.00    -0.048 A 
ATOM      7  C   UNL     1     -16.582 -22.191  82.209  1.00  0.00     0.004 A 
ATOM      8  C   UNL     1     -15.728 -24.431  82.577  1.00  0.00     0.004 A 
ATOM      9  C   UNL     1     -17.885 -22.656  82.407  1.00  0.00     0.000 A 
ATOM     10  C   UNL     1     -17.033 -24.893  82.774  1.00  0.00     0.000 A 
ATOM     11  C   UNL     1     -18.110 -24.007  82.688  1.00  0.00     0.000 A 
ENDBRANCH   5   6
ENDBRANCH   1   5
TORSDOF 4
ENDMDL
MODEL 7
REMARK VINA RESULT:    -1.105      1.084      2.767
REMARK INTER + INTRA:          -2.207
REMARK INTER:                  -1.309
REMARK INTRA:                  -0.898
REMARK UNBOUND:                -0.843
REMARK SMILES CCCCCc1ccccc1
REMARK SMILES IDX 4 1 3 2 2 3 1 4 5 5 6 6 7 7 11 8 8 9 10 10 9 11
REMARK H PARENT
REMARK Flexibility Score: inf
ROOT
ATOM      1  C   UNL     1     -16.274 -22.967  83.481  1.00  0.00     0.005 C 
ENDROOT
BRANCH   1   2
ATOM      2  C   UNL     1     -15.043 -23.432  84.279  1.00  0.00     0.000 C 
BRANCH   2   3
ATOM      3  C   UNL     1     -14.355 -22.279  85.026  1.00  0.00    -0.003 C 
ATOM      4  C   UNL     1     -13.055 -21.835  84.356  1.00  0.00     0.004 C 
ENDBRANCH   2   3
ENDBRANCH   1   2
BRANCH   1   5
ATOM      5  C   UNL     1     -16.132 -23.246  81.979  1.00  0.00     0.035 C 
BRANCH   5   6
ATOM      6  C   UNL     1     -15.042 -22.416  81.350  1.00  0.00    -0.048 A 
ATOM      7  C   UNL     1     -13.900 -23.036  80.816  1.00  0.00     0.004 A 
ATOM      8  C   UNL     1     -15.138 -21.014  81.328  1.00  0.00     0.004 A 
ATOM      9  C   UNL     1     -12.876 -22.266  80.257  1.00  0.00     0.000 A 
ATOM     10  C   UNL     1     -14.111 -20.247  80.768  1.00  0.00     0.000 A 
ATOM     11  C   UNL     1     -12.982 -20.873  80.233  1.00  0.00     0.000 A 
ENDBRANCH   5   6
ENDBRANCH   1   5
TORSDOF 4
ENDMDL
MODEL 8
REMARK VINA RESULT:    -1.098      2.337      4.332
REMARK INTER + INTRA:          -2.198
REMARK INTER:                  -1.284
REMARK INTRA:                  -0.913
REMARK UNBOUND:                -0.843
REMARK SMILES CCCCCc1ccccc1
REMARK SMILES IDX 4 1 3 2 2 3 1 4 5 5 6 6 7 7 11 8 8 9 10 10 9 11
REMARK H PARENT
REMARK Flexibility Score: inf
ROOT
ATOM      1  C   UNL     1     -17.510 -23.657  82.715  1.00  0.00     0.005 C 
ENDROOT
BRANCH   1   2
ATOM      2  C   UNL     1     -18.019 -22.448  83.520  1.00  0.00     0.000 C 
BRANCH   2   3
ATOM      3  C   UNL     1     -18.380 -22.814  84.967  1.00  0.00    -0.003 C 
ATOM      4  C   UNL     1     -17.470 -22.135  85.991  1.00  0.00     0.004 C 
ENDBRANCH   2   3
ENDBRANCH   1   2
BRANCH   1   5
ATOM      5  C   UNL     1     -16.038 -23.506  82.309  1.00  0.00     0.035 C 
BRANCH   5   6
ATOM      6  C   UNL     1     -15.119 -23.518  83.504  1.00  0.00    -0.048 A 
ATOM      7  C   UNL     1     -15.075 -24.638  84.352  1.00  0.00     0.004 A 
ATOM      8  C   UNL     1     -14.327 -22.396  83.805  1.00  0.00     0.004 A 
ATOM      9  C   UNL     1     -14.244 -24.640  85.476  1.00  0.00     0.000 A 
ATOM     10  C   UNL     1     -13.497 -22.402  84.930  1.00  0.00     0.000 A 
ATOM     11  C   UNL     1     -13.455 -23.522  85.764  1.00  0.00     0.000 A 
ENDBRANCH   5   6
ENDBRANCH   1   5
TORSDOF 4
ENDMDL
