MODEL 1
REMARK VINA RESULT:    -6.043      0.000      0.000
REMARK INTER + INTRA:          -7.353
REMARK INTER:                  -7.280
REMARK INTRA:                  -0.073
REMARK UNBOUND:                -0.073
REMARK SMILES OCCc1ccc(O)c(O)c1
REMARK SMILES IDX 3 1 4 2 5 3 6 4 7 5 11 6 9 7 8 8 10 10 2 12 1 13
REMARK H PARENT 8 9 10 11 1 14
REMARK Flexibility Score: inf
ROOT
ATOM      1  C   UNL     1      28.316  24.546  49.998  1.00  0.00     0.064 C 
ENDROOT
BRANCH   1   2
ATOM      2  C   UNL     1      28.257  24.600  48.493  1.00  0.00    -0.042 A 
ATOM      3  C   UNL     1      27.042  24.380  47.827  1.00  0.00     0.008 A 
ATOM      4  C   UNL     1      26.979  24.458  46.433  1.00  0.00     0.050 A 
ATOM      5  C   UNL     1      28.123  24.762  45.689  1.00  0.00     0.157 A 
ATOM      6  C   UNL     1      29.404  24.916  47.748  1.00  0.00     0.054 A 
ATOM      7  C   UNL     1      29.343  24.995  46.348  1.00  0.00     0.157 A 
BRANCH   5   8
ATOM      8  O   UNL     1      28.031  24.832  44.299  1.00  0.00    -0.504 OA
ATOM      9  H   UNL     1      28.484  24.158  43.695  1.00  0.00     0.293 HD
ENDBRANCH   5   8
BRANCH   7  10
ATOM     10  O   UNL     1      30.487  25.305  45.614  1.00  0.00    -0.504 OA
ATOM     11  H   UNL     1      30.624  24.954  44.673  1.00  0.00     0.293 HD
ENDBRANCH   7  10
ENDBRANCH   1   2
BRANCH   1  12
ATOM     12  C   UNL     1      27.421  23.434  50.555  1.00  0.00     0.161 C 
BRANCH  12  13
ATOM     13  O   UNL     1      26.880  23.807  51.794  1.00  0.00    -0.396 OA
ATOM     14  H   UNL     1      26.093  23.222  51.951  1.00  0.00     0.210 HD
ENDBRANCH  12  13
ENDBRANCH   1  12
TORSDOF 5
ENDMDL
MODEL 2
REMARK VINA RESULT:    -5.958      1.119      5.056
REMARK INTER + INTRA:          -7.250
REMARK INTER:                  -7.181
REMARK INTRA:                  -0.069
REMARK UNBOUND:                -0.073
REMARK SMILES OCCc1ccc(O)c(O)c1
REMARK SMILES IDX 3 1 4 2 5 3 6 4 7 5 11 6 9 7 8 8 10 10 2 12 1 13
REMARK H PARENT 8 9 10 11 1 14
REMARK Flexibility Score: inf
ROOT
ATOM      1  C   UNL     1      28.652  24.846  46.572  1.00  0.00     0.064 C 
ENDROOT
BRANCH   1   2
ATOM      2  C   UNL     1      28.214  24.431  47.953  1.00  0.00    -0.042 A 
ATOM      3  C   UNL     1      28.904  24.897  49.082  1.00  0.00     0.008 A 
ATOM      4  C   UNL     1      28.482  24.536  50.364  1.00  0.00     0.050 A 
ATOM      5  C   UNL     1      27.364  23.715  50.537  1.00  0.00     0.157 A 
ATOM      6  C   UNL     1      27.084  23.614  48.125  1.00  0.00     0.054 A 
ATOM      7  C   UNL     1      26.658  23.252  49.412  1.00  0.00     0.157 A 
BRANCH   5   8
ATOM      8  O   UNL     1      26.967  23.371  51.828  1.00  0.00    -0.504 OA
ATOM      9  H   UNL     1      27.574  22.866  52.461  1.00  0.00     0.293 HD
ENDBRANCH   5   8
BRANCH   7  10
ATOM     10  O   UNL     1      25.539  22.437  49.576  1.00  0.00    -0.504 OA
ATOM     11  H   UNL     1      24.637  22.820  49.832  1.00  0.00     0.293 HD
ENDBRANCH   7  10
ENDBRANCH   1   2
BRANCH   1  12
ATOM     12  C   UNL     1      27.489  24.797  45.576  1.00  0.00     0.161 C 
BRANCH  12  13
ATOM     13  O   UNL     1      27.965  24.772  44.258  1.00  0.00    -0.396 OA
ATOM     14  H   UNL     1      28.048  25.717  43.964  1.00  0.00     0.210 HD
ENDBRANCH  12  13
ENDBRANCH   1  12
TORSDOF 5
ENDMDL
MODEL 3
REMARK VINA RESULT:    -5.934      0.845      2.054
REMARK INTER + INTRA:          -7.221
REMARK INTER:                  -7.147
REMARK INTRA:                  -0.074
REMARK UNBOUND:                -0.073
REMARK SMILES OCCc1ccc(O)c(O)c1
REMARK SMILES IDX 3 1 4 2 5 3 6 4 7 5 11 6 9 7 8 8 10 10 2 12 1 13
REMARK H PARENT 8 9 10 11 1 14
REMARK Flexibility Score: inf
ROOT
ATOM      1  C   UNL     1      28.307  24.473  49.876  1.00  0.00     0.064 C 
ENDROOT
BRANCH   1   2
ATOM      2  C   UNL     1      28.259  24.592  48.374  1.00  0.00    -0.042 A 
ATOM      3  C   UNL     1      29.383  25.041  47.665  1.00  0.00     0.008 A 
ATOM      4  C   UNL     1      29.349  25.124  46.271  1.00  0.00     0.050 A 
ATOM      5  C   UNL     1      28.199  24.754  45.567  1.00  0.00     0.157 A 
ATOM      6  C   UNL     1      27.106  24.210  47.668  1.00  0.00     0.054 A 
ATOM      7  C   UNL     1      27.071  24.292  46.268  1.00  0.00     0.157 A 
BRANCH   5   8
ATOM      8  O   UNL     1      28.195  24.848  44.176  1.00  0.00    -0.504 OA
ATOM      9  H   UNL     1      28.450  25.701  43.694  1.00  0.00     0.293 HD
ENDBRANCH   5   8
BRANCH   7  10
ATOM     10  O   UNL     1      25.923  23.916  45.573  1.00  0.00    -0.504 OA
ATOM     11  H   UNL     1      25.101  23.571  46.055  1.00  0.00     0.293 HD
ENDBRANCH   7  10
ENDBRANCH   1   2
BRANCH   1  12
ATOM     12  C   UNL     1      27.309  23.432  50.389  1.00  0.00     0.161 C 
BRANCH  12  13
ATOM     13  O   UNL     1      26.843  23.778  51.666  1.00  0.00    -0.396 OA
ATOM     14  H   UNL     1      26.129  23.128  51.897  1.00  0.00     0.210 HD
ENDBRANCH  12  13
ENDBRANCH   1  12
TORSDOF 5
ENDMDL
MODEL 4
REMARK VINA RESULT:    -5.707      2.066      4.871
REMARK INTER + INTRA:          -6.949
REMARK INTER:                  -6.870
REMARK INTRA:                  -0.078
REMARK UNBOUND:                -0.073
REMARK SMILES OCCc1ccc(O)c(O)c1
REMARK SMILES IDX 3 1 4 2 5 3 6 4 7 5 11 6 9 7 8 8 10 10 2 12 1 13
REMARK H PARENT 8 9 10 11 1 14
REMARK Flexibility Score: inf
ROOT
ATOM      1  C   UNL     1      27.632  25.031  44.733  1.00  0.00     0.064 C 
ENDROOT
BRANCH   1   2
ATOM      2  C   UNL     1      27.942  24.813  46.192  1.00  0.00    -0.042 A 
ATOM      3  C   UNL     1      29.256  24.959  46.663  1.00  0.00     0.008 A 
ATOM      4  C   UNL     1      29.541  24.785  48.020  1.00  0.00     0.050 A 
ATOM      5  C   UNL     1      28.521  24.472  48.923  1.00  0.00     0.157 A 
ATOM      6  C   UNL     1      26.915  24.509  47.100  1.00  0.00     0.054 A 
ATOM      7  C   UNL     1      27.199  24.335  48.463  1.00  0.00     0.157 A 
BRANCH   5   8
ATOM      8  O   UNL     1      28.835  24.304  50.271  1.00  0.00    -0.504 OA
ATOM      9  H   UNL     1      29.779  24.414  50.621  1.00  0.00     0.293 HD
ENDBRANCH   5   8
BRANCH   7  10
ATOM     10  O   UNL     1      26.176  24.028  49.358  1.00  0.00    -0.504 OA
ATOM     11  H   UNL     1      26.362  23.560  50.237  1.00  0.00     0.293 HD
ENDBRANCH   7  10
ENDBRANCH   1   2
BRANCH   1  12
ATOM     12  C   UNL     1      26.136  25.271  44.508  1.00  0.00     0.161 C 
BRANCH  12  13
ATOM     13  O   UNL     1      25.926  26.460  43.796  1.00  0.00    -0.396 OA
ATOM     14  H   UNL     1      25.491  26.209  42.939  1.00  0.00     0.210 HD
ENDBRANCH  12  13
ENDBRANCH   1  12
TORSDOF 5
ENDMDL
MODEL 5
REMARK VINA RESULT:    -5.534      1.514      5.059
REMARK INTER + INTRA:          -6.740
REMARK INTER:                  -6.655
REMARK INTRA:                  -0.085
REMARK UNBOUND:                -0.073
REMARK SMILES OCCc1ccc(O)c(O)c1
REMARK SMILES IDX 3 1 4 2 5 3 6 4 7 5 11 6 9 7 8 8 10 10 2 12 1 13
REMARK H PARENT 8 9 10 11 1 14
REMARK Flexibility Score: inf
ROOT
ATOM      1  C   UNL     1      27.281  24.886  46.958  1.00  0.00     0.064 C 
ENDROOT
BRANCH   1   2
ATOM      2  C   UNL     1      27.584  23.948  48.097  1.00  0.00    -0.042 A 
ATOM      3  C   UNL     1      28.406  22.830  47.891  1.00  0.00     0.008 A 
ATOM      4  C   UNL     1      28.712  21.975  48.953  1.00  0.00     0.050 A 
ATOM      5  C   UNL     1      28.209  22.227  50.233  1.00  0.00     0.157 A 
ATOM      6  C   UNL     1      27.087  24.209  49.385  1.00  0.00     0.054 A 
ATOM      7  C   UNL     1      27.393  23.351  50.452  1.00  0.00     0.157 A 
BRANCH   5   8
ATOM      8  O   UNL     1      28.529  21.356  51.273  1.00  0.00    -0.504 OA
ATOM      9  H   UNL     1      27.821  20.843  51.784  1.00  0.00     0.293 HD
ENDBRANCH   5   8
BRANCH   7  10
ATOM     10  O   UNL     1      26.892  23.613  51.726  1.00  0.00    -0.504 OA
ATOM     11  H   UNL     1      25.925  23.879  51.872  1.00  0.00     0.293 HD
ENDBRANCH   7  10
ENDBRANCH   1   2
BRANCH   1  12
ATOM     12  C   UNL     1      26.892  24.121  45.689  1.00  0.00     0.161 C 
BRANCH  12  13
ATOM     13  O   UNL     1      27.702  24.503  44.611  1.00  0.00    -0.396 OA
ATOM     14  H   UNL     1      28.067  23.669  44.216  1.00  0.00     0.210 HD
ENDBRANCH  12  13
ENDBRANCH   1  12
TORSDOF 5
ENDMDL
MODEL 6
REMARK VINA RESULT:    -5.364      1.711      4.516
REMARK INTER + INTRA:          -6.535
REMARK INTER:                  -6.464
REMARK INTRA:                  -0.071
REMARK UNBOUND:                -0.073
REMARK SMILES OCCc1ccc(O)c(O)c1
REMARK SMILES IDX 3 1 4 2 5 3 6 4 7 5 11 6 9 7 8 8 10 10 2 12 1 13
REMARK H PARENT 8 9 10 11 1 14
REMARK Flexibility Score: inf
ROOT
ATOM      1  C   UNL     1      28.015  24.882  45.461  1.00  0.00     0.064 C 
ENDROOT
BRANCH   1   2
ATOM      2  C   UNL     1      28.063  24.573  46.935  1.00  0.00    -0.042 A 
ATOM      3  C   UNL     1      26.886  24.595  47.698  1.00  0.00     0.008 A 
ATOM      4  C   UNL     1      26.923  24.281  49.059  1.00  0.00     0.050 A 
ATOM      5  C   UNL     1      28.131  23.934  49.673  1.00  0.00     0.157 A 
ATOM      6  C   UNL     1      29.274  24.214  47.547  1.00  0.00     0.054 A 
ATOM      7  C   UNL     1      29.314  23.898  48.914  1.00  0.00     0.157 A 
BRANCH   5   8
ATOM      8  O   UNL     1      28.138  23.626  51.033  1.00  0.00    -0.504 OA
ATOM      9  H   UNL     1      27.989  24.330  51.745  1.00  0.00     0.293 HD
ENDBRANCH   5   8
BRANCH   7  10
ATOM     10  O   UNL     1      30.521  23.547  49.517  1.00  0.00    -0.504 OA
ATOM     11  H   UNL     1      31.323  23.258  48.969  1.00  0.00     0.293 HD
ENDBRANCH   7  10
ENDBRANCH   1   2
BRANCH   1  12
ATOM     12  C   UNL     1      26.574  25.038  44.966  1.00  0.00     0.161 C 
BRANCH  12  13
ATOM     13  O   UNL     1      26.550  25.450  43.627  1.00  0.00    -0.396 OA
ATOM     14  H   UNL     1      26.132  26.351  43.610  1.00  0.00     0.210 HD
ENDBRANCH  12  13
ENDBRANCH   1  12
TORSDOF 5
ENDMDL
MODEL 7
REMARK VINA RESULT:    -5.097      1.264      4.670
REMARK INTER + INTRA:          -6.214
REMARK INTER:                  -6.153
REMARK INTRA:                  -0.061
REMARK UNBOUND:                -0.073
REMARK SMILES OCCc1ccc(O)c(O)c1
REMARK SMILES IDX 3 1 4 2 5 3 6 4 7 5 11 6 9 7 8 8 10 10 2 12 1 13
REMARK H PARENT 8 9 10 11 1 14
REMARK Flexibility Score: inf
ROOT
ATOM      1  C   UNL     1      28.716  24.925  46.174  1.00  0.00     0.064 C 
ENDROOT
BRANCH   1   2
ATOM      2  C   UNL     1      28.142  24.411  47.469  1.00  0.00    -0.042 A 
ATOM      3  C   UNL     1      27.215  23.358  47.461  1.00  0.00     0.008 A 
ATOM      4  C   UNL     1      26.703  22.861  48.662  1.00  0.00     0.050 A 
ATOM      5  C   UNL     1      27.115  23.401  49.885  1.00  0.00     0.157 A 
ATOM      6  C   UNL     1      28.565  24.947  48.696  1.00  0.00     0.054 A 
ATOM      7  C   UNL     1      28.052  24.449  49.904  1.00  0.00     0.157 A 
BRANCH   5   8
ATOM      8  O   UNL     1      26.587  22.885  51.067  1.00  0.00    -0.504 OA
ATOM      9  H   UNL     1      26.332  23.479  51.847  1.00  0.00     0.293 HD
ENDBRANCH   5   8
BRANCH   7  10
ATOM     10  O   UNL     1      28.472  24.989  51.119  1.00  0.00    -0.504 OA
ATOM     11  H   UNL     1      28.643  25.982  51.227  1.00  0.00     0.293 HD
ENDBRANCH   7  10
ENDBRANCH   1   2
BRANCH   1  12
ATOM     12  C   UNL     1      30.199  25.279  46.319  1.00  0.00     0.161 C 
BRANCH  12  13
ATOM     13  O   UNL     1      30.824  25.324  45.064  1.00  0.00    -0.396 OA
ATOM     14  H   UNL     1      31.138  26.257  44.933  1.00  0.00     0.210 HD
ENDBRANCH  12  13
ENDBRANCH   1  12
TORSDOF 5
ENDMDL
MODEL 8
REMARK VINA RESULT:    -5.061      2.790      3.576
REMARK INTER + INTRA:          -6.170
REMARK INTER:                  -6.119
REMARK INTRA:                  -0.051
REMARK UNBOUND:                -0.073
REMARK SMILES OCCc1ccc(O)c(O)c1
REMARK SMILES IDX 3 1 4 2 5 3 6 4 7 5 11 6 9 7 8 8 10 10 2 12 1 13
REMARK H PARENT 8 9 10 11 1 14
REMARK Flexibility Score: inf
ROOT
ATOM      1  C   UNL     1      28.681  21.846  52.425  1.00  0.00     0.064 C 
ENDROOT
BRANCH   1   2
ATOM      2  C   UNL     1      28.147  22.614  51.244  1.00  0.00    -0.042 A 
ATOM      3  C   UNL     1      26.952  22.217  50.626  1.00  0.00     0.008 A 
ATOM      4  C   UNL     1      26.440  22.945  49.548  1.00  0.00     0.050 A 
ATOM      5  C   UNL     1      27.109  24.079  49.079  1.00  0.00     0.157 A 
ATOM      6  C   UNL     1      28.815  23.759  50.780  1.00  0.00     0.054 A 
ATOM      7  C   UNL     1      28.303  24.491  49.698  1.00  0.00     0.157 A 
BRANCH   5   8
ATOM      8  O   UNL     1      26.576  24.785  48.001  1.00  0.00    -0.504 OA
ATOM      9  H   UNL     1      26.112  24.320  47.231  1.00  0.00     0.293 HD
ENDBRANCH   5   8
BRANCH   7  10
ATOM     10  O   UNL     1      28.973  25.624  49.240  1.00  0.00    -0.504 OA
ATOM     11  H   UNL     1      28.824  25.987  48.305  1.00  0.00     0.293 HD
ENDBRANCH   7  10
ENDBRANCH   1   2
BRANCH   1  12
ATOM     12  C   UNL     1      27.861  22.121  53.690  1.00  0.00     0.161 C 
BRANCH  12  13
ATOM     13  O   UNL     1      26.882  21.135  53.872  1.00  0.00    -0.396 OA
ATOM     14  H   UNL     1      26.317  21.136  53.055  1.00  0.00     0.210 HD
ENDBRANCH  12  13
ENDBRANCH   1  12
TORSDOF 5
ENDMDL
MODEL 9
REMARK VINA RESULT:    -5.036      2.455      3.780
REMARK INTER + INTRA:          -6.140
REMARK INTER:                  -6.055
REMARK INTRA:                  -0.085
REMARK UNBOUND:                -0.073
REMARK SMILES OCCc1ccc(O)c(O)c1
REMARK SMILES IDX 3 1 4 2 5 3 6 4 7 5 11 6 9 7 8 8 10 10 2 12 1 13
REMARK H PARENT 8 9 10 11 1 14
REMARK Flexibility Score: inf
ROOT
ATOM      1  C   UNL     1      28.861  23.426  52.480  1.00  0.00     0.064 C 
ENDROOT
BRANCH   1   2
ATOM      2  C   UNL     1      28.234  23.632  51.125  1.00  0.00    -0.042 A 
ATOM      3  C   UNL     1      28.791  24.550  50.222  1.00  0.00     0.008 A 
ATOM      4  C   UNL     1      28.227  24.722  48.955  1.00  0.00     0.050 A 
ATOM      5  C   UNL     1      27.108  23.977  48.571  1.00  0.00     0.157 A 
ATOM      6  C   UNL     1      27.116  22.875  50.737  1.00  0.00     0.054 A 
ATOM      7  C   UNL     1      26.549  23.046  49.465  1.00  0.00     0.157 A 
BRANCH   5   8
ATOM      8  O   UNL     1      26.567  24.171  47.301  1.00  0.00    -0.504 OA
ATOM      9  H   UNL     1      25.613  24.482  47.164  1.00  0.00     0.293 HD
ENDBRANCH   5   8
BRANCH   7  10
ATOM     10  O   UNL     1      25.437  22.296  49.087  1.00  0.00    -0.504 OA
ATOM     11  H   UNL     1      24.496  22.658  49.182  1.00  0.00     0.293 HD
ENDBRANCH   7  10
ENDBRANCH   1   2
BRANCH   1  12
ATOM     12  C   UNL     1      28.285  22.193  53.183  1.00  0.00     0.161 C 
BRANCH  12  13
ATOM     13  O   UNL     1      27.435  22.571  54.231  1.00  0.00    -0.396 OA
ATOM     14  H   UNL     1      28.015  22.839  54.991  1.00  0.00     0.210 HD
ENDBRANCH  12  13
ENDBRANCH   1  12
TORSDOF 5
ENDMDL
