MODEL 1
REMARK VINA RESULT:    -5.907      0.000      0.000
REMARK INTER + INTRA:          -6.425
REMARK INTER:                  -6.425
REMARK INTRA:                   0.000
REMARK UNBOUND:                 0.000
REMARK SMILES Cc1cc(O)c2c(c1)C(=O)c1cc(O)cc(O)c1C2=O
REMARK SMILES IDX 1 1 2 2 8 3 7 4 6 5 4 6 3 7 19 8 20 9 18 10 11 11 9 12 10 13
REMARK SMILES IDX 12 14 13 15 15 16 16 17 5 18 17 20 14 22
REMARK H PARENT 5 19 17 21 14 23
REMARK Flexibility Score: inf
ROOT
ATOM      1  C   UNL     1       0.875  15.531 -18.739  1.00  0.00     0.044 C 
ATOM      2  C   UNL     1       1.883  14.509 -19.178  1.00  0.00    -0.047 A 
ATOM      3  C   UNL     1       1.596  13.649 -20.244  1.00  0.00     0.016 A 
ATOM      4  C   UNL     1       2.514  12.660 -20.634  1.00  0.00     0.038 A 
ATOM      5  C   UNL     1       3.729  12.511 -19.930  1.00  0.00     0.076 A 
ATOM      6  C   UNL     1       4.035  13.415 -18.880  1.00  0.00     0.127 A 
ATOM      7  C   UNL     1       3.097  14.379 -18.497  1.00  0.00     0.050 A 
ATOM      8  C   UNL     1       4.605  11.362 -20.276  1.00  0.00     0.201 C 
ATOM      9  O   UNL     1       5.339  10.843 -19.392  1.00  0.00    -0.288 OA
ATOM     10  C   UNL     1       4.476  10.710 -21.604  1.00  0.00     0.076 A 
ATOM     11  C   UNL     1       3.259  10.860 -22.306  1.00  0.00     0.041 A 
ATOM     12  C   UNL     1       2.214  11.774 -21.784  1.00  0.00     0.194 C 
ATOM     13  O   UNL     1       1.079  11.815 -22.334  1.00  0.00    -0.289 OA
ATOM     14  C   UNL     1       3.046  10.149 -23.498  1.00  0.00     0.059 A 
ATOM     15  C   UNL     1       4.036   9.302 -24.005  1.00  0.00     0.120 A 
ATOM     16  C   UNL     1       5.253   9.182 -23.336  1.00  0.00     0.093 A 
ATOM     17  C   UNL     1       5.497   9.896 -22.159  1.00  0.00     0.131 A 
ENDROOT
BRANCH   6  18
ATOM     18  O   UNL     1       5.264  13.414 -18.216  1.00  0.00    -0.507 OA
ATOM     19  H   UNL     1       5.752  12.572 -17.944  1.00  0.00     0.293 HD
ENDBRANCH   6  18
BRANCH  17  20
ATOM     20  O   UNL     1       6.772   9.795 -21.597  1.00  0.00    -0.507 OA
ATOM     21  H   UNL     1       6.991   9.199 -20.811  1.00  0.00     0.293 HD
ENDBRANCH  17  20
BRANCH  15  22
ATOM     22  O   UNL     1       3.824   8.585 -25.181  1.00  0.00    -0.508 OA
ATOM     23  H   UNL     1       4.577   8.083 -25.639  1.00  0.00     0.293 HD
ENDBRANCH  15  22
TORSDOF 3
ENDMDL
MODEL 2
REMARK VINA RESULT:    -5.664      2.379      6.041
REMARK INTER + INTRA:          -6.160
REMARK INTER:                  -6.160
REMARK INTRA:                   0.000
REMARK UNBOUND:                 0.000
REMARK SMILES Cc1cc(O)c2c(c1)C(=O)c1cc(O)cc(O)c1C2=O
REMARK SMILES IDX 1 1 2 2 8 3 7 4 6 5 4 6 3 7 19 8 20 9 18 10 11 11 9 12 10 13
REMARK SMILES IDX 12 14 13 15 15 16 16 17 5 18 17 20 14 22
REMARK H PARENT 5 19 17 21 14 23
REMARK Flexibility Score: inf
ROOT
ATOM      1  C   UNL     1       7.855  12.588 -23.256  1.00  0.00     0.044 C 
ATOM      2  C   UNL     1       6.699  12.348 -22.328  1.00  0.00    -0.047 A 
ATOM      3  C   UNL     1       6.180  13.399 -21.564  1.00  0.00     0.016 A 
ATOM      4  C   UNL     1       5.128  13.176 -20.660  1.00  0.00     0.038 A 
ATOM      5  C   UNL     1       4.604  11.874 -20.498  1.00  0.00     0.076 A 
ATOM      6  C   UNL     1       5.103  10.822 -21.308  1.00  0.00     0.127 A 
ATOM      7  C   UNL     1       6.163  11.064 -22.187  1.00  0.00     0.050 A 
ATOM      8  C   UNL     1       3.597  11.651 -19.429  1.00  0.00     0.201 C 
ATOM      9  O   UNL     1       3.523  10.529 -18.860  1.00  0.00    -0.288 OA
ATOM     10  C   UNL     1       2.811  12.798 -18.903  1.00  0.00     0.076 A 
ATOM     11  C   UNL     1       3.339  14.098 -19.067  1.00  0.00     0.041 A 
ATOM     12  C   UNL     1       4.564  14.302 -19.877  1.00  0.00     0.194 C 
ATOM     13  O   UNL     1       5.111  15.438 -19.921  1.00  0.00    -0.289 OA
ATOM     14  C   UNL     1       2.697  15.194 -18.466  1.00  0.00     0.059 A 
ATOM     15  C   UNL     1       1.531  15.010 -17.719  1.00  0.00     0.120 A 
ATOM     16  C   UNL     1       0.985  13.733 -17.589  1.00  0.00     0.093 A 
ATOM     17  C   UNL     1       1.594  12.630 -18.194  1.00  0.00     0.131 A 
ENDROOT
BRANCH   6  18
ATOM     18  O   UNL     1       4.557   9.536 -21.297  1.00  0.00    -0.507 OA
ATOM     19  H   UNL     1       3.738   9.272 -21.828  1.00  0.00     0.293 HD
ENDBRANCH   6  18
BRANCH  17  20
ATOM     20  O   UNL     1       0.940  11.399 -18.097  1.00  0.00    -0.507 OA
ATOM     21  H   UNL     1       0.720  10.819 -18.894  1.00  0.00     0.293 HD
ENDBRANCH  17  20
BRANCH  15  22
ATOM     22  O   UNL     1       0.898  16.093 -17.111  1.00  0.00    -0.508 OA
ATOM     23  H   UNL     1       0.853  16.182 -16.102  1.00  0.00     0.293 HD
ENDBRANCH  15  22
TORSDOF 3
ENDMDL
MODEL 3
REMARK VINA RESULT:    -5.558      1.588      5.547
REMARK INTER + INTRA:          -6.046
REMARK INTER:                  -6.046
REMARK INTRA:                   0.000
REMARK UNBOUND:                 0.000
REMARK SMILES Cc1cc(O)c2c(c1)C(=O)c1cc(O)cc(O)c1C2=O
REMARK SMILES IDX 1 1 2 2 8 3 7 4 6 5 4 6 3 7 19 8 20 9 18 10 11 11 9 12 10 13
REMARK SMILES IDX 12 14 13 15 15 16 16 17 5 18 17 20 14 22
REMARK H PARENT 5 19 17 21 14 23
REMARK Flexibility Score: inf
ROOT
ATOM      1  C   UNL     1       4.990   9.009 -26.506  1.00  0.00     0.044 C 
ATOM      2  C   UNL     1       5.077   9.550 -25.109  1.00  0.00    -0.047 A 
ATOM      3  C   UNL     1       4.065  10.379 -24.611  1.00  0.00     0.016 A 
ATOM      4  C   UNL     1       4.158  10.926 -23.320  1.00  0.00     0.038 A 
ATOM      5  C   UNL     1       5.294  10.663 -22.524  1.00  0.00     0.076 A 
ATOM      6  C   UNL     1       6.294   9.785 -23.016  1.00  0.00     0.127 A 
ATOM      7  C   UNL     1       6.190   9.267 -24.311  1.00  0.00     0.050 A 
ATOM      8  C   UNL     1       5.424  11.377 -21.228  1.00  0.00     0.201 C 
ATOM      9  O   UNL     1       6.567  11.646 -20.772  1.00  0.00    -0.288 OA
ATOM     10  C   UNL     1       4.216  11.936 -20.569  1.00  0.00     0.076 A 
ATOM     11  C   UNL     1       3.081  12.199 -21.369  1.00  0.00     0.041 A 
ATOM     12  C   UNL     1       3.066  11.778 -22.790  1.00  0.00     0.194 C 
ATOM     13  O   UNL     1       2.112  12.123 -23.542  1.00  0.00    -0.289 OA
ATOM     14  C   UNL     1       1.970  12.854 -20.812  1.00  0.00     0.059 A 
ATOM     15  C   UNL     1       1.971  13.235 -19.468  1.00  0.00     0.120 A 
ATOM     16  C   UNL     1       3.073  12.941 -18.666  1.00  0.00     0.093 A 
ATOM     17  C   UNL     1       4.183  12.272 -19.191  1.00  0.00     0.131 A 
ENDROOT
BRANCH   6  18
ATOM     18  O   UNL     1       7.386   9.376 -22.246  1.00  0.00    -0.507 OA
ATOM     19  H   UNL     1       8.344   9.425 -22.564  1.00  0.00     0.293 HD
ENDBRANCH   6  18
BRANCH  17  20
ATOM     20  O   UNL     1       5.208  11.931 -18.305  1.00  0.00    -0.507 OA
ATOM     21  H   UNL     1       5.090  11.890 -17.303  1.00  0.00     0.293 HD
ENDBRANCH  17  20
BRANCH  15  22
ATOM     22  O   UNL     1       0.875  13.896 -18.915  1.00  0.00    -0.508 OA
ATOM     23  H   UNL     1       0.375  13.518 -18.119  1.00  0.00     0.293 HD
ENDBRANCH  15  22
TORSDOF 3
ENDMDL
MODEL 4
REMARK VINA RESULT:    -5.392      2.488      3.270
REMARK INTER + INTRA:          -5.865
REMARK INTER:                  -5.865
REMARK INTRA:                   0.000
REMARK UNBOUND:                 0.000
REMARK SMILES Cc1cc(O)c2c(c1)C(=O)c1cc(O)cc(O)c1C2=O
REMARK SMILES IDX 1 1 2 2 8 3 7 4 6 5 4 6 3 7 19 8 20 9 18 10 11 11 9 12 10 13
REMARK SMILES IDX 12 14 13 15 15 16 16 17 5 18 17 20 14 22
REMARK H PARENT 5 19 17 21 14 23
REMARK Flexibility Score: inf
ROOT
ATOM      1  C   UNL     1       4.430  14.981 -18.153  1.00  0.00     0.044 C 
ATOM      2  C   UNL     1       4.679  13.804 -19.052  1.00  0.00    -0.047 A 
ATOM      3  C   UNL     1       5.108  14.003 -20.368  1.00  0.00     0.016 A 
ATOM      4  C   UNL     1       5.302  12.910 -21.231  1.00  0.00     0.038 A 
ATOM      5  C   UNL     1       5.036  11.600 -20.776  1.00  0.00     0.076 A 
ATOM      6  C   UNL     1       4.646  11.401 -19.427  1.00  0.00     0.127 A 
ATOM      7  C   UNL     1       4.441  12.505 -18.593  1.00  0.00     0.050 A 
ATOM      8  C   UNL     1       5.110  10.488 -21.759  1.00  0.00     0.201 C 
ATOM      9  O   UNL     1       4.378   9.472 -21.614  1.00  0.00    -0.288 OA
ATOM     10  C   UNL     1       5.902  10.655 -23.005  1.00  0.00     0.076 A 
ATOM     11  C   UNL     1       6.165  11.968 -23.456  1.00  0.00     0.041 A 
ATOM     12  C   UNL     1       5.787  13.128 -22.615  1.00  0.00     0.194 C 
ATOM     13  O   UNL     1       5.902  14.301 -23.067  1.00  0.00    -0.289 OA
ATOM     14  C   UNL     1       6.790  12.168 -24.699  1.00  0.00     0.059 A 
ATOM     15  C   UNL     1       7.167  11.077 -25.487  1.00  0.00     0.120 A 
ATOM     16  C   UNL     1       6.945   9.780 -25.026  1.00  0.00     0.093 A 
ATOM     17  C   UNL     1       6.343   9.554 -23.784  1.00  0.00     0.131 A 
ENDROOT
BRANCH   6  18
ATOM     18  O   UNL     1       4.483  10.132 -18.866  1.00  0.00    -0.507 OA
ATOM     19  H   UNL     1       4.282   9.975 -17.888  1.00  0.00     0.293 HD
ENDBRANCH   6  18
BRANCH  17  20
ATOM     20  O   UNL     1       6.237   8.231 -23.350  1.00  0.00    -0.507 OA
ATOM     21  H   UNL     1       5.733   7.953 -22.520  1.00  0.00     0.293 HD
ENDBRANCH  17  20
BRANCH  15  22
ATOM     22  O   UNL     1       7.775  11.271 -26.726  1.00  0.00    -0.508 OA
ATOM     23  H   UNL     1       7.603  12.105 -27.276  1.00  0.00     0.293 HD
ENDBRANCH  15  22
TORSDOF 3
ENDMDL
MODEL 5
REMARK VINA RESULT:    -5.312      2.162      5.608
REMARK INTER + INTRA:          -5.778
REMARK INTER:                  -5.778
REMARK INTRA:                   0.000
REMARK UNBOUND:                 0.000
REMARK SMILES Cc1cc(O)c2c(c1)C(=O)c1cc(O)cc(O)c1C2=O
REMARK SMILES IDX 1 1 2 2 8 3 7 4 6 5 4 6 3 7 19 8 20 9 18 10 11 11 9 12 10 13
REMARK SMILES IDX 12 14 13 15 15 16 16 17 5 18 17 20 14 22
REMARK H PARENT 5 19 17 21 14 23
REMARK Flexibility Score: inf
ROOT
ATOM      1  C   UNL     1       6.957   9.002 -25.719  1.00  0.00     0.044 C 
ATOM      2  C   UNL     1       6.664   9.863 -24.525  1.00  0.00    -0.047 A 
ATOM      3  C   UNL     1       5.416   9.793 -23.897  1.00  0.00     0.016 A 
ATOM      4  C   UNL     1       5.116  10.627 -22.806  1.00  0.00     0.038 A 
ATOM      5  C   UNL     1       6.070  11.564 -22.353  1.00  0.00     0.076 A 
ATOM      6  C   UNL     1       7.350  11.599 -22.965  1.00  0.00     0.127 A 
ATOM      7  C   UNL     1       7.619  10.773 -24.061  1.00  0.00     0.050 A 
ATOM      8  C   UNL     1       5.663  12.527 -21.298  1.00  0.00     0.201 C 
ATOM      9  O   UNL     1       6.185  13.673 -21.257  1.00  0.00    -0.288 OA
ATOM     10  C   UNL     1       4.513  12.208 -20.412  1.00  0.00     0.076 A 
ATOM     11  C   UNL     1       3.560  11.270 -20.869  1.00  0.00     0.041 A 
ATOM     12  C   UNL     1       3.802  10.524 -22.127  1.00  0.00     0.194 C 
ATOM     13  O   UNL     1       2.900   9.782 -22.605  1.00  0.00    -0.289 OA
ATOM     14  C   UNL     1       2.390  11.044 -20.125  1.00  0.00     0.059 A 
ATOM     15  C   UNL     1       2.166  11.729 -18.928  1.00  0.00     0.120 A 
ATOM     16  C   UNL     1       3.123  12.626 -18.455  1.00  0.00     0.093 A 
ATOM     17  C   UNL     1       4.305  12.854 -19.166  1.00  0.00     0.131 A 
ENDROOT
BRANCH   6  18
ATOM     18  O   UNL     1       8.389  12.408 -22.499  1.00  0.00    -0.507 OA
ATOM     19  H   UNL     1       9.156  12.066 -21.938  1.00  0.00     0.293 HD
ENDBRANCH   6  18
BRANCH  17  20
ATOM     20  O   UNL     1       5.256  13.695 -18.583  1.00  0.00    -0.507 OA
ATOM     21  H   UNL     1       5.227  13.986 -17.616  1.00  0.00     0.293 HD
ENDBRANCH  17  20
BRANCH  15  22
ATOM     22  O   UNL     1       1.001  11.517 -18.194  1.00  0.00    -0.508 OA
ATOM     23  H   UNL     1       0.105  11.872 -18.508  1.00  0.00     0.293 HD
ENDBRANCH  15  22
TORSDOF 3
ENDMDL
MODEL 6
REMARK VINA RESULT:    -5.285      2.031      5.768
REMARK INTER + INTRA:          -5.749
REMARK INTER:                  -5.749
REMARK INTRA:                   0.000
REMARK UNBOUND:                 0.000
REMARK SMILES Cc1cc(O)c2c(c1)C(=O)c1cc(O)cc(O)c1C2=O
REMARK SMILES IDX 1 1 2 2 8 3 7 4 6 5 4 6 3 7 19 8 20 9 18 10 11 11 9 12 10 13
REMARK SMILES IDX 12 14 13 15 15 16 16 17 5 18 17 20 14 22
REMARK H PARENT 5 19 17 21 14 23
REMARK Flexibility Score: inf
ROOT
ATOM      1  C   UNL     1       4.980   8.325 -23.364  1.00  0.00     0.044 C 
ATOM      2  C   UNL     1       5.054   9.636 -22.637  1.00  0.00    -0.047 A 
ATOM      3  C   UNL     1       3.928  10.138 -21.975  1.00  0.00     0.016 A 
ATOM      4  C   UNL     1       3.974  11.385 -21.329  1.00  0.00     0.038 A 
ATOM      5  C   UNL     1       5.157  12.154 -21.367  1.00  0.00     0.076 A 
ATOM      6  C   UNL     1       6.309  11.619 -22.000  1.00  0.00     0.127 A 
ATOM      7  C   UNL     1       6.234  10.385 -22.653  1.00  0.00     0.050 A 
ATOM      8  C   UNL     1       5.121  13.527 -20.801  1.00  0.00     0.201 C 
ATOM      9  O   UNL     1       5.867  14.423 -21.279  1.00  0.00    -0.288 OA
ATOM     10  C   UNL     1       4.077  13.888 -19.808  1.00  0.00     0.076 A 
ATOM     11  C   UNL     1       2.894  13.117 -19.772  1.00  0.00     0.041 A 
ATOM     12  C   UNL     1       2.785  11.894 -20.604  1.00  0.00     0.194 C 
ATOM     13  O   UNL     1       1.688  11.274 -20.675  1.00  0.00    -0.289 OA
ATOM     14  C   UNL     1       1.829  13.508 -18.944  1.00  0.00     0.059 A 
ATOM     15  C   UNL     1       1.935  14.647 -18.143  1.00  0.00     0.120 A 
ATOM     16  C   UNL     1       3.116  15.388 -18.145  1.00  0.00     0.093 A 
ATOM     17  C   UNL     1       4.198  15.009 -18.945  1.00  0.00     0.131 A 
ENDROOT
BRANCH   6  18
ATOM     18  O   UNL     1       7.551  12.260 -21.976  1.00  0.00    -0.507 OA
ATOM     19  H   UNL     1       8.062  12.457 -21.127  1.00  0.00     0.293 HD
ENDBRANCH   6  18
BRANCH  17  20
ATOM     20  O   UNL     1       5.378  15.746 -18.825  1.00  0.00    -0.507 OA
ATOM     21  H   UNL     1       5.582  16.568 -19.375  1.00  0.00     0.293 HD
ENDBRANCH  17  20
BRANCH  15  22
ATOM     22  O   UNL     1       0.875  15.046 -17.330  1.00  0.00    -0.508 OA
ATOM     23  H   UNL     1      -0.083  15.021 -17.658  1.00  0.00     0.293 HD
ENDBRANCH  15  22
TORSDOF 3
ENDMDL
MODEL 7
REMARK VINA RESULT:    -5.239      1.807      2.705
REMARK INTER + INTRA:          -5.698
REMARK INTER:                  -5.698
REMARK INTRA:                   0.000
REMARK UNBOUND:                 0.000
REMARK SMILES Cc1cc(O)c2c(c1)C(=O)c1cc(O)cc(O)c1C2=O
REMARK SMILES IDX 1 1 2 2 8 3 7 4 6 5 4 6 3 7 19 8 20 9 18 10 11 11 9 12 10 13
REMARK SMILES IDX 12 14 13 15 15 16 16 17 5 18 17 20 14 22
REMARK H PARENT 5 19 17 21 14 23
REMARK Flexibility Score: inf
ROOT
ATOM      1  C   UNL     1       0.917  12.117 -19.578  1.00  0.00     0.044 C 
ATOM      2  C   UNL     1       2.228  11.912 -20.279  1.00  0.00    -0.047 A 
ATOM      3  C   UNL     1       2.313  11.045 -21.374  1.00  0.00     0.016 A 
ATOM      4  C   UNL     1       3.544  10.811 -22.010  1.00  0.00     0.038 A 
ATOM      5  C   UNL     1       4.715  11.435 -21.525  1.00  0.00     0.076 A 
ATOM      6  C   UNL     1       4.615  12.349 -20.444  1.00  0.00     0.127 A 
ATOM      7  C   UNL     1       3.383  12.550 -19.815  1.00  0.00     0.050 A 
ATOM      8  C   UNL     1       6.016  11.050 -22.129  1.00  0.00     0.201 C 
ATOM      9  O   UNL     1       7.067  11.089 -21.434  1.00  0.00    -0.288 OA
ATOM     10  C   UNL     1       6.050  10.441 -23.484  1.00  0.00     0.076 A 
ATOM     11  C   UNL     1       4.877   9.818 -23.965  1.00  0.00     0.041 A 
ATOM     12  C   UNL     1       3.618   9.915 -23.188  1.00  0.00     0.194 C 
ATOM     13  O   UNL     1       2.603   9.255 -23.545  1.00  0.00    -0.289 OA
ATOM     14  C   UNL     1       4.907   9.113 -25.179  1.00  0.00     0.059 A 
ATOM     15  C   UNL     1       6.086   9.035 -25.925  1.00  0.00     0.120 A 
ATOM     16  C   UNL     1       7.235   9.683 -25.474  1.00  0.00     0.093 A 
ATOM     17  C   UNL     1       7.226  10.408 -24.278  1.00  0.00     0.131 A 
ENDROOT
BRANCH   6  18
ATOM     18  O   UNL     1       5.702  13.099 -19.986  1.00  0.00    -0.507 OA
ATOM     19  H   UNL     1       5.914  13.235 -19.008  1.00  0.00     0.293 HD
ENDBRANCH   6  18
BRANCH  17  20
ATOM     20  O   UNL     1       8.387  11.106 -23.938  1.00  0.00    -0.507 OA
ATOM     21  H   UNL     1       8.425  11.807 -23.212  1.00  0.00     0.293 HD
ENDBRANCH  17  20
BRANCH  15  22
ATOM     22  O   UNL     1       6.124   8.326 -27.125  1.00  0.00    -0.508 OA
ATOM     23  H   UNL     1       5.444   7.604 -27.335  1.00  0.00     0.293 HD
ENDBRANCH  15  22
TORSDOF 3
ENDMDL
MODEL 8
REMARK VINA RESULT:    -5.216      2.240      6.929
REMARK INTER + INTRA:          -5.673
REMARK INTER:                  -5.673
REMARK INTRA:                   0.000
REMARK UNBOUND:                 0.000
REMARK SMILES Cc1cc(O)c2c(c1)C(=O)c1cc(O)cc(O)c1C2=O
REMARK SMILES IDX 1 1 2 2 8 3 7 4 6 5 4 6 3 7 19 8 20 9 18 10 11 11 9 12 10 13
REMARK SMILES IDX 12 14 13 15 15 16 16 17 5 18 17 20 14 22
REMARK H PARENT 5 19 17 21 14 23
REMARK Flexibility Score: inf
ROOT
ATOM      1  C   UNL     1       9.141   9.386 -26.989  1.00  0.00     0.044 C 
ATOM      2  C   UNL     1       7.907   9.514 -26.143  1.00  0.00    -0.047 A 
ATOM      3  C   UNL     1       7.979  10.110 -24.880  1.00  0.00     0.016 A 
ATOM      4  C   UNL     1       6.840  10.196 -24.062  1.00  0.00     0.038 A 
ATOM      5  C   UNL     1       5.614   9.651 -24.504  1.00  0.00     0.076 A 
ATOM      6  C   UNL     1       5.536   9.089 -25.805  1.00  0.00     0.127 A 
ATOM      7  C   UNL     1       6.688   8.998 -26.592  1.00  0.00     0.050 A 
ATOM      8  C   UNL     1       4.473   9.628 -23.554  1.00  0.00     0.201 C 
ATOM      9  O   UNL     1       3.609   8.714 -23.632  1.00  0.00    -0.288 OA
ATOM     10  C   UNL     1       4.453  10.566 -22.401  1.00  0.00     0.076 A 
ATOM     11  C   UNL     1       5.681  11.108 -21.961  1.00  0.00     0.041 A 
ATOM     12  C   UNL     1       6.919  10.857 -22.737  1.00  0.00     0.194 C 
ATOM     13  O   UNL     1       8.036  11.229 -22.282  1.00  0.00    -0.289 OA
ATOM     14  C   UNL     1       5.723  11.888 -20.793  1.00  0.00     0.059 A 
ATOM     15  C   UNL     1       4.555  12.145 -20.070  1.00  0.00     0.120 A 
ATOM     16  C   UNL     1       3.335  11.644 -20.523  1.00  0.00     0.093 A 
ATOM     17  C   UNL     1       3.264  10.883 -21.694  1.00  0.00     0.131 A 
ENDROOT
BRANCH   6  18
ATOM     18  O   UNL     1       4.337   8.641 -26.364  1.00  0.00    -0.507 OA
ATOM     19  H   UNL     1       3.425   8.905 -26.016  1.00  0.00     0.293 HD
ENDBRANCH   6  18
BRANCH  17  20
ATOM     20  O   UNL     1       1.997  10.495 -22.134  1.00  0.00    -0.507 OA
ATOM     21  H   UNL     1       1.741  10.423 -23.109  1.00  0.00     0.293 HD
ENDBRANCH  17  20
BRANCH  15  22
ATOM     22  O   UNL     1       4.594  12.907 -18.904  1.00  0.00    -0.508 OA
ATOM     23  H   UNL     1       3.750  13.287 -18.491  1.00  0.00     0.293 HD
ENDBRANCH  15  22
TORSDOF 3
ENDMDL
MODEL 9
REMARK VINA RESULT:    -5.123      2.038      3.339
REMARK INTER + INTRA:          -5.573
REMARK INTER:                  -5.573
REMARK INTRA:                   0.000
REMARK UNBOUND:                 0.000
REMARK SMILES Cc1cc(O)c2c(c1)C(=O)c1cc(O)cc(O)c1C2=O
REMARK SMILES IDX 1 1 2 2 8 3 7 4 6 5 4 6 3 7 19 8 20 9 18 10 11 11 9 12 10 13
REMARK SMILES IDX 12 14 13 15 15 16 16 17 5 18 17 20 14 22
REMARK H PARENT 5 19 17 21 14 23
REMARK Flexibility Score: inf
ROOT
ATOM      1  C   UNL     1       4.769  14.950 -18.406  1.00  0.00     0.044 C 
ATOM      2  C   UNL     1       4.469  13.825 -19.354  1.00  0.00    -0.047 A 
ATOM      3  C   UNL     1       5.375  13.500 -20.370  1.00  0.00     0.016 A 
ATOM      4  C   UNL     1       5.084  12.478 -21.289  1.00  0.00     0.038 A 
ATOM      5  C   UNL     1       3.856  11.786 -21.207  1.00  0.00     0.076 A 
ATOM      6  C   UNL     1       2.962  12.088 -20.146  1.00  0.00     0.127 A 
ATOM      7  C   UNL     1       3.264  13.122 -19.255  1.00  0.00     0.050 A 
ATOM      8  C   UNL     1       3.522  10.818 -22.282  1.00  0.00     0.201 C 
ATOM      9  O   UNL     1       2.318  10.618 -22.596  1.00  0.00    -0.288 OA
ATOM     10  C   UNL     1       4.607  10.231 -23.110  1.00  0.00     0.076 A 
ATOM     11  C   UNL     1       5.835  10.926 -23.190  1.00  0.00     0.041 A 
ATOM     12  C   UNL     1       6.063  12.121 -22.344  1.00  0.00     0.194 C 
ATOM     13  O   UNL     1       7.103  12.819 -22.503  1.00  0.00    -0.289 OA
ATOM     14  C   UNL     1       6.836  10.478 -24.068  1.00  0.00     0.059 A 
ATOM     15  C   UNL     1       6.633   9.340 -24.853  1.00  0.00     0.120 A 
ATOM     16  C   UNL     1       5.438   8.628 -24.747  1.00  0.00     0.093 A 
ATOM     17  C   UNL     1       4.435   9.042 -23.865  1.00  0.00     0.131 A 
ENDROOT
BRANCH   6  18
ATOM     18  O   UNL     1       1.786  11.369 -19.922  1.00  0.00    -0.507 OA
ATOM     19  H   UNL     1       1.049  11.680 -19.303  1.00  0.00     0.293 HD
ENDBRANCH   6  18
BRANCH  17  20
ATOM     20  O   UNL     1       3.306   8.228 -23.747  1.00  0.00    -0.507 OA
ATOM     21  H   UNL     1       3.325   7.225 -23.866  1.00  0.00     0.293 HD
ENDBRANCH  17  20
BRANCH  15  22
ATOM     22  O   UNL     1       7.619   8.899 -25.735  1.00  0.00    -0.508 OA
ATOM     23  H   UNL     1       7.562   9.086 -26.729  1.00  0.00     0.293 HD
ENDBRANCH  15  22
TORSDOF 3
ENDMDL
