MODEL 1
REMARK VINA RESULT:    -4.084      0.000      0.000
REMARK INTER + INTRA:          -4.359
REMARK INTER:                  -4.323
REMARK INTRA:                  -0.036
REMARK UNBOUND:                -0.036
REMARK SMILES COc1ccc2ccc(=O)oc2c1
REMARK SMILES IDX 3 1 13 2 12 3 6 4 5 5 4 6 7 7 8 8 9 9 10 10 11 11 2 12 1 13
REMARK H PARENT
REMARK Flexibility Score: inf
ROOT
ATOM      1  C   UNL     1      11.779  -2.568  11.009  1.00  0.00     0.122 A 
ATOM      2  C   UNL     1      12.490  -1.369  11.221  1.00  0.00     0.094 A 
ATOM      3  C   UNL     1      13.710  -1.384  11.905  1.00  0.00     0.142 A 
ATOM      4  C   UNL     1      14.232  -2.604  12.385  1.00  0.00     0.018 A 
ATOM      5  C   UNL     1      13.526  -3.796  12.175  1.00  0.00     0.016 A 
ATOM      6  C   UNL     1      12.308  -3.773  11.490  1.00  0.00     0.047 A 
ATOM      7  C   UNL     1      15.454  -2.587  13.065  1.00  0.00     0.019 A 
ATOM      8  C   UNL     1      16.117  -1.374  13.248  1.00  0.00     0.094 A 
ATOM      9  C   UNL     1      15.540  -0.202  12.746  1.00  0.00     0.336 A 
ATOM     10  O   UNL     1      16.124   0.902  12.901  1.00  0.00    -0.246 OA
ATOM     11  O   UNL     1      14.377  -0.248  12.102  1.00  0.00    -0.423 OA
ENDROOT
BRANCH   1  12
ATOM     12  O   UNL     1      10.553  -2.603  10.330  1.00  0.00    -0.497 OA
ATOM     13  C   UNL     1      10.163  -3.631   9.426  1.00  0.00     0.278 C 
ENDBRANCH   1  12
TORSDOF 1
ENDMDL
MODEL 2
REMARK VINA RESULT:    -3.212      1.968      5.127
REMARK INTER + INTRA:          -3.436
REMARK INTER:                  -3.403
REMARK INTRA:                  -0.033
REMARK UNBOUND:                -0.036
REMARK SMILES COc1ccc2ccc(=O)oc2c1
REMARK SMILES IDX 3 1 13 2 12 3 6 4 5 5 4 6 7 7 8 8 9 9 10 10 11 11 2 12 1 13
REMARK H PARENT
REMARK Flexibility Score: inf
ROOT
ATOM      1  C   UNL     1      15.030  -3.026  12.879  1.00  0.00     0.122 A 
ATOM      2  C   UNL     1      14.020  -3.779  12.245  1.00  0.00     0.094 A 
ATOM      3  C   UNL     1      12.947  -3.134  11.622  1.00  0.00     0.142 A 
ATOM      4  C   UNL     1      12.874  -1.725  11.627  1.00  0.00     0.018 A 
ATOM      5  C   UNL     1      13.876  -0.977  12.257  1.00  0.00     0.016 A 
ATOM      6  C   UNL     1      14.946  -1.628  12.877  1.00  0.00     0.047 A 
ATOM      7  C   UNL     1      11.788  -1.111  10.996  1.00  0.00     0.019 A 
ATOM      8  C   UNL     1      10.816  -1.900  10.383  1.00  0.00     0.094 A 
ATOM      9  C   UNL     1      10.953  -3.292  10.417  1.00  0.00     0.336 A 
ATOM     10  O   UNL     1      10.086  -4.022   9.870  1.00  0.00    -0.246 OA
ATOM     11  O   UNL     1      11.996  -3.851  11.025  1.00  0.00    -0.423 OA
ENDROOT
BRANCH   1  12
ATOM     12  O   UNL     1      16.125  -3.627  13.517  1.00  0.00    -0.497 OA
ATOM     13  C   UNL     1      16.124  -4.071  14.869  1.00  0.00     0.278 C 
ENDBRANCH   1  12
TORSDOF 1
ENDMDL
MODEL 3
REMARK VINA RESULT:    -2.247      1.080      4.728
REMARK INTER + INTRA:          -2.415
REMARK INTER:                  -2.377
REMARK INTRA:                  -0.038
REMARK UNBOUND:                -0.036
REMARK SMILES COc1ccc2ccc(=O)oc2c1
REMARK SMILES IDX 3 1 13 2 12 3 6 4 5 5 4 6 7 7 8 8 9 9 10 10 11 11 2 12 1 13
REMARK H PARENT
REMARK Flexibility Score: inf
ROOT
ATOM      1  C   UNL     1      15.192  -1.029  12.632  1.00  0.00     0.122 A 
ATOM      2  C   UNL     1      13.940  -0.682  12.085  1.00  0.00     0.094 A 
ATOM      3  C   UNL     1      13.042  -1.680  11.691  1.00  0.00     0.142 A 
ATOM      4  C   UNL     1      13.391  -3.038  11.840  1.00  0.00     0.018 A 
ATOM      5  C   UNL     1      14.636  -3.384  12.382  1.00  0.00     0.016 A 
ATOM      6  C   UNL     1      15.527  -2.382  12.775  1.00  0.00     0.047 A 
ATOM      7  C   UNL     1      12.473  -4.012  11.435  1.00  0.00     0.019 A 
ATOM      8  C   UNL     1      11.247  -3.617  10.901  1.00  0.00     0.094 A 
ATOM      9  C   UNL     1      10.968  -2.250  10.782  1.00  0.00     0.336 A 
ATOM     10  O   UNL     1       9.868  -1.874  10.303  1.00  0.00    -0.246 OA
ATOM     11  O   UNL     1      11.861  -1.345  11.175  1.00  0.00    -0.423 OA
ENDROOT
BRANCH   1  12
ATOM     12  O   UNL     1      16.125  -0.065  13.042  1.00  0.00    -0.497 OA
ATOM     13  C   UNL     1      16.113   1.296  12.624  1.00  0.00     0.278 C 
ENDBRANCH   1  12
TORSDOF 1
ENDMDL
MODEL 4
REMARK VINA RESULT:    -1.184     13.853     17.754
REMARK INTER + INTRA:          -1.290
REMARK INTER:                  -1.255
REMARK INTRA:                  -0.035
REMARK UNBOUND:                -0.036
REMARK SMILES COc1ccc2ccc(=O)oc2c1
REMARK SMILES IDX 3 1 13 2 12 3 6 4 5 5 4 6 7 7 8 8 9 9 10 10 11 11 2 12 1 13
REMARK H PARENT
REMARK Flexibility Score: inf
ROOT
ATOM      1  C   UNL     1       2.525  -0.942   1.409  1.00  0.00     0.122 A 
ATOM      2  C   UNL     1       2.243  -1.336   0.085  1.00  0.00     0.094 A 
ATOM      3  C   UNL     1       1.023  -1.945  -0.225  1.00  0.00     0.142 A 
ATOM      4  C   UNL     1       0.070  -2.166   0.792  1.00  0.00     0.018 A 
ATOM      5  C   UNL     1       0.349  -1.776   2.108  1.00  0.00     0.016 A 
ATOM      6  C   UNL     1       1.571  -1.168   2.409  1.00  0.00     0.047 A 
ATOM      7  C   UNL     1      -1.141  -2.777   0.450  1.00  0.00     0.019 A 
ATOM      8  C   UNL     1      -1.371  -3.147  -0.874  1.00  0.00     0.094 A 
ATOM      9  C   UNL     1      -0.380  -2.897  -1.830  1.00  0.00     0.336 A 
ATOM     10  O   UNL     1      -0.569  -3.224  -3.030  1.00  0.00    -0.246 OA
ATOM     11  O   UNL     1       0.762  -2.314  -1.477  1.00  0.00    -0.423 OA
ENDROOT
BRANCH   1  12
ATOM     12  O   UNL     1       3.734  -0.329   1.769  1.00  0.00    -0.497 OA
ATOM     13  C   UNL     1       5.022  -0.887   1.529  1.00  0.00     0.278 C 
ENDBRANCH   1  12
TORSDOF 1
ENDMDL
