MODEL 1
REMARK VINA RESULT:    -3.799      0.000      0.000
REMARK INTER + INTRA:         -15.859
REMARK INTER:                 -10.016
REMARK INTRA:                  -5.843
REMARK UNBOUND:                -5.843
REMARK SMILES CCCCCCCCCCCCCCCCCCCCCCCCCCCCCC(=O)[O-]
REMARK SMILES IDX 16 1 17 2 18 3 19 4 20 5 21 6 22 7 23 8 24 9 25 10 26 11
REMARK SMILES IDX 27 12 28 13 29 14 30 15 31 16 32 17 15 18 14 19 13 20 12 21
REMARK SMILES IDX 11 22 10 23 9 24 8 25 7 26 6 27 5 28 4 29 3 30 2 31 1 32
REMARK H PARENT
REMARK Flexibility Score: inf
ROOT
ATOM      1  C   UNL     1      -7.009  15.075   0.603  1.00  0.00     0.000 C 
ENDROOT
BRANCH   1   2
ATOM      2  C   UNL     1      -7.621  15.707  -0.661  1.00  0.00     0.000 C 
BRANCH   2   3
ATOM      3  C   UNL     1      -8.594  16.868  -0.368  1.00  0.00     0.000 C 
BRANCH   3   4
ATOM      4  C   UNL     1      -9.883  16.843  -1.216  1.00  0.00     0.000 C 
BRANCH   4   5
ATOM      5  C   UNL     1     -10.236  15.452  -1.795  1.00  0.00     0.000 C 
BRANCH   5   6
ATOM      6  C   UNL     1     -11.676  14.959  -1.530  1.00  0.00     0.000 C 
BRANCH   6   7
ATOM      7  C   UNL     1     -11.852  14.000  -0.337  1.00  0.00     0.000 C 
BRANCH   7   8
ATOM      8  C   UNL     1     -10.522  13.574   0.301  1.00  0.00     0.000 C 
BRANCH   8   9
ATOM      9  C   UNL     1     -10.367  14.176   1.705  1.00  0.00     0.000 C 
BRANCH   9  10
ATOM     10  C   UNL     1     -11.462  15.219   2.017  1.00  0.00     0.000 C 
BRANCH  10  11
ATOM     11  C   UNL     1     -11.071  16.204   3.131  1.00  0.00     0.000 C 
BRANCH  11  12
ATOM     12  C   UNL     1      -9.566  16.522   3.148  1.00  0.00     0.000 C 
BRANCH  12  13
ATOM     13  C   UNL     1      -9.278  18.022   2.975  1.00  0.00     0.006 C 
BRANCH  13  14
ATOM     14  C   UNL     1      -8.027  18.477   3.739  1.00  0.00     0.053 C 
BRANCH  14  15
ATOM     15  C   UNL     1      -6.811  17.745   3.259  1.00  0.00     0.041 C 
ATOM     16  O   UNL     1      -6.363  16.766   3.914  1.00  0.00    -0.550 OA
ATOM     17  O   UNL     1      -6.200  18.111   2.066  1.00  0.00    -0.550 OA
ENDBRANCH  14  15
ENDBRANCH  13  14
ENDBRANCH  12  13
ENDBRANCH  11  12
ENDBRANCH  10  11
ENDBRANCH   9  10
ENDBRANCH   8   9
ENDBRANCH   7   8
ENDBRANCH   6   7
ENDBRANCH   5   6
ENDBRANCH   4   5
ENDBRANCH   3   4
ENDBRANCH   2   3
ENDBRANCH   1   2
BRANCH   1  18
ATOM     18  C   UNL     1      -6.831  13.554   0.484  1.00  0.00     0.000 C 
BRANCH  18  19
ATOM     19  C   UNL     1      -6.495  13.109  -0.948  1.00  0.00     0.000 C 
BRANCH  19  20
ATOM     20  C   UNL     1      -7.481  12.059  -1.479  1.00  0.00     0.000 C 
BRANCH  20  21
ATOM     21  C   UNL     1      -8.265  12.599  -2.682  1.00  0.00     0.000 C 
BRANCH  21  22
ATOM     22  C   UNL     1      -7.561  12.249  -3.999  1.00  0.00     0.000 C 
BRANCH  22  23
ATOM     23  C   UNL     1      -6.970  13.505  -4.658  1.00  0.00     0.000 C 
BRANCH  23  24
ATOM     24  C   UNL     1      -7.776  14.775  -4.348  1.00  0.00    -0.000 C 
BRANCH  24  25
ATOM     25  C   UNL     1      -8.146  15.572  -5.608  1.00  0.00    -0.000 C 
BRANCH  25  26
ATOM     26  C   UNL     1      -7.322  15.101  -6.813  1.00  0.00    -0.000 C 
BRANCH  26  27
ATOM     27  C   UNL     1      -8.233  14.745  -7.997  1.00  0.00    -0.000 C 
BRANCH  27  28
ATOM     28  C   UNL     1      -8.295  13.232  -8.261  1.00  0.00    -0.000 C 
BRANCH  28  29
ATOM     29  C   UNL     1      -9.610  12.597  -7.773  1.00  0.00    -0.000 C 
BRANCH  29  30
ATOM     30  C   UNL     1     -10.692  13.657  -7.480  1.00  0.00    -0.000 C 
BRANCH  30  31
ATOM     31  C   UNL     1     -11.693  13.228  -6.393  1.00  0.00    -0.003 C 
ATOM     32  C   UNL     1     -11.079  13.194  -4.996  1.00  0.00     0.004 C 
ENDBRANCH  30  31
ENDBRANCH  29  30
ENDBRANCH  28  29
ENDBRANCH  27  28
ENDBRANCH  26  27
ENDBRANCH  25  26
ENDBRANCH  24  25
ENDBRANCH  23  24
ENDBRANCH  22  23
ENDBRANCH  21  22
ENDBRANCH  20  21
ENDBRANCH  19  20
ENDBRANCH  18  19
ENDBRANCH   1  18
TORSDOF 28
ENDMDL
MODEL 2
REMARK VINA RESULT:    -3.737      1.767      3.342
REMARK INTER + INTRA:         -15.696
REMARK INTER:                 -10.639
REMARK INTRA:                  -5.057
REMARK UNBOUND:                -5.843
REMARK SMILES CCCCCCCCCCCCCCCCCCCCCCCCCCCCCC(=O)[O-]
REMARK SMILES IDX 16 1 17 2 18 3 19 4 20 5 21 6 22 7 23 8 24 9 25 10 26 11
REMARK SMILES IDX 27 12 28 13 29 14 30 15 31 16 32 17 15 18 14 19 13 20 12 21
REMARK SMILES IDX 11 22 10 23 9 24 8 25 7 26 6 27 5 28 4 29 3 30 2 31 1 32
REMARK H PARENT
REMARK Flexibility Score: inf
ROOT
ATOM      1  C   UNL     1      -8.542  16.895  -1.459  1.00  0.00     0.000 C 
ENDROOT
BRANCH   1   2
ATOM      2  C   UNL     1      -9.961  16.874  -0.862  1.00  0.00     0.000 C 
BRANCH   2   3
ATOM      3  C   UNL     1     -10.001  16.510   0.637  1.00  0.00     0.000 C 
BRANCH   3   4
ATOM      4  C   UNL     1     -10.604  15.122   0.936  1.00  0.00     0.000 C 
BRANCH   4   5
ATOM      5  C   UNL     1      -9.575  13.966   0.921  1.00  0.00     0.000 C 
BRANCH   5   6
ATOM      6  C   UNL     1      -8.720  13.811   2.198  1.00  0.00     0.000 C 
BRANCH   6   7
ATOM      7  C   UNL     1      -7.194  13.768   1.989  1.00  0.00     0.000 C 
BRANCH   7   8
ATOM      8  C   UNL     1      -6.775  14.021   0.534  1.00  0.00     0.000 C 
BRANCH   8   9
ATOM      9  C   UNL     1      -6.017  15.351   0.403  1.00  0.00     0.000 C 
BRANCH   9  10
ATOM     10  C   UNL     1      -5.856  16.066   1.761  1.00  0.00     0.000 C 
BRANCH  10  11
ATOM     11  C   UNL     1      -6.521  17.452   1.806  1.00  0.00     0.000 C 
BRANCH  11  12
ATOM     12  C   UNL     1      -7.672  17.532   2.822  1.00  0.00     0.000 C 
BRANCH  12  13
ATOM     13  C   UNL     1      -7.180  17.477   4.278  1.00  0.00     0.006 C 
BRANCH  13  14
ATOM     14  C   UNL     1      -6.242  18.639   4.630  1.00  0.00     0.053 C 
BRANCH  14  15
ATOM     15  C   UNL     1      -6.039  18.734   6.111  1.00  0.00     0.041 C 
ATOM     16  O   UNL     1      -5.903  19.860   6.660  1.00  0.00    -0.550 OA
ATOM     17  O   UNL     1      -6.048  17.584   6.892  1.00  0.00    -0.550 OA
ENDBRANCH  14  15
ENDBRANCH  13  14
ENDBRANCH  12  13
ENDBRANCH  11  12
ENDBRANCH  10  11
ENDBRANCH   9  10
ENDBRANCH   8   9
ENDBRANCH   7   8
ENDBRANCH   6   7
ENDBRANCH   5   6
ENDBRANCH   4   5
ENDBRANCH   3   4
ENDBRANCH   2   3
ENDBRANCH   1   2
BRANCH   1  18
ATOM     18  C   UNL     1      -8.282  15.728  -2.424  1.00  0.00     0.000 C 
BRANCH  18  19
ATOM     19  C   UNL     1      -9.419  15.539  -3.440  1.00  0.00     0.000 C 
BRANCH  19  20
ATOM     20  C   UNL     1      -9.756  14.059  -3.671  1.00  0.00     0.000 C 
BRANCH  20  21
ATOM     21  C   UNL     1      -9.371  13.211  -2.452  1.00  0.00     0.000 C 
BRANCH  21  22
ATOM     22  C   UNL     1      -8.548  11.987  -2.872  1.00  0.00     0.000 C 
BRANCH  22  23
ATOM     23  C   UNL     1      -7.275  12.410  -3.621  1.00  0.00     0.000 C 
BRANCH  23  24
ATOM     24  C   UNL     1      -7.192  11.817  -5.036  1.00  0.00    -0.000 C 
BRANCH  24  25
ATOM     25  C   UNL     1      -6.442  12.725  -6.022  1.00  0.00    -0.000 C 
BRANCH  25  26
ATOM     26  C   UNL     1      -6.451  14.180  -5.540  1.00  0.00    -0.000 C 
BRANCH  26  27
ATOM     27  C   UNL     1      -7.404  15.036  -6.389  1.00  0.00    -0.000 C 
BRANCH  27  28
ATOM     28  C   UNL     1      -7.641  14.444  -7.788  1.00  0.00    -0.000 C 
BRANCH  28  29
ATOM     29  C   UNL     1      -9.102  14.584  -8.252  1.00  0.00    -0.000 C 
BRANCH  29  30
ATOM     30  C   UNL     1     -10.085  13.881  -7.292  1.00  0.00    -0.000 C 
BRANCH  30  31
ATOM     31  C   UNL     1     -11.556  14.257  -7.538  1.00  0.00    -0.003 C 
ATOM     32  C   UNL     1     -11.718  15.574  -8.291  1.00  0.00     0.004 C 
ENDBRANCH  30  31
ENDBRANCH  29  30
ENDBRANCH  28  29
ENDBRANCH  27  28
ENDBRANCH  26  27
ENDBRANCH  25  26
ENDBRANCH  24  25
ENDBRANCH  23  24
ENDBRANCH  22  23
ENDBRANCH  21  22
ENDBRANCH  20  21
ENDBRANCH  19  20
ENDBRANCH  18  19
ENDBRANCH   1  18
TORSDOF 28
ENDMDL
MODEL 3
REMARK VINA RESULT:    -3.736      3.141      8.182
REMARK INTER + INTRA:         -15.693
REMARK INTER:                 -10.014
REMARK INTRA:                  -5.679
REMARK UNBOUND:                -5.843
REMARK SMILES CCCCCCCCCCCCCCCCCCCCCCCCCCCCCC(=O)[O-]
REMARK SMILES IDX 16 1 17 2 18 3 19 4 20 5 21 6 22 7 23 8 24 9 25 10 26 11
REMARK SMILES IDX 27 12 28 13 29 14 30 15 31 16 32 17 15 18 14 19 13 20 12 21
REMARK SMILES IDX 11 22 10 23 9 24 8 25 7 26 6 27 5 28 4 29 3 30 2 31 1 32
REMARK H PARENT
REMARK Flexibility Score: inf
ROOT
ATOM      1  C   UNL     1      -6.099  14.101   0.865  1.00  0.00     0.000 C 
ENDROOT
BRANCH   1   2
ATOM      2  C   UNL     1      -6.486  15.432   0.195  1.00  0.00     0.000 C 
BRANCH   2   3
ATOM      3  C   UNL     1      -7.929  15.887   0.501  1.00  0.00     0.000 C 
BRANCH   3   4
ATOM      4  C   UNL     1      -8.514  16.872  -0.531  1.00  0.00     0.000 C 
BRANCH   4   5
ATOM      5  C   UNL     1     -10.041  16.737  -0.744  1.00  0.00     0.000 C 
BRANCH   5   6
ATOM      6  C   UNL     1     -10.662  15.390  -0.313  1.00  0.00     0.000 C 
BRANCH   6   7
ATOM      7  C   UNL     1     -10.968  14.392  -1.447  1.00  0.00     0.000 C 
BRANCH   7   8
ATOM      8  C   UNL     1     -10.016  13.188  -1.469  1.00  0.00     0.000 C 
BRANCH   8   9
ATOM      9  C   UNL     1      -9.200  13.156  -2.770  1.00  0.00     0.000 C 
BRANCH   9  10
ATOM     10  C   UNL     1      -7.728  13.564  -2.546  1.00  0.00     0.000 C 
BRANCH  10  11
ATOM     11  C   UNL     1      -7.296  14.780  -3.383  1.00  0.00     0.000 C 
BRANCH  11  12
ATOM     12  C   UNL     1      -8.487  15.578  -3.939  1.00  0.00     0.000 C 
BRANCH  12  13
ATOM     13  C   UNL     1      -8.408  15.772  -5.462  1.00  0.00     0.006 C 
BRANCH  13  14
ATOM     14  C   UNL     1      -9.116  14.655  -6.239  1.00  0.00     0.053 C 
BRANCH  14  15
ATOM     15  C   UNL     1      -8.145  13.594  -6.657  1.00  0.00     0.041 C 
ATOM     16  O   UNL     1      -7.074  13.911  -7.241  1.00  0.00    -0.550 OA
ATOM     17  O   UNL     1      -8.396  12.260  -6.359  1.00  0.00    -0.550 OA
ENDBRANCH  14  15
ENDBRANCH  13  14
ENDBRANCH  12  13
ENDBRANCH  11  12
ENDBRANCH  10  11
ENDBRANCH   9  10
ENDBRANCH   8   9
ENDBRANCH   7   8
ENDBRANCH   6   7
ENDBRANCH   5   6
ENDBRANCH   4   5
ENDBRANCH   3   4
ENDBRANCH   2   3
ENDBRANCH   1   2
BRANCH   1  18
ATOM     18  C   UNL     1      -7.314  13.322   1.393  1.00  0.00     0.000 C 
BRANCH  18  19
ATOM     19  C   UNL     1      -6.943  12.342   2.518  1.00  0.00     0.000 C 
BRANCH  19  20
ATOM     20  C   UNL     1      -7.481  12.791   3.884  1.00  0.00     0.000 C 
BRANCH  20  21
ATOM     21  C   UNL     1      -8.762  13.619   3.725  1.00  0.00     0.000 C 
BRANCH  21  22
ATOM     22  C   UNL     1      -8.574  15.035   4.286  1.00  0.00     0.000 C 
BRANCH  22  23
ATOM     23  C   UNL     1      -7.336  15.109   5.192  1.00  0.00     0.000 C 
BRANCH  23  24
ATOM     24  C   UNL     1      -6.470  16.348   4.919  1.00  0.00    -0.000 C 
BRANCH  24  25
ATOM     25  C   UNL     1      -6.554  16.826   3.461  1.00  0.00    -0.000 C 
BRANCH  25  26
ATOM     26  C   UNL     1      -6.464  18.354   3.381  1.00  0.00    -0.000 C 
BRANCH  26  27
ATOM     27  C   UNL     1      -7.748  19.010   3.912  1.00  0.00    -0.000 C 
BRANCH  27  28
ATOM     28  C   UNL     1      -9.011  18.492   3.208  1.00  0.00    -0.000 C 
BRANCH  28  29
ATOM     29  C   UNL     1     -10.214  19.438   3.372  1.00  0.00    -0.000 C 
BRANCH  29  30
ATOM     30  C   UNL     1     -11.560  18.694   3.238  1.00  0.00    -0.000 C 
BRANCH  30  31
ATOM     31  C   UNL     1     -11.421  17.163   3.279  1.00  0.00    -0.003 C 
ATOM     32  C   UNL     1     -12.016  16.542   4.540  1.00  0.00     0.004 C 
ENDBRANCH  30  31
ENDBRANCH  29  30
ENDBRANCH  28  29
ENDBRANCH  27  28
ENDBRANCH  26  27
ENDBRANCH  25  26
ENDBRANCH  24  25
ENDBRANCH  23  24
ENDBRANCH  22  23
ENDBRANCH  21  22
ENDBRANCH  20  21
ENDBRANCH  19  20
ENDBRANCH  18  19
ENDBRANCH   1  18
TORSDOF 28
ENDMDL
MODEL 4
REMARK VINA RESULT:    -3.728      3.215      8.007
REMARK INTER + INTRA:         -15.674
REMARK INTER:                  -9.111
REMARK INTRA:                  -6.563
REMARK UNBOUND:                -5.843
REMARK SMILES CCCCCCCCCCCCCCCCCCCCCCCCCCCCCC(=O)[O-]
REMARK SMILES IDX 16 1 17 2 18 3 19 4 20 5 21 6 22 7 23 8 24 9 25 10 26 11
REMARK SMILES IDX 27 12 28 13 29 14 30 15 31 16 32 17 15 18 14 19 13 20 12 21
REMARK SMILES IDX 11 22 10 23 9 24 8 25 7 26 6 27 5 28 4 29 3 30 2 31 1 32
REMARK H PARENT
REMARK Flexibility Score: inf
ROOT
ATOM      1  C   UNL     1      -9.680  16.844  -1.660  1.00  0.00     0.000 C 
ENDROOT
BRANCH   1   2
ATOM      2  C   UNL     1     -10.255  15.633  -0.901  1.00  0.00     0.000 C 
BRANCH   2   3
ATOM      3  C   UNL     1     -11.559  15.078  -1.512  1.00  0.00     0.000 C 
BRANCH   3   4
ATOM      4  C   UNL     1     -11.429  13.656  -2.097  1.00  0.00     0.000 C 
BRANCH   4   5
ATOM      5  C   UNL     1     -10.974  13.616  -3.576  1.00  0.00     0.000 C 
BRANCH   5   6
ATOM      6  C   UNL     1     -11.003  12.226  -4.249  1.00  0.00     0.000 C 
BRANCH   6   7
ATOM      7  C   UNL     1      -9.637  11.650  -4.669  1.00  0.00     0.000 C 
BRANCH   7   8
ATOM      8  C   UNL     1      -8.629  11.575  -3.514  1.00  0.00     0.000 C 
BRANCH   8   9
ATOM      9  C   UNL     1      -7.197  11.812  -4.016  1.00  0.00     0.000 C 
BRANCH   9  10
ATOM     10  C   UNL     1      -7.070  11.594  -5.540  1.00  0.00     0.000 C 
BRANCH  10  11
ATOM     11  C   UNL     1      -6.338  12.738  -6.263  1.00  0.00     0.000 C 
BRANCH  11  12
ATOM     12  C   UNL     1      -6.384  14.065  -5.486  1.00  0.00     0.000 C 
BRANCH  12  13
ATOM     13  C   UNL     1      -7.128  15.171  -6.251  1.00  0.00     0.006 C 
BRANCH  13  14
ATOM     14  C   UNL     1      -8.649  15.106  -6.056  1.00  0.00     0.053 C 
BRANCH  14  15
ATOM     15  C   UNL     1      -9.327  14.603  -7.293  1.00  0.00     0.041 C 
ATOM     16  O   UNL     1     -10.474  14.087  -7.220  1.00  0.00    -0.550 OA
ATOM     17  O   UNL     1      -8.714  14.745  -8.532  1.00  0.00    -0.550 OA
ENDBRANCH  14  15
ENDBRANCH  13  14
ENDBRANCH  12  13
ENDBRANCH  11  12
ENDBRANCH  10  11
ENDBRANCH   9  10
ENDBRANCH   8   9
ENDBRANCH   7   8
ENDBRANCH   6   7
ENDBRANCH   5   6
ENDBRANCH   4   5
ENDBRANCH   3   4
ENDBRANCH   2   3
ENDBRANCH   1   2
BRANCH   1  18
ATOM     18  C   UNL     1      -8.520  16.467  -2.595  1.00  0.00     0.000 C 
BRANCH  18  19
ATOM     19  C   UNL     1      -7.999  15.044  -2.345  1.00  0.00     0.000 C 
BRANCH  19  20
ATOM     20  C   UNL     1      -6.528  15.030  -1.906  1.00  0.00     0.000 C 
BRANCH  20  21
ATOM     21  C   UNL     1      -6.235  13.828  -1.000  1.00  0.00     0.000 C 
BRANCH  21  22
ATOM     22  C   UNL     1      -7.486  13.414  -0.215  1.00  0.00     0.000 C 
BRANCH  22  23
ATOM     23  C   UNL     1      -7.121  12.979   1.213  1.00  0.00     0.000 C 
BRANCH  23  24
ATOM     24  C   UNL     1      -8.351  12.810   2.117  1.00  0.00    -0.000 C 
BRANCH  24  25
ATOM     25  C   UNL     1      -9.677  12.960   1.357  1.00  0.00    -0.000 C 
BRANCH  25  26
ATOM     26  C   UNL     1     -10.690  13.766   2.178  1.00  0.00    -0.000 C 
BRANCH  26  27
ATOM     27  C   UNL     1      -9.984  14.827   3.035  1.00  0.00    -0.000 C 
BRANCH  27  28
ATOM     28  C   UNL     1     -10.679  16.197   2.971  1.00  0.00    -0.000 C 
BRANCH  28  29
ATOM     29  C   UNL     1      -9.872  17.236   2.172  1.00  0.00    -0.000 C 
BRANCH  29  30
ATOM     30  C   UNL     1      -8.362  17.162   2.484  1.00  0.00    -0.000 C 
BRANCH  30  31
ATOM     31  C   UNL     1      -7.496  16.850   1.251  1.00  0.00    -0.003 C 
ATOM     32  C   UNL     1      -6.076  16.422   1.611  1.00  0.00     0.004 C 
ENDBRANCH  30  31
ENDBRANCH  29  30
ENDBRANCH  28  29
ENDBRANCH  27  28
ENDBRANCH  26  27
ENDBRANCH  25  26
ENDBRANCH  24  25
ENDBRANCH  23  24
ENDBRANCH  22  23
ENDBRANCH  21  22
ENDBRANCH  20  21
ENDBRANCH  19  20
ENDBRANCH  18  19
ENDBRANCH   1  18
TORSDOF 28
ENDMDL
MODEL 5
REMARK VINA RESULT:    -3.701      1.763      7.798
REMARK INTER + INTRA:         -15.603
REMARK INTER:                  -9.921
REMARK INTRA:                  -5.682
REMARK UNBOUND:                -5.843
REMARK SMILES CCCCCCCCCCCCCCCCCCCCCCCCCCCCCC(=O)[O-]
REMARK SMILES IDX 16 1 17 2 18 3 19 4 20 5 21 6 22 7 23 8 24 9 25 10 26 11
REMARK SMILES IDX 27 12 28 13 29 14 30 15 31 16 32 17 15 18 14 19 13 20 12 21
REMARK SMILES IDX 11 22 10 23 9 24 8 25 7 26 6 27 5 28 4 29 3 30 2 31 1 32
REMARK H PARENT
REMARK Flexibility Score: inf
ROOT
ATOM      1  C   UNL     1      -8.647  15.352  -4.023  1.00  0.00     0.000 C 
ENDROOT
BRANCH   1   2
ATOM      2  C   UNL     1      -7.307  14.623  -4.232  1.00  0.00     0.000 C 
BRANCH   2   3
ATOM      3  C   UNL     1      -7.079  14.142  -5.681  1.00  0.00     0.000 C 
BRANCH   3   4
ATOM      4  C   UNL     1      -7.378  15.207  -6.756  1.00  0.00     0.000 C 
BRANCH   4   5
ATOM      5  C   UNL     1      -7.994  14.641  -8.058  1.00  0.00     0.000 C 
BRANCH   5   6
ATOM      6  C   UNL     1      -9.173  13.660  -7.871  1.00  0.00     0.000 C 
BRANCH   6   7
ATOM      7  C   UNL     1     -10.491  14.277  -7.363  1.00  0.00     0.000 C 
BRANCH   7   8
ATOM      8  C   UNL     1     -11.091  13.526  -6.166  1.00  0.00     0.000 C 
BRANCH   8   9
ATOM      9  C   UNL     1     -10.295  12.248  -5.864  1.00  0.00     0.000 C 
BRANCH   9  10
ATOM     10  C   UNL     1     -10.440  11.805  -4.392  1.00  0.00     0.000 C 
BRANCH  10  11
ATOM     11  C   UNL     1      -9.100  11.461  -3.722  1.00  0.00     0.000 C 
BRANCH  11  12
ATOM     12  C   UNL     1      -9.107  11.713  -2.204  1.00  0.00     0.000 C 
BRANCH  12  13
ATOM     13  C   UNL     1      -7.699  11.965  -1.641  1.00  0.00     0.006 C 
BRANCH  13  14
ATOM     14  C   UNL     1      -7.653  13.152  -0.670  1.00  0.00     0.053 C 
BRANCH  14  15
ATOM     15  C   UNL     1      -6.253  13.659  -0.510  1.00  0.00     0.041 C 
ATOM     16  O   UNL     1      -5.933  14.790  -0.964  1.00  0.00    -0.550 OA
ATOM     17  O   UNL     1      -5.312  12.905   0.182  1.00  0.00    -0.550 OA
ENDBRANCH  14  15
ENDBRANCH  13  14
ENDBRANCH  12  13
ENDBRANCH  11  12
ENDBRANCH  10  11
ENDBRANCH   9  10
ENDBRANCH   8   9
ENDBRANCH   7   8
ENDBRANCH   6   7
ENDBRANCH   5   6
ENDBRANCH   4   5
ENDBRANCH   3   4
ENDBRANCH   2   3
ENDBRANCH   1   2
BRANCH   1  18
ATOM     18  C   UNL     1      -8.634  16.288  -2.804  1.00  0.00     0.000 C 
BRANCH  18  19
ATOM     19  C   UNL     1      -9.790  16.005  -1.831  1.00  0.00     0.000 C 
BRANCH  19  20
ATOM     20  C   UNL     1     -10.685  14.852  -2.308  1.00  0.00     0.000 C 
BRANCH  20  21
ATOM     21  C   UNL     1     -11.841  14.613  -1.329  1.00  0.00     0.000 C 
BRANCH  21  22
ATOM     22  C   UNL     1     -11.391  13.740  -0.150  1.00  0.00     0.000 C 
BRANCH  22  23
ATOM     23  C   UNL     1     -11.464  14.520   1.172  1.00  0.00     0.000 C 
BRANCH  23  24
ATOM     24  C   UNL     1     -10.078  14.892   1.722  1.00  0.00    -0.000 C 
BRANCH  24  25
ATOM     25  C   UNL     1     -10.098  16.164   2.582  1.00  0.00    -0.000 C 
BRANCH  25  26
ATOM     26  C   UNL     1      -9.222  17.258   1.960  1.00  0.00    -0.000 C 
BRANCH  26  27
ATOM     27  C   UNL     1      -8.046  16.648   1.183  1.00  0.00    -0.000 C 
BRANCH  27  28
ATOM     28  C   UNL     1      -6.729  16.691   1.974  1.00  0.00    -0.000 C 
BRANCH  28  29
ATOM     29  C   UNL     1      -6.528  18.022   2.721  1.00  0.00    -0.000 C 
BRANCH  29  30
ATOM     30  C   UNL     1      -6.305  17.811   4.233  1.00  0.00    -0.000 C 
BRANCH  30  31
ATOM     31  C   UNL     1      -6.885  16.487   4.760  1.00  0.00    -0.003 C 
ATOM     32  C   UNL     1      -6.128  15.941   5.967  1.00  0.00     0.004 C 
ENDBRANCH  30  31
ENDBRANCH  29  30
ENDBRANCH  28  29
ENDBRANCH  27  28
ENDBRANCH  26  27
ENDBRANCH  25  26
ENDBRANCH  24  25
ENDBRANCH  23  24
ENDBRANCH  22  23
ENDBRANCH  21  22
ENDBRANCH  20  21
ENDBRANCH  19  20
ENDBRANCH  18  19
ENDBRANCH   1  18
TORSDOF 28
ENDMDL
MODEL 6
REMARK VINA RESULT:    -3.694      1.374      3.215
REMARK INTER + INTRA:         -15.582
REMARK INTER:                  -9.998
REMARK INTRA:                  -5.585
REMARK UNBOUND:                -5.843
REMARK SMILES CCCCCCCCCCCCCCCCCCCCCCCCCCCCCC(=O)[O-]
REMARK SMILES IDX 16 1 17 2 18 3 19 4 20 5 21 6 22 7 23 8 24 9 25 10 26 11
REMARK SMILES IDX 27 12 28 13 29 14 30 15 31 16 32 17 15 18 14 19 13 20 12 21
REMARK SMILES IDX 11 22 10 23 9 24 8 25 7 26 6 27 5 28 4 29 3 30 2 31 1 32
REMARK H PARENT
REMARK Flexibility Score: inf
ROOT
ATOM      1  C   UNL     1      -8.417  16.886  -1.495  1.00  0.00     0.000 C 
ENDROOT
BRANCH   1   2
ATOM      2  C   UNL     1      -7.718  15.939  -0.502  1.00  0.00     0.000 C 
BRANCH   2   3
ATOM      3  C   UNL     1      -6.605  15.081  -1.138  1.00  0.00     0.000 C 
BRANCH   3   4
ATOM      4  C   UNL     1      -6.701  13.576  -0.811  1.00  0.00     0.000 C 
BRANCH   4   5
ATOM      5  C   UNL     1      -8.128  13.093  -0.455  1.00  0.00     0.000 C 
BRANCH   5   6
ATOM      6  C   UNL     1      -8.338  12.646   1.009  1.00  0.00     0.000 C 
BRANCH   6   7
ATOM      7  C   UNL     1      -7.422  13.308   2.057  1.00  0.00     0.000 C 
BRANCH   7   8
ATOM      8  C   UNL     1      -8.045  14.552   2.706  1.00  0.00     0.000 C 
BRANCH   8   9
ATOM      9  C   UNL     1      -9.576  14.523   2.596  1.00  0.00     0.000 C 
BRANCH   9  10
ATOM     10  C   UNL     1     -10.227  15.804   3.161  1.00  0.00     0.000 C 
BRANCH  10  11
ATOM     11  C   UNL     1      -9.910  17.065   2.341  1.00  0.00     0.000 C 
BRANCH  11  12
ATOM     12  C   UNL     1      -9.313  18.199   3.192  1.00  0.00     0.000 C 
BRANCH  12  13
ATOM     13  C   UNL     1      -7.792  18.069   3.367  1.00  0.00     0.006 C 
BRANCH  13  14
ATOM     14  C   UNL     1      -7.183  19.241   4.148  1.00  0.00     0.053 C 
BRANCH  14  15
ATOM     15  C   UNL     1      -6.340  18.747   5.283  1.00  0.00     0.041 C 
ATOM     16  O   UNL     1      -5.813  19.566   6.083  1.00  0.00    -0.550 OA
ATOM     17  O   UNL     1      -6.174  17.383   5.489  1.00  0.00    -0.550 OA
ENDBRANCH  14  15
ENDBRANCH  13  14
ENDBRANCH  12  13
ENDBRANCH  11  12
ENDBRANCH  10  11
ENDBRANCH   9  10
ENDBRANCH   8   9
ENDBRANCH   7   8
ENDBRANCH   6   7
ENDBRANCH   5   6
ENDBRANCH   4   5
ENDBRANCH   3   4
ENDBRANCH   2   3
ENDBRANCH   1   2
BRANCH   1  18
ATOM     18  C   UNL     1      -9.942  16.923  -1.314  1.00  0.00     0.000 C 
BRANCH  18  19
ATOM     19  C   UNL     1     -10.512  15.578  -0.838  1.00  0.00     0.000 C 
BRANCH  19  20
ATOM     20  C   UNL     1     -11.322  14.867  -1.932  1.00  0.00     0.000 C 
BRANCH  20  21
ATOM     21  C   UNL     1     -11.692  13.442  -1.504  1.00  0.00     0.000 C 
BRANCH  21  22
ATOM     22  C   UNL     1     -11.233  12.417  -2.549  1.00  0.00     0.000 C 
BRANCH  22  23
ATOM     23  C   UNL     1     -10.442  13.097  -3.677  1.00  0.00     0.000 C 
BRANCH  23  24
ATOM     24  C   UNL     1      -9.045  12.489  -3.877  1.00  0.00    -0.000 C 
BRANCH  24  25
ATOM     25  C   UNL     1      -8.038  13.485  -4.469  1.00  0.00    -0.000 C 
BRANCH  25  26
ATOM     26  C   UNL     1      -8.554  14.923  -4.344  1.00  0.00    -0.000 C 
BRANCH  26  27
ATOM     27  C   UNL     1      -8.055  15.791  -5.509  1.00  0.00    -0.000 C 
BRANCH  27  28
ATOM     28  C   UNL     1      -7.247  14.987  -6.541  1.00  0.00    -0.000 C 
BRANCH  28  29
ATOM     29  C   UNL     1      -7.994  14.813  -7.876  1.00  0.00    -0.000 C 
BRANCH  29  30
ATOM     30  C   UNL     1      -8.259  13.328  -8.204  1.00  0.00    -0.000 C 
BRANCH  30  31
ATOM     31  C   UNL     1      -9.679  12.863  -7.838  1.00  0.00    -0.003 C 
ATOM     32  C   UNL     1     -10.617  14.018  -7.498  1.00  0.00     0.004 C 
ENDBRANCH  30  31
ENDBRANCH  29  30
ENDBRANCH  28  29
ENDBRANCH  27  28
ENDBRANCH  26  27
ENDBRANCH  25  26
ENDBRANCH  24  25
ENDBRANCH  23  24
ENDBRANCH  22  23
ENDBRANCH  21  22
ENDBRANCH  20  21
ENDBRANCH  19  20
ENDBRANCH  18  19
ENDBRANCH   1  18
TORSDOF 28
ENDMDL
MODEL 7
REMARK VINA RESULT:    -3.690      2.848      8.146
REMARK INTER + INTRA:         -15.572
REMARK INTER:                  -9.917
REMARK INTRA:                  -5.655
REMARK UNBOUND:                -5.843
REMARK SMILES CCCCCCCCCCCCCCCCCCCCCCCCCCCCCC(=O)[O-]
REMARK SMILES IDX 16 1 17 2 18 3 19 4 20 5 21 6 22 7 23 8 24 9 25 10 26 11
REMARK SMILES IDX 27 12 28 13 29 14 30 15 31 16 32 17 15 18 14 19 13 20 12 21
REMARK SMILES IDX 11 22 10 23 9 24 8 25 7 26 6 27 5 28 4 29 3 30 2 31 1 32
REMARK H PARENT
REMARK Flexibility Score: inf
ROOT
ATOM      1  C   UNL     1      -8.732  17.085  -2.470  1.00  0.00     0.000 C 
ENDROOT
BRANCH   1   2
ATOM      2  C   UNL     1      -9.855  17.039  -1.417  1.00  0.00     0.000 C 
BRANCH   2   3
ATOM      3  C   UNL     1      -9.383  16.572  -0.024  1.00  0.00     0.000 C 
BRANCH   3   4
ATOM      4  C   UNL     1     -10.286  15.503   0.625  1.00  0.00     0.000 C 
BRANCH   4   5
ATOM      5  C   UNL     1     -10.412  14.195  -0.194  1.00  0.00     0.000 C 
BRANCH   5   6
ATOM      6  C   UNL     1     -11.765  13.978  -0.907  1.00  0.00     0.000 C 
BRANCH   6   7
ATOM      7  C   UNL     1     -11.718  13.933  -2.447  1.00  0.00     0.000 C 
BRANCH   7   8
ATOM      8  C   UNL     1     -11.114  12.633  -2.997  1.00  0.00     0.000 C 
BRANCH   8   9
ATOM      9  C   UNL     1     -11.419  12.476  -4.494  1.00  0.00     0.000 C 
BRANCH   9  10
ATOM     10  C   UNL     1     -10.150  12.602  -5.364  1.00  0.00     0.000 C 
BRANCH  10  11
ATOM     11  C   UNL     1     -10.020  13.966  -6.063  1.00  0.00     0.000 C 
BRANCH  11  12
ATOM     12  C   UNL     1      -9.816  13.844  -7.583  1.00  0.00     0.000 C 
BRANCH  12  13
ATOM     13  C   UNL     1      -8.397  14.239  -8.022  1.00  0.00     0.006 C 
BRANCH  13  14
ATOM     14  C   UNL     1      -7.482  14.573  -6.836  1.00  0.00     0.053 C 
BRANCH  14  15
ATOM     15  C   UNL     1      -6.568  13.427  -6.525  1.00  0.00     0.041 C 
ATOM     16  O   UNL     1      -5.471  13.634  -5.940  1.00  0.00    -0.550 OA
ATOM     17  O   UNL     1      -6.946  12.127  -6.838  1.00  0.00    -0.550 OA
ENDBRANCH  14  15
ENDBRANCH  13  14
ENDBRANCH  12  13
ENDBRANCH  11  12
ENDBRANCH  10  11
ENDBRANCH   9  10
ENDBRANCH   8   9
ENDBRANCH   7   8
ENDBRANCH   6   7
ENDBRANCH   5   6
ENDBRANCH   4   5
ENDBRANCH   3   4
ENDBRANCH   2   3
ENDBRANCH   1   2
BRANCH   1  18
ATOM     18  C   UNL     1      -8.699  15.836  -3.364  1.00  0.00     0.000 C 
BRANCH  18  19
ATOM     19  C   UNL     1      -7.415  15.012  -3.178  1.00  0.00     0.000 C 
BRANCH  19  20
ATOM     20  C   UNL     1      -7.628  13.800  -2.259  1.00  0.00     0.000 C 
BRANCH  20  21
ATOM     21  C   UNL     1      -6.487  13.674  -1.242  1.00  0.00     0.000 C 
BRANCH  21  22
ATOM     22  C   UNL     1      -6.209  15.019  -0.558  1.00  0.00     0.000 C 
BRANCH  22  23
ATOM     23  C   UNL     1      -6.243  14.876   0.972  1.00  0.00     0.000 C 
BRANCH  23  24
ATOM     24  C   UNL     1      -7.097  13.687   1.440  1.00  0.00    -0.000 C 
BRANCH  24  25
ATOM     25  C   UNL     1      -7.269  13.638   2.965  1.00  0.00    -0.000 C 
BRANCH  25  26
ATOM     26  C   UNL     1      -8.213  14.747   3.444  1.00  0.00    -0.000 C 
BRANCH  26  27
ATOM     27  C   UNL     1      -7.585  15.544   4.598  1.00  0.00    -0.000 C 
BRANCH  27  28
ATOM     28  C   UNL     1      -7.102  16.935   4.159  1.00  0.00    -0.000 C 
BRANCH  28  29
ATOM     29  C   UNL     1      -7.931  17.515   2.999  1.00  0.00    -0.000 C 
BRANCH  29  30
ATOM     30  C   UNL     1      -8.835  18.679   3.457  1.00  0.00    -0.000 C 
BRANCH  30  31
ATOM     31  C   UNL     1     -10.320  18.475   3.109  1.00  0.00    -0.003 C 
ATOM     32  C   UNL     1     -10.932  17.257   3.795  1.00  0.00     0.004 C 
ENDBRANCH  30  31
ENDBRANCH  29  30
ENDBRANCH  28  29
ENDBRANCH  27  28
ENDBRANCH  26  27
ENDBRANCH  25  26
ENDBRANCH  24  25
ENDBRANCH  23  24
ENDBRANCH  22  23
ENDBRANCH  21  22
ENDBRANCH  20  21
ENDBRANCH  19  20
ENDBRANCH  18  19
ENDBRANCH   1  18
TORSDOF 28
ENDMDL
MODEL 8
REMARK VINA RESULT:    -3.679      1.560      6.594
REMARK INTER + INTRA:         -15.543
REMARK INTER:                 -10.370
REMARK INTRA:                  -5.173
REMARK UNBOUND:                -5.843
REMARK SMILES CCCCCCCCCCCCCCCCCCCCCCCCCCCCCC(=O)[O-]
REMARK SMILES IDX 16 1 17 2 18 3 19 4 20 5 21 6 22 7 23 8 24 9 25 10 26 11
REMARK SMILES IDX 27 12 28 13 29 14 30 15 31 16 32 17 15 18 14 19 13 20 12 21
REMARK SMILES IDX 11 22 10 23 9 24 8 25 7 26 6 27 5 28 4 29 3 30 2 31 1 32
REMARK H PARENT
REMARK Flexibility Score: inf
ROOT
ATOM      1  C   UNL     1     -10.349  14.460  -7.545  1.00  0.00     0.000 C 
ENDROOT
BRANCH   1   2
ATOM      2  C   UNL     1      -8.983  14.607  -8.239  1.00  0.00     0.000 C 
BRANCH   2   3
ATOM      3  C   UNL     1      -7.815  13.971  -7.457  1.00  0.00     0.000 C 
BRANCH   3   4
ATOM      4  C   UNL     1      -6.911  14.988  -6.731  1.00  0.00     0.000 C 
BRANCH   4   5
ATOM      5  C   UNL     1      -7.124  15.048  -5.199  1.00  0.00     0.000 C 
BRANCH   5   6
ATOM      6  C   UNL     1      -8.304  15.923  -4.720  1.00  0.00     0.000 C 
BRANCH   6   7
ATOM      7  C   UNL     1      -8.818  15.642  -3.294  1.00  0.00     0.000 C 
BRANCH   7   8
ATOM      8  C   UNL     1      -8.804  16.882  -2.389  1.00  0.00     0.000 C 
BRANCH   8   9
ATOM      9  C   UNL     1      -9.846  16.758  -1.269  1.00  0.00     0.000 C 
BRANCH   9  10
ATOM     10  C   UNL     1     -10.455  15.341  -1.193  1.00  0.00     0.000 C 
BRANCH  10  11
ATOM     11  C   UNL     1     -10.951  14.961   0.212  1.00  0.00     0.000 C 
BRANCH  11  12
ATOM     12  C   UNL     1      -9.835  14.398   1.109  1.00  0.00     0.000 C 
BRANCH  12  13
ATOM     13  C   UNL     1      -9.655  15.205   2.405  1.00  0.00     0.006 C 
BRANCH  13  14
ATOM     14  C   UNL     1     -10.988  15.691   2.989  1.00  0.00     0.053 C 
BRANCH  14  15
ATOM     15  C   UNL     1     -10.968  17.173   3.208  1.00  0.00     0.041 C 
ATOM     16  O   UNL     1     -11.645  17.684   4.139  1.00  0.00    -0.550 OA
ATOM     17  O   UNL     1     -10.166  17.986   2.415  1.00  0.00    -0.550 OA
ENDBRANCH  14  15
ENDBRANCH  13  14
ENDBRANCH  12  13
ENDBRANCH  11  12
ENDBRANCH  10  11
ENDBRANCH   9  10
ENDBRANCH   8   9
ENDBRANCH   7   8
ENDBRANCH   6   7
ENDBRANCH   5   6
ENDBRANCH   4   5
ENDBRANCH   3   4
ENDBRANCH   2   3
ENDBRANCH   1   2
BRANCH   1  18
ATOM     18  C   UNL     1     -10.810  12.998  -7.435  1.00  0.00     0.000 C 
BRANCH  18  19
ATOM     19  C   UNL     1     -11.616  12.728  -6.155  1.00  0.00     0.000 C 
BRANCH  19  20
ATOM     20  C   UNL     1     -10.857  13.148  -4.888  1.00  0.00     0.000 C 
BRANCH  20  21
ATOM     21  C   UNL     1     -10.137  11.951  -4.255  1.00  0.00     0.000 C 
BRANCH  21  22
ATOM     22  C   UNL     1      -8.671  11.891  -4.704  1.00  0.00     0.000 C 
BRANCH  22  23
ATOM     23  C   UNL     1      -7.735  11.698  -3.501  1.00  0.00     0.000 C 
BRANCH  23  24
ATOM     24  C   UNL     1      -8.299  12.299  -2.205  1.00  0.00    -0.000 C 
BRANCH  24  25
ATOM     25  C   UNL     1      -7.241  12.438  -1.100  1.00  0.00    -0.000 C 
BRANCH  25  26
ATOM     26  C   UNL     1      -6.552  13.806  -1.173  1.00  0.00    -0.000 C 
BRANCH  26  27
ATOM     27  C   UNL     1      -6.200  14.321   0.230  1.00  0.00    -0.000 C 
BRANCH  27  28
ATOM     28  C   UNL     1      -6.550  15.805   0.420  1.00  0.00    -0.000 C 
BRANCH  28  29
ATOM     29  C   UNL     1      -6.021  16.375   1.748  1.00  0.00    -0.000 C 
BRANCH  29  30
ATOM     30  C   UNL     1      -6.850  17.584   2.232  1.00  0.00    -0.000 C 
BRANCH  30  31
ATOM     31  C   UNL     1      -6.520  18.017   3.670  1.00  0.00    -0.003 C 
ATOM     32  C   UNL     1      -7.113  19.375   4.036  1.00  0.00     0.004 C 
ENDBRANCH  30  31
ENDBRANCH  29  30
ENDBRANCH  28  29
ENDBRANCH  27  28
ENDBRANCH  26  27
ENDBRANCH  25  26
ENDBRANCH  24  25
ENDBRANCH  23  24
ENDBRANCH  22  23
ENDBRANCH  21  22
ENDBRANCH  20  21
ENDBRANCH  19  20
ENDBRANCH  18  19
ENDBRANCH   1  18
TORSDOF 28
ENDMDL
MODEL 9
REMARK VINA RESULT:    -3.662      2.342      5.207
REMARK INTER + INTRA:         -15.499
REMARK INTER:                 -10.198
REMARK INTRA:                  -5.301
REMARK UNBOUND:                -5.843
REMARK SMILES CCCCCCCCCCCCCCCCCCCCCCCCCCCCCC(=O)[O-]
REMARK SMILES IDX 16 1 17 2 18 3 19 4 20 5 21 6 22 7 23 8 24 9 25 10 26 11
REMARK SMILES IDX 27 12 28 13 29 14 30 15 31 16 32 17 15 18 14 19 13 20 12 21
REMARK SMILES IDX 11 22 10 23 9 24 8 25 7 26 6 27 5 28 4 29 3 30 2 31 1 32
REMARK H PARENT
REMARK Flexibility Score: inf
ROOT
ATOM      1  C   UNL     1      -8.977  17.486   3.366  1.00  0.00     0.000 C 
ENDROOT
BRANCH   1   2
ATOM      2  C   UNL     1      -7.724  18.359   3.564  1.00  0.00     0.000 C 
BRANCH   2   3
ATOM      3  C   UNL     1      -6.463  17.805   2.867  1.00  0.00     0.000 C 
BRANCH   3   4
ATOM      4  C   UNL     1      -6.722  17.211   1.467  1.00  0.00     0.000 C 
BRANCH   4   5
ATOM      5  C   UNL     1      -5.843  15.984   1.124  1.00  0.00     0.000 C 
BRANCH   5   6
ATOM      6  C   UNL     1      -6.144  15.301  -0.228  1.00  0.00     0.000 C 
BRANCH   6   7
ATOM      7  C   UNL     1      -6.296  13.768  -0.191  1.00  0.00     0.000 C 
BRANCH   7   8
ATOM      8  C   UNL     1      -5.933  13.155   1.169  1.00  0.00     0.000 C 
BRANCH   8   9
ATOM      9  C   UNL     1      -7.163  12.514   1.830  1.00  0.00     0.000 C 
BRANCH   9  10
ATOM     10  C   UNL     1      -7.201  12.761   3.354  1.00  0.00     0.000 C 
BRANCH  10  11
ATOM     11  C   UNL     1      -7.529  14.215   3.731  1.00  0.00     0.000 C 
BRANCH  11  12
ATOM     12  C   UNL     1      -7.730  14.411   5.243  1.00  0.00     0.000 C 
BRANCH  12  13
ATOM     13  C   UNL     1      -6.868  15.550   5.811  1.00  0.00     0.006 C 
BRANCH  13  14
ATOM     14  C   UNL     1      -5.765  15.046   6.751  1.00  0.00     0.053 C 
BRANCH  14  15
ATOM     15  C   UNL     1      -5.922  15.630   8.121  1.00  0.00     0.041 C 
ATOM     16  O   UNL     1      -4.904  15.914   8.808  1.00  0.00    -0.550 OA
ATOM     17  O   UNL     1      -7.189  15.904   8.624  1.00  0.00    -0.550 OA
ENDBRANCH  14  15
ENDBRANCH  13  14
ENDBRANCH  12  13
ENDBRANCH  11  12
ENDBRANCH  10  11
ENDBRANCH   9  10
ENDBRANCH   8   9
ENDBRANCH   7   8
ENDBRANCH   6   7
ENDBRANCH   5   6
ENDBRANCH   4   5
ENDBRANCH   3   4
ENDBRANCH   2   3
ENDBRANCH   1   2
BRANCH   1  18
ATOM     18  C   UNL     1     -10.239  18.311   3.067  1.00  0.00     0.000 C 
BRANCH  18  19
ATOM     19  C   UNL     1     -11.529  17.487   3.208  1.00  0.00     0.000 C 
BRANCH  19  20
ATOM     20  C   UNL     1     -11.248  15.989   3.394  1.00  0.00     0.000 C 
BRANCH  20  21
ATOM     21  C   UNL     1     -11.810  15.175   2.223  1.00  0.00     0.000 C 
BRANCH  21  22
ATOM     22  C   UNL     1     -10.732  14.265   1.618  1.00  0.00     0.000 C 
BRANCH  22  23
ATOM     23  C   UNL     1      -9.670  15.089   0.874  1.00  0.00     0.000 C 
BRANCH  23  24
ATOM     24  C   UNL     1     -10.123  15.515  -0.531  1.00  0.00    -0.000 C 
BRANCH  24  25
ATOM     25  C   UNL     1      -9.682  16.941  -0.894  1.00  0.00    -0.000 C 
BRANCH  25  26
ATOM     26  C   UNL     1      -8.867  16.947  -2.193  1.00  0.00    -0.000 C 
BRANCH  26  27
ATOM     27  C   UNL     1      -9.001  15.608  -2.933  1.00  0.00    -0.000 C 
BRANCH  27  28
ATOM     28  C   UNL     1      -7.662  15.110  -3.500  1.00  0.00    -0.000 C 
BRANCH  28  29
ATOM     29  C   UNL     1      -7.842  14.106  -4.654  1.00  0.00    -0.000 C 
BRANCH  29  30
ATOM     30  C   UNL     1      -9.242  14.204  -5.295  1.00  0.00    -0.000 C 
BRANCH  30  31
ATOM     31  C   UNL     1      -9.240  14.899  -6.668  1.00  0.00    -0.003 C 
ATOM     32  C   UNL     1      -8.329  14.216  -7.683  1.00  0.00     0.004 C 
ENDBRANCH  30  31
ENDBRANCH  29  30
ENDBRANCH  28  29
ENDBRANCH  27  28
ENDBRANCH  26  27
ENDBRANCH  25  26
ENDBRANCH  24  25
ENDBRANCH  23  24
ENDBRANCH  22  23
ENDBRANCH  21  22
ENDBRANCH  20  21
ENDBRANCH  19  20
ENDBRANCH  18  19
ENDBRANCH   1  18
TORSDOF 28
ENDMDL
