MODEL 1
REMARK VINA RESULT:    -4.422      0.000      0.000
REMARK INTER + INTRA:          -5.636
REMARK INTER:                  -5.327
REMARK INTRA:                  -0.309
REMARK UNBOUND:                -0.309
REMARK SMILES [NH3+][C@H](Cc1cnc[nH]1)C(=O)[O-]
REMARK SMILES IDX 3 1 2 2 1 3 9 7 10 8 11 9 4 10 5 11 8 12 6 13 7 14
REMARK H PARENT 1 4 1 5 1 6 8 15
REMARK Flexibility Score: inf
ROOT
ATOM      1  C   UNL     1     -18.253  -7.456  43.132  1.00  0.00     0.127 C 
ENDROOT
BRANCH   1   2
ATOM      2  C   UNL     1     -19.571  -7.774  43.864  1.00  0.00     0.233 C 
BRANCH   2   3
ATOM      3  N   UNL     1     -20.342  -6.546  44.093  1.00  0.00    -0.350 N 
ATOM      4  H   UNL     1     -20.501  -6.395  45.116  1.00  0.00     0.345 HD
ATOM      5  H   UNL     1     -21.266  -6.614  43.609  1.00  0.00     0.345 HD
ATOM      6  H   UNL     1     -19.826  -5.725  43.699  1.00  0.00     0.345 HD
ENDBRANCH   2   3
BRANCH   2   7
ATOM      7  C   UNL     1     -20.394  -8.772  43.090  1.00  0.00     0.099 C 
ATOM      8  O   UNL     1     -20.116 -10.000  43.132  1.00  0.00    -0.544 OA
ATOM      9  O   UNL     1     -21.481  -8.341  42.339  1.00  0.00    -0.544 OA
ENDBRANCH   2   7
ENDBRANCH   1   2
BRANCH   1  10
ATOM     10  C   UNL     1     -17.085  -8.152  43.768  1.00  0.00     0.041 A 
ATOM     11  C   UNL     1     -15.925  -7.562  44.214  1.00  0.00     0.134 A 
ATOM     12  N   UNL     1     -17.047  -9.458  44.074  1.00  0.00    -0.348 N 
ATOM     13  N   UNL     1     -15.145  -8.500  44.789  1.00  0.00    -0.245 NA
ATOM     14  C   UNL     1     -15.861  -9.640  44.683  1.00  0.00     0.196 A 
ATOM     15  H   UNL     1     -17.781 -10.177  43.890  1.00  0.00     0.167 HD
ENDBRANCH   1  10
TORSDOF 4
ENDMDL
MODEL 2
REMARK VINA RESULT:    -4.396      3.073      4.626
REMARK INTER + INTRA:          -5.605
REMARK INTER:                  -5.422
REMARK INTRA:                  -0.183
REMARK UNBOUND:                -0.309
REMARK SMILES [NH3+][C@H](Cc1cnc[nH]1)C(=O)[O-]
REMARK SMILES IDX 3 1 2 2 1 3 9 7 10 8 11 9 4 10 5 11 8 12 6 13 7 14
REMARK H PARENT 1 4 1 5 1 6 8 15
REMARK Flexibility Score: inf
ROOT
ATOM      1  C   UNL     1     -17.082  -7.825  42.765  1.00  0.00     0.127 C 
ENDROOT
BRANCH   1   2
ATOM      2  C   UNL     1     -16.580  -8.748  41.637  1.00  0.00     0.233 C 
BRANCH   2   3
ATOM      3  N   UNL     1     -16.134  -7.956  40.484  1.00  0.00    -0.350 N 
ATOM      4  H   UNL     1     -15.905  -8.579  39.675  1.00  0.00     0.345 HD
ATOM      5  H   UNL     1     -15.286  -7.403  40.742  1.00  0.00     0.345 HD
ATOM      6  H   UNL     1     -16.888  -7.287  40.202  1.00  0.00     0.345 HD
ENDBRANCH   2   3
BRANCH   2   7
ATOM      7  C   UNL     1     -15.464  -9.639  42.122  1.00  0.00     0.099 C 
ATOM      8  O   UNL     1     -14.290  -9.485  41.690  1.00  0.00    -0.544 OA
ATOM      9  O   UNL     1     -15.723 -10.623  43.067  1.00  0.00    -0.544 OA
ENDBRANCH   2   7
ENDBRANCH   1   2
BRANCH   1  10
ATOM     10  C   UNL     1     -18.530  -8.070  43.076  1.00  0.00     0.041 A 
ATOM     11  C   UNL     1     -19.268  -9.175  42.717  1.00  0.00     0.134 A 
ATOM     12  N   UNL     1     -19.294  -7.271  43.836  1.00  0.00    -0.348 N 
ATOM     13  N   UNL     1     -20.507  -9.065  43.238  1.00  0.00    -0.245 NA
ATOM     14  C   UNL     1     -20.485  -7.894  43.910  1.00  0.00     0.196 A 
ATOM     15  H   UNL     1     -19.025  -6.366  44.283  1.00  0.00     0.167 HD
ENDBRANCH   1  10
TORSDOF 4
ENDMDL
MODEL 3
REMARK VINA RESULT:    -4.358      2.412      4.626
REMARK INTER + INTRA:          -5.559
REMARK INTER:                  -5.426
REMARK INTRA:                  -0.133
REMARK UNBOUND:                -0.309
REMARK SMILES [NH3+][C@H](Cc1cnc[nH]1)C(=O)[O-]
REMARK SMILES IDX 3 1 2 2 1 3 9 7 10 8 11 9 4 10 5 11 8 12 6 13 7 14
REMARK H PARENT 1 4 1 5 1 6 8 15
REMARK Flexibility Score: inf
ROOT
ATOM      1  C   UNL     1     -18.507  -8.383  43.756  1.00  0.00     0.127 C 
ENDROOT
BRANCH   1   2
ATOM      2  C   UNL     1     -17.409  -7.634  42.976  1.00  0.00     0.233 C 
BRANCH   2   3
ATOM      3  N   UNL     1     -16.391  -7.111  43.895  1.00  0.00    -0.350 N 
ATOM      4  H   UNL     1     -15.462  -7.557  43.709  1.00  0.00     0.345 HD
ATOM      5  H   UNL     1     -16.672  -7.306  44.882  1.00  0.00     0.345 HD
ATOM      6  H   UNL     1     -16.305  -6.075  43.777  1.00  0.00     0.345 HD
ENDBRANCH   2   3
BRANCH   2   7
ATOM      7  C   UNL     1     -16.772  -8.528  41.943  1.00  0.00     0.099 C 
ATOM      8  O   UNL     1     -16.298  -8.042  40.882  1.00  0.00    -0.544 OA
ATOM      9  O   UNL     1     -16.688  -9.896  42.167  1.00  0.00    -0.544 OA
ENDBRANCH   2   7
ENDBRANCH   1   2
BRANCH   1  10
ATOM     10  C   UNL     1     -19.873  -7.840  43.448  1.00  0.00     0.041 A 
ATOM     11  C   UNL     1     -20.851  -8.461  42.707  1.00  0.00     0.134 A 
ATOM     12  N   UNL     1     -20.366  -6.691  43.934  1.00  0.00    -0.348 N 
ATOM     13  N   UNL     1     -21.961  -7.695  42.712  1.00  0.00    -0.245 NA
ATOM     14  C   UNL     1     -21.626  -6.626  43.468  1.00  0.00     0.196 A 
ATOM     15  H   UNL     1     -19.883  -5.999  44.550  1.00  0.00     0.167 HD
ENDBRANCH   1  10
TORSDOF 4
ENDMDL
MODEL 4
REMARK VINA RESULT:    -4.249      2.910      4.722
REMARK INTER + INTRA:          -5.427
REMARK INTER:                  -5.144
REMARK INTRA:                  -0.283
REMARK UNBOUND:                -0.309
REMARK SMILES [NH3+][C@H](Cc1cnc[nH]1)C(=O)[O-]
REMARK SMILES IDX 3 1 2 2 1 3 9 7 10 8 11 9 4 10 5 11 8 12 6 13 7 14
REMARK H PARENT 1 4 1 5 1 6 8 15
REMARK Flexibility Score: inf
ROOT
ATOM      1  C   UNL     1     -17.070  -9.087  42.561  1.00  0.00     0.127 C 
ENDROOT
BRANCH   1   2
ATOM      2  C   UNL     1     -16.399  -9.909  43.679  1.00  0.00     0.233 C 
BRANCH   2   3
ATOM      3  N   UNL     1     -15.637 -11.027  43.109  1.00  0.00    -0.350 N 
ATOM      4  H   UNL     1     -15.273 -11.650  43.867  1.00  0.00     0.345 HD
ATOM      5  H   UNL     1     -14.833 -10.659  42.552  1.00  0.00     0.345 HD
ATOM      6  H   UNL     1     -16.250 -11.585  42.470  1.00  0.00     0.345 HD
ENDBRANCH   2   3
BRANCH   2   7
ATOM      7  C   UNL     1     -15.501  -9.042  44.525  1.00  0.00     0.099 C 
ATOM      8  O   UNL     1     -14.606  -9.560  45.245  1.00  0.00    -0.544 OA
ATOM      9  O   UNL     1     -15.645  -7.661  44.498  1.00  0.00    -0.544 OA
ENDBRANCH   2   7
ENDBRANCH   1   2
BRANCH   1  10
ATOM     10  C   UNL     1     -18.438  -8.618  42.964  1.00  0.00     0.041 A 
ATOM     11  C   UNL     1     -19.628  -9.263  42.721  1.00  0.00     0.134 A 
ATOM     12  N   UNL     1     -18.684  -7.528  43.707  1.00  0.00    -0.348 N 
ATOM     13  N   UNL     1     -20.631  -8.571  43.298  1.00  0.00    -0.245 NA
ATOM     14  C   UNL     1     -20.017  -7.521  43.887  1.00  0.00     0.196 A 
ATOM     15  H   UNL     1     -17.992  -6.838  44.076  1.00  0.00     0.167 HD
ENDBRANCH   1  10
TORSDOF 4
ENDMDL
MODEL 5
REMARK VINA RESULT:    -4.190      3.530      4.434
REMARK INTER + INTRA:          -5.356
REMARK INTER:                  -5.183
REMARK INTRA:                  -0.173
REMARK UNBOUND:                -0.309
REMARK SMILES [NH3+][C@H](Cc1cnc[nH]1)C(=O)[O-]
REMARK SMILES IDX 3 1 2 2 1 3 9 7 10 8 11 9 4 10 5 11 8 12 6 13 7 14
REMARK H PARENT 1 4 1 5 1 6 8 15
REMARK Flexibility Score: inf
ROOT
ATOM      1  C   UNL     1     -15.458  -9.670  41.902  1.00  0.00     0.127 C 
ENDROOT
BRANCH   1   2
ATOM      2  C   UNL     1     -15.534  -8.150  41.652  1.00  0.00     0.233 C 
BRANCH   2   3
ATOM      3  N   UNL     1     -16.183  -7.873  40.365  1.00  0.00    -0.350 N 
ATOM      4  H   UNL     1     -16.578  -6.903  40.352  1.00  0.00     0.345 HD
ATOM      5  H   UNL     1     -16.955  -8.559  40.203  1.00  0.00     0.345 HD
ATOM      6  H   UNL     1     -15.489  -7.973  39.589  1.00  0.00     0.345 HD
ENDBRANCH   2   3
BRANCH   2   7
ATOM      7  C   UNL     1     -16.269  -7.454  42.769  1.00  0.00     0.099 C 
ATOM      8  O   UNL     1     -17.527  -7.486  42.824  1.00  0.00    -0.544 OA
ATOM      9  O   UNL     1     -15.556  -6.788  43.759  1.00  0.00    -0.544 OA
ENDBRANCH   2   7
ENDBRANCH   1   2
BRANCH   1  10
ATOM     10  C   UNL     1     -14.159 -10.060  42.544  1.00  0.00     0.041 A 
ATOM     11  C   UNL     1     -13.928 -10.221  43.891  1.00  0.00     0.134 A 
ATOM     12  N   UNL     1     -13.046 -10.395  41.874  1.00  0.00    -0.348 N 
ATOM     13  N   UNL     1     -12.661 -10.645  44.073  1.00  0.00    -0.245 NA
ATOM     14  C   UNL     1     -12.156 -10.737  42.824  1.00  0.00     0.196 A 
ATOM     15  H   UNL     1     -12.901 -10.401  40.840  1.00  0.00     0.167 HD
ENDBRANCH   1  10
TORSDOF 4
ENDMDL
MODEL 6
REMARK VINA RESULT:    -4.189      3.909      5.258
REMARK INTER + INTRA:          -5.355
REMARK INTER:                  -5.230
REMARK INTRA:                  -0.125
REMARK UNBOUND:                -0.309
REMARK SMILES [NH3+][C@H](Cc1cnc[nH]1)C(=O)[O-]
REMARK SMILES IDX 3 1 2 2 1 3 9 7 10 8 11 9 4 10 5 11 8 12 6 13 7 14
REMARK H PARENT 1 4 1 5 1 6 8 15
REMARK Flexibility Score: inf
ROOT
ATOM      1  C   UNL     1     -17.411 -10.941  42.883  1.00  0.00     0.127 C 
ENDROOT
BRANCH   1   2
ATOM      2  C   UNL     1     -15.985 -10.586  43.350  1.00  0.00     0.233 C 
BRANCH   2   3
ATOM      3  N   UNL     1     -15.116 -10.327  42.196  1.00  0.00    -0.350 N 
ATOM      4  H   UNL     1     -14.995 -11.195  41.623  1.00  0.00     0.345 HD
ATOM      5  H   UNL     1     -14.179 -10.001  42.525  1.00  0.00     0.345 HD
ATOM      6  H   UNL     1     -15.533  -9.575  41.599  1.00  0.00     0.345 HD
ENDBRANCH   2   3
BRANCH   2   7
ATOM      7  C   UNL     1     -15.998  -9.394  44.273  1.00  0.00     0.099 C 
ATOM      8  O   UNL     1     -15.229  -9.350  45.270  1.00  0.00    -0.544 OA
ATOM      9  O   UNL     1     -16.847  -8.326  44.015  1.00  0.00    -0.544 OA
ENDBRANCH   2   7
ENDBRANCH   1   2
BRANCH   1  10
ATOM     10  C   UNL     1     -17.727 -12.389  43.123  1.00  0.00     0.041 A 
ATOM     11  C   UNL     1     -18.846 -12.888  43.748  1.00  0.00     0.134 A 
ATOM     12  N   UNL     1     -16.988 -13.416  42.677  1.00  0.00    -0.348 N 
ATOM     13  N   UNL     1     -18.807 -14.236  43.710  1.00  0.00    -0.245 NA
ATOM     14  C   UNL     1     -17.662 -14.519  43.052  1.00  0.00     0.196 A 
ATOM     15  H   UNL     1     -16.091 -13.373  42.145  1.00  0.00     0.167 HD
ENDBRANCH   1  10
TORSDOF 4
ENDMDL
MODEL 7
REMARK VINA RESULT:    -4.178      2.169      2.585
REMARK INTER + INTRA:          -5.342
REMARK INTER:                  -5.014
REMARK INTRA:                  -0.328
REMARK UNBOUND:                -0.309
REMARK SMILES [NH3+][C@H](Cc1cnc[nH]1)C(=O)[O-]
REMARK SMILES IDX 3 1 2 2 1 3 9 7 10 8 11 9 4 10 5 11 8 12 6 13 7 14
REMARK H PARENT 1 4 1 5 1 6 8 15
REMARK Flexibility Score: inf
ROOT
ATOM      1  C   UNL     1     -19.527  -8.475  42.656  1.00  0.00     0.127 C 
ENDROOT
BRANCH   1   2
ATOM      2  C   UNL     1     -20.444  -8.175  43.858  1.00  0.00     0.233 C 
BRANCH   2   3
ATOM      3  N   UNL     1     -20.331  -6.765  44.252  1.00  0.00    -0.350 N 
ATOM      4  H   UNL     1     -20.737  -6.142  43.514  1.00  0.00     0.345 HD
ATOM      5  H   UNL     1     -19.326  -6.517  44.394  1.00  0.00     0.345 HD
ATOM      6  H   UNL     1     -20.838  -6.606  45.153  1.00  0.00     0.345 HD
ENDBRANCH   2   3
BRANCH   2   7
ATOM      7  C   UNL     1     -21.878  -8.517  43.545  1.00  0.00     0.099 C 
ATOM      8  O   UNL     1     -22.740  -7.606  43.421  1.00  0.00    -0.544 OA
ATOM      9  O   UNL     1     -22.253  -9.843  43.369  1.00  0.00    -0.544 OA
ENDBRANCH   2   7
ENDBRANCH   1   2
BRANCH   1  10
ATOM     10  C   UNL     1     -18.769  -9.757  42.846  1.00  0.00     0.041 A 
ATOM     11  C   UNL     1     -17.409  -9.928  42.726  1.00  0.00     0.134 A 
ATOM     12  N   UNL     1     -19.314 -10.914  43.250  1.00  0.00    -0.348 N 
ATOM     13  N   UNL     1     -17.096 -11.202  43.040  1.00  0.00    -0.245 NA
ATOM     14  C   UNL     1     -18.281 -11.770  43.352  1.00  0.00     0.196 A 
ATOM     15  H   UNL     1     -20.320 -11.109  43.452  1.00  0.00     0.167 HD
ENDBRANCH   1  10
TORSDOF 4
ENDMDL
MODEL 8
REMARK VINA RESULT:    -4.167      5.673      7.105
REMARK INTER + INTRA:          -5.329
REMARK INTER:                  -5.155
REMARK INTRA:                  -0.175
REMARK UNBOUND:                -0.309
REMARK SMILES [NH3+][C@H](Cc1cnc[nH]1)C(=O)[O-]
REMARK SMILES IDX 3 1 2 2 1 3 9 7 10 8 11 9 4 10 5 11 8 12 6 13 7 14
REMARK H PARENT 1 4 1 5 1 6 8 15
REMARK Flexibility Score: inf
ROOT
ATOM      1  C   UNL     1     -19.490 -13.895  42.500  1.00  0.00     0.127 C 
ENDROOT
BRANCH   1   2
ATOM      2  C   UNL     1     -18.105 -13.470  43.028  1.00  0.00     0.233 C 
BRANCH   2   3
ATOM      3  N   UNL     1     -17.042 -13.989  42.159  1.00  0.00    -0.350 N 
ATOM      4  H   UNL     1     -17.042 -15.036  42.159  1.00  0.00     0.345 HD
ATOM      5  H   UNL     1     -16.113 -13.646  42.494  1.00  0.00     0.345 HD
ATOM      6  H   UNL     1     -17.185 -13.645  41.181  1.00  0.00     0.345 HD
ENDBRANCH   2   3
BRANCH   2   7
ATOM      7  C   UNL     1     -18.005 -11.970  43.140  1.00  0.00     0.099 C 
ATOM      8  O   UNL     1     -19.010 -11.285  43.469  1.00  0.00    -0.544 OA
ATOM      9  O   UNL     1     -16.793 -11.336  42.898  1.00  0.00    -0.544 OA
ENDBRANCH   2   7
ENDBRANCH   1   2
BRANCH   1  10
ATOM     10  C   UNL     1     -20.168 -14.853  43.436  1.00  0.00     0.041 A 
ATOM     11  C   UNL     1     -20.833 -16.006  43.086  1.00  0.00     0.134 A 
ATOM     12  N   UNL     1     -20.145 -14.760  44.774  1.00  0.00    -0.348 N 
ATOM     13  N   UNL     1     -21.244 -16.635  44.205  1.00  0.00    -0.245 NA
ATOM     14  C   UNL     1     -20.808 -15.846  45.212  1.00  0.00     0.196 A 
ATOM     15  H   UNL     1     -19.701 -14.014  45.354  1.00  0.00     0.167 HD
ENDBRANCH   1  10
TORSDOF 4
ENDMDL
MODEL 9
REMARK VINA RESULT:    -4.112      3.793      4.828
REMARK INTER + INTRA:          -5.263
REMARK INTER:                  -5.204
REMARK INTRA:                  -0.059
REMARK UNBOUND:                -0.309
REMARK SMILES [NH3+][C@H](Cc1cnc[nH]1)C(=O)[O-]
REMARK SMILES IDX 3 1 2 2 1 3 9 7 10 8 11 9 4 10 5 11 8 12 6 13 7 14
REMARK H PARENT 1 4 1 5 1 6 8 15
REMARK Flexibility Score: inf
ROOT
ATOM      1  C   UNL     1     -17.948 -12.095  43.559  1.00  0.00     0.127 C 
ENDROOT
BRANCH   1   2
ATOM      2  C   UNL     1     -18.252 -13.220  42.549  1.00  0.00     0.233 C 
BRANCH   2   3
ATOM      3  N   UNL     1     -17.051 -14.026  42.301  1.00  0.00    -0.350 N 
ATOM      4  H   UNL     1     -16.221 -13.411  42.133  1.00  0.00     0.345 HD
ATOM      5  H   UNL     1     -17.200 -14.635  41.465  1.00  0.00     0.345 HD
ATOM      6  H   UNL     1     -16.861 -14.643  43.125  1.00  0.00     0.345 HD
ENDBRANCH   2   3
BRANCH   2   7
ATOM      7  C   UNL     1     -19.379 -14.095  43.035  1.00  0.00     0.099 C 
ATOM      8  O   UNL     1     -19.387 -14.528  44.218  1.00  0.00    -0.544 OA
ATOM      9  O   UNL     1     -20.428 -14.413  42.182  1.00  0.00    -0.544 OA
ENDBRANCH   2   7
ENDBRANCH   1   2
BRANCH   1  10
ATOM     10  C   UNL     1     -17.237 -10.944  42.908  1.00  0.00     0.041 A 
ATOM     11  C   UNL     1     -17.795  -9.742  42.540  1.00  0.00     0.134 A 
ATOM     12  N   UNL     1     -15.918 -10.898  42.669  1.00  0.00    -0.348 N 
ATOM     13  N   UNL     1     -16.828  -8.938  42.053  1.00  0.00    -0.245 NA
ATOM     14  C   UNL     1     -15.700  -9.677  42.147  1.00  0.00     0.196 A 
ATOM     15  H   UNL     1     -15.209 -11.641  42.857  1.00  0.00     0.167 HD
ENDBRANCH   1  10
TORSDOF 4
ENDMDL
