MODEL 1
REMARK VINA RESULT:    -5.729      0.000      0.000
REMARK INTER + INTRA:          -9.465
REMARK INTER:                  -8.073
REMARK INTRA:                  -1.391
REMARK UNBOUND:                -1.391
REMARK SMILES OCC1=C[C@H](O)[C@@H]2C=CO[C@H](O[C@H]3O[C@@H](CO)[C@H](O)[C@@H](O)[C@@H]3O)[C@@H]12
REMARK SMILES IDX 12 1 11 2 8 3 9 4 7 5 10 6 24 7 5 8 3 9 4 10 6 11 2 13 1 14
REMARK SMILES IDX 13 16 22 17 14 18 20 19 15 20 18 21 23 22 21 24 16 26 17 27
REMARK SMILES IDX 19 29
REMARK H PARENT 6 12 1 15 23 23 21 25 17 28 19 30
REMARK Flexibility Score: inf
ROOT
ATOM      1  O   UNL     1     261.820 -26.273  58.077  1.00  0.00    -0.310 OA
ENDROOT
BRANCH   1   2
ATOM      2  C   UNL     1     261.895 -26.564  59.470  1.00  0.00     0.316 C 
ATOM      3  C   UNL     1     260.723 -25.980  62.111  1.00  0.00     0.018 C 
ATOM      4  C   UNL     1     261.552 -25.046  61.609  1.00  0.00     0.186 C 
ATOM      5  C   UNL     1     260.601 -27.309  61.421  1.00  0.00     0.061 C 
ATOM      6  O   UNL     1     262.183 -25.353  60.335  1.00  0.00    -0.472 OA
ATOM      7  C   UNL     1     260.539 -27.098  59.925  1.00  0.00     0.096 C 
ATOM      8  C   UNL     1     259.393 -28.203  61.700  1.00  0.00     0.145 C 
ATOM      9  C   UNL     1     260.025 -28.419  59.441  1.00  0.00    -0.036 C 
ATOM     10  C   UNL     1     259.311 -28.987  60.418  1.00  0.00     0.007 C 
BRANCH   8  11
ATOM     11  O   UNL     1     258.221 -27.447  61.863  1.00  0.00    -0.388 OA
ATOM     12  H   UNL     1     258.022 -27.445  62.836  1.00  0.00     0.211 HD
ENDBRANCH   8  11
BRANCH   9  13
ATOM     13  C   UNL     1     259.879 -28.811  57.998  1.00  0.00     0.187 C 
BRANCH  13  14
ATOM     14  O   UNL     1     261.042 -29.428  57.545  1.00  0.00    -0.392 OA
ATOM     15  H   UNL     1     261.059 -29.328  56.560  1.00  0.00     0.211 HD
ENDBRANCH  13  14
ENDBRANCH   9  13
ENDBRANCH   1   2
BRANCH   1  16
ATOM     16  C   UNL     1     262.987 -26.570  57.331  1.00  0.00     0.286 C 
ATOM     17  C   UNL     1     262.585 -26.704  55.846  1.00  0.00     0.202 C 
ATOM     18  O   UNL     1     263.485 -27.808  57.803  1.00  0.00    -0.341 OA
ATOM     19  C   UNL     1     263.787 -27.159  54.995  1.00  0.00     0.179 C 
ATOM     20  C   UNL     1     264.680 -28.169  57.123  1.00  0.00     0.178 C 
ATOM     21  C   UNL     1     264.408 -28.407  55.625  1.00  0.00     0.177 C 
BRANCH  17  22
ATOM     22  O   UNL     1     262.033 -25.513  55.362  1.00  0.00    -0.385 OA
ATOM     23  H   UNL     1     262.301 -24.780  55.972  1.00  0.00     0.211 HD
ENDBRANCH  17  22
BRANCH  19  24
ATOM     24  O   UNL     1     263.359 -27.462  53.692  1.00  0.00    -0.387 OA
ATOM     25  H   UNL     1     262.565 -28.052  53.769  1.00  0.00     0.211 HD
ENDBRANCH  19  24
BRANCH  20  26
ATOM     26  C   UNL     1     265.261 -29.428  57.794  1.00  0.00     0.191 C 
BRANCH  26  27
ATOM     27  O   UNL     1     264.767 -30.593  57.198  1.00  0.00    -0.394 OA
ATOM     28  H   UNL     1     263.928 -30.349  56.747  1.00  0.00     0.210 HD
ENDBRANCH  26  27
ENDBRANCH  20  26
BRANCH  21  29
ATOM     29  O   UNL     1     265.605 -28.719  54.967  1.00  0.00    -0.387 OA
ATOM     30  H   UNL     1     265.620 -28.193  54.125  1.00  0.00     0.211 HD
ENDBRANCH  21  29
ENDBRANCH   1  16
TORSDOF 10
ENDMDL
MODEL 2
REMARK VINA RESULT:    -5.486      2.074      2.807
REMARK INTER + INTRA:          -9.122
REMARK INTER:                  -7.791
REMARK INTRA:                  -1.331
REMARK UNBOUND:                -1.391
REMARK SMILES OCC1=C[C@H](O)[C@@H]2C=CO[C@H](O[C@H]3O[C@@H](CO)[C@H](O)[C@@H](O)[C@@H]3O)[C@@H]12
REMARK SMILES IDX 12 1 11 2 8 3 9 4 7 5 10 6 24 7 5 8 3 9 4 10 6 11 2 13 1 14
REMARK SMILES IDX 13 16 22 17 14 18 20 19 15 20 18 21 23 22 21 24 16 26 17 27
REMARK SMILES IDX 19 29
REMARK H PARENT 6 12 1 15 23 23 21 25 17 28 19 30
REMARK Flexibility Score: inf
ROOT
ATOM      1  O   UNL     1     261.488 -26.357  57.487  1.00  0.00    -0.310 OA
ENDROOT
BRANCH   1   2
ATOM      2  C   UNL     1     261.731 -27.059  58.704  1.00  0.00     0.316 C 
ATOM      3  C   UNL     1     261.305 -27.024  61.621  1.00  0.00     0.018 C 
ATOM      4  C   UNL     1     262.268 -26.209  61.151  1.00  0.00     0.186 C 
ATOM      5  C   UNL     1     260.661 -28.018  60.697  1.00  0.00     0.061 C 
ATOM      6  O   UNL     1     262.527 -26.264  59.721  1.00  0.00    -0.472 OA
ATOM      7  C   UNL     1     260.388 -27.364  59.362  1.00  0.00     0.096 C 
ATOM      8  C   UNL     1     259.314 -28.640  61.067  1.00  0.00     0.145 C 
ATOM      9  C   UNL     1     259.418 -28.319  58.735  1.00  0.00    -0.036 C 
ATOM     10  C   UNL     1     258.763 -28.964  59.705  1.00  0.00     0.007 C 
BRANCH   8  11
ATOM     11  O   UNL     1     258.477 -27.710  61.702  1.00  0.00    -0.388 OA
ATOM     12  H   UNL     1     258.665 -27.783  62.675  1.00  0.00     0.211 HD
ENDBRANCH   8  11
BRANCH   9  13
ATOM     13  C   UNL     1     258.894 -28.217  57.331  1.00  0.00     0.187 C 
BRANCH  13  14
ATOM     14  O   UNL     1     259.773 -28.832  56.442  1.00  0.00    -0.392 OA
ATOM     15  H   UNL     1     259.678 -29.810  56.571  1.00  0.00     0.211 HD
ENDBRANCH  13  14
ENDBRANCH   9  13
ENDBRANCH   1   2
BRANCH   1  16
ATOM     16  C   UNL     1     262.378 -26.656  56.427  1.00  0.00     0.286 C 
ATOM     17  C   UNL     1     263.363 -25.476  56.282  1.00  0.00     0.202 C 
ATOM     18  O   UNL     1     261.604 -26.777  55.248  1.00  0.00    -0.341 OA
ATOM     19  C   UNL     1     264.278 -25.677  55.056  1.00  0.00     0.179 C 
ATOM     20  C   UNL     1     262.421 -27.107  54.133  1.00  0.00     0.178 C 
ATOM     21  C   UNL     1     263.416 -25.971  53.827  1.00  0.00     0.177 C 
BRANCH  17  22
ATOM     22  O   UNL     1     264.106 -25.291  57.453  1.00  0.00    -0.385 OA
ATOM     23  H   UNL     1     263.737 -25.891  58.149  1.00  0.00     0.211 HD
ENDBRANCH  17  22
BRANCH  19  24
ATOM     24  O   UNL     1     265.028 -24.511  54.828  1.00  0.00    -0.387 OA
ATOM     25  H   UNL     1     265.014 -24.335  53.851  1.00  0.00     0.211 HD
ENDBRANCH  19  24
BRANCH  20  26
ATOM     26  C   UNL     1     261.507 -27.391  52.926  1.00  0.00     0.191 C 
BRANCH  26  27
ATOM     27  O   UNL     1     261.522 -26.327  52.018  1.00  0.00    -0.394 OA
ATOM     28  H   UNL     1     262.256 -26.500  51.387  1.00  0.00     0.210 HD
ENDBRANCH  26  27
ENDBRANCH  20  26
BRANCH  21  29
ATOM     29  O   UNL     1     264.240 -26.334  52.753  1.00  0.00    -0.387 OA
ATOM     30  H   UNL     1     263.726 -26.162  51.920  1.00  0.00     0.211 HD
ENDBRANCH  21  29
ENDBRANCH   1  16
TORSDOF 10
ENDMDL
MODEL 3
REMARK VINA RESULT:    -5.319      2.528      6.652
REMARK INTER + INTRA:          -8.887
REMARK INTER:                  -7.965
REMARK INTRA:                  -0.921
REMARK UNBOUND:                -1.391
REMARK SMILES OCC1=C[C@H](O)[C@@H]2C=CO[C@H](O[C@H]3O[C@@H](CO)[C@H](O)[C@@H](O)[C@@H]3O)[C@@H]12
REMARK SMILES IDX 12 1 11 2 8 3 9 4 7 5 10 6 24 7 5 8 3 9 4 10 6 11 2 13 1 14
REMARK SMILES IDX 13 16 22 17 14 18 20 19 15 20 18 21 23 22 21 24 16 26 17 27
REMARK SMILES IDX 19 29
REMARK H PARENT 6 12 1 15 23 23 21 25 17 28 19 30
REMARK Flexibility Score: inf
ROOT
ATOM      1  O   UNL     1     261.411 -27.894  56.484  1.00  0.00    -0.310 OA
ENDROOT
BRANCH   1   2
ATOM      2  C   UNL     1     261.578 -27.013  55.376  1.00  0.00     0.316 C 
ATOM      3  C   UNL     1     263.049 -26.576  52.858  1.00  0.00     0.018 C 
ATOM      4  C   UNL     1     263.721 -26.306  53.994  1.00  0.00     0.186 C 
ATOM      5  C   UNL     1     261.579 -26.879  52.922  1.00  0.00     0.061 C 
ATOM      6  O   UNL     1     262.983 -26.460  55.238  1.00  0.00    -0.472 OA
ATOM      7  C   UNL     1     261.303 -27.795  54.093  1.00  0.00     0.096 C 
ATOM      8  C   UNL     1     260.898 -27.589  51.752  1.00  0.00     0.145 C 
ATOM      9  C   UNL     1     259.930 -28.305  53.777  1.00  0.00    -0.036 C 
ATOM     10  C   UNL     1     259.751 -28.265  52.454  1.00  0.00     0.007 C 
BRANCH   8  11
ATOM     11  O   UNL     1     261.735 -28.560  51.182  1.00  0.00    -0.388 OA
ATOM     12  H   UNL     1     262.458 -28.729  51.843  1.00  0.00     0.211 HD
ENDBRANCH   8  11
BRANCH   9  13
ATOM     13  C   UNL     1     259.106 -29.177  54.681  1.00  0.00     0.187 C 
BRANCH  13  14
ATOM     14  O   UNL     1     258.137 -29.855  53.946  1.00  0.00    -0.392 OA
ATOM     15  H   UNL     1     258.065 -29.398  53.070  1.00  0.00     0.211 HD
ENDBRANCH  13  14
ENDBRANCH   9  13
ENDBRANCH   1   2
BRANCH   1  16
ATOM     16  C   UNL     1     261.151 -27.263  57.725  1.00  0.00     0.286 C 
ATOM     17  C   UNL     1     262.408 -27.410  58.610  1.00  0.00     0.202 C 
ATOM     18  O   UNL     1     260.065 -27.945  58.326  1.00  0.00    -0.341 OA
ATOM     19  C   UNL     1     262.146 -26.861  60.026  1.00  0.00     0.179 C 
ATOM     20  C   UNL     1     259.718 -27.353  59.571  1.00  0.00     0.178 C 
ATOM     21  C   UNL     1     260.870 -27.494  60.585  1.00  0.00     0.177 C 
BRANCH  17  22
ATOM     22  O   UNL     1     263.518 -26.797  58.018  1.00  0.00    -0.385 OA
ATOM     23  H   UNL     1     263.951 -26.223  58.698  1.00  0.00     0.211 HD
ENDBRANCH  17  22
BRANCH  19  24
ATOM     24  O   UNL     1     263.227 -27.179  60.867  1.00  0.00    -0.387 OA
ATOM     25  H   UNL     1     263.490 -26.347  61.340  1.00  0.00     0.211 HD
ENDBRANCH  19  24
BRANCH  20  26
ATOM     26  C   UNL     1     258.432 -28.025  60.088  1.00  0.00     0.191 C 
BRANCH  26  27
ATOM     27  O   UNL     1     257.735 -27.182  60.959  1.00  0.00    -0.394 OA
ATOM     28  H   UNL     1     257.002 -26.780  60.442  1.00  0.00     0.210 HD
ENDBRANCH  26  27
ENDBRANCH  20  26
BRANCH  21  29
ATOM     29  O   UNL     1     260.525 -26.868  61.789  1.00  0.00    -0.387 OA
ATOM     30  H   UNL     1     259.794 -27.404  62.198  1.00  0.00     0.211 HD
ENDBRANCH  21  29
ENDBRANCH   1  16
TORSDOF 10
ENDMDL
MODEL 4
REMARK VINA RESULT:    -5.311      1.440      2.366
REMARK INTER + INTRA:          -8.875
REMARK INTER:                  -8.256
REMARK INTRA:                  -0.618
REMARK UNBOUND:                -1.391
REMARK SMILES OCC1=C[C@H](O)[C@@H]2C=CO[C@H](O[C@H]3O[C@@H](CO)[C@H](O)[C@@H](O)[C@@H]3O)[C@@H]12
REMARK SMILES IDX 12 1 11 2 8 3 9 4 7 5 10 6 24 7 5 8 3 9 4 10 6 11 2 13 1 14
REMARK SMILES IDX 13 16 22 17 14 18 20 19 15 20 18 21 23 22 21 24 16 26 17 27
REMARK SMILES IDX 19 29
REMARK H PARENT 6 12 1 15 23 23 21 25 17 28 19 30
REMARK Flexibility Score: inf
ROOT
ATOM      1  O   UNL     1     261.916 -26.692  57.991  1.00  0.00    -0.310 OA
ENDROOT
BRANCH   1   2
ATOM      2  C   UNL     1     261.901 -27.459  59.192  1.00  0.00     0.316 C 
ATOM      3  C   UNL     1     261.314 -27.385  62.080  1.00  0.00     0.018 C 
ATOM      4  C   UNL     1     262.477 -26.825  61.695  1.00  0.00     0.186 C 
ATOM      5  C   UNL     1     260.503 -28.166  61.085  1.00  0.00     0.061 C 
ATOM      6  O   UNL     1     262.803 -26.912  60.280  1.00  0.00    -0.472 OA
ATOM      7  C   UNL     1     260.485 -27.434  59.762  1.00  0.00     0.096 C 
ATOM      8  C   UNL     1     259.024 -28.439  61.357  1.00  0.00     0.145 C 
ATOM      9  C   UNL     1     259.351 -28.102  59.048  1.00  0.00    -0.036 C 
ATOM     10  C   UNL     1     258.496 -28.585  59.955  1.00  0.00     0.007 C 
BRANCH   8  11
ATOM     11  O   UNL     1     258.405 -27.344  61.979  1.00  0.00    -0.388 OA
ATOM     12  H   UNL     1     258.377 -26.617  61.303  1.00  0.00     0.211 HD
ENDBRANCH   8  11
BRANCH   9  13
ATOM     13  C   UNL     1     258.957 -27.841  57.622  1.00  0.00     0.187 C 
BRANCH  13  14
ATOM     14  O   UNL     1     259.635 -28.708  56.768  1.00  0.00    -0.392 OA
ATOM     15  H   UNL     1     258.979 -29.027  56.097  1.00  0.00     0.211 HD
ENDBRANCH  13  14
ENDBRANCH   9  13
ENDBRANCH   1   2
BRANCH   1  16
ATOM     16  C   UNL     1     262.813 -27.146  56.993  1.00  0.00     0.286 C 
ATOM     17  C   UNL     1     263.249 -28.581  57.360  1.00  0.00     0.202 C 
ATOM     18  O   UNL     1     263.938 -26.287  57.014  1.00  0.00    -0.341 OA
ATOM     19  C   UNL     1     264.331 -29.088  56.384  1.00  0.00     0.179 C 
ATOM     20  C   UNL     1     264.880 -26.657  56.016  1.00  0.00     0.178 C 
ATOM     21  C   UNL     1     265.458 -28.057  56.301  1.00  0.00     0.177 C 
BRANCH  17  22
ATOM     22  O   UNL     1     262.152 -29.447  57.406  1.00  0.00    -0.385 OA
ATOM     23  H   UNL     1     262.202 -30.049  56.621  1.00  0.00     0.211 HD
ENDBRANCH  17  22
BRANCH  19  24
ATOM     24  O   UNL     1     264.853 -30.309  56.846  1.00  0.00    -0.387 OA
ATOM     25  H   UNL     1     264.971 -30.229  57.828  1.00  0.00     0.211 HD
ENDBRANCH  19  24
BRANCH  20  26
ATOM     26  C   UNL     1     265.991 -25.591  55.976  1.00  0.00     0.191 C 
BRANCH  26  27
ATOM     27  O   UNL     1     266.533 -25.473  54.692  1.00  0.00    -0.394 OA
ATOM     28  H   UNL     1     266.747 -26.384  54.388  1.00  0.00     0.210 HD
ENDBRANCH  26  27
ENDBRANCH  20  26
BRANCH  21  29
ATOM     29  O   UNL     1     266.352 -28.420  55.285  1.00  0.00    -0.387 OA
ATOM     30  H   UNL     1     267.173 -27.875  55.410  1.00  0.00     0.211 HD
ENDBRANCH  21  29
ENDBRANCH   1  16
TORSDOF 10
ENDMDL
MODEL 5
REMARK VINA RESULT:    -5.251     13.285     15.786
REMARK INTER + INTRA:          -8.792
REMARK INTER:                  -7.538
REMARK INTRA:                  -1.253
REMARK UNBOUND:                -1.391
REMARK SMILES OCC1=C[C@H](O)[C@@H]2C=CO[C@H](O[C@H]3O[C@@H](CO)[C@H](O)[C@@H](O)[C@@H]3O)[C@@H]12
REMARK SMILES IDX 12 1 11 2 8 3 9 4 7 5 10 6 24 7 5 8 3 9 4 10 6 11 2 13 1 14
REMARK SMILES IDX 13 16 22 17 14 18 20 19 15 20 18 21 23 22 21 24 16 26 17 27
REMARK SMILES IDX 19 29
REMARK H PARENT 6 12 1 15 23 23 21 25 17 28 19 30
REMARK Flexibility Score: inf
ROOT
ATOM      1  O   UNL     1     252.991 -25.218  47.213  1.00  0.00    -0.310 OA
ENDROOT
BRANCH   1   2
ATOM      2  C   UNL     1     251.877 -25.175  46.324  1.00  0.00     0.316 C 
ATOM      3  C   UNL     1     250.120 -23.394  44.763  1.00  0.00     0.018 C 
ATOM      4  C   UNL     1     249.878 -23.458  46.086  1.00  0.00     0.186 C 
ATOM      5  C   UNL     1     251.101 -24.349  44.144  1.00  0.00     0.061 C 
ATOM      6  O   UNL     1     250.700 -24.380  46.854  1.00  0.00    -0.472 OA
ATOM      7  C   UNL     1     252.313 -24.478  45.037  1.00  0.00     0.096 C 
ATOM      8  C   UNL     1     251.704 -24.037  42.774  1.00  0.00     0.145 C 
ATOM      9  C   UNL     1     253.316 -25.105  44.119  1.00  0.00    -0.036 C 
ATOM     10  C   UNL     1     253.012 -24.777  42.860  1.00  0.00     0.007 C 
BRANCH   8  11
ATOM     11  O   UNL     1     251.953 -22.663  42.624  1.00  0.00    -0.388 OA
ATOM     12  H   UNL     1     251.203 -22.302  42.081  1.00  0.00     0.211 HD
ENDBRANCH   8  11
BRANCH   9  13
ATOM     13  C   UNL     1     254.686 -25.570  44.526  1.00  0.00     0.187 C 
BRANCH  13  14
ATOM     14  O   UNL     1     255.220 -24.714  45.487  1.00  0.00    -0.392 OA
ATOM     15  H   UNL     1     255.918 -24.173  45.036  1.00  0.00     0.211 HD
ENDBRANCH  13  14
ENDBRANCH   9  13
ENDBRANCH   1   2
BRANCH   1  16
ATOM     16  C   UNL     1     252.691 -24.958  48.572  1.00  0.00     0.286 C 
ATOM     17  C   UNL     1     253.362 -23.622  48.961  1.00  0.00     0.202 C 
ATOM     18  O   UNL     1     253.250 -26.010  49.336  1.00  0.00    -0.341 OA
ATOM     19  C   UNL     1     253.187 -23.343  50.468  1.00  0.00     0.179 C 
ATOM     20  C   UNL     1     252.970 -25.841  50.719  1.00  0.00     0.178 C 
ATOM     21  C   UNL     1     253.646 -24.567  51.264  1.00  0.00     0.177 C 
BRANCH  17  22
ATOM     22  O   UNL     1     252.874 -22.566  48.184  1.00  0.00    -0.385 OA
ATOM     23  H   UNL     1     252.299 -22.947  47.474  1.00  0.00     0.211 HD
ENDBRANCH  17  22
BRANCH  19  24
ATOM     24  O   UNL     1     253.964 -22.233  50.839  1.00  0.00    -0.387 OA
ATOM     25  H   UNL     1     254.051 -21.650  50.040  1.00  0.00     0.211 HD
ENDBRANCH  19  24
BRANCH  20  26
ATOM     26  C   UNL     1     253.451 -27.095  51.472  1.00  0.00     0.191 C 
BRANCH  26  27
ATOM     27  O   UNL     1     254.723 -26.900  52.020  1.00  0.00    -0.394 OA
ATOM     28  H   UNL     1     254.801 -25.942  52.226  1.00  0.00     0.210 HD
ENDBRANCH  26  27
ENDBRANCH  20  26
BRANCH  21  29
ATOM     29  O   UNL     1     253.322 -24.396  52.616  1.00  0.00    -0.387 OA
ATOM     30  H   UNL     1     252.602 -25.046  52.828  1.00  0.00     0.211 HD
ENDBRANCH  21  29
ENDBRANCH   1  16
TORSDOF 10
ENDMDL
MODEL 6
REMARK VINA RESULT:    -5.197      1.756      3.861
REMARK INTER + INTRA:          -8.715
REMARK INTER:                  -7.321
REMARK INTRA:                  -1.394
REMARK UNBOUND:                -1.391
REMARK SMILES OCC1=C[C@H](O)[C@@H]2C=CO[C@H](O[C@H]3O[C@@H](CO)[C@H](O)[C@@H](O)[C@@H]3O)[C@@H]12
REMARK SMILES IDX 12 1 11 2 8 3 9 4 7 5 10 6 24 7 5 8 3 9 4 10 6 11 2 13 1 14
REMARK SMILES IDX 13 16 22 17 14 18 20 19 15 20 18 21 23 22 21 24 16 26 17 27
REMARK SMILES IDX 19 29
REMARK H PARENT 6 12 1 15 23 23 21 25 17 28 19 30
REMARK Flexibility Score: inf
ROOT
ATOM      1  O   UNL     1     263.088 -26.989  56.900  1.00  0.00    -0.310 OA
ENDROOT
BRANCH   1   2
ATOM      2  C   UNL     1     261.668 -26.871  56.933  1.00  0.00     0.316 C 
ATOM      3  C   UNL     1     259.138 -28.376  57.095  1.00  0.00     0.018 C 
ATOM      4  C   UNL     1     259.751 -28.371  55.896  1.00  0.00     0.186 C 
ATOM      5  C   UNL     1     259.648 -27.484  58.191  1.00  0.00     0.061 C 
ATOM      6  O   UNL     1     260.967 -27.581  55.791  1.00  0.00    -0.472 OA
ATOM      7  C   UNL     1     261.159 -27.527  58.215  1.00  0.00     0.096 C 
ATOM      8  C   UNL     1     259.265 -27.768  59.643  1.00  0.00     0.145 C 
ATOM      9  C   UNL     1     261.469 -26.943  59.559  1.00  0.00    -0.036 C 
ATOM     10  C   UNL     1     260.433 -27.163  60.373  1.00  0.00     0.007 C 
BRANCH   8  11
ATOM     11  O   UNL     1     259.215 -29.147  59.901  1.00  0.00    -0.388 OA
ATOM     12  H   UNL     1     258.710 -29.554  59.148  1.00  0.00     0.211 HD
ENDBRANCH   8  11
BRANCH   9  13
ATOM     13  C   UNL     1     262.850 -26.637  60.067  1.00  0.00     0.187 C 
BRANCH  13  14
ATOM     14  O   UNL     1     263.747 -27.618  59.650  1.00  0.00    -0.392 OA
ATOM     15  H   UNL     1     264.585 -27.480  60.161  1.00  0.00     0.211 HD
ENDBRANCH  13  14
ENDBRANCH   9  13
ENDBRANCH   1   2
BRANCH   1  16
ATOM     16  C   UNL     1     263.605 -27.799  55.860  1.00  0.00     0.286 C 
ATOM     17  C   UNL     1     264.541 -28.851  56.493  1.00  0.00     0.202 C 
ATOM     18  O   UNL     1     264.350 -26.956  55.000  1.00  0.00    -0.341 OA
ATOM     19  C   UNL     1     265.244 -29.683  55.402  1.00  0.00     0.179 C 
ATOM     20  C   UNL     1     264.883 -27.689  53.905  1.00  0.00     0.178 C 
ATOM     21  C   UNL     1     265.900 -28.739  54.392  1.00  0.00     0.177 C 
BRANCH  17  22
ATOM     22  O   UNL     1     263.849 -29.666  57.395  1.00  0.00    -0.385 OA
ATOM     23  H   UNL     1     262.918 -29.759  57.073  1.00  0.00     0.211 HD
ENDBRANCH  17  22
BRANCH  19  24
ATOM     24  O   UNL     1     266.230 -30.496  55.985  1.00  0.00    -0.387 OA
ATOM     25  H   UNL     1     266.898 -30.705  55.281  1.00  0.00     0.211 HD
ENDBRANCH  19  24
BRANCH  20  26
ATOM     26  C   UNL     1     265.531 -26.695  52.923  1.00  0.00     0.191 C 
BRANCH  26  27
ATOM     27  O   UNL     1     265.472 -27.170  51.608  1.00  0.00    -0.394 OA
ATOM     28  H   UNL     1     265.665 -26.406  51.020  1.00  0.00     0.210 HD
ENDBRANCH  26  27
ENDBRANCH  20  26
BRANCH  21  29
ATOM     29  O   UNL     1     266.382 -29.478  53.303  1.00  0.00    -0.387 OA
ATOM     30  H   UNL     1     266.372 -28.876  52.514  1.00  0.00     0.211 HD
ENDBRANCH  21  29
ENDBRANCH   1  16
TORSDOF 10
ENDMDL
MODEL 7
REMARK VINA RESULT:    -5.070     12.835     15.970
REMARK INTER + INTRA:          -8.536
REMARK INTER:                  -7.108
REMARK INTRA:                  -1.428
REMARK UNBOUND:                -1.391
REMARK SMILES OCC1=C[C@H](O)[C@@H]2C=CO[C@H](O[C@H]3O[C@@H](CO)[C@H](O)[C@@H](O)[C@@H]3O)[C@@H]12
REMARK SMILES IDX 12 1 11 2 8 3 9 4 7 5 10 6 24 7 5 8 3 9 4 10 6 11 2 13 1 14
REMARK SMILES IDX 13 16 22 17 14 18 20 19 15 20 18 21 23 22 21 24 16 26 17 27
REMARK SMILES IDX 19 29
REMARK H PARENT 6 12 1 15 23 23 21 25 17 28 19 30
REMARK Flexibility Score: inf
ROOT
ATOM      1  O   UNL     1     267.192 -34.076  45.181  1.00  0.00    -0.310 OA
ENDROOT
BRANCH   1   2
ATOM      2  C   UNL     1     266.878 -33.403  46.398  1.00  0.00     0.316 C 
ATOM      3  C   UNL     1     268.003 -31.878  48.657  1.00  0.00     0.018 C 
ATOM      4  C   UNL     1     268.181 -33.212  48.693  1.00  0.00     0.186 C 
ATOM      5  C   UNL     1     267.102 -31.280  47.614  1.00  0.00     0.061 C 
ATOM      6  O   UNL     1     267.576 -33.979  47.615  1.00  0.00    -0.472 OA
ATOM      7  C   UNL     1     267.349 -31.956  46.285  1.00  0.00     0.096 C 
ATOM      8  C   UNL     1     267.209 -29.792  47.278  1.00  0.00     0.145 C 
ATOM      9  C   UNL     1     266.705 -31.005  45.323  1.00  0.00    -0.036 C 
ATOM     10  C   UNL     1     266.712 -29.781  45.858  1.00  0.00     0.007 C 
BRANCH   8  11
ATOM     11  O   UNL     1     268.542 -29.354  47.312  1.00  0.00    -0.388 OA
ATOM     12  H   UNL     1     268.975 -29.833  48.066  1.00  0.00     0.211 HD
ENDBRANCH   8  11
BRANCH   9  13
ATOM     13  C   UNL     1     266.551 -31.244  43.848  1.00  0.00     0.187 C 
BRANCH  13  14
ATOM     14  O   UNL     1     265.409 -32.002  43.598  1.00  0.00    -0.392 OA
ATOM     15  H   UNL     1     265.584 -32.913  43.945  1.00  0.00     0.211 HD
ENDBRANCH  13  14
ENDBRANCH   9  13
ENDBRANCH   1   2
BRANCH   1  16
ATOM     16  C   UNL     1     266.331 -35.148  44.842  1.00  0.00     0.286 C 
ATOM     17  C   UNL     1     267.181 -36.434  44.748  1.00  0.00     0.202 C 
ATOM     18  O   UNL     1     265.772 -34.855  43.575  1.00  0.00    -0.341 OA
ATOM     19  C   UNL     1     266.328 -37.617  44.251  1.00  0.00     0.179 C 
ATOM     20  C   UNL     1     264.867 -35.873  43.169  1.00  0.00     0.178 C 
ATOM     21  C   UNL     1     265.603 -37.211  42.966  1.00  0.00     0.177 C 
BRANCH  17  22
ATOM     22  O   UNL     1     267.798 -36.722  45.971  1.00  0.00    -0.385 OA
ATOM     23  H   UNL     1     268.036 -37.683  45.975  1.00  0.00     0.211 HD
ENDBRANCH  17  22
BRANCH  19  24
ATOM     24  O   UNL     1     267.155 -38.722  43.987  1.00  0.00    -0.387 OA
ATOM     25  H   UNL     1     267.176 -38.850  43.003  1.00  0.00     0.211 HD
ENDBRANCH  19  24
BRANCH  20  26
ATOM     26  C   UNL     1     264.168 -35.416  41.875  1.00  0.00     0.191 C 
BRANCH  26  27
ATOM     27  O   UNL     1     263.758 -34.082  41.965  1.00  0.00    -0.394 OA
ATOM     28  H   UNL     1     262.898 -34.079  42.442  1.00  0.00     0.210 HD
ENDBRANCH  26  27
ENDBRANCH  20  26
BRANCH  21  29
ATOM     29  O   UNL     1     264.688 -38.210  42.608  1.00  0.00    -0.387 OA
ATOM     30  H   UNL     1     264.087 -38.348  43.387  1.00  0.00     0.211 HD
ENDBRANCH  21  29
ENDBRANCH   1  16
TORSDOF 10
ENDMDL
MODEL 8
REMARK VINA RESULT:    -4.956      2.179      7.069
REMARK INTER + INTRA:          -8.375
REMARK INTER:                  -6.985
REMARK INTRA:                  -1.390
REMARK UNBOUND:                -1.391
REMARK SMILES OCC1=C[C@H](O)[C@@H]2C=CO[C@H](O[C@H]3O[C@@H](CO)[C@H](O)[C@@H](O)[C@@H]3O)[C@@H]12
REMARK SMILES IDX 12 1 11 2 8 3 9 4 7 5 10 6 24 7 5 8 3 9 4 10 6 11 2 13 1 14
REMARK SMILES IDX 13 16 22 17 14 18 20 19 15 20 18 21 23 22 21 24 16 26 17 27
REMARK SMILES IDX 19 29
REMARK H PARENT 6 12 1 15 23 23 21 25 17 28 19 30
REMARK Flexibility Score: inf
ROOT
ATOM      1  O   UNL     1     264.631 -27.235  55.902  1.00  0.00    -0.310 OA
ENDROOT
BRANCH   1   2
ATOM      2  C   UNL     1     264.369 -27.856  54.646  1.00  0.00     0.316 C 
ATOM      3  C   UNL     1     265.447 -28.368  51.950  1.00  0.00     0.018 C 
ATOM      4  C   UNL     1     264.952 -27.135  52.168  1.00  0.00     0.186 C 
ATOM      5  C   UNL     1     265.249 -29.439  52.985  1.00  0.00     0.061 C 
ATOM      6  O   UNL     1     264.362 -26.893  53.476  1.00  0.00    -0.472 OA
ATOM      7  C   UNL     1     265.484 -28.860  54.362  1.00  0.00     0.096 C 
ATOM      8  C   UNL     1     266.136 -30.684  52.971  1.00  0.00     0.145 C 
ATOM      9  C   UNL     1     265.647 -30.092  55.198  1.00  0.00    -0.036 C 
ATOM     10  C   UNL     1     266.097 -31.082  54.422  1.00  0.00     0.007 C 
BRANCH   8  11
ATOM     11  O   UNL     1     267.455 -30.370  52.607  1.00  0.00    -0.388 OA
ATOM     12  H   UNL     1     267.490 -29.383  52.506  1.00  0.00     0.211 HD
ENDBRANCH   8  11
BRANCH   9  13
ATOM     13  C   UNL     1     265.791 -30.106  56.694  1.00  0.00     0.187 C 
BRANCH  13  14
ATOM     14  O   UNL     1     264.539 -30.195  57.298  1.00  0.00    -0.392 OA
ATOM     15  H   UNL     1     264.679 -30.074  58.272  1.00  0.00     0.211 HD
ENDBRANCH  13  14
ENDBRANCH   9  13
ENDBRANCH   1   2
BRANCH   1  16
ATOM     16  C   UNL     1     263.488 -26.959  56.692  1.00  0.00     0.286 C 
ATOM     17  C   UNL     1     263.942 -26.829  58.162  1.00  0.00     0.202 C 
ATOM     18  O   UNL     1     262.609 -28.061  56.561  1.00  0.00    -0.341 OA
ATOM     19  C   UNL     1     262.726 -26.659  59.095  1.00  0.00     0.179 C 
ATOM     20  C   UNL     1     261.415 -27.851  57.304  1.00  0.00     0.178 C 
ATOM     21  C   UNL     1     261.715 -27.772  58.813  1.00  0.00     0.177 C 
BRANCH  17  22
ATOM     22  O   UNL     1     264.859 -25.784  58.317  1.00  0.00    -0.385 OA
ATOM     23  H   UNL     1     264.372 -24.929  58.207  1.00  0.00     0.211 HD
ENDBRANCH  17  22
BRANCH  19  24
ATOM     24  O   UNL     1     263.141 -26.739  60.435  1.00  0.00    -0.387 OA
ATOM     25  H   UNL     1     262.333 -26.638  61.003  1.00  0.00     0.211 HD
ENDBRANCH  19  24
BRANCH  20  26
ATOM     26  C   UNL     1     260.435 -28.996  56.986  1.00  0.00     0.191 C 
BRANCH  26  27
ATOM     27  O   UNL     1     260.517 -30.012  57.944  1.00  0.00    -0.394 OA
ATOM     28  H   UNL     1     259.595 -30.269  58.167  1.00  0.00     0.210 HD
ENDBRANCH  26  27
ENDBRANCH  20  26
BRANCH  21  29
ATOM     29  O   UNL     1     260.533 -27.523  59.523  1.00  0.00    -0.387 OA
ATOM     30  H   UNL     1     259.779 -27.820  58.948  1.00  0.00     0.211 HD
ENDBRANCH  21  29
ENDBRANCH   1  16
TORSDOF 10
ENDMDL
MODEL 9
REMARK VINA RESULT:    -4.940      2.299      6.595
REMARK INTER + INTRA:          -8.353
REMARK INTER:                  -6.961
REMARK INTRA:                  -1.393
REMARK UNBOUND:                -1.391
REMARK SMILES OCC1=C[C@H](O)[C@@H]2C=CO[C@H](O[C@H]3O[C@@H](CO)[C@H](O)[C@@H](O)[C@@H]3O)[C@@H]12
REMARK SMILES IDX 12 1 11 2 8 3 9 4 7 5 10 6 24 7 5 8 3 9 4 10 6 11 2 13 1 14
REMARK SMILES IDX 13 16 22 17 14 18 20 19 15 20 18 21 23 22 21 24 16 26 17 27
REMARK SMILES IDX 19 29
REMARK H PARENT 6 12 1 15 23 23 21 25 17 28 19 30
REMARK Flexibility Score: inf
ROOT
ATOM      1  O   UNL     1     261.278 -26.569  57.069  1.00  0.00    -0.310 OA
ENDROOT
BRANCH   1   2
ATOM      2  C   UNL     1     261.989 -27.091  55.949  1.00  0.00     0.316 C 
ATOM      3  C   UNL     1     262.658 -26.648  53.112  1.00  0.00     0.018 C 
ATOM      4  C   UNL     1     261.425 -27.126  53.364  1.00  0.00     0.186 C 
ATOM      5  C   UNL     1     263.660 -26.561  54.228  1.00  0.00     0.061 C 
ATOM      6  O   UNL     1     261.107 -27.405  54.756  1.00  0.00    -0.472 OA
ATOM      7  C   UNL     1     262.984 -26.035  55.474  1.00  0.00     0.096 C 
ATOM      8  C   UNL     1     264.883 -25.654  54.083  1.00  0.00     0.145 C 
ATOM      9  C   UNL     1     264.152 -25.636  56.322  1.00  0.00    -0.036 C 
ATOM     10  C   UNL     1     265.183 -25.342  55.524  1.00  0.00     0.007 C 
BRANCH   8  11
ATOM     11  O   UNL     1     264.566 -24.469  53.403  1.00  0.00    -0.388 OA
ATOM     12  H   UNL     1     265.010 -23.733  53.900  1.00  0.00     0.211 HD
ENDBRANCH   8  11
BRANCH   9  13
ATOM     13  C   UNL     1     264.061 -25.150  57.741  1.00  0.00     0.187 C 
BRANCH  13  14
ATOM     14  O   UNL     1     264.110 -26.225  58.625  1.00  0.00    -0.392 OA
ATOM     15  H   UNL     1     263.174 -26.446  58.864  1.00  0.00     0.211 HD
ENDBRANCH  13  14
ENDBRANCH   9  13
ENDBRANCH   1   2
BRANCH   1  16
ATOM     16  C   UNL     1     261.013 -27.498  58.105  1.00  0.00     0.286 C 
ATOM     17  C   UNL     1     259.486 -27.721  58.169  1.00  0.00     0.202 C 
ATOM     18  O   UNL     1     261.459 -26.916  59.316  1.00  0.00    -0.341 OA
ATOM     19  C   UNL     1     259.116 -28.621  59.365  1.00  0.00     0.179 C 
ATOM     20  C   UNL     1     261.256 -27.800  60.411  1.00  0.00     0.178 C 
ATOM     21  C   UNL     1     259.753 -28.057  60.636  1.00  0.00     0.177 C 
BRANCH  17  22
ATOM     22  O   UNL     1     259.001 -28.241  56.964  1.00  0.00    -0.385 OA
ATOM     23  H   UNL     1     258.508 -27.522  56.495  1.00  0.00     0.211 HD
ENDBRANCH  17  22
BRANCH  19  24
ATOM     24  O   UNL     1     257.720 -28.653  59.521  1.00  0.00    -0.387 OA
ATOM     25  H   UNL     1     257.330 -28.940  58.655  1.00  0.00     0.211 HD
ENDBRANCH  19  24
BRANCH  20  26
ATOM     26  C   UNL     1     261.913 -27.186  61.662  1.00  0.00     0.191 C 
BRANCH  26  27
ATOM     27  O   UNL     1     263.282 -26.982  61.466  1.00  0.00    -0.394 OA
ATOM     28  H   UNL     1     263.419 -26.011  61.393  1.00  0.00     0.210 HD
ENDBRANCH  26  27
ENDBRANCH  20  26
BRANCH  21  29
ATOM     29  O   UNL     1     259.576 -28.962  61.691  1.00  0.00    -0.387 OA
ATOM     30  H   UNL     1     259.766 -29.869  61.332  1.00  0.00     0.211 HD
ENDBRANCH  21  29
ENDBRANCH   1  16
TORSDOF 10
ENDMDL
