MODEL 1
REMARK VINA RESULT:    -3.533      0.000      0.000
REMARK INTER + INTRA:          -4.099
REMARK INTER:                  -4.050
REMARK INTRA:                  -0.050
REMARK UNBOUND:                -0.050
REMARK SMILES CC(C)[C@@H]([NH3+])C(=O)[O-]
REMARK SMILES IDX 4 1 5 2 6 6 7 7 8 8 2 9 1 10 3 11
REMARK H PARENT 5 3 5 4 5 5
REMARK Flexibility Score: inf
ROOT
ATOM      1  C   UNL     1      -9.213  -1.592   3.407  1.00  0.00     0.230 C 
ENDROOT
BRANCH   1   2
ATOM      2  N   UNL     1     -10.038  -0.959   4.446  1.00  0.00    -0.350 N 
ATOM      3  H   UNL     1     -10.241  -1.620   5.229  1.00  0.00     0.345 HD
ATOM      4  H   UNL     1     -10.941  -0.628   4.035  1.00  0.00     0.345 HD
ATOM      5  H   UNL     1      -9.534  -0.128   4.834  1.00  0.00     0.345 HD
ENDBRANCH   1   2
BRANCH   1   6
ATOM      6  C   UNL     1      -9.770  -2.946   3.037  1.00  0.00     0.099 C 
ATOM      7  O   UNL     1     -10.688  -3.037   2.180  1.00  0.00    -0.544 OA
ATOM      8  O   UNL     1      -9.299  -4.099   3.654  1.00  0.00    -0.544 OA
ENDBRANCH   1   6
BRANCH   1   9
ATOM      9  C   UNL     1      -9.028  -0.661   2.172  1.00  0.00     0.047 C 
ATOM     10  C   UNL     1      -7.577  -0.196   1.959  1.00  0.00     0.014 C 
ATOM     11  C   UNL     1      -9.964   0.557   2.245  1.00  0.00     0.014 C 
ENDBRANCH   1   9
TORSDOF 3
ENDMDL
MODEL 2
REMARK VINA RESULT:    -3.345      2.959      3.563
REMARK INTER + INTRA:          -3.884
REMARK INTER:                  -3.832
REMARK INTRA:                  -0.051
REMARK UNBOUND:                -0.050
REMARK SMILES CC(C)[C@@H]([NH3+])C(=O)[O-]
REMARK SMILES IDX 4 1 5 2 6 6 7 7 8 8 2 9 1 10 3 11
REMARK H PARENT 5 3 5 4 5 5
REMARK Flexibility Score: inf
ROOT
ATOM      1  C   UNL     1     -10.081   0.083   1.985  1.00  0.00     0.230 C 
ENDROOT
BRANCH   1   2
ATOM      2  N   UNL     1     -11.060  -1.009   1.875  1.00  0.00    -0.350 N 
ATOM      3  H   UNL     1     -10.597  -1.944   1.916  1.00  0.00     0.345 HD
ATOM      4  H   UNL     1     -11.589  -0.926   0.977  1.00  0.00     0.345 HD
ATOM      5  H   UNL     1     -11.746  -0.942   2.662  1.00  0.00     0.345 HD
ENDBRANCH   1   2
BRANCH   1   6
ATOM      6  C   UNL     1     -10.716   1.307   2.600  1.00  0.00     0.099 C 
ATOM      7  O   UNL     1     -11.457   2.049   1.904  1.00  0.00    -0.544 OA
ATOM      8  O   UNL     1     -10.469   1.643   3.927  1.00  0.00    -0.544 OA
ENDBRANCH   1   6
BRANCH   1   9
ATOM      9  C   UNL     1      -8.795  -0.370   2.740  1.00  0.00     0.047 C 
ATOM     10  C   UNL     1      -7.505  -0.205   1.918  1.00  0.00     0.014 C 
ATOM     11  C   UNL     1      -8.920  -1.820   3.236  1.00  0.00     0.014 C 
ENDBRANCH   1   9
TORSDOF 3
ENDMDL
MODEL 3
REMARK VINA RESULT:    -3.296      2.142      2.857
REMARK INTER + INTRA:          -3.827
REMARK INTER:                  -3.790
REMARK INTRA:                  -0.037
REMARK UNBOUND:                -0.050
REMARK SMILES CC(C)[C@@H]([NH3+])C(=O)[O-]
REMARK SMILES IDX 4 1 5 2 6 6 7 7 8 8 2 9 1 10 3 11
REMARK H PARENT 5 3 5 4 5 5
REMARK Flexibility Score: inf
ROOT
ATOM      1  C   UNL     1     -10.561  -1.073   4.027  1.00  0.00     0.230 C 
ENDROOT
BRANCH   1   2
ATOM      2  N   UNL     1     -10.160   0.171   4.702  1.00  0.00    -0.350 N 
ATOM      3  H   UNL     1      -9.413  -0.002   5.411  1.00  0.00     0.345 HD
ATOM      4  H   UNL     1     -10.987   0.606   5.172  1.00  0.00     0.345 HD
ATOM      5  H   UNL     1      -9.796   0.850   3.993  1.00  0.00     0.345 HD
ENDBRANCH   1   2
BRANCH   1   6
ATOM      6  C   UNL     1     -11.772  -0.839   3.156  1.00  0.00     0.099 C 
ATOM      7  O   UNL     1     -12.808  -1.534   3.318  1.00  0.00    -0.544 OA
ATOM      8  O   UNL     1     -11.747   0.122   2.150  1.00  0.00    -0.544 OA
ENDBRANCH   1   6
BRANCH   1   9
ATOM      9  C   UNL     1      -9.374  -1.714   3.247  1.00  0.00     0.047 C 
ATOM     10  C   UNL     1      -8.634  -2.808   4.035  1.00  0.00     0.014 C 
ATOM     11  C   UNL     1      -8.378  -0.645   2.770  1.00  0.00     0.014 C 
ENDBRANCH   1   9
TORSDOF 3
ENDMDL
MODEL 4
REMARK VINA RESULT:    -3.285      3.187      3.871
REMARK INTER + INTRA:          -3.815
REMARK INTER:                  -3.746
REMARK INTRA:                  -0.069
REMARK UNBOUND:                -0.050
REMARK SMILES CC(C)[C@@H]([NH3+])C(=O)[O-]
REMARK SMILES IDX 4 1 5 2 6 6 7 7 8 8 2 9 1 10 3 11
REMARK H PARENT 5 3 5 4 5 5
REMARK Flexibility Score: inf
ROOT
ATOM      1  C   UNL     1     -10.709   0.315   3.392  1.00  0.00     0.230 C 
ENDROOT
BRANCH   1   2
ATOM      2  N   UNL     1     -10.233   0.083   4.764  1.00  0.00    -0.350 N 
ATOM      3  H   UNL     1      -9.948   0.975   5.226  1.00  0.00     0.345 HD
ATOM      4  H   UNL     1      -9.420  -0.574   4.754  1.00  0.00     0.345 HD
ATOM      5  H   UNL     1     -10.997  -0.356   5.329  1.00  0.00     0.345 HD
ENDBRANCH   1   2
BRANCH   1   6
ATOM      6  C   UNL     1     -10.810   1.795   3.107  1.00  0.00     0.099 C 
ATOM      7  O   UNL     1     -11.210   2.193   1.982  1.00  0.00    -0.544 OA
ATOM      8  O   UNL     1     -10.437   2.729   4.067  1.00  0.00    -0.544 OA
ENDBRANCH   1   6
BRANCH   1   9
ATOM      9  C   UNL     1      -9.838  -0.440   2.344  1.00  0.00     0.047 C 
ATOM     10  C   UNL     1     -10.078  -1.960   2.321  1.00  0.00     0.014 C 
ATOM     11  C   UNL     1      -8.342  -0.148   2.546  1.00  0.00     0.014 C 
ENDBRANCH   1   9
TORSDOF 3
ENDMDL
MODEL 5
REMARK VINA RESULT:    -3.234      2.537      3.426
REMARK INTER + INTRA:          -3.756
REMARK INTER:                  -3.713
REMARK INTRA:                  -0.042
REMARK UNBOUND:                -0.050
REMARK SMILES CC(C)[C@@H]([NH3+])C(=O)[O-]
REMARK SMILES IDX 4 1 5 2 6 6 7 7 8 8 2 9 1 10 3 11
REMARK H PARENT 5 3 5 4 5 5
REMARK Flexibility Score: inf
ROOT
ATOM      1  C   UNL     1      -9.328  -1.772   2.727  1.00  0.00     0.230 C 
ENDROOT
BRANCH   1   2
ATOM      2  N   UNL     1     -10.561  -1.771   1.926  1.00  0.00    -0.350 N 
ATOM      3  H   UNL     1     -11.366  -2.168   2.460  1.00  0.00     0.345 HD
ATOM      4  H   UNL     1     -10.421  -2.329   1.052  1.00  0.00     0.345 HD
ATOM      5  H   UNL     1     -10.797  -0.790   1.649  1.00  0.00     0.345 HD
ENDBRANCH   1   2
BRANCH   1   6
ATOM      6  C   UNL     1      -8.701  -0.398   2.741  1.00  0.00     0.099 C 
ATOM      7  O   UNL     1      -9.398   0.609   3.032  1.00  0.00    -0.544 OA
ATOM      8  O   UNL     1      -7.363  -0.227   2.406  1.00  0.00    -0.544 OA
ENDBRANCH   1   6
BRANCH   1   9
ATOM      9  C   UNL     1      -9.572  -2.335   4.159  1.00  0.00     0.047 C 
ATOM     10  C   UNL     1      -8.510  -3.351   4.614  1.00  0.00     0.014 C 
ATOM     11  C   UNL     1     -10.975  -2.950   4.286  1.00  0.00     0.014 C 
ENDBRANCH   1   9
TORSDOF 3
ENDMDL
MODEL 6
REMARK VINA RESULT:    -3.221      1.845      2.590
REMARK INTER + INTRA:          -3.741
REMARK INTER:                  -3.665
REMARK INTRA:                  -0.076
REMARK UNBOUND:                -0.050
REMARK SMILES CC(C)[C@@H]([NH3+])C(=O)[O-]
REMARK SMILES IDX 4 1 5 2 6 6 7 7 8 8 2 9 1 10 3 11
REMARK H PARENT 5 3 5 4 5 5
REMARK Flexibility Score: inf
ROOT
ATOM      1  C   UNL     1      -9.704   0.327   3.356  1.00  0.00     0.230 C 
ENDROOT
BRANCH   1   2
ATOM      2  N   UNL     1     -10.270   0.210   4.708  1.00  0.00    -0.350 N 
ATOM      3  H   UNL     1     -11.116   0.812   4.822  1.00  0.00     0.345 HD
ATOM      4  H   UNL     1      -9.555   0.484   5.421  1.00  0.00     0.345 HD
ATOM      5  H   UNL     1     -10.542  -0.784   4.888  1.00  0.00     0.345 HD
ENDBRANCH   1   2
BRANCH   1   6
ATOM      6  C   UNL     1      -8.985  -0.943   2.968  1.00  0.00     0.099 C 
ATOM      7  O   UNL     1      -8.361  -1.005   1.877  1.00  0.00    -0.544 OA
ATOM      8  O   UNL     1      -9.028  -2.062   3.793  1.00  0.00    -0.544 OA
ENDBRANCH   1   6
BRANCH   1   9
ATOM      9  C   UNL     1     -10.783   0.749   2.314  1.00  0.00     0.047 C 
ATOM     10  C   UNL     1     -11.340   2.165   2.540  1.00  0.00     0.014 C 
ATOM     11  C   UNL     1     -11.935  -0.267   2.261  1.00  0.00     0.014 C 
ENDBRANCH   1   9
TORSDOF 3
ENDMDL
MODEL 7
REMARK VINA RESULT:    -3.151      2.414      3.570
REMARK INTER + INTRA:          -3.661
REMARK INTER:                  -3.604
REMARK INTRA:                  -0.057
REMARK UNBOUND:                -0.050
REMARK SMILES CC(C)[C@@H]([NH3+])C(=O)[O-]
REMARK SMILES IDX 4 1 5 2 6 6 7 7 8 8 2 9 1 10 3 11
REMARK H PARENT 5 3 5 4 5 5
REMARK Flexibility Score: inf
ROOT
ATOM      1  C   UNL     1     -10.391  -0.752   3.292  1.00  0.00     0.230 C 
ENDROOT
BRANCH   1   2
ATOM      2  N   UNL     1     -10.209  -0.438   4.717  1.00  0.00    -0.350 N 
ATOM      3  H   UNL     1      -9.534  -1.094   5.170  1.00  0.00     0.345 HD
ATOM      4  H   UNL     1     -11.127  -0.491   5.215  1.00  0.00     0.345 HD
ATOM      5  H   UNL     1      -9.843   0.537   4.815  1.00  0.00     0.345 HD
ENDBRANCH   1   2
BRANCH   1   6
ATOM      6  C   UNL     1      -9.855   0.365   2.428  1.00  0.00     0.099 C 
ATOM      7  O   UNL     1      -8.730   0.249   1.875  1.00  0.00    -0.544 OA
ATOM      8  O   UNL     1     -10.580   1.540   2.258  1.00  0.00    -0.544 OA
ENDBRANCH   1   6
BRANCH   1   9
ATOM      9  C   UNL     1      -9.783  -2.139   2.925  1.00  0.00     0.047 C 
ATOM     10  C   UNL     1     -10.818  -3.146   2.392  1.00  0.00     0.014 C 
ATOM     11  C   UNL     1      -9.023  -2.747   4.113  1.00  0.00     0.014 C 
ENDBRANCH   1   9
TORSDOF 3
ENDMDL
MODEL 8
REMARK VINA RESULT:    -2.296      2.714      3.429
REMARK INTER + INTRA:          -2.681
REMARK INTER:                  -2.627
REMARK INTRA:                  -0.055
REMARK UNBOUND:                -0.050
REMARK SMILES CC(C)[C@@H]([NH3+])C(=O)[O-]
REMARK SMILES IDX 4 1 5 2 6 6 7 7 8 8 2 9 1 10 3 11
REMARK H PARENT 5 3 5 4 5 5
REMARK Flexibility Score: inf
ROOT
ATOM      1  C   UNL     1      -9.075  -0.768   3.215  1.00  0.00     0.230 C 
ENDROOT
BRANCH   1   2
ATOM      2  N   UNL     1      -8.478  -0.863   1.875  1.00  0.00    -0.350 N 
ATOM      3  H   UNL     1      -8.157   0.070   1.532  1.00  0.00     0.345 HD
ATOM      4  H   UNL     1      -9.173  -1.257   1.200  1.00  0.00     0.345 HD
ATOM      5  H   UNL     1      -7.654  -1.508   1.905  1.00  0.00     0.345 HD
ENDBRANCH   1   2
BRANCH   1   6
ATOM      6  C   UNL     1     -10.077   0.360   3.273  1.00  0.00     0.099 C 
ATOM      7  O   UNL     1     -10.517   0.867   2.208  1.00  0.00    -0.544 OA
ATOM      8  O   UNL     1     -10.501   0.869   4.495  1.00  0.00    -0.544 OA
ENDBRANCH   1   6
BRANCH   1   9
ATOM      9  C   UNL     1      -9.677  -2.130   3.675  1.00  0.00     0.047 C 
ATOM     10  C   UNL     1      -8.627  -3.125   4.200  1.00  0.00     0.014 C 
ATOM     11  C   UNL     1     -10.505  -2.781   2.556  1.00  0.00     0.014 C 
ENDBRANCH   1   9
TORSDOF 3
ENDMDL
