MODEL 1
REMARK VINA RESULT:    -4.947      0.000      0.000
REMARK INTER + INTRA:          -8.681
REMARK INTER:                  -7.550
REMARK INTRA:                  -1.131
REMARK UNBOUND:                -1.131
REMARK SMILES OC[C@@H]1O[C@H](O[C@]2(CO)O[C@@H](CO)[C@H](O)[C@H]2O)[C@H](O)[C@H](O)[C@@H]1O
REMARK SMILES IDX 6 1 5 2 3 3 22 4 4 5 20 6 18 7 2 8 1 9 23 11 21 13 19 15
REMARK SMILES IDX 7 17 16 18 10 19 14 20 11 21 8 22 9 23 17 25 15 27 12 29
REMARK SMILES IDX 13 30
REMARK H PARENT 1 10 23 12 21 14 19 16 9 24 17 26 15 28 13 31
REMARK Flexibility Score: inf
ROOT
ATOM      1  O   UNL     1      32.827  -7.489  13.215  1.00  0.00    -0.313 OA
ENDROOT
BRANCH   1   2
ATOM      2  C   UNL     1      33.425  -7.298  11.944  1.00  0.00     0.285 C 
ATOM      3  C   UNL     1      33.563  -5.823  10.143  1.00  0.00     0.178 C 
ATOM      4  C   UNL     1      35.109  -5.787  10.147  1.00  0.00     0.177 C 
ATOM      5  O   UNL     1      33.069  -6.011  11.459  1.00  0.00    -0.341 OA
ATOM      6  C   UNL     1      35.636  -7.105  10.746  1.00  0.00     0.179 C 
ATOM      7  C   UNL     1      34.954  -7.404  12.101  1.00  0.00     0.202 C 
BRANCH   3   8
ATOM      8  C   UNL     1      32.951  -4.546   9.547  1.00  0.00     0.191 C 
BRANCH   8   9
ATOM      9  O   UNL     1      32.312  -4.814   8.325  1.00  0.00    -0.394 OA
ATOM     10  H   UNL     1      32.335  -5.797   8.192  1.00  0.00     0.210 HD
ENDBRANCH   8   9
ENDBRANCH   3   8
BRANCH   4  11
ATOM     11  O   UNL     1      35.566  -4.694  10.907  1.00  0.00    -0.387 OA
ATOM     12  H   UNL     1      36.030  -5.067  11.703  1.00  0.00     0.211 HD
ENDBRANCH   4  11
BRANCH   6  13
ATOM     13  O   UNL     1      37.031  -7.044  10.892  1.00  0.00    -0.387 OA
ATOM     14  H   UNL     1      37.354  -7.980  10.958  1.00  0.00     0.211 HD
ENDBRANCH   6  13
BRANCH   7  15
ATOM     15  O   UNL     1      35.387  -6.499  13.087  1.00  0.00    -0.385 OA
ATOM     16  H   UNL     1      34.880  -6.710  13.914  1.00  0.00     0.211 HD
ENDBRANCH   7  15
ENDBRANCH   1   2
BRANCH   1  17
ATOM     17  C   UNL     1      32.010  -8.657  13.296  1.00  0.00     0.224 C 
ATOM     18  C   UNL     1      31.672  -9.086  11.852  1.00  0.00     0.208 C 
ATOM     19  O   UNL     1      32.687  -9.740  13.923  1.00  0.00    -0.337 OA
ATOM     20  C   UNL     1      31.732 -10.587  11.911  1.00  0.00     0.180 C 
ATOM     21  C   UNL     1      32.758 -10.815  13.014  1.00  0.00     0.179 C 
BRANCH  17  22
ATOM     22  C   UNL     1      30.748  -8.322  14.125  1.00  0.00     0.225 C 
BRANCH  22  23
ATOM     23  O   UNL     1      30.201  -7.095  13.722  1.00  0.00    -0.391 OA
ATOM     24  H   UNL     1      30.489  -6.962  12.781  1.00  0.00     0.210 HD
ENDBRANCH  22  23
ENDBRANCH  17  22
BRANCH  18  25
ATOM     25  O   UNL     1      30.410  -8.637  11.424  1.00  0.00    -0.385 OA
ATOM     26  H   UNL     1      30.432  -7.646  11.477  1.00  0.00     0.211 HD
ENDBRANCH  18  25
BRANCH  20  27
ATOM     27  O   UNL     1      32.165 -11.117  10.686  1.00  0.00    -0.387 OA
ATOM     28  H   UNL     1      32.898 -11.752  10.897  1.00  0.00     0.211 HD
ENDBRANCH  20  27
BRANCH  21  29
ATOM     29  C   UNL     1      32.521 -12.139  13.752  1.00  0.00     0.191 C 
BRANCH  29  30
ATOM     30  O   UNL     1      32.382 -13.190  12.834  1.00  0.00    -0.394 OA
ATOM     31  H   UNL     1      31.929 -12.813  12.034  1.00  0.00     0.210 HD
ENDBRANCH  29  30
ENDBRANCH  21  29
ENDBRANCH   1  17
TORSDOF 13
ENDMDL
MODEL 2
REMARK VINA RESULT:    -4.650      1.494      2.847
REMARK INTER + INTRA:          -8.227
REMARK INTER:                  -7.301
REMARK INTRA:                  -0.926
REMARK UNBOUND:                -1.131
REMARK SMILES OC[C@@H]1O[C@H](O[C@]2(CO)O[C@@H](CO)[C@H](O)[C@H]2O)[C@H](O)[C@H](O)[C@@H]1O
REMARK SMILES IDX 6 1 5 2 3 3 22 4 4 5 20 6 18 7 2 8 1 9 23 11 21 13 19 15
REMARK SMILES IDX 7 17 16 18 10 19 14 20 11 21 8 22 9 23 17 25 15 27 12 29
REMARK SMILES IDX 13 30
REMARK H PARENT 1 10 23 12 21 14 19 16 9 24 17 26 15 28 13 31
REMARK Flexibility Score: inf
ROOT
ATOM      1  O   UNL     1      32.060  -7.508  11.021  1.00  0.00    -0.313 OA
ENDROOT
BRANCH   1   2
ATOM      2  C   UNL     1      32.886  -6.375  11.228  1.00  0.00     0.285 C 
ATOM      3  C   UNL     1      35.090  -5.621  11.126  1.00  0.00     0.178 C 
ATOM      4  C   UNL     1      34.747  -4.393  10.250  1.00  0.00     0.177 C 
ATOM      5  O   UNL     1      34.212  -6.696  10.837  1.00  0.00    -0.341 OA
ATOM      6  C   UNL     1      33.282  -3.990  10.509  1.00  0.00     0.179 C 
ATOM      7  C   UNL     1      32.345  -5.212  10.374  1.00  0.00     0.202 C 
BRANCH   3   8
ATOM      8  C   UNL     1      36.542  -6.085  10.940  1.00  0.00     0.191 C 
BRANCH   8   9
ATOM      9  O   UNL     1      36.625  -7.125  10.000  1.00  0.00    -0.394 OA
ATOM     10  H   UNL     1      36.638  -6.706   9.100  1.00  0.00     0.210 HD
ENDBRANCH   8   9
ENDBRANCH   3   8
BRANCH   4  11
ATOM     11  O   UNL     1      34.929  -4.704   8.890  1.00  0.00    -0.387 OA
ATOM     12  H   UNL     1      34.200  -5.329   8.634  1.00  0.00     0.211 HD
ENDBRANCH   4  11
BRANCH   6  13
ATOM     13  O   UNL     1      32.901  -2.968   9.625  1.00  0.00    -0.387 OA
ATOM     14  H   UNL     1      32.953  -2.116  10.133  1.00  0.00     0.211 HD
ENDBRANCH   6  13
BRANCH   7  15
ATOM     15  O   UNL     1      32.250  -5.621   9.032  1.00  0.00    -0.385 OA
ATOM     16  H   UNL     1      31.305  -5.883   8.877  1.00  0.00     0.211 HD
ENDBRANCH   7  15
ENDBRANCH   1   2
BRANCH   1  17
ATOM     17  C   UNL     1      31.994  -8.385  12.145  1.00  0.00     0.224 C 
ATOM     18  C   UNL     1      30.652  -9.144  12.062  1.00  0.00     0.208 C 
ATOM     19  O   UNL     1      33.039  -9.350  12.133  1.00  0.00    -0.337 OA
ATOM     20  C   UNL     1      31.007 -10.531  12.522  1.00  0.00     0.180 C 
ATOM     21  C   UNL     1      32.466 -10.637  12.095  1.00  0.00     0.179 C 
BRANCH  17  22
ATOM     22  C   UNL     1      32.119  -7.543  13.438  1.00  0.00     0.225 C 
BRANCH  22  23
ATOM     23  O   UNL     1      33.310  -7.845  14.113  1.00  0.00    -0.391 OA
ATOM     24  H   UNL     1      33.654  -6.981  14.462  1.00  0.00     0.210 HD
ENDBRANCH  22  23
ENDBRANCH  17  22
BRANCH  18  25
ATOM     25  O   UNL     1      29.647  -8.577  12.865  1.00  0.00    -0.385 OA
ATOM     26  H   UNL     1      29.103  -8.000  12.267  1.00  0.00     0.211 HD
ENDBRANCH  18  25
BRANCH  20  27
ATOM     27  O   UNL     1      30.210 -11.488  11.875  1.00  0.00    -0.387 OA
ATOM     28  H   UNL     1      30.479 -11.480  10.920  1.00  0.00     0.211 HD
ENDBRANCH  20  27
BRANCH  21  29
ATOM     29  C   UNL     1      33.259 -11.588  13.000  1.00  0.00     0.191 C 
BRANCH  29  30
ATOM     30  O   UNL     1      33.000 -12.922  12.651  1.00  0.00    -0.394 OA
ATOM     31  H   UNL     1      32.012 -13.022  12.618  1.00  0.00     0.210 HD
ENDBRANCH  29  30
ENDBRANCH  21  29
ENDBRANCH   1  17
TORSDOF 13
ENDMDL
MODEL 3
REMARK VINA RESULT:    -4.195      2.101      5.905
REMARK INTER + INTRA:          -7.533
REMARK INTER:                  -6.700
REMARK INTRA:                  -0.833
REMARK UNBOUND:                -1.131
REMARK SMILES OC[C@@H]1O[C@H](O[C@]2(CO)O[C@@H](CO)[C@H](O)[C@H]2O)[C@H](O)[C@H](O)[C@@H]1O
REMARK SMILES IDX 6 1 5 2 3 3 22 4 4 5 20 6 18 7 2 8 1 9 23 11 21 13 19 15
REMARK SMILES IDX 7 17 16 18 10 19 14 20 11 21 8 22 9 23 17 25 15 27 12 29
REMARK SMILES IDX 13 30
REMARK H PARENT 1 10 23 12 21 14 19 16 9 24 17 26 15 28 13 31
REMARK Flexibility Score: inf
ROOT
ATOM      1  O   UNL     1      35.129  -7.715  12.245  1.00  0.00    -0.313 OA
ENDROOT
BRANCH   1   2
ATOM      2  C   UNL     1      33.883  -7.043  12.168  1.00  0.00     0.285 C 
ATOM      3  C   UNL     1      32.462  -5.894  10.719  1.00  0.00     0.178 C 
ATOM      4  C   UNL     1      31.229  -6.763  11.059  1.00  0.00     0.177 C 
ATOM      5  O   UNL     1      33.651  -6.660  10.820  1.00  0.00    -0.341 OA
ATOM      6  C   UNL     1      31.397  -7.328  12.483  1.00  0.00     0.179 C 
ATOM      7  C   UNL     1      32.778  -8.004  12.646  1.00  0.00     0.202 C 
BRANCH   3   8
ATOM      8  C   UNL     1      32.373  -5.277   9.315  1.00  0.00     0.191 C 
BRANCH   8   9
ATOM      9  O   UNL     1      31.704  -4.042   9.346  1.00  0.00    -0.394 OA
ATOM     10  H   UNL     1      30.832  -4.170   8.889  1.00  0.00     0.210 HD
ENDBRANCH   8   9
ENDBRANCH   3   8
BRANCH   4  11
ATOM     11  O   UNL     1      31.108  -7.815  10.133  1.00  0.00    -0.387 OA
ATOM     12  H   UNL     1      31.992  -7.917   9.691  1.00  0.00     0.211 HD
ENDBRANCH   4  11
BRANCH   6  13
ATOM     13  O   UNL     1      30.361  -8.233  12.766  1.00  0.00    -0.387 OA
ATOM     14  H   UNL     1      29.538  -7.694  12.899  1.00  0.00     0.211 HD
ENDBRANCH   6  13
BRANCH   7  15
ATOM     15  O   UNL     1      32.840  -9.196  11.903  1.00  0.00    -0.385 OA
ATOM     16  H   UNL     1      31.903  -9.488  11.750  1.00  0.00     0.211 HD
ENDBRANCH   7  15
ENDBRANCH   1   2
BRANCH   1  17
ATOM     17  C   UNL     1      36.245  -6.840  12.408  1.00  0.00     0.224 C 
ATOM     18  C   UNL     1      37.288  -7.216  11.333  1.00  0.00     0.208 C 
ATOM     19  O   UNL     1      35.889  -5.477  12.208  1.00  0.00    -0.337 OA
ATOM     20  C   UNL     1      37.839  -5.886  10.902  1.00  0.00     0.180 C 
ATOM     21  C   UNL     1      36.650  -4.964  11.138  1.00  0.00     0.179 C 
BRANCH  17  22
ATOM     22  C   UNL     1      36.793  -6.998  13.846  1.00  0.00     0.225 C 
BRANCH  22  23
ATOM     23  O   UNL     1      37.852  -6.108  14.074  1.00  0.00    -0.391 OA
ATOM     24  H   UNL     1      37.444  -5.205  14.132  1.00  0.00     0.210 HD
ENDBRANCH  22  23
ENDBRANCH  17  22
BRANCH  18  25
ATOM     25  O   UNL     1      38.301  -8.061  11.820  1.00  0.00    -0.385 OA
ATOM     26  H   UNL     1      38.929  -8.210  11.066  1.00  0.00     0.211 HD
ENDBRANCH  18  25
BRANCH  20  27
ATOM     27  O   UNL     1      38.208  -5.916   9.548  1.00  0.00    -0.387 OA
ATOM     28  H   UNL     1      37.867  -6.773   9.182  1.00  0.00     0.211 HD
ENDBRANCH  20  27
BRANCH  21  29
ATOM     29  C   UNL     1      37.091  -3.529  11.453  1.00  0.00     0.191 C 
BRANCH  29  30
ATOM     30  O   UNL     1      37.839  -3.498  12.639  1.00  0.00    -0.394 OA
ATOM     31  H   UNL     1      38.791  -3.393  12.375  1.00  0.00     0.210 HD
ENDBRANCH  29  30
ENDBRANCH  21  29
ENDBRANCH   1  17
TORSDOF 13
ENDMDL
MODEL 4
REMARK VINA RESULT:    -4.175     11.122     14.231
REMARK INTER + INTRA:          -7.503
REMARK INTER:                  -6.453
REMARK INTRA:                  -1.050
REMARK UNBOUND:                -1.131
REMARK SMILES OC[C@@H]1O[C@H](O[C@]2(CO)O[C@@H](CO)[C@H](O)[C@H]2O)[C@H](O)[C@H](O)[C@@H]1O
REMARK SMILES IDX 6 1 5 2 3 3 22 4 4 5 20 6 18 7 2 8 1 9 23 11 21 13 19 15
REMARK SMILES IDX 7 17 16 18 10 19 14 20 11 21 8 22 9 23 17 25 15 27 12 29
REMARK SMILES IDX 13 30
REMARK H PARENT 1 10 23 12 21 14 19 16 9 24 17 26 15 28 13 31
REMARK Flexibility Score: inf
ROOT
ATOM      1  O   UNL     1      33.763  -4.684  -0.754  1.00  0.00    -0.313 OA
ENDROOT
BRANCH   1   2
ATOM      2  C   UNL     1      34.838  -3.999  -0.133  1.00  0.00     0.285 C 
ATOM      3  C   UNL     1      35.353  -2.247   1.317  1.00  0.00     0.178 C 
ATOM      4  C   UNL     1      36.240  -3.119   2.235  1.00  0.00     0.177 C 
ATOM      5  O   UNL     1      34.309  -3.024   0.753  1.00  0.00    -0.341 OA
ATOM      6  C   UNL     1      36.812  -4.289   1.410  1.00  0.00     0.179 C 
ATOM      7  C   UNL     1      35.686  -5.023   0.645  1.00  0.00     0.202 C 
BRANCH   3   8
ATOM      8  C   UNL     1      34.749  -1.044   2.058  1.00  0.00     0.191 C 
BRANCH   8   9
ATOM      9  O   UNL     1      33.380  -0.909   1.773  1.00  0.00    -0.394 OA
ATOM     10  H   UNL     1      32.886  -1.106   2.612  1.00  0.00     0.210 HD
ENDBRANCH   8   9
ENDBRANCH   3   8
BRANCH   4  11
ATOM     11  O   UNL     1      35.482  -3.613   3.313  1.00  0.00    -0.387 OA
ATOM     12  H   UNL     1      35.950  -3.342   4.146  1.00  0.00     0.211 HD
ENDBRANCH   4  11
BRANCH   6  13
ATOM     13  O   UNL     1      37.506  -5.175   2.249  1.00  0.00    -0.387 OA
ATOM     14  H   UNL     1      36.900  -5.385   3.007  1.00  0.00     0.211 HD
ENDBRANCH   6  13
BRANCH   7  15
ATOM     15  O   UNL     1      34.861  -5.734   1.536  1.00  0.00    -0.385 OA
ATOM     16  H   UNL     1      33.966  -5.306   1.502  1.00  0.00     0.211 HD
ENDBRANCH   7  15
ENDBRANCH   1   2
BRANCH   1  17
ATOM     17  C   UNL     1      33.584  -4.345  -2.129  1.00  0.00     0.224 C 
ATOM     18  C   UNL     1      32.194  -4.866  -2.556  1.00  0.00     0.208 C 
ATOM     19  O   UNL     1      33.604  -2.939  -2.340  1.00  0.00    -0.337 OA
ATOM     20  C   UNL     1      31.681  -3.784  -3.466  1.00  0.00     0.180 C 
ATOM     21  C   UNL     1      32.371  -2.549  -2.900  1.00  0.00     0.179 C 
BRANCH  17  22
ATOM     22  C   UNL     1      34.731  -4.981  -2.950  1.00  0.00     0.225 C 
BRANCH  22  23
ATOM     23  O   UNL     1      34.938  -6.313  -2.564  1.00  0.00    -0.391 OA
ATOM     24  H   UNL     1      34.126  -6.811  -2.848  1.00  0.00     0.210 HD
ENDBRANCH  22  23
ENDBRANCH  17  22
BRANCH  18  25
ATOM     25  O   UNL     1      32.247  -6.108  -3.211  1.00  0.00    -0.385 OA
ATOM     26  H   UNL     1      31.903  -5.956  -4.129  1.00  0.00     0.211 HD
ENDBRANCH  18  25
BRANCH  20  27
ATOM     27  O   UNL     1      30.284  -3.681  -3.378  1.00  0.00    -0.387 OA
ATOM     28  H   UNL     1      30.038  -2.820  -3.806  1.00  0.00     0.211 HD
ENDBRANCH  20  27
BRANCH  21  29
ATOM     29  C   UNL     1      32.601  -1.479  -3.976  1.00  0.00     0.191 C 
BRANCH  29  30
ATOM     30  O   UNL     1      31.771  -1.714  -5.082  1.00  0.00    -0.394 OA
ATOM     31  H   UNL     1      32.269  -1.405  -5.884  1.00  0.00     0.210 HD
ENDBRANCH  29  30
ENDBRANCH  21  29
ENDBRANCH   1  17
TORSDOF 13
ENDMDL
MODEL 5
REMARK VINA RESULT:    -4.121     11.295     14.464
REMARK INTER + INTRA:          -7.421
REMARK INTER:                  -6.594
REMARK INTRA:                  -0.827
REMARK UNBOUND:                -1.131
REMARK SMILES OC[C@@H]1O[C@H](O[C@]2(CO)O[C@@H](CO)[C@H](O)[C@H]2O)[C@H](O)[C@H](O)[C@@H]1O
REMARK SMILES IDX 6 1 5 2 3 3 22 4 4 5 20 6 18 7 2 8 1 9 23 11 21 13 19 15
REMARK SMILES IDX 7 17 16 18 10 19 14 20 11 21 8 22 9 23 17 25 15 27 12 29
REMARK SMILES IDX 13 30
REMARK H PARENT 1 10 23 12 21 14 19 16 9 24 17 26 15 28 13 31
REMARK Flexibility Score: inf
ROOT
ATOM      1  O   UNL     1      33.314  -4.670  -1.182  1.00  0.00    -0.313 OA
ENDROOT
BRANCH   1   2
ATOM      2  C   UNL     1      34.477  -4.142  -0.568  1.00  0.00     0.285 C 
ATOM      3  C   UNL     1      35.234  -2.523   0.929  1.00  0.00     0.178 C 
ATOM      4  C   UNL     1      36.033  -3.530   1.789  1.00  0.00     0.177 C 
ATOM      5  O   UNL     1      34.091  -3.148   0.369  1.00  0.00    -0.341 OA
ATOM      6  C   UNL     1      36.441  -4.725   0.904  1.00  0.00     0.179 C 
ATOM      7  C   UNL     1      35.217  -5.290   0.146  1.00  0.00     0.202 C 
BRANCH   3   8
ATOM      8  C   UNL     1      34.797  -1.288   1.732  1.00  0.00     0.191 C 
BRANCH   8   9
ATOM      9  O   UNL     1      33.398  -1.153   1.733  1.00  0.00    -0.394 OA
ATOM     10  H   UNL     1      33.017  -2.060   1.597  1.00  0.00     0.210 HD
ENDBRANCH   8   9
ENDBRANCH   3   8
BRANCH   4  11
ATOM     11  O   UNL     1      35.249  -3.974   2.869  1.00  0.00    -0.387 OA
ATOM     12  H   UNL     1      35.841  -4.514   3.456  1.00  0.00     0.211 HD
ENDBRANCH   4  11
BRANCH   6  13
ATOM     13  O   UNL     1      37.045  -5.720   1.689  1.00  0.00    -0.387 OA
ATOM     14  H   UNL     1      36.921  -5.452   2.637  1.00  0.00     0.211 HD
ENDBRANCH   6  13
BRANCH   7  15
ATOM     15  O   UNL     1      34.336  -5.933   1.034  1.00  0.00    -0.385 OA
ATOM     16  H   UNL     1      34.581  -6.895   1.035  1.00  0.00     0.211 HD
ENDBRANCH   7  15
ENDBRANCH   1   2
BRANCH   1  17
ATOM     17  C   UNL     1      33.336  -4.605  -2.608  1.00  0.00     0.224 C 
ATOM     18  C   UNL     1      33.491  -3.119  -3.001  1.00  0.00     0.208 C 
ATOM     19  O   UNL     1      34.437  -5.317  -3.158  1.00  0.00    -0.337 OA
ATOM     20  C   UNL     1      34.413  -3.168  -4.187  1.00  0.00     0.180 C 
ATOM     21  C   UNL     1      35.235  -4.416  -3.893  1.00  0.00     0.179 C 
BRANCH  17  22
ATOM     22  C   UNL     1      32.028  -5.226  -3.152  1.00  0.00     0.225 C 
BRANCH  22  23
ATOM     23  O   UNL     1      30.933  -4.851  -2.361  1.00  0.00    -0.391 OA
ATOM     24  H   UNL     1      30.583  -5.690  -1.960  1.00  0.00     0.210 HD
ENDBRANCH  22  23
ENDBRANCH  17  22
BRANCH  18  25
ATOM     25  O   UNL     1      32.270  -2.503  -3.322  1.00  0.00    -0.385 OA
ATOM     26  H   UNL     1      32.115  -2.673  -4.287  1.00  0.00     0.211 HD
ENDBRANCH  18  25
BRANCH  20  27
ATOM     27  O   UNL     1      35.220  -2.020  -4.238  1.00  0.00    -0.387 OA
ATOM     28  H   UNL     1      34.644  -1.260  -3.962  1.00  0.00     0.211 HD
ENDBRANCH  20  27
BRANCH  21  29
ATOM     29  C   UNL     1      35.733  -5.090  -5.179  1.00  0.00     0.191 C 
BRANCH  29  30
ATOM     30  O   UNL     1      35.848  -6.475  -4.990  1.00  0.00    -0.394 OA
ATOM     31  H   UNL     1      36.126  -6.860  -5.863  1.00  0.00     0.210 HD
ENDBRANCH  29  30
ENDBRANCH  21  29
ENDBRANCH   1  17
TORSDOF 13
ENDMDL
MODEL 6
REMARK VINA RESULT:    -4.029      1.381      5.879
REMARK INTER + INTRA:          -7.280
REMARK INTER:                  -6.938
REMARK INTRA:                  -0.341
REMARK UNBOUND:                -1.131
REMARK SMILES OC[C@@H]1O[C@H](O[C@]2(CO)O[C@@H](CO)[C@H](O)[C@H]2O)[C@H](O)[C@H](O)[C@@H]1O
REMARK SMILES IDX 6 1 5 2 3 3 22 4 4 5 20 6 18 7 2 8 1 9 23 11 21 13 19 15
REMARK SMILES IDX 7 17 16 18 10 19 14 20 11 21 8 22 9 23 17 25 15 27 12 29
REMARK SMILES IDX 13 30
REMARK H PARENT 1 10 23 12 21 14 19 16 9 24 17 26 15 28 13 31
REMARK Flexibility Score: inf
ROOT
ATOM      1  O   UNL     1      33.934  -9.151  12.233  1.00  0.00    -0.313 OA
ENDROOT
BRANCH   1   2
ATOM      2  C   UNL     1      33.096  -9.912  13.087  1.00  0.00     0.285 C 
ATOM      3  C   UNL     1      30.926 -10.071  13.924  1.00  0.00     0.178 C 
ATOM      4  C   UNL     1      30.761 -11.556  13.524  1.00  0.00     0.177 C 
ATOM      5  O   UNL     1      31.773  -9.402  13.005  1.00  0.00    -0.341 OA
ATOM      6  C   UNL     1      32.153 -12.217  13.482  1.00  0.00     0.179 C 
ATOM      7  C   UNL     1      33.131 -11.381  12.626  1.00  0.00     0.202 C 
BRANCH   3   8
ATOM      8  C   UNL     1      29.580  -9.335  14.004  1.00  0.00     0.191 C 
BRANCH   8   9
ATOM      9  O   UNL     1      29.648  -8.085  13.368  1.00  0.00    -0.394 OA
ATOM     10  H   UNL     1      29.614  -8.252  12.390  1.00  0.00     0.210 HD
ENDBRANCH   8   9
ENDBRANCH   3   8
BRANCH   4  11
ATOM     11  O   UNL     1      30.142 -11.652  12.265  1.00  0.00    -0.387 OA
ATOM     12  H   UNL     1      30.159 -12.611  12.005  1.00  0.00     0.211 HD
ENDBRANCH   4  11
BRANCH   6  13
ATOM     13  O   UNL     1      32.048 -13.527  12.986  1.00  0.00    -0.387 OA
ATOM     14  H   UNL     1      32.329 -14.134  13.720  1.00  0.00     0.211 HD
ENDBRANCH   6  13
BRANCH   7  15
ATOM     15  O   UNL     1      32.787 -11.452  11.264  1.00  0.00    -0.385 OA
ATOM     16  H   UNL     1      32.274 -12.294  11.141  1.00  0.00     0.211 HD
ENDBRANCH   7  15
ENDBRANCH   1   2
BRANCH   1  17
ATOM     17  C   UNL     1      33.684  -7.746  12.286  1.00  0.00     0.224 C 
ATOM     18  C   UNL     1      34.876  -7.039  11.605  1.00  0.00     0.208 C 
ATOM     19  O   UNL     1      32.504  -7.387  11.578  1.00  0.00    -0.337 OA
ATOM     20  C   UNL     1      34.227  -5.909  10.854  1.00  0.00     0.180 C 
ATOM     21  C   UNL     1      32.851  -6.487  10.550  1.00  0.00     0.179 C 
BRANCH  17  22
ATOM     22  C   UNL     1      33.515  -7.328  13.766  1.00  0.00     0.225 C 
BRANCH  22  23
ATOM     23  O   UNL     1      32.206  -6.889  14.011  1.00  0.00    -0.391 OA
ATOM     24  H   UNL     1      32.080  -6.936  14.994  1.00  0.00     0.210 HD
ENDBRANCH  22  23
ENDBRANCH  17  22
BRANCH  18  25
ATOM     25  O   UNL     1      35.833  -6.567  12.520  1.00  0.00    -0.385 OA
ATOM     26  H   UNL     1      36.216  -7.369  12.963  1.00  0.00     0.211 HD
ENDBRANCH  18  25
BRANCH  20  27
ATOM     27  O   UNL     1      34.937  -5.622   9.677  1.00  0.00    -0.387 OA
ATOM     28  H   UNL     1      34.260  -5.410   8.985  1.00  0.00     0.211 HD
ENDBRANCH  20  27
BRANCH  21  29
ATOM     29  C   UNL     1      31.783  -5.391  10.434  1.00  0.00     0.191 C 
BRANCH  29  30
ATOM     30  O   UNL     1      32.088  -4.525   9.373  1.00  0.00    -0.394 OA
ATOM     31  H   UNL     1      33.067  -4.360   9.410  1.00  0.00     0.210 HD
ENDBRANCH  29  30
ENDBRANCH  21  29
ENDBRANCH   1  17
TORSDOF 13
ENDMDL
MODEL 7
REMARK VINA RESULT:    -4.022     11.576     15.203
REMARK INTER + INTRA:          -7.269
REMARK INTER:                  -6.362
REMARK INTRA:                  -0.907
REMARK UNBOUND:                -1.131
REMARK SMILES OC[C@@H]1O[C@H](O[C@]2(CO)O[C@@H](CO)[C@H](O)[C@H]2O)[C@H](O)[C@H](O)[C@@H]1O
REMARK SMILES IDX 6 1 5 2 3 3 22 4 4 5 20 6 18 7 2 8 1 9 23 11 21 13 19 15
REMARK SMILES IDX 7 17 16 18 10 19 14 20 11 21 8 22 9 23 17 25 15 27 12 29
REMARK SMILES IDX 13 30
REMARK H PARENT 1 10 23 12 21 14 19 16 9 24 17 26 15 28 13 31
REMARK Flexibility Score: inf
ROOT
ATOM      1  O   UNL     1      33.730  -2.017  -2.658  1.00  0.00    -0.313 OA
ENDROOT
BRANCH   1   2
ATOM      2  C   UNL     1      33.538  -2.264  -1.276  1.00  0.00     0.285 C 
ATOM      3  C   UNL     1      34.411  -3.406   0.561  1.00  0.00     0.178 C 
ATOM      4  C   UNL     1      34.457  -2.149   1.461  1.00  0.00     0.177 C 
ATOM      5  O   UNL     1      34.619  -3.050  -0.796  1.00  0.00    -0.341 OA
ATOM      6  C   UNL     1      33.380  -1.155   0.984  1.00  0.00     0.179 C 
ATOM      7  C   UNL     1      33.494  -0.912  -0.538  1.00  0.00     0.202 C 
BRANCH   3   8
ATOM      8  C   UNL     1      35.447  -4.461   0.975  1.00  0.00     0.191 C 
BRANCH   8   9
ATOM      9  O   UNL     1      35.608  -4.492   2.370  1.00  0.00    -0.394 OA
ATOM     10  H   UNL     1      36.120  -5.315   2.587  1.00  0.00     0.210 HD
ENDBRANCH   8   9
ENDBRANCH   3   8
BRANCH   4  11
ATOM     11  O   UNL     1      35.729  -1.553   1.394  1.00  0.00    -0.387 OA
ATOM     12  H   UNL     1      35.916  -1.165   2.290  1.00  0.00     0.211 HD
ENDBRANCH   4  11
BRANCH   6  13
ATOM     13  O   UNL     1      33.492   0.052   1.693  1.00  0.00    -0.387 OA
ATOM     14  H   UNL     1      34.086   0.643   1.160  1.00  0.00     0.211 HD
ENDBRANCH   6  13
BRANCH   7  15
ATOM     15  O   UNL     1      34.655  -0.177  -0.839  1.00  0.00    -0.385 OA
ATOM     16  H   UNL     1      35.360  -0.835  -1.073  1.00  0.00     0.211 HD
ENDBRANCH   7  15
ENDBRANCH   1   2
BRANCH   1  17
ATOM     17  C   UNL     1      33.072  -2.958  -3.507  1.00  0.00     0.224 C 
ATOM     18  C   UNL     1      32.750  -4.204  -2.654  1.00  0.00     0.208 C 
ATOM     19  O   UNL     1      31.845  -2.451  -4.016  1.00  0.00    -0.337 OA
ATOM     20  C   UNL     1      31.395  -4.625  -3.151  1.00  0.00     0.180 C 
ATOM     21  C   UNL     1      30.798  -3.295  -3.593  1.00  0.00     0.179 C 
BRANCH  17  22
ATOM     22  C   UNL     1      34.002  -3.282  -4.701  1.00  0.00     0.225 C 
BRANCH  22  23
ATOM     23  O   UNL     1      35.332  -3.401  -4.275  1.00  0.00    -0.391 OA
ATOM     24  H   UNL     1      35.439  -4.340  -3.967  1.00  0.00     0.210 HD
ENDBRANCH  22  23
ENDBRANCH  17  22
BRANCH  18  25
ATOM     25  O   UNL     1      33.696  -5.233  -2.801  1.00  0.00    -0.385 OA
ATOM     26  H   UNL     1      34.340  -4.925  -3.490  1.00  0.00     0.211 HD
ENDBRANCH  18  25
BRANCH  20  27
ATOM     27  O   UNL     1      30.645  -5.209  -2.118  1.00  0.00    -0.387 OA
ATOM     28  H   UNL     1      31.291  -5.691  -1.539  1.00  0.00     0.211 HD
ENDBRANCH  20  27
BRANCH  21  29
ATOM     29  C   UNL     1      29.781  -3.474  -4.728  1.00  0.00     0.191 C 
BRANCH  29  30
ATOM     30  O   UNL     1      28.478  -3.261  -4.253  1.00  0.00    -0.394 OA
ATOM     31  H   UNL     1      28.359  -3.857  -3.467  1.00  0.00     0.210 HD
ENDBRANCH  29  30
ENDBRANCH  21  29
ENDBRANCH   1  17
TORSDOF 13
ENDMDL
MODEL 8
REMARK VINA RESULT:    -3.961      3.340      7.629
REMARK INTER + INTRA:          -7.176
REMARK INTER:                  -6.079
REMARK INTRA:                  -1.097
REMARK UNBOUND:                -1.131
REMARK SMILES OC[C@@H]1O[C@H](O[C@]2(CO)O[C@@H](CO)[C@H](O)[C@H]2O)[C@H](O)[C@H](O)[C@@H]1O
REMARK SMILES IDX 6 1 5 2 3 3 22 4 4 5 20 6 18 7 2 8 1 9 23 11 21 13 19 15
REMARK SMILES IDX 7 17 16 18 10 19 14 20 11 21 8 22 9 23 17 25 15 27 12 29
REMARK SMILES IDX 13 30
REMARK H PARENT 1 10 23 12 21 14 19 16 9 24 17 26 15 28 13 31
REMARK Flexibility Score: inf
ROOT
ATOM      1  O   UNL     1      36.246  -4.126   9.592  1.00  0.00    -0.313 OA
ENDROOT
BRANCH   1   2
ATOM      2  C   UNL     1      35.046  -4.383  10.302  1.00  0.00     0.285 C 
ATOM      3  C   UNL     1      32.722  -4.294  10.143  1.00  0.00     0.178 C 
ATOM      4  C   UNL     1      32.524  -5.764  10.582  1.00  0.00     0.177 C 
ATOM      5  O   UNL     1      33.943  -4.148   9.439  1.00  0.00    -0.341 OA
ATOM      6  C   UNL     1      33.717  -6.185  11.462  1.00  0.00     0.179 C 
ATOM      7  C   UNL     1      35.057  -5.852  10.766  1.00  0.00     0.202 C 
BRANCH   3   8
ATOM      8  C   UNL     1      31.566  -3.785   9.269  1.00  0.00     0.191 C 
BRANCH   8   9
ATOM      9  O   UNL     1      30.891  -2.721   9.891  1.00  0.00    -0.394 OA
ATOM     10  H   UNL     1      30.280  -3.118  10.565  1.00  0.00     0.210 HD
ENDBRANCH   8   9
ENDBRANCH   3   8
BRANCH   4  11
ATOM     11  O   UNL     1      32.437  -6.598   9.454  1.00  0.00    -0.387 OA
ATOM     12  H   UNL     1      32.108  -7.481   9.769  1.00  0.00     0.211 HD
ENDBRANCH   4  11
BRANCH   6  13
ATOM     13  O   UNL     1      33.636  -7.555  11.759  1.00  0.00    -0.387 OA
ATOM     14  H   UNL     1      34.436  -7.984  11.356  1.00  0.00     0.211 HD
ENDBRANCH   6  13
BRANCH   7  15
ATOM     15  O   UNL     1      35.264  -6.692   9.657  1.00  0.00    -0.385 OA
ATOM     16  H   UNL     1      35.431  -7.603  10.014  1.00  0.00     0.211 HD
ENDBRANCH   7  15
ENDBRANCH   1   2
BRANCH   1  17
ATOM     17  C   UNL     1      37.307  -3.638  10.413  1.00  0.00     0.224 C 
ATOM     18  C   UNL     1      37.894  -2.391   9.716  1.00  0.00     0.208 C 
ATOM     19  O   UNL     1      36.848  -3.242  11.699  1.00  0.00    -0.337 OA
ATOM     20  C   UNL     1      38.193  -1.463  10.860  1.00  0.00     0.180 C 
ATOM     21  C   UNL     1      37.139  -1.874  11.880  1.00  0.00     0.179 C 
BRANCH  17  22
ATOM     22  C   UNL     1      38.353  -4.764  10.590  1.00  0.00     0.225 C 
BRANCH  22  23
ATOM     23  O   UNL     1      38.289  -5.674   9.525  1.00  0.00    -0.391 OA
ATOM     24  H   UNL     1      38.090  -5.135   8.715  1.00  0.00     0.210 HD
ENDBRANCH  22  23
ENDBRANCH  17  22
BRANCH  18  25
ATOM     25  O   UNL     1      39.048  -2.671   8.965  1.00  0.00    -0.385 OA
ATOM     26  H   UNL     1      39.752  -2.053   9.290  1.00  0.00     0.211 HD
ENDBRANCH  18  25
BRANCH  20  27
ATOM     27  O   UNL     1      38.036  -0.124  10.468  1.00  0.00    -0.387 OA
ATOM     28  H   UNL     1      37.411  -0.128   9.698  1.00  0.00     0.211 HD
ENDBRANCH  20  27
BRANCH  21  29
ATOM     29  C   UNL     1      37.607  -1.626  13.320  1.00  0.00     0.191 C 
BRANCH  29  30
ATOM     30  O   UNL     1      38.795  -0.881  13.324  1.00  0.00    -0.394 OA
ATOM     31  H   UNL     1      39.380  -1.270  12.621  1.00  0.00     0.210 HD
ENDBRANCH  29  30
ENDBRANCH  21  29
ENDBRANCH   1  17
TORSDOF 13
ENDMDL
MODEL 9
REMARK VINA RESULT:    -3.910      1.747      6.250
REMARK INTER + INTRA:          -7.099
REMARK INTER:                  -6.215
REMARK INTRA:                  -0.884
REMARK UNBOUND:                -1.131
REMARK SMILES OC[C@@H]1O[C@H](O[C@]2(CO)O[C@@H](CO)[C@H](O)[C@H]2O)[C@H](O)[C@H](O)[C@@H]1O
REMARK SMILES IDX 6 1 5 2 3 3 22 4 4 5 20 6 18 7 2 8 1 9 23 11 21 13 19 15
REMARK SMILES IDX 7 17 16 18 10 19 14 20 11 21 8 22 9 23 17 25 15 27 12 29
REMARK SMILES IDX 13 30
REMARK H PARENT 1 10 23 12 21 14 19 16 9 24 17 26 15 28 13 31
REMARK Flexibility Score: inf
ROOT
ATOM      1  O   UNL     1      32.799  -5.488  11.130  1.00  0.00    -0.313 OA
ENDROOT
BRANCH   1   2
ATOM      2  C   UNL     1      32.939  -6.878  11.370  1.00  0.00     0.285 C 
ATOM      3  C   UNL     1      33.817  -8.441  12.861  1.00  0.00     0.178 C 
ATOM      4  C   UNL     1      32.486  -9.216  13.007  1.00  0.00     0.177 C 
ATOM      5  O   UNL     1      33.566  -7.065  12.631  1.00  0.00    -0.341 OA
ATOM      6  C   UNL     1      31.653  -9.018  11.725  1.00  0.00     0.179 C 
ATOM      7  C   UNL     1      31.537  -7.518  11.372  1.00  0.00     0.202 C 
BRANCH   3   8
ATOM      8  C   UNL     1      34.720  -8.595  14.094  1.00  0.00     0.191 C 
BRANCH   8   9
ATOM      9  O   UNL     1      35.754  -7.644  14.086  1.00  0.00    -0.394 OA
ATOM     10  H   UNL     1      36.389  -7.897  14.806  1.00  0.00     0.210 HD
ENDBRANCH   8   9
ENDBRANCH   3   8
BRANCH   4  11
ATOM     11  O   UNL     1      31.773  -8.747  14.124  1.00  0.00    -0.387 OA
ATOM     12  H   UNL     1      32.407  -8.211  14.671  1.00  0.00     0.211 HD
ENDBRANCH   4  11
BRANCH   6  13
ATOM     13  O   UNL     1      30.382  -9.593  11.885  1.00  0.00    -0.387 OA
ATOM     14  H   UNL     1      29.777  -8.870  12.197  1.00  0.00     0.211 HD
ENDBRANCH   6  13
BRANCH   7  15
ATOM     15  O   UNL     1      30.719  -6.849  12.300  1.00  0.00    -0.385 OA
ATOM     16  H   UNL     1      30.789  -7.347  13.156  1.00  0.00     0.211 HD
ENDBRANCH   7  15
ENDBRANCH   1   2
BRANCH   1  17
ATOM     17  C   UNL     1      33.784  -4.956  10.245  1.00  0.00     0.224 C 
ATOM     18  C   UNL     1      34.127  -3.532  10.736  1.00  0.00     0.208 C 
ATOM     19  O   UNL     1      34.984  -5.720  10.258  1.00  0.00    -0.337 OA
ATOM     20  C   UNL     1      35.611  -3.436  10.514  1.00  0.00     0.180 C 
ATOM     21  C   UNL     1      36.045  -4.888  10.669  1.00  0.00     0.179 C 
BRANCH  17  22
ATOM     22  C   UNL     1      33.213  -4.964   8.807  1.00  0.00     0.225 C 
BRANCH  22  23
ATOM     23  O   UNL     1      31.842  -4.671   8.816  1.00  0.00    -0.391 OA
ATOM     24  H   UNL     1      31.391  -5.479   9.177  1.00  0.00     0.210 HD
ENDBRANCH  22  23
ENDBRANCH  17  22
BRANCH  18  25
ATOM     25  O   UNL     1      33.435  -2.527  10.039  1.00  0.00    -0.385 OA
ATOM     26  H   UNL     1      33.844  -2.479   9.136  1.00  0.00     0.211 HD
ENDBRANCH  18  25
BRANCH  20  27
ATOM     27  O   UNL     1      36.206  -2.613  11.484  1.00  0.00    -0.387 OA
ATOM     28  H   UNL     1      36.086  -3.073  12.355  1.00  0.00     0.211 HD
ENDBRANCH  20  27
BRANCH  21  29
ATOM     29  C   UNL     1      37.302  -5.201   9.847  1.00  0.00     0.191 C 
BRANCH  29  30
ATOM     30  O   UNL     1      37.899  -6.385  10.302  1.00  0.00    -0.394 OA
ATOM     31  H   UNL     1      38.267  -6.846   9.502  1.00  0.00     0.210 HD
ENDBRANCH  29  30
ENDBRANCH  21  29
ENDBRANCH   1  17
TORSDOF 13
ENDMDL
