MODEL 1
REMARK VINA RESULT:    44.849      0.000      0.000
REMARK INTER + INTRA:          60.105
REMARK INTER:                  60.580
REMARK INTRA:                  -0.476
REMARK UNBOUND:                -0.476
REMARK SMILES O=c1c(-c2ccc(O)cc2)coc2c([C@@H]3O[C@H](CO)[C@H](O)[C@@H](O)[C@H]3O)c(O)ccc12
REMARK SMILES IDX 3 1 11 2 12 3 13 4 30 5 2 6 1 7 29 8 28 9 26 10 14 11 4 12
REMARK SMILES IDX 5 13 6 14 7 15 10 16 9 17 8 18 15 20 24 21 16 22 22 23 17 24
REMARK SMILES IDX 20 25 25 26 23 28 18 30 19 31 21 33 27 35
REMARK H PARENT 8 19 25 27 23 29 19 32 21 34 27 36
REMARK Flexibility Score: inf
ROOT
ATOM      1  C   UNL     1      34.302  13.172  41.106  1.00  0.00     0.065 A 
ATOM      2  C   UNL     1      34.027  14.170  40.158  1.00  0.00     0.208 A 
ATOM      3  O   UNL     1      34.093  15.454  40.482  1.00  0.00    -0.463 OA
ATOM      4  C   UNL     1      34.418  15.883  41.700  1.00  0.00     0.147 A 
ATOM      5  C   UNL     1      34.710  14.945  42.717  1.00  0.00     0.066 A 
ATOM      6  C   UNL     1      34.658  13.575  42.405  1.00  0.00     0.200 A 
ATOM      7  O   UNL     1      34.946  12.711  43.280  1.00  0.00    -0.288 OA
ATOM      8  C   UNL     1      35.040  15.398  44.004  1.00  0.00     0.020 A 
ATOM      9  C   UNL     1      35.061  16.763  44.283  1.00  0.00     0.047 A 
ATOM     10  C   UNL     1      34.768  17.701  43.285  1.00  0.00     0.125 A 
ATOM     11  C   UNL     1      34.470  17.271  41.972  1.00  0.00     0.069 A 
ENDROOT
BRANCH   1  12
ATOM     12  C   UNL     1      34.216  11.742  40.719  1.00  0.00    -0.011 A 
ATOM     13  C   UNL     1      35.380  11.022  40.399  1.00  0.00     0.013 A 
ATOM     14  C   UNL     1      35.301   9.677  40.027  1.00  0.00     0.047 A 
ATOM     15  C   UNL     1      34.061   9.035  39.965  1.00  0.00     0.115 A 
ATOM     16  C   UNL     1      32.970  11.093  40.649  1.00  0.00     0.013 A 
ATOM     17  C   UNL     1      32.895   9.747  40.276  1.00  0.00     0.047 A 
BRANCH  15  18
ATOM     18  O   UNL     1      33.996   7.695  39.593  1.00  0.00    -0.508 OA
ATOM     19  H   UNL     1      33.404   7.036  40.085  1.00  0.00     0.293 HD
ENDBRANCH  15  18
ENDBRANCH   1  12
BRANCH  11  20
ATOM     20  C   UNL     1      34.122  18.278  40.883  1.00  0.00     0.188 C 
ATOM     21  C   UNL     1      35.158  18.198  39.711  1.00  0.00     0.179 C 
ATOM     22  O   UNL     1      32.785  18.062  40.451  1.00  0.00    -0.362 OA
ATOM     23  C   UNL     1      34.498  17.729  38.393  1.00  0.00     0.177 C 
ATOM     24  C   UNL     1      32.461  18.943  39.391  1.00  0.00     0.176 C 
ATOM     25  C   UNL     1      33.191  18.503  38.086  1.00  0.00     0.177 C 
BRANCH  21  26
ATOM     26  O   UNL     1      35.819  19.429  39.539  1.00  0.00    -0.387 OA
ATOM     27  H   UNL     1      36.728  19.243  39.189  1.00  0.00     0.211 HD
ENDBRANCH  21  26
BRANCH  23  28
ATOM     28  O   UNL     1      35.391  17.868  37.318  1.00  0.00    -0.387 OA
ATOM     29  H   UNL     1      35.633  18.830  37.267  1.00  0.00     0.211 HD
ENDBRANCH  23  28
BRANCH  24  30
ATOM     30  C   UNL     1      30.934  19.015  39.250  1.00  0.00     0.191 C 
BRANCH  30  31
ATOM     31  O   UNL     1      30.589  19.611  38.031  1.00  0.00    -0.394 OA
ATOM     32  H   UNL     1      29.820  19.092  37.678  1.00  0.00     0.210 HD
ENDBRANCH  30  31
ENDBRANCH  24  30
BRANCH  25  33
ATOM     33  O   UNL     1      32.367  17.736  37.241  1.00  0.00    -0.388 OA
ATOM     34  H   UNL     1      32.935  17.374  36.512  1.00  0.00     0.211 HD
ENDBRANCH  25  33
ENDBRANCH  11  20
BRANCH  10  35
ATOM     35  O   UNL     1      34.771  19.058  43.603  1.00  0.00    -0.507 OA
ATOM     36  H   UNL     1      34.152  19.716  43.144  1.00  0.00     0.293 HD
ENDBRANCH  10  35
TORSDOF 9
ENDMDL
