MODEL 1
REMARK VINA RESULT:    -4.307      0.000      0.000
REMARK INTER + INTRA:          -4.749
REMARK INTER:                  -5.062
REMARK INTRA:                   0.313
REMARK UNBOUND:                 0.313
REMARK SMILES O=c1c(O)c(-c2ccc(O)cc2)oc2cc(O)cc(O)c12
REMARK SMILES IDX 5 1 3 2 2 3 1 4 21 5 19 6 18 7 16 8 15 9 14 10 13 11 6 12
REMARK SMILES IDX 7 13 8 14 9 15 12 16 11 17 10 18 4 20 20 22 17 24
REMARK H PARENT 10 19 4 21 20 23 17 25
REMARK Flexibility Score: inf
ROOT
ATOM      1  C   UNL     1      72.886  41.376  20.305  1.00  0.00     0.180 A 
ATOM      2  C   UNL     1      73.485  41.649  19.060  1.00  0.00     0.208 A 
ATOM      3  C   UNL     1      74.883  41.764  18.990  1.00  0.00     0.238 A 
ATOM      4  O   UNL     1      75.432  41.997  17.879  1.00  0.00    -0.285 OA
ATOM      5  C   UNL     1      75.652  41.627  20.164  1.00  0.00     0.111 A 
ATOM      6  C   UNL     1      77.065  41.734  20.180  1.00  0.00     0.134 A 
ATOM      7  C   UNL     1      77.758  41.594  21.391  1.00  0.00     0.093 A 
ATOM      8  C   UNL     1      77.071  41.351  22.582  1.00  0.00     0.123 A 
ATOM      9  C   UNL     1      75.676  41.245  22.571  1.00  0.00     0.094 A 
ATOM     10  C   UNL     1      74.967  41.379  21.376  1.00  0.00     0.146 A 
ATOM     11  O   UNL     1      73.643  41.268  21.393  1.00  0.00    -0.452 OA
ENDROOT
BRANCH   1  12
ATOM     12  C   UNL     1      71.422  41.221  20.456  1.00  0.00     0.021 A 
ATOM     13  C   UNL     1      70.871  40.368  21.428  1.00  0.00     0.016 A 
ATOM     14  C   UNL     1      69.484  40.256  21.569  1.00  0.00     0.047 A 
ATOM     15  C   UNL     1      68.632  41.007  20.747  1.00  0.00     0.115 A 
ATOM     16  C   UNL     1      70.560  41.985  19.650  1.00  0.00     0.016 A 
ATOM     17  C   UNL     1      69.173  41.871  19.792  1.00  0.00     0.047 A 
BRANCH  15  18
ATOM     18  O   UNL     1      67.248  40.903  20.877  1.00  0.00    -0.508 OA
ATOM     19  H   UNL     1      66.777  40.007  20.824  1.00  0.00     0.293 HD
ENDBRANCH  15  18
ENDBRANCH   1  12
BRANCH   2  20
ATOM     20  O   UNL     1      72.697  41.829  17.920  1.00  0.00    -0.502 OA
ATOM     21  H   UNL     1      72.603  41.117  17.206  1.00  0.00     0.293 HD
ENDBRANCH   2  20
BRANCH   6  22
ATOM     22  O   UNL     1      77.780  41.977  19.006  1.00  0.00    -0.507 OA
ATOM     23  H   UNL     1      77.928  41.252  18.314  1.00  0.00     0.293 HD
ENDBRANCH   6  22
BRANCH   8  24
ATOM     24  O   UNL     1      77.784  41.218  23.772  1.00  0.00    -0.508 OA
ATOM     25  H   UNL     1      78.307  40.378  23.985  1.00  0.00     0.293 HD
ENDBRANCH   8  24
TORSDOF 5
ENDMDL
MODEL 2
REMARK VINA RESULT:    -4.037      1.647      7.010
REMARK INTER + INTRA:          -4.432
REMARK INTER:                  -4.814
REMARK INTRA:                   0.382
REMARK UNBOUND:                 0.313
REMARK SMILES O=c1c(O)c(-c2ccc(O)cc2)oc2cc(O)cc(O)c12
REMARK SMILES IDX 5 1 3 2 2 3 1 4 21 5 19 6 18 7 16 8 15 9 14 10 13 11 6 12
REMARK SMILES IDX 7 13 8 14 9 15 12 16 11 17 10 18 4 20 20 22 17 24
REMARK H PARENT 10 19 4 21 20 23 17 25
REMARK Flexibility Score: inf
ROOT
ATOM      1  C   UNL     1      73.932  41.266  20.183  1.00  0.00     0.180 A 
ATOM      2  C   UNL     1      73.658  40.671  21.430  1.00  0.00     0.208 A 
ATOM      3  C   UNL     1      72.321  40.452  21.797  1.00  0.00     0.238 A 
ATOM      4  O   UNL     1      72.063  39.909  22.907  1.00  0.00    -0.285 OA
ATOM      5  C   UNL     1      71.285  40.849  20.927  1.00  0.00     0.111 A 
ATOM      6  C   UNL     1      69.912  40.668  21.224  1.00  0.00     0.134 A 
ATOM      7  C   UNL     1      68.940  41.099  20.309  1.00  0.00     0.093 A 
ATOM      8  C   UNL     1      69.312  41.704  19.107  1.00  0.00     0.123 A 
ATOM      9  C   UNL     1      70.666  41.885  18.808  1.00  0.00     0.094 A 
ATOM     10  C   UNL     1      71.650  41.462  19.705  1.00  0.00     0.146 A 
ATOM     11  O   UNL     1      72.929  41.641  19.395  1.00  0.00    -0.452 OA
ENDROOT
BRANCH   1  12
ATOM     12  C   UNL     1      75.316  41.512  19.717  1.00  0.00     0.021 A 
ATOM     13  C   UNL     1      76.387  41.620  20.622  1.00  0.00     0.016 A 
ATOM     14  C   UNL     1      77.689  41.828  20.157  1.00  0.00     0.047 A 
ATOM     15  C   UNL     1      77.938  41.916  18.780  1.00  0.00     0.115 A 
ATOM     16  C   UNL     1      75.578  41.581  18.338  1.00  0.00     0.016 A 
ATOM     17  C   UNL     1      76.881  41.790  17.875  1.00  0.00     0.047 A 
BRANCH  15  18
ATOM     18  O   UNL     1      79.231  42.125  18.304  1.00  0.00    -0.508 OA
ATOM     19  H   UNL     1      79.950  42.536  18.888  1.00  0.00     0.293 HD
ENDBRANCH  15  18
ENDBRANCH   1  12
BRANCH   2  20
ATOM     20  O   UNL     1      74.701  40.332  22.297  1.00  0.00    -0.502 OA
ATOM     21  H   UNL     1      75.006  39.376  22.430  1.00  0.00     0.293 HD
ENDBRANCH   2  20
BRANCH   6  22
ATOM     22  O   UNL     1      69.508  40.066  22.417  1.00  0.00    -0.507 OA
ATOM     23  H   UNL     1      68.573  39.694  22.536  1.00  0.00     0.293 HD
ENDBRANCH   6  22
BRANCH   8  24
ATOM     24  O   UNL     1      68.327  42.124  18.216  1.00  0.00    -0.508 OA
ATOM     25  H   UNL     1      68.553  42.676  17.397  1.00  0.00     0.293 HD
ENDBRANCH   8  24
TORSDOF 5
ENDMDL
MODEL 3
REMARK VINA RESULT:    -3.944      1.225      2.895
REMARK INTER + INTRA:          -4.322
REMARK INTER:                  -4.688
REMARK INTRA:                   0.365
REMARK UNBOUND:                 0.313
REMARK SMILES O=c1c(O)c(-c2ccc(O)cc2)oc2cc(O)cc(O)c12
REMARK SMILES IDX 5 1 3 2 2 3 1 4 21 5 19 6 18 7 16 8 15 9 14 10 13 11 6 12
REMARK SMILES IDX 7 13 8 14 9 15 12 16 11 17 10 18 4 20 20 22 17 24
REMARK H PARENT 10 19 4 21 20 23 17 25
REMARK Flexibility Score: inf
ROOT
ATOM      1  C   UNL     1      72.426  41.312  20.781  1.00  0.00     0.180 A 
ATOM      2  C   UNL     1      72.916  41.064  22.077  1.00  0.00     0.208 A 
ATOM      3  C   UNL     1      74.302  41.098  22.297  1.00  0.00     0.238 A 
ATOM      4  O   UNL     1      74.752  40.888  23.456  1.00  0.00    -0.285 OA
ATOM      5  C   UNL     1      75.172  41.358  21.218  1.00  0.00     0.111 A 
ATOM      6  C   UNL     1      76.581  41.405  21.354  1.00  0.00     0.134 A 
ATOM      7  C   UNL     1      77.379  41.661  20.230  1.00  0.00     0.093 A 
ATOM      8  C   UNL     1      76.800  41.869  18.977  1.00  0.00     0.123 A 
ATOM      9  C   UNL     1      75.409  41.823  18.837  1.00  0.00     0.094 A 
ATOM     10  C   UNL     1      74.596  41.572  19.944  1.00  0.00     0.146 A 
ATOM     11  O   UNL     1      73.277  41.539  19.785  1.00  0.00    -0.452 OA
ENDROOT
BRANCH   1  12
ATOM     12  C   UNL     1      70.977  41.313  20.474  1.00  0.00     0.021 A 
ATOM     13  C   UNL     1      70.059  40.607  21.271  1.00  0.00     0.016 A 
ATOM     14  C   UNL     1      68.692  40.642  20.977  1.00  0.00     0.047 A 
ATOM     15  C   UNL     1      68.227  41.394  19.889  1.00  0.00     0.115 A 
ATOM     16  C   UNL     1      70.499  42.080  19.398  1.00  0.00     0.016 A 
ATOM     17  C   UNL     1      69.133  42.113  19.105  1.00  0.00     0.047 A 
BRANCH  15  18
ATOM     18  O   UNL     1      66.867  41.435  19.585  1.00  0.00    -0.508 OA
ATOM     19  H   UNL     1      66.537  41.377  18.628  1.00  0.00     0.293 HD
ENDBRANCH  15  18
ENDBRANCH   1  12
BRANCH   2  20
ATOM     20  O   UNL     1      72.036  40.760  23.120  1.00  0.00    -0.502 OA
ATOM     21  H   UNL     1      71.034  40.876  23.035  1.00  0.00     0.293 HD
ENDBRANCH   2  20
BRANCH   6  22
ATOM     22  O   UNL     1      77.190  41.202  22.593  1.00  0.00    -0.507 OA
ATOM     23  H   UNL     1      78.128  41.533  22.786  1.00  0.00     0.293 HD
ENDBRANCH   6  22
BRANCH   8  24
ATOM     24  O   UNL     1      77.616  42.119  17.875  1.00  0.00    -0.508 OA
ATOM     25  H   UNL     1      77.261  42.060  16.928  1.00  0.00     0.293 HD
ENDBRANCH   8  24
TORSDOF 5
ENDMDL
MODEL 4
REMARK VINA RESULT:    -3.739      1.432      3.132
REMARK INTER + INTRA:          -4.082
REMARK INTER:                  -4.551
REMARK INTRA:                   0.469
REMARK UNBOUND:                 0.313
REMARK SMILES O=c1c(O)c(-c2ccc(O)cc2)oc2cc(O)cc(O)c12
REMARK SMILES IDX 5 1 3 2 2 3 1 4 21 5 19 6 18 7 16 8 15 9 14 10 13 11 6 12
REMARK SMILES IDX 7 13 8 14 9 15 12 16 11 17 10 18 4 20 20 22 17 24
REMARK H PARENT 10 19 4 21 20 23 17 25
REMARK Flexibility Score: inf
ROOT
ATOM      1  C   UNL     1      73.663  41.636  20.415  1.00  0.00     0.180 A 
ATOM      2  C   UNL     1      74.046  41.308  21.730  1.00  0.00     0.208 A 
ATOM      3  C   UNL     1      75.413  41.227  22.038  1.00  0.00     0.238 A 
ATOM      4  O   UNL     1      75.768  40.945  23.215  1.00  0.00    -0.285 OA
ATOM      5  C   UNL     1      76.370  41.451  21.027  1.00  0.00     0.111 A 
ATOM      6  C   UNL     1      77.766  41.383  21.254  1.00  0.00     0.134 A 
ATOM      7  C   UNL     1      78.655  41.611  20.192  1.00  0.00     0.093 A 
ATOM      8  C   UNL     1      78.177  41.904  18.914  1.00  0.00     0.123 A 
ATOM      9  C   UNL     1      76.799  41.972  18.684  1.00  0.00     0.094 A 
ATOM     10  C   UNL     1      75.897  41.751  19.728  1.00  0.00     0.146 A 
ATOM     11  O   UNL     1      74.593  41.827  19.483  1.00  0.00    -0.452 OA
ENDROOT
BRANCH   1  12
ATOM     12  C   UNL     1      72.243  41.761  20.017  1.00  0.00     0.021 A 
ATOM     13  C   UNL     1      71.845  41.647  18.672  1.00  0.00     0.016 A 
ATOM     14  C   UNL     1      70.494  41.743  18.323  1.00  0.00     0.047 A 
ATOM     15  C   UNL     1      69.524  41.941  19.315  1.00  0.00     0.115 A 
ATOM     16  C   UNL     1      71.261  41.939  21.006  1.00  0.00     0.016 A 
ATOM     17  C   UNL     1      69.911  42.036  20.654  1.00  0.00     0.047 A 
BRANCH  15  18
ATOM     18  O   UNL     1      68.175  42.040  18.979  1.00  0.00    -0.508 OA
ATOM     19  H   UNL     1      67.750  42.932  18.753  1.00  0.00     0.293 HD
ENDBRANCH  15  18
ENDBRANCH   1  12
BRANCH   2  20
ATOM     20  O   UNL     1      73.078  41.042  22.702  1.00  0.00    -0.502 OA
ATOM     21  H   UNL     1      73.294  40.559  23.565  1.00  0.00     0.293 HD
ENDBRANCH   2  20
BRANCH   6  22
ATOM     22  O   UNL     1      78.275  41.093  22.520  1.00  0.00    -0.507 OA
ATOM     23  H   UNL     1      77.672  41.011  23.331  1.00  0.00     0.293 HD
ENDBRANCH   6  22
BRANCH   8  24
ATOM     24  O   UNL     1      79.081  42.124  17.876  1.00  0.00    -0.508 OA
ATOM     25  H   UNL     1      78.853  42.725  17.093  1.00  0.00     0.293 HD
ENDBRANCH   8  24
TORSDOF 5
ENDMDL
MODEL 5
REMARK VINA RESULT:    -2.879      1.953      3.672
REMARK INTER + INTRA:          -3.071
REMARK INTER:                  -2.773
REMARK INTRA:                  -0.298
REMARK UNBOUND:                 0.313
REMARK SMILES O=c1c(O)c(-c2ccc(O)cc2)oc2cc(O)cc(O)c12
REMARK SMILES IDX 5 1 3 2 2 3 1 4 21 5 19 6 18 7 16 8 15 9 14 10 13 11 6 12
REMARK SMILES IDX 7 13 8 14 9 15 12 16 11 17 10 18 4 20 20 22 17 24
REMARK H PARENT 10 19 4 21 20 23 17 25
REMARK Flexibility Score: inf
ROOT
ATOM      1  C   UNL     1      74.502  40.608  21.906  1.00  0.00     0.180 A 
ATOM      2  C   UNL     1      75.245  40.340  23.072  1.00  0.00     0.208 A 
ATOM      3  C   UNL     1      76.638  40.507  23.042  1.00  0.00     0.238 A 
ATOM      4  O   UNL     1      77.314  40.280  24.083  1.00  0.00    -0.285 OA
ATOM      5  C   UNL     1      77.265  40.916  21.847  1.00  0.00     0.111 A 
ATOM      6  C   UNL     1      78.665  41.103  21.732  1.00  0.00     0.134 A 
ATOM      7  C   UNL     1      79.213  41.504  20.504  1.00  0.00     0.093 A 
ATOM      8  C   UNL     1      78.395  41.720  19.394  1.00  0.00     0.123 A 
ATOM      9  C   UNL     1      77.012  41.537  19.503  1.00  0.00     0.094 A 
ATOM     10  C   UNL     1      76.445  41.140  20.716  1.00  0.00     0.146 A 
ATOM     11  O   UNL     1      75.129  40.978  20.793  1.00  0.00    -0.452 OA
ENDROOT
BRANCH   1  12
ATOM     12  C   UNL     1      73.028  40.474  21.864  1.00  0.00     0.021 A 
ATOM     13  C   UNL     1      72.184  41.553  22.181  1.00  0.00     0.016 A 
ATOM     14  C   UNL     1      70.795  41.410  22.111  1.00  0.00     0.047 A 
ATOM     15  C   UNL     1      70.233  40.190  21.710  1.00  0.00     0.115 A 
ATOM     16  C   UNL     1      72.457  39.261  21.444  1.00  0.00     0.016 A 
ATOM     17  C   UNL     1      71.067  39.120  21.376  1.00  0.00     0.047 A 
BRANCH  15  18
ATOM     18  O   UNL     1      68.850  40.035  21.638  1.00  0.00    -0.508 OA
ATOM     19  H   UNL     1      68.320  40.373  20.844  1.00  0.00     0.293 HD
ENDBRANCH  15  18
ENDBRANCH   1  12
BRANCH   2  20
ATOM     20  O   UNL     1      74.606  39.887  24.229  1.00  0.00    -0.502 OA
ATOM     21  H   UNL     1      75.044  39.243  24.875  1.00  0.00     0.293 HD
ENDBRANCH   2  20
BRANCH   6  22
ATOM     22  O   UNL     1      79.509  40.896  22.823  1.00  0.00    -0.507 OA
ATOM     23  H   UNL     1      79.148  40.792  23.764  1.00  0.00     0.293 HD
ENDBRANCH   6  22
BRANCH   8  24
ATOM     24  O   UNL     1      78.965  42.116  18.186  1.00  0.00    -0.508 OA
ATOM     25  H   UNL     1      79.216  41.442  17.473  1.00  0.00     0.293 HD
ENDBRANCH   8  24
TORSDOF 5
ENDMDL
MODEL 6
REMARK VINA RESULT:    -2.321      1.234      6.458
REMARK INTER + INTRA:          -2.416
REMARK INTER:                  -2.884
REMARK INTRA:                   0.469
REMARK UNBOUND:                 0.313
REMARK SMILES O=c1c(O)c(-c2ccc(O)cc2)oc2cc(O)cc(O)c12
REMARK SMILES IDX 5 1 3 2 2 3 1 4 21 5 19 6 18 7 16 8 15 9 14 10 13 11 6 12
REMARK SMILES IDX 7 13 8 14 9 15 12 16 11 17 10 18 4 20 20 22 17 24
REMARK H PARENT 10 19 4 21 20 23 17 25
REMARK Flexibility Score: inf
ROOT
ATOM      1  C   UNL     1      73.501  41.211  21.043  1.00  0.00     0.180 A 
ATOM      2  C   UNL     1      73.438  41.660  19.710  1.00  0.00     0.208 A 
ATOM      3  C   UNL     1      72.189  41.714  19.070  1.00  0.00     0.238 A 
ATOM      4  O   UNL     1      72.118  42.125  17.880  1.00  0.00    -0.285 OA
ATOM      5  C   UNL     1      71.033  41.299  19.764  1.00  0.00     0.111 A 
ATOM      6  C   UNL     1      69.738  41.318  19.190  1.00  0.00     0.134 A 
ATOM      7  C   UNL     1      68.638  40.881  19.943  1.00  0.00     0.093 A 
ATOM      8  C   UNL     1      68.806  40.427  21.252  1.00  0.00     0.123 A 
ATOM      9  C   UNL     1      70.083  40.406  21.824  1.00  0.00     0.094 A 
ATOM     10  C   UNL     1      71.191  40.839  21.092  1.00  0.00     0.146 A 
ATOM     11  O   UNL     1      72.392  40.814  21.660  1.00  0.00    -0.452 OA
ENDROOT
BRANCH   1  12
ATOM     12  C   UNL     1      74.777  41.144  21.791  1.00  0.00     0.021 A 
ATOM     13  C   UNL     1      74.925  40.314  22.917  1.00  0.00     0.016 A 
ATOM     14  C   UNL     1      76.147  40.249  23.592  1.00  0.00     0.047 A 
ATOM     15  C   UNL     1      77.240  41.001  23.142  1.00  0.00     0.115 A 
ATOM     16  C   UNL     1      75.884  41.879  21.334  1.00  0.00     0.016 A 
ATOM     17  C   UNL     1      77.105  41.812  22.012  1.00  0.00     0.047 A 
BRANCH  15  18
ATOM     18  O   UNL     1      78.463  40.945  23.808  1.00  0.00    -0.508 OA
ATOM     19  H   UNL     1      78.693  41.597  24.549  1.00  0.00     0.293 HD
ENDBRANCH  15  18
ENDBRANCH   1  12
BRANCH   2  20
ATOM     20  O   UNL     1      74.604  42.017  19.028  1.00  0.00    -0.502 OA
ATOM     21  H   UNL     1      74.623  42.757  18.336  1.00  0.00     0.293 HD
ENDBRANCH   2  20
BRANCH   6  22
ATOM     22  O   UNL     1      69.537  41.767  17.884  1.00  0.00    -0.507 OA
ATOM     23  H   UNL     1      68.917  42.541  17.676  1.00  0.00     0.293 HD
ENDBRANCH   6  22
BRANCH   8  24
ATOM     24  O   UNL     1      67.697  39.996  21.978  1.00  0.00    -0.508 OA
ATOM     25  H   UNL     1      66.886  40.589  22.108  1.00  0.00     0.293 HD
ENDBRANCH   8  24
TORSDOF 5
ENDMDL
