MODEL 1
REMARK VINA RESULT:    -3.439      0.000      0.000
REMARK INTER + INTRA:          -7.374
REMARK INTER:                  -6.355
REMARK INTRA:                  -1.019
REMARK UNBOUND:                -1.019
REMARK SMILES CCCCCCCCCCCCCCCCO
REMARK SMILES IDX 9 1 8 2 7 3 6 4 5 5 4 6 3 7 2 8 1 9 10 10 11 11 12 12 13 13
REMARK SMILES IDX 14 14 15 15 16 16 17 17
REMARK H PARENT 17 18
REMARK Flexibility Score: inf
ROOT
ATOM      1  C   UNL     1     140.666 138.742 142.796  1.00  0.00     0.000 C 
ENDROOT
BRANCH   1   2
ATOM      2  C   UNL     1     139.533 137.704 142.820  1.00  0.00    -0.000 C 
BRANCH   2   3
ATOM      3  C   UNL     1     139.838 136.516 143.750  1.00  0.00    -0.000 C 
BRANCH   3   4
ATOM      4  C   UNL     1     139.854 135.173 142.988  1.00  0.00    -0.000 C 
BRANCH   4   5
ATOM      5  C   UNL     1     139.956 135.330 141.462  1.00  0.00    -0.000 C 
BRANCH   5   6
ATOM      6  C   UNL     1     141.314 134.871 140.905  1.00  0.00    -0.000 C 
BRANCH   6   7
ATOM      7  C   UNL     1     141.626 133.397 141.226  1.00  0.00    -0.000 C 
BRANCH   7   8
ATOM      8  C   UNL     1     140.730 132.370 140.511  1.00  0.00    -0.003 C 
ATOM      9  C   UNL     1     140.729 132.530 138.991  1.00  0.00     0.004 C 
ENDBRANCH   7   8
ENDBRANCH   6   7
ENDBRANCH   5   6
ENDBRANCH   4   5
ENDBRANCH   3   4
ENDBRANCH   2   3
ENDBRANCH   1   2
BRANCH   1  10
ATOM     10  C   UNL     1     141.843 138.353 143.709  1.00  0.00     0.000 C 
BRANCH  10  11
ATOM     11  C   UNL     1     143.072 139.254 143.502  1.00  0.00     0.000 C 
BRANCH  11  12
ATOM     12  C   UNL     1     144.048 139.200 144.687  1.00  0.00     0.000 C 
BRANCH  12  13
ATOM     13  C   UNL     1     145.493 139.417 144.218  1.00  0.00     0.000 C 
BRANCH  13  14
ATOM     14  C   UNL     1     145.579 139.409 142.684  1.00  0.00     0.002 C 
BRANCH  14  15
ATOM     15  C   UNL     1     146.996 139.707 142.169  1.00  0.00     0.028 C 
BRANCH  15  16
ATOM     16  C   UNL     1     147.804 138.435 141.887  1.00  0.00     0.156 C 
BRANCH  16  17
ATOM     17  O   UNL     1     147.064 137.566 141.073  1.00  0.00    -0.396 OA
ATOM     18  H   UNL     1     146.796 138.084 140.270  1.00  0.00     0.210 HD
ENDBRANCH  16  17
ENDBRANCH  15  16
ENDBRANCH  14  15
ENDBRANCH  13  14
ENDBRANCH  12  13
ENDBRANCH  11  12
ENDBRANCH  10  11
ENDBRANCH   1  10
TORSDOF 15
ENDMDL
MODEL 2
REMARK VINA RESULT:    -3.407      4.771      7.660
REMARK INTER + INTRA:          -7.313
REMARK INTER:                  -5.215
REMARK INTRA:                  -2.098
REMARK UNBOUND:                -1.019
REMARK SMILES CCCCCCCCCCCCCCCCO
REMARK SMILES IDX 9 1 8 2 7 3 6 4 5 5 4 6 3 7 2 8 1 9 10 10 11 11 12 12 13 13
REMARK SMILES IDX 14 14 15 15 16 16 17 17
REMARK H PARENT 17 18
REMARK Flexibility Score: inf
ROOT
ATOM      1  C   UNL     1     139.986 138.497 140.882  1.00  0.00     0.000 C 
ENDROOT
BRANCH   1   2
ATOM      2  C   UNL     1     140.475 137.095 141.272  1.00  0.00    -0.000 C 
BRANCH   2   3
ATOM      3  C   UNL     1     139.429 136.306 142.080  1.00  0.00    -0.000 C 
BRANCH   3   4
ATOM      4  C   UNL     1     139.957 135.901 143.474  1.00  0.00    -0.000 C 
BRANCH   4   5
ATOM      5  C   UNL     1     139.142 136.491 144.637  1.00  0.00    -0.000 C 
BRANCH   5   6
ATOM      6  C   UNL     1     139.689 137.843 145.122  1.00  0.00    -0.000 C 
BRANCH   6   7
ATOM      7  C   UNL     1     141.213 137.973 144.946  1.00  0.00    -0.000 C 
BRANCH   7   8
ATOM      8  C   UNL     1     141.685 139.290 144.305  1.00  0.00    -0.003 C 
ATOM      9  C   UNL     1     142.875 139.106 143.362  1.00  0.00     0.004 C 
ENDBRANCH   7   8
ENDBRANCH   6   7
ENDBRANCH   5   6
ENDBRANCH   4   5
ENDBRANCH   3   4
ENDBRANCH   2   3
ENDBRANCH   1   2
BRANCH   1  10
ATOM     10  C   UNL     1     138.771 138.952 141.712  1.00  0.00     0.000 C 
BRANCH  10  11
ATOM     11  C   UNL     1     138.872 140.421 142.150  1.00  0.00     0.000 C 
BRANCH  11  12
ATOM     12  C   UNL     1     138.179 140.684 143.496  1.00  0.00     0.000 C 
BRANCH  12  13
ATOM     13  C   UNL     1     137.452 142.035 143.483  1.00  0.00     0.000 C 
BRANCH  13  14
ATOM     14  C   UNL     1     136.002 141.874 143.000  1.00  0.00     0.002 C 
BRANCH  14  15
ATOM     15  C   UNL     1     135.786 142.430 141.584  1.00  0.00     0.028 C 
BRANCH  15  16
ATOM     16  C   UNL     1     134.413 143.093 141.411  1.00  0.00     0.156 C 
BRANCH  16  17
ATOM     17  O   UNL     1     134.540 144.278 140.674  1.00  0.00    -0.396 OA
ATOM     18  H   UNL     1     133.763 144.315 140.057  1.00  0.00     0.210 HD
ENDBRANCH  16  17
ENDBRANCH  15  16
ENDBRANCH  14  15
ENDBRANCH  13  14
ENDBRANCH  12  13
ENDBRANCH  11  12
ENDBRANCH  10  11
ENDBRANCH   1  10
TORSDOF 15
ENDMDL
MODEL 3
REMARK VINA RESULT:    -3.394      7.157     10.565
REMARK INTER + INTRA:          -7.289
REMARK INTER:                  -5.695
REMARK INTRA:                  -1.594
REMARK UNBOUND:                -1.019
REMARK SMILES CCCCCCCCCCCCCCCCO
REMARK SMILES IDX 9 1 8 2 7 3 6 4 5 5 4 6 3 7 2 8 1 9 10 10 11 11 12 12 13 13
REMARK SMILES IDX 14 14 15 15 16 16 17 17
REMARK H PARENT 17 18
REMARK Flexibility Score: inf
ROOT
ATOM      1  C   UNL     1     139.202 141.419 142.537  1.00  0.00     0.000 C 
ENDROOT
BRANCH   1   2
ATOM      2  C   UNL     1     139.365 142.885 142.111  1.00  0.00    -0.000 C 
BRANCH   2   3
ATOM      3  C   UNL     1     140.759 143.182 141.531  1.00  0.00    -0.000 C 
BRANCH   3   4
ATOM      4  C   UNL     1     141.750 143.659 142.616  1.00  0.00    -0.000 C 
BRANCH   4   5
ATOM      5  C   UNL     1     141.257 144.884 143.405  1.00  0.00    -0.000 C 
BRANCH   5   6
ATOM      6  C   UNL     1     142.065 146.155 143.096  1.00  0.00    -0.000 C 
BRANCH   6   7
ATOM      7  C   UNL     1     141.919 146.620 141.635  1.00  0.00    -0.000 C 
BRANCH   7   8
ATOM      8  C   UNL     1     140.474 146.884 141.176  1.00  0.00    -0.003 C 
ATOM      9  C   UNL     1     139.989 148.296 141.507  1.00  0.00     0.004 C 
ENDBRANCH   7   8
ENDBRANCH   6   7
ENDBRANCH   5   6
ENDBRANCH   4   5
ENDBRANCH   3   4
ENDBRANCH   2   3
ENDBRANCH   1   2
BRANCH   1  10
ATOM     10  C   UNL     1     138.806 141.273 144.017  1.00  0.00     0.000 C 
BRANCH  10  11
ATOM     11  C   UNL     1     138.445 142.618 144.667  1.00  0.00     0.000 C 
BRANCH  11  12
ATOM     12  C   UNL     1     136.930 142.793 144.860  1.00  0.00     0.000 C 
BRANCH  12  13
ATOM     13  C   UNL     1     136.217 141.435 144.856  1.00  0.00     0.000 C 
BRANCH  13  14
ATOM     14  C   UNL     1     135.123 141.392 143.778  1.00  0.00     0.002 C 
BRANCH  14  15
ATOM     15  C   UNL     1     135.451 142.280 142.567  1.00  0.00     0.028 C 
BRANCH  15  16
ATOM     16  C   UNL     1     134.197 142.860 141.900  1.00  0.00     0.156 C 
BRANCH  16  17
ATOM     17  O   UNL     1     134.531 144.003 141.161  1.00  0.00    -0.396 OA
ATOM     18  H   UNL     1     133.917 144.725 141.458  1.00  0.00     0.210 HD
ENDBRANCH  16  17
ENDBRANCH  15  16
ENDBRANCH  14  15
ENDBRANCH  13  14
ENDBRANCH  12  13
ENDBRANCH  11  12
ENDBRANCH  10  11
ENDBRANCH   1  10
TORSDOF 15
ENDMDL
MODEL 4
REMARK VINA RESULT:    -3.380      5.520      7.859
REMARK INTER + INTRA:          -7.264
REMARK INTER:                  -6.079
REMARK INTRA:                  -1.185
REMARK UNBOUND:                -1.019
REMARK SMILES CCCCCCCCCCCCCCCCO
REMARK SMILES IDX 9 1 8 2 7 3 6 4 5 5 4 6 3 7 2 8 1 9 10 10 11 11 12 12 13 13
REMARK SMILES IDX 14 14 15 15 16 16 17 17
REMARK H PARENT 17 18
REMARK Flexibility Score: inf
ROOT
ATOM      1  C   UNL     1     143.608 141.556 142.286  1.00  0.00     0.000 C 
ENDROOT
BRANCH   1   2
ATOM      2  C   UNL     1     144.185 140.176 141.934  1.00  0.00    -0.000 C 
BRANCH   2   3
ATOM      3  C   UNL     1     144.933 139.529 143.113  1.00  0.00    -0.000 C 
BRANCH   3   4
ATOM      4  C   UNL     1     146.440 139.868 143.100  1.00  0.00    -0.000 C 
BRANCH   4   5
ATOM      5  C   UNL     1     147.238 139.087 142.043  1.00  0.00    -0.000 C 
BRANCH   5   6
ATOM      6  C   UNL     1     148.202 139.979 141.244  1.00  0.00    -0.000 C 
BRANCH   6   7
ATOM      7  C   UNL     1     147.716 141.436 141.130  1.00  0.00    -0.000 C 
BRANCH   7   8
ATOM      8  C   UNL     1     147.057 141.801 139.788  1.00  0.00    -0.003 C 
ATOM      9  C   UNL     1     147.893 141.385 138.577  1.00  0.00     0.004 C 
ENDBRANCH   7   8
ENDBRANCH   6   7
ENDBRANCH   5   6
ENDBRANCH   4   5
ENDBRANCH   3   4
ENDBRANCH   2   3
ENDBRANCH   1   2
BRANCH   1  10
ATOM     10  C   UNL     1     142.640 141.505 143.481  1.00  0.00     0.000 C 
BRANCH  10  11
ATOM     11  C   UNL     1     142.977 142.549 144.558  1.00  0.00     0.000 C 
BRANCH  11  12
ATOM     12  C   UNL     1     141.878 143.612 144.714  1.00  0.00     0.000 C 
BRANCH  12  13
ATOM     13  C   UNL     1     142.400 145.001 144.326  1.00  0.00     0.000 C 
BRANCH  13  14
ATOM     14  C   UNL     1     141.696 145.520 143.063  1.00  0.00     0.002 C 
BRANCH  14  15
ATOM     15  C   UNL     1     142.360 146.782 142.492  1.00  0.00     0.028 C 
BRANCH  15  16
ATOM     16  C   UNL     1     142.833 146.599 141.044  1.00  0.00     0.156 C 
BRANCH  16  17
ATOM     17  O   UNL     1     144.166 147.014 140.917  1.00  0.00    -0.396 OA
ATOM     18  H   UNL     1     144.635 146.722 141.742  1.00  0.00     0.210 HD
ENDBRANCH  16  17
ENDBRANCH  15  16
ENDBRANCH  14  15
ENDBRANCH  13  14
ENDBRANCH  12  13
ENDBRANCH  11  12
ENDBRANCH  10  11
ENDBRANCH   1  10
TORSDOF 15
ENDMDL
MODEL 5
REMARK VINA RESULT:    -3.330      7.619      8.475
REMARK INTER + INTRA:          -7.172
REMARK INTER:                  -6.254
REMARK INTRA:                  -0.918
REMARK UNBOUND:                -1.019
REMARK SMILES CCCCCCCCCCCCCCCCO
REMARK SMILES IDX 9 1 8 2 7 3 6 4 5 5 4 6 3 7 2 8 1 9 10 10 11 11 12 12 13 13
REMARK SMILES IDX 14 14 15 15 16 16 17 17
REMARK H PARENT 17 18
REMARK Flexibility Score: inf
ROOT
ATOM      1  C   UNL     1     138.268 142.403 143.786  1.00  0.00     0.000 C 
ENDROOT
BRANCH   1   2
ATOM      2  C   UNL     1     136.905 142.176 144.458  1.00  0.00    -0.000 C 
BRANCH   2   3
ATOM      3  C   UNL     1     135.795 141.840 143.447  1.00  0.00    -0.000 C 
BRANCH   3   4
ATOM      4  C   UNL     1     136.250 142.063 141.989  1.00  0.00    -0.000 C 
BRANCH   4   5
ATOM      5  C   UNL     1     135.257 142.888 141.153  1.00  0.00    -0.000 C 
BRANCH   5   6
ATOM      6  C   UNL     1     133.817 142.805 141.685  1.00  0.00    -0.000 C 
BRANCH   6   7
ATOM      7  C   UNL     1     132.937 141.824 140.887  1.00  0.00    -0.000 C 
BRANCH   7   8
ATOM      8  C   UNL     1     133.138 140.339 141.234  1.00  0.00    -0.003 C 
ATOM      9  C   UNL     1     134.004 139.596 140.216  1.00  0.00     0.004 C 
ENDBRANCH   7   8
ENDBRANCH   6   7
ENDBRANCH   5   6
ENDBRANCH   4   5
ENDBRANCH   3   4
ENDBRANCH   2   3
ENDBRANCH   1   2
BRANCH   1  10
ATOM     10  C   UNL     1     139.359 142.823 144.787  1.00  0.00     0.000 C 
BRANCH  10  11
ATOM     11  C   UNL     1     140.494 143.618 144.123  1.00  0.00     0.000 C 
BRANCH  11  12
ATOM     12  C   UNL     1     141.271 144.486 145.125  1.00  0.00     0.000 C 
BRANCH  12  13
ATOM     13  C   UNL     1     141.747 145.789 144.469  1.00  0.00     0.000 C 
BRANCH  13  14
ATOM     14  C   UNL     1     141.938 145.604 142.956  1.00  0.00     0.002 C 
BRANCH  14  15
ATOM     15  C   UNL     1     141.339 146.759 142.138  1.00  0.00     0.028 C 
BRANCH  15  16
ATOM     16  C   UNL     1     142.401 147.750 141.645  1.00  0.00     0.156 C 
BRANCH  16  17
ATOM     17  O   UNL     1     143.675 147.330 142.050  1.00  0.00    -0.396 OA
ATOM     18  H   UNL     1     143.564 146.888 142.932  1.00  0.00     0.210 HD
ENDBRANCH  16  17
ENDBRANCH  15  16
ENDBRANCH  14  15
ENDBRANCH  13  14
ENDBRANCH  12  13
ENDBRANCH  11  12
ENDBRANCH  10  11
ENDBRANCH   1  10
TORSDOF 15
ENDMDL
MODEL 6
REMARK VINA RESULT:    -3.295      3.646      5.828
REMARK INTER + INTRA:          -7.106
REMARK INTER:                  -5.226
REMARK INTRA:                  -1.880
REMARK UNBOUND:                -1.019
REMARK SMILES CCCCCCCCCCCCCCCCO
REMARK SMILES IDX 9 1 8 2 7 3 6 4 5 5 4 6 3 7 2 8 1 9 10 10 11 11 12 12 13 13
REMARK SMILES IDX 14 14 15 15 16 16 17 17
REMARK H PARENT 17 18
REMARK Flexibility Score: inf
ROOT
ATOM      1  C   UNL     1     140.238 139.422 145.092  1.00  0.00     0.000 C 
ENDROOT
BRANCH   1   2
ATOM      2  C   UNL     1     138.801 139.311 144.561  1.00  0.00    -0.000 C 
BRANCH   2   3
ATOM      3  C   UNL     1     138.597 140.074 143.240  1.00  0.00    -0.000 C 
BRANCH   3   4
ATOM      4  C   UNL     1     137.645 141.278 143.405  1.00  0.00    -0.000 C 
BRANCH   4   5
ATOM      5  C   UNL     1     138.261 142.447 144.192  1.00  0.00    -0.000 C 
BRANCH   5   6
ATOM      6  C   UNL     1     139.633 142.875 143.646  1.00  0.00    -0.000 C 
BRANCH   6   7
ATOM      7  C   UNL     1     140.690 143.056 144.752  1.00  0.00    -0.000 C 
BRANCH   7   8
ATOM      8  C   UNL     1     142.105 142.575 144.387  1.00  0.00    -0.003 C 
ATOM      9  C   UNL     1     142.464 142.827 142.922  1.00  0.00     0.004 C 
ENDBRANCH   7   8
ENDBRANCH   6   7
ENDBRANCH   5   6
ENDBRANCH   4   5
ENDBRANCH   3   4
ENDBRANCH   2   3
ENDBRANCH   1   2
BRANCH   1  10
ATOM     10  C   UNL     1     141.129 138.252 144.637  1.00  0.00     0.000 C 
BRANCH  10  11
ATOM     11  C   UNL     1     142.506 138.717 144.139  1.00  0.00     0.000 C 
BRANCH  11  12
ATOM     12  C   UNL     1     142.515 139.029 142.635  1.00  0.00     0.000 C 
BRANCH  12  13
ATOM     13  C   UNL     1     143.915 139.452 142.171  1.00  0.00     0.000 C 
BRANCH  13  14
ATOM     14  C   UNL     1     144.796 139.844 143.367  1.00  0.00     0.002 C 
BRANCH  14  15
ATOM     15  C   UNL     1     146.297 139.720 143.064  1.00  0.00     0.028 C 
BRANCH  15  16
ATOM     16  C   UNL     1     146.575 139.014 141.730  1.00  0.00     0.156 C 
BRANCH  16  17
ATOM     17  O   UNL     1     147.425 137.918 141.934  1.00  0.00    -0.396 OA
ATOM     18  H   UNL     1     146.842 137.126 142.066  1.00  0.00     0.210 HD
ENDBRANCH  16  17
ENDBRANCH  15  16
ENDBRANCH  14  15
ENDBRANCH  13  14
ENDBRANCH  12  13
ENDBRANCH  11  12
ENDBRANCH  10  11
ENDBRANCH   1  10
TORSDOF 15
ENDMDL
MODEL 7
REMARK VINA RESULT:    -3.280      4.945      7.609
REMARK INTER + INTRA:          -7.079
REMARK INTER:                  -5.375
REMARK INTRA:                  -1.704
REMARK UNBOUND:                -1.019
REMARK SMILES CCCCCCCCCCCCCCCCO
REMARK SMILES IDX 9 1 8 2 7 3 6 4 5 5 4 6 3 7 2 8 1 9 10 10 11 11 12 12 13 13
REMARK SMILES IDX 14 14 15 15 16 16 17 17
REMARK H PARENT 17 18
REMARK Flexibility Score: inf
ROOT
ATOM      1  C   UNL     1     142.260 142.409 141.173  1.00  0.00     0.000 C 
ENDROOT
BRANCH   1   2
ATOM      2  C   UNL     1     140.828 142.355 141.727  1.00  0.00    -0.000 C 
BRANCH   2   3
ATOM      3  C   UNL     1     139.870 143.303 140.983  1.00  0.00    -0.000 C 
BRANCH   3   4
ATOM      4  C   UNL     1     140.620 144.464 140.295  1.00  0.00    -0.000 C 
BRANCH   4   5
ATOM      5  C   UNL     1     140.640 145.761 141.121  1.00  0.00    -0.000 C 
BRANCH   5   6
ATOM      6  C   UNL     1     142.038 146.099 141.666  1.00  0.00    -0.000 C 
BRANCH   6   7
ATOM      7  C   UNL     1     142.052 146.311 143.191  1.00  0.00    -0.000 C 
BRANCH   7   8
ATOM      8  C   UNL     1     142.319 145.044 144.023  1.00  0.00    -0.003 C 
ATOM      9  C   UNL     1     141.154 144.672 144.940  1.00  0.00     0.004 C 
ENDBRANCH   7   8
ENDBRANCH   6   7
ENDBRANCH   5   6
ENDBRANCH   4   5
ENDBRANCH   3   4
ENDBRANCH   2   3
ENDBRANCH   1   2
BRANCH   1  10
ATOM     10  C   UNL     1     143.260 141.628 142.043  1.00  0.00     0.000 C 
BRANCH  10  11
ATOM     11  C   UNL     1     142.877 141.632 143.532  1.00  0.00     0.000 C 
BRANCH  11  12
ATOM     12  C   UNL     1     143.896 140.885 144.406  1.00  0.00     0.000 C 
BRANCH  12  13
ATOM     13  C   UNL     1     144.350 139.585 143.730  1.00  0.00     0.000 C 
BRANCH  13  14
ATOM     14  C   UNL     1     145.883 139.494 143.688  1.00  0.00     0.002 C 
BRANCH  14  15
ATOM     15  C   UNL     1     146.450 139.694 142.274  1.00  0.00     0.028 C 
BRANCH  15  16
ATOM     16  C   UNL     1     147.594 138.725 141.951  1.00  0.00     0.156 C 
BRANCH  16  17
ATOM     17  O   UNL     1     147.103 137.620 141.242  1.00  0.00    -0.396 OA
ATOM     18  H   UNL     1     146.820 136.950 141.918  1.00  0.00     0.210 HD
ENDBRANCH  16  17
ENDBRANCH  15  16
ENDBRANCH  14  15
ENDBRANCH  13  14
ENDBRANCH  12  13
ENDBRANCH  11  12
ENDBRANCH  10  11
ENDBRANCH   1  10
TORSDOF 15
ENDMDL
MODEL 8
REMARK VINA RESULT:    -3.267      3.579      7.108
REMARK INTER + INTRA:          -7.055
REMARK INTER:                  -5.177
REMARK INTRA:                  -1.878
REMARK UNBOUND:                -1.019
REMARK SMILES CCCCCCCCCCCCCCCCO
REMARK SMILES IDX 9 1 8 2 7 3 6 4 5 5 4 6 3 7 2 8 1 9 10 10 11 11 12 12 13 13
REMARK SMILES IDX 14 14 15 15 16 16 17 17
REMARK H PARENT 17 18
REMARK Flexibility Score: inf
ROOT
ATOM      1  C   UNL     1     137.858 140.648 143.210  1.00  0.00     0.000 C 
ENDROOT
BRANCH   1   2
ATOM      2  C   UNL     1     137.566 141.321 144.559  1.00  0.00    -0.000 C 
BRANCH   2   3
ATOM      3  C   UNL     1     138.573 142.436 144.895  1.00  0.00    -0.000 C 
BRANCH   3   4
ATOM      4  C   UNL     1     139.435 142.827 143.675  1.00  0.00    -0.000 C 
BRANCH   4   5
ATOM      5  C   UNL     1     140.942 142.881 143.977  1.00  0.00    -0.000 C 
BRANCH   5   6
ATOM      6  C   UNL     1     141.677 141.592 143.576  1.00  0.00    -0.000 C 
BRANCH   6   7
ATOM      7  C   UNL     1     141.965 140.667 144.773  1.00  0.00    -0.000 C 
BRANCH   7   8
ATOM      8  C   UNL     1     142.601 139.313 144.412  1.00  0.00    -0.003 C 
ATOM      9  C   UNL     1     142.576 139.019 142.912  1.00  0.00     0.004 C 
ENDBRANCH   7   8
ENDBRANCH   6   7
ENDBRANCH   5   6
ENDBRANCH   4   5
ENDBRANCH   3   4
ENDBRANCH   2   3
ENDBRANCH   1   2
BRANCH   1  10
ATOM     10  C   UNL     1     138.777 139.420 143.348  1.00  0.00     0.000 C 
BRANCH  10  11
ATOM     11  C   UNL     1     138.646 138.736 144.718  1.00  0.00     0.000 C 
BRANCH  11  12
ATOM     12  C   UNL     1     139.401 137.400 144.785  1.00  0.00     0.000 C 
BRANCH  12  13
ATOM     13  C   UNL     1     139.649 136.838 143.379  1.00  0.00     0.000 C 
BRANCH  13  14
ATOM     14  C   UNL     1     139.583 135.303 143.381  1.00  0.00     0.002 C 
BRANCH  14  15
ATOM     15  C   UNL     1     139.836 134.698 141.991  1.00  0.00     0.028 C 
BRANCH  15  16
ATOM     16  C   UNL     1     138.804 135.152 140.951  1.00  0.00     0.156 C 
BRANCH  16  17
ATOM     17  O   UNL     1     137.575 134.519 141.185  1.00  0.00    -0.396 OA
ATOM     18  H   UNL     1     137.524 134.347 142.161  1.00  0.00     0.210 HD
ENDBRANCH  16  17
ENDBRANCH  15  16
ENDBRANCH  14  15
ENDBRANCH  13  14
ENDBRANCH  12  13
ENDBRANCH  11  12
ENDBRANCH  10  11
ENDBRANCH   1  10
TORSDOF 15
ENDMDL
MODEL 9
REMARK VINA RESULT:    -3.255      4.780      6.732
REMARK INTER + INTRA:          -7.033
REMARK INTER:                  -5.180
REMARK INTRA:                  -1.853
REMARK UNBOUND:                -1.019
REMARK SMILES CCCCCCCCCCCCCCCCO
REMARK SMILES IDX 9 1 8 2 7 3 6 4 5 5 4 6 3 7 2 8 1 9 10 10 11 11 12 12 13 13
REMARK SMILES IDX 14 14 15 15 16 16 17 17
REMARK H PARENT 17 18
REMARK Flexibility Score: inf
ROOT
ATOM      1  C   UNL     1     143.004 141.505 142.750  1.00  0.00     0.000 C 
ENDROOT
BRANCH   1   2
ATOM      2  C   UNL     1     143.562 140.816 144.004  1.00  0.00    -0.000 C 
BRANCH   2   3
ATOM      3  C   UNL     1     143.268 139.306 144.031  1.00  0.00    -0.000 C 
BRANCH   3   4
ATOM      4  C   UNL     1     142.607 138.820 142.723  1.00  0.00    -0.000 C 
BRANCH   4   5
ATOM      5  C   UNL     1     141.293 138.052 142.945  1.00  0.00    -0.000 C 
BRANCH   5   6
ATOM      6  C   UNL     1     140.078 138.981 143.099  1.00  0.00    -0.000 C 
BRANCH   6   7
ATOM      7  C   UNL     1     139.563 139.060 144.549  1.00  0.00    -0.000 C 
BRANCH   7   8
ATOM      8  C   UNL     1     138.540 140.177 144.817  1.00  0.00    -0.003 C 
ATOM      9  C   UNL     1     138.002 140.818 143.537  1.00  0.00     0.004 C 
ENDBRANCH   7   8
ENDBRANCH   6   7
ENDBRANCH   5   6
ENDBRANCH   4   5
ENDBRANCH   3   4
ENDBRANCH   2   3
ENDBRANCH   1   2
BRANCH   1  10
ATOM     10  C   UNL     1     141.753 142.352 143.047  1.00  0.00     0.000 C 
BRANCH  10  11
ATOM     11  C   UNL     1     141.461 142.465 144.552  1.00  0.00     0.000 C 
BRANCH  11  12
ATOM     12  C   UNL     1     141.167 143.908 144.989  1.00  0.00     0.000 C 
BRANCH  12  13
ATOM     13  C   UNL     1     142.274 144.860 144.519  1.00  0.00     0.000 C 
BRANCH  13  14
ATOM     14  C   UNL     1     141.695 145.995 143.661  1.00  0.00     0.002 C 
BRANCH  14  15
ATOM     15  C   UNL     1     142.271 146.012 142.236  1.00  0.00     0.028 C 
BRANCH  15  16
ATOM     16  C   UNL     1     142.922 147.352 141.876  1.00  0.00     0.156 C 
BRANCH  16  17
ATOM     17  O   UNL     1     144.084 147.136 141.121  1.00  0.00    -0.396 OA
ATOM     18  H   UNL     1     144.537 148.015 141.036  1.00  0.00     0.210 HD
ENDBRANCH  16  17
ENDBRANCH  15  16
ENDBRANCH  14  15
ENDBRANCH  13  14
ENDBRANCH  12  13
ENDBRANCH  11  12
ENDBRANCH  10  11
ENDBRANCH   1  10
TORSDOF 15
ENDMDL
