MODEL 1
REMARK VINA RESULT:    -3.476      0.000      0.000
REMARK INTER + INTRA:          -5.436
REMARK INTER:                  -4.899
REMARK INTRA:                  -0.537
REMARK UNBOUND:                -0.537
REMARK SMILES CCCCCCCCC(=O)[O-]
REMARK SMILES IDX 6 1 7 2 8 3 9 4 10 5 11 6 5 7 4 8 3 9 2 10 1 11
REMARK H PARENT
REMARK Flexibility Score: inf
ROOT
ATOM      1  C   UNL     1      17.974 131.471  63.635  1.00  0.00     0.000 C 
ENDROOT
BRANCH   1   2
ATOM      2  C   UNL     1      19.230 132.356  63.683  1.00  0.00     0.006 C 
BRANCH   2   3
ATOM      3  C   UNL     1      19.978 132.374  62.344  1.00  0.00     0.053 C 
BRANCH   3   4
ATOM      4  C   UNL     1      19.361 133.337  61.375  1.00  0.00     0.041 C 
ATOM      5  O   UNL     1      19.445 133.130  60.136  1.00  0.00    -0.550 OA
ATOM      6  O   UNL     1      18.729 134.483  61.842  1.00  0.00    -0.550 OA
ENDBRANCH   3   4
ENDBRANCH   2   3
ENDBRANCH   1   2
BRANCH   1   7
ATOM      7  C   UNL     1      18.020 130.313  64.645  1.00  0.00     0.000 C 
BRANCH   7   8
ATOM      8  C   UNL     1      17.344 129.022  64.134  1.00  0.00    -0.000 C 
BRANCH   8   9
ATOM      9  C   UNL     1      18.349 127.868  63.970  1.00  0.00    -0.000 C 
BRANCH   9  10
ATOM     10  C   UNL     1      19.765 128.251  64.432  1.00  0.00    -0.003 C 
ATOM     11  C   UNL     1      20.771 128.283  63.282  1.00  0.00     0.004 C 
ENDBRANCH   9  10
ENDBRANCH   8   9
ENDBRANCH   7   8
ENDBRANCH   1   7
TORSDOF 7
ENDMDL
MODEL 2
REMARK VINA RESULT:    -3.375      1.992      2.643
REMARK INTER + INTRA:          -5.293
REMARK INTER:                  -4.515
REMARK INTRA:                  -0.779
REMARK UNBOUND:                -0.537
REMARK SMILES CCCCCCCCC(=O)[O-]
REMARK SMILES IDX 6 1 7 2 8 3 9 4 10 5 11 6 5 7 4 8 3 9 2 10 1 11
REMARK H PARENT
REMARK Flexibility Score: inf
ROOT
ATOM      1  C   UNL     1      17.653 131.446  66.642  1.00  0.00     0.000 C 
ENDROOT
BRANCH   1   2
ATOM      2  C   UNL     1      18.934 131.889  65.918  1.00  0.00     0.006 C 
BRANCH   2   3
ATOM      3  C   UNL     1      18.647 132.882  64.785  1.00  0.00     0.053 C 
BRANCH   3   4
ATOM      4  C   UNL     1      18.973 132.303  63.442  1.00  0.00     0.041 C 
ATOM      5  O   UNL     1      18.146 132.389  62.497  1.00  0.00    -0.550 OA
ATOM      6  O   UNL     1      20.175 131.633  63.247  1.00  0.00    -0.550 OA
ENDBRANCH   3   4
ENDBRANCH   2   3
ENDBRANCH   1   2
BRANCH   1   7
ATOM      7  C   UNL     1      16.376 131.765  65.848  1.00  0.00     0.000 C 
BRANCH   7   8
ATOM      8  C   UNL     1      15.804 130.549  65.086  1.00  0.00    -0.000 C 
BRANCH   8   9
ATOM      9  C   UNL     1      16.681 129.296  65.254  1.00  0.00    -0.000 C 
BRANCH   9  10
ATOM     10  C   UNL     1      17.451 128.940  63.973  1.00  0.00    -0.003 C 
ATOM     11  C   UNL     1      18.887 128.495  64.253  1.00  0.00     0.004 C 
ENDBRANCH   9  10
ENDBRANCH   8   9
ENDBRANCH   7   8
ENDBRANCH   1   7
TORSDOF 7
ENDMDL
MODEL 3
REMARK VINA RESULT:    -3.282      3.884      4.983
REMARK INTER + INTRA:          -5.162
REMARK INTER:                  -4.724
REMARK INTRA:                  -0.438
REMARK UNBOUND:                -0.537
REMARK SMILES CCCCCCCCC(=O)[O-]
REMARK SMILES IDX 6 1 7 2 8 3 9 4 10 5 11 6 5 7 4 8 3 9 2 10 1 11
REMARK H PARENT
REMARK Flexibility Score: inf
ROOT
ATOM      1  C   UNL     1      18.402 131.121  66.514  1.00  0.00     0.000 C 
ENDROOT
BRANCH   1   2
ATOM      2  C   UNL     1      17.004 131.713  66.753  1.00  0.00     0.006 C 
BRANCH   2   3
ATOM      3  C   UNL     1      16.134 130.809  67.636  1.00  0.00     0.053 C 
BRANCH   3   4
ATOM      4  C   UNL     1      15.233 129.935  66.819  1.00  0.00     0.041 C 
ATOM      5  O   UNL     1      15.439 128.694  66.757  1.00  0.00    -0.550 OA
ATOM      6  O   UNL     1      14.188 130.497  66.095  1.00  0.00    -0.550 OA
ENDBRANCH   3   4
ENDBRANCH   2   3
ENDBRANCH   1   2
BRANCH   1   7
ATOM      7  C   UNL     1      19.052 131.624  65.214  1.00  0.00     0.000 C 
BRANCH   7   8
ATOM      8  C   UNL     1      19.020 130.589  64.068  1.00  0.00    -0.000 C 
BRANCH   8   9
ATOM      9  C   UNL     1      18.151 129.367  64.416  1.00  0.00    -0.000 C 
BRANCH   9  10
ATOM     10  C   UNL     1      18.868 128.037  64.138  1.00  0.00    -0.003 C 
ATOM     11  C   UNL     1      20.291 128.233  63.613  1.00  0.00     0.004 C 
ENDBRANCH   9  10
ENDBRANCH   8   9
ENDBRANCH   7   8
ENDBRANCH   1   7
TORSDOF 7
ENDMDL
MODEL 4
REMARK VINA RESULT:    -3.277      3.266      5.268
REMARK INTER + INTRA:          -5.154
REMARK INTER:                  -4.528
REMARK INTRA:                  -0.626
REMARK UNBOUND:                -0.537
REMARK SMILES CCCCCCCCC(=O)[O-]
REMARK SMILES IDX 6 1 7 2 8 3 9 4 10 5 11 6 5 7 4 8 3 9 2 10 1 11
REMARK H PARENT
REMARK Flexibility Score: inf
ROOT
ATOM      1  C   UNL     1      19.142 132.100  64.317  1.00  0.00     0.000 C 
ENDROOT
BRANCH   1   2
ATOM      2  C   UNL     1      18.665 130.787  64.957  1.00  0.00     0.006 C 
BRANCH   2   3
ATOM      3  C   UNL     1      17.684 130.026  64.055  1.00  0.00     0.053 C 
BRANCH   3   4
ATOM      4  C   UNL     1      17.796 128.543  64.241  1.00  0.00     0.041 C 
ATOM      5  O   UNL     1      16.847 127.896  64.757  1.00  0.00    -0.550 OA
ATOM      6  O   UNL     1      18.963 127.883  63.878  1.00  0.00    -0.550 OA
ENDBRANCH   3   4
ENDBRANCH   2   3
ENDBRANCH   1   2
BRANCH   1   7
ATOM      7  C   UNL     1      19.904 131.883  63.000  1.00  0.00     0.000 C 
BRANCH   7   8
ATOM      8  C   UNL     1      19.477 132.848  61.873  1.00  0.00    -0.000 C 
BRANCH   8   9
ATOM      9  C   UNL     1      18.041 133.366  62.069  1.00  0.00    -0.000 C 
BRANCH   9  10
ATOM     10  C   UNL     1      17.090 132.902  60.954  1.00  0.00    -0.003 C 
ATOM     11  C   UNL     1      15.967 132.004  61.474  1.00  0.00     0.004 C 
ENDBRANCH   9  10
ENDBRANCH   8   9
ENDBRANCH   7   8
ENDBRANCH   1   7
TORSDOF 7
ENDMDL
MODEL 5
REMARK VINA RESULT:    -3.265      3.773      5.102
REMARK INTER + INTRA:          -5.138
REMARK INTER:                  -4.497
REMARK INTRA:                  -0.642
REMARK UNBOUND:                -0.537
REMARK SMILES CCCCCCCCC(=O)[O-]
REMARK SMILES IDX 6 1 7 2 8 3 9 4 10 5 11 6 5 7 4 8 3 9 2 10 1 11
REMARK H PARENT
REMARK Flexibility Score: inf
ROOT
ATOM      1  C   UNL     1      18.478 132.015  65.475  1.00  0.00     0.000 C 
ENDROOT
BRANCH   1   2
ATOM      2  C   UNL     1      18.188 131.046  64.318  1.00  0.00     0.006 C 
BRANCH   2   3
ATOM      3  C   UNL     1      19.016 129.758  64.419  1.00  0.00     0.053 C 
BRANCH   3   4
ATOM      4  C   UNL     1      18.165 128.536  64.244  1.00  0.00     0.041 C 
ATOM      5  O   UNL     1      18.584 127.565  63.562  1.00  0.00    -0.550 OA
ATOM      6  O   UNL     1      16.893 128.488  64.802  1.00  0.00    -0.550 OA
ENDBRANCH   3   4
ENDBRANCH   2   3
ENDBRANCH   1   2
BRANCH   1   7
ATOM      7  C   UNL     1      18.517 131.317  66.845  1.00  0.00     0.000 C 
BRANCH   7   8
ATOM      8  C   UNL     1      17.289 131.623  67.728  1.00  0.00    -0.000 C 
BRANCH   8   9
ATOM      9  C   UNL     1      16.126 130.651  67.460  1.00  0.00    -0.000 C 
BRANCH   9  10
ATOM     10  C   UNL     1      15.037 131.268  66.567  1.00  0.00    -0.003 C 
ATOM     11  C   UNL     1      14.064 130.223  66.021  1.00  0.00     0.004 C 
ENDBRANCH   9  10
ENDBRANCH   8   9
ENDBRANCH   7   8
ENDBRANCH   1   7
TORSDOF 7
ENDMDL
MODEL 6
REMARK VINA RESULT:    -3.255      2.955      4.688
REMARK INTER + INTRA:          -5.124
REMARK INTER:                  -4.616
REMARK INTRA:                  -0.508
REMARK UNBOUND:                -0.537
REMARK SMILES CCCCCCCCC(=O)[O-]
REMARK SMILES IDX 6 1 7 2 8 3 9 4 10 5 11 6 5 7 4 8 3 9 2 10 1 11
REMARK H PARENT
REMARK Flexibility Score: inf
ROOT
ATOM      1  C   UNL     1      16.970 131.307  64.964  1.00  0.00     0.000 C 
ENDROOT
BRANCH   1   2
ATOM      2  C   UNL     1      17.255 129.808  64.786  1.00  0.00     0.006 C 
BRANCH   2   3
ATOM      3  C   UNL     1      18.752 129.486  64.886  1.00  0.00     0.053 C 
BRANCH   3   4
ATOM      4  C   UNL     1      19.138 128.351  63.987  1.00  0.00     0.041 C 
ATOM      5  O   UNL     1      18.272 127.517  63.614  1.00  0.00    -0.550 OA
ATOM      6  O   UNL     1      20.461 128.193  63.594  1.00  0.00    -0.550 OA
ENDBRANCH   3   4
ENDBRANCH   2   3
ENDBRANCH   1   2
BRANCH   1   7
ATOM      7  C   UNL     1      18.183 132.089  65.496  1.00  0.00     0.000 C 
BRANCH   7   8
ATOM      8  C   UNL     1      18.567 133.302  64.622  1.00  0.00    -0.000 C 
BRANCH   8   9
ATOM      9  C   UNL     1      18.680 132.930  63.133  1.00  0.00    -0.000 C 
BRANCH   9  10
ATOM     10  C   UNL     1      19.918 132.070  62.833  1.00  0.00    -0.003 C 
ATOM     11  C   UNL     1      20.699 132.568  61.616  1.00  0.00     0.004 C 
ENDBRANCH   9  10
ENDBRANCH   8   9
ENDBRANCH   7   8
ENDBRANCH   1   7
TORSDOF 7
ENDMDL
MODEL 7
REMARK VINA RESULT:    -3.118      2.291      3.460
REMARK INTER + INTRA:          -4.931
REMARK INTER:                  -4.241
REMARK INTRA:                  -0.690
REMARK UNBOUND:                -0.537
REMARK SMILES CCCCCCCCC(=O)[O-]
REMARK SMILES IDX 6 1 7 2 8 3 9 4 10 5 11 6 5 7 4 8 3 9 2 10 1 11
REMARK H PARENT
REMARK Flexibility Score: inf
ROOT
ATOM      1  C   UNL     1      18.959 132.409  65.416  1.00  0.00     0.000 C 
ENDROOT
BRANCH   1   2
ATOM      2  C   UNL     1      19.319 131.714  64.093  1.00  0.00     0.006 C 
BRANCH   2   3
ATOM      3  C   UNL     1      18.657 132.389  62.884  1.00  0.00     0.053 C 
BRANCH   3   4
ATOM      4  C   UNL     1      19.672 132.863  61.888  1.00  0.00     0.041 C 
ATOM      5  O   UNL     1      19.354 133.714  61.017  1.00  0.00    -0.550 OA
ATOM      6  O   UNL     1      20.957 132.335  61.900  1.00  0.00    -0.550 OA
ENDBRANCH   3   4
ENDBRANCH   2   3
ENDBRANCH   1   2
BRANCH   1   7
ATOM      7  C   UNL     1      18.556 131.419  66.521  1.00  0.00     0.000 C 
BRANCH   7   8
ATOM      8  C   UNL     1      17.038 131.398  66.807  1.00  0.00    -0.000 C 
BRANCH   8   9
ATOM      9  C   UNL     1      16.291 130.415  65.889  1.00  0.00    -0.000 C 
BRANCH   9  10
ATOM     10  C   UNL     1      15.377 131.129  64.880  1.00  0.00    -0.003 C 
ATOM     11  C   UNL     1      15.264 132.630  65.149  1.00  0.00     0.004 C 
ENDBRANCH   9  10
ENDBRANCH   8   9
ENDBRANCH   7   8
ENDBRANCH   1   7
TORSDOF 7
ENDMDL
MODEL 8
REMARK VINA RESULT:    -3.102      6.643      8.151
REMARK INTER + INTRA:          -4.908
REMARK INTER:                  -4.367
REMARK INTRA:                  -0.541
REMARK UNBOUND:                -0.537
REMARK SMILES CCCCCCCCC(=O)[O-]
REMARK SMILES IDX 6 1 7 2 8 3 9 4 10 5 11 6 5 7 4 8 3 9 2 10 1 11
REMARK H PARENT
REMARK Flexibility Score: inf
ROOT
ATOM      1  C   UNL     1      15.905 130.856  56.849  1.00  0.00     0.000 C 
ENDROOT
BRANCH   1   2
ATOM      2  C   UNL     1      15.561 131.681  55.599  1.00  0.00     0.006 C 
BRANCH   2   3
ATOM      3  C   UNL     1      16.157 131.076  54.322  1.00  0.00     0.053 C 
BRANCH   3   4
ATOM      4  C   UNL     1      16.945 132.086  53.544  1.00  0.00     0.041 C 
ATOM      5  O   UNL     1      16.896 132.095  52.286  1.00  0.00    -0.550 OA
ATOM      6  O   UNL     1      17.763 132.992  54.208  1.00  0.00    -0.550 OA
ENDBRANCH   3   4
ENDBRANCH   2   3
ENDBRANCH   1   2
BRANCH   1   7
ATOM      7  C   UNL     1      16.852 131.592  57.810  1.00  0.00     0.000 C 
BRANCH   7   8
ATOM      8  C   UNL     1      16.204 131.943  59.168  1.00  0.00    -0.000 C 
BRANCH   8   9
ATOM      9  C   UNL     1      14.748 131.454  59.256  1.00  0.00    -0.000 C 
BRANCH   9  10
ATOM     10  C   UNL     1      13.750 132.608  59.446  1.00  0.00    -0.003 C 
ATOM     11  C   UNL     1      12.966 132.923  58.172  1.00  0.00     0.004 C 
ENDBRANCH   9  10
ENDBRANCH   8   9
ENDBRANCH   7   8
ENDBRANCH   1   7
TORSDOF 7
ENDMDL
MODEL 9
REMARK VINA RESULT:    -3.099      6.616      8.339
REMARK INTER + INTRA:          -4.904
REMARK INTER:                  -4.168
REMARK INTRA:                  -0.736
REMARK UNBOUND:                -0.537
REMARK SMILES CCCCCCCCC(=O)[O-]
REMARK SMILES IDX 6 1 7 2 8 3 9 4 10 5 11 6 5 7 4 8 3 9 2 10 1 11
REMARK H PARENT
REMARK Flexibility Score: inf
ROOT
ATOM      1  C   UNL     1      15.167 132.248  56.301  1.00  0.00     0.000 C 
ENDROOT
BRANCH   1   2
ATOM      2  C   UNL     1      14.973 131.934  54.809  1.00  0.00     0.006 C 
BRANCH   2   3
ATOM      3  C   UNL     1      16.221 131.295  54.184  1.00  0.00     0.053 C 
BRANCH   3   4
ATOM      4  C   UNL     1      16.931 132.246  53.268  1.00  0.00     0.041 C 
ATOM      5  O   UNL     1      16.951 132.033  52.027  1.00  0.00    -0.550 OA
ATOM      6  O   UNL     1      17.602 133.344  53.790  1.00  0.00    -0.550 OA
ENDBRANCH   3   4
ENDBRANCH   2   3
ENDBRANCH   1   2
BRANCH   1   7
ATOM      7  C   UNL     1      15.832 131.096  57.073  1.00  0.00     0.000 C 
BRANCH   7   8
ATOM      8  C   UNL     1      17.006 131.550  57.967  1.00  0.00    -0.000 C 
BRANCH   8   9
ATOM      9  C   UNL     1      17.488 132.968  57.613  1.00  0.00    -0.000 C 
BRANCH   9  10
ATOM     10  C   UNL     1      19.004 133.032  57.370  1.00  0.00    -0.003 C 
ATOM     11  C   UNL     1      19.489 131.956  56.398  1.00  0.00     0.004 C 
ENDBRANCH   9  10
ENDBRANCH   8   9
ENDBRANCH   7   8
ENDBRANCH   1   7
TORSDOF 7
ENDMDL
