MODEL 1
REMARK VINA RESULT:     7.074      0.000      0.000
REMARK INTER + INTRA:           9.643
REMARK INTER:                  11.209
REMARK INTRA:                  -1.566
REMARK UNBOUND:                -1.566
REMARK SMILES C[C@H]1O[C@@H](O[C@H]2CC[C@]3(C)[C@@H](CC[C@]4(C)[C@H]3C=C[C@@]35OC[C@]6(CCC(C)(C)C[C@H]63)[C@@H](O)C[C@@]45C)[C@]2(C)CO)[C@H](O)[C@@H](O[C@@H]2O[C@H](CO)[C@@H](O)[C@H](O)[C@H]2O)[C@H]1O
REMARK SMILES IDX 1 1 2 2 54 3 41 4 39 5 4 6 3 7 55 8 42 10 43 11 52 12 44 13
REMARK SMILES IDX 50 14 45 15 48 16 53 17 51 19 46 21 47 22 49 24 5 26 6 27
REMARK SMILES IDX 7 28 35 29 8 30 11 31 36 32 9 33 12 34 10 35 16 36 13 37
REMARK SMILES IDX 14 38 17 39 15 40 33 41 18 42 19 43 32 44 34 45 29 46 20 47
REMARK SMILES IDX 30 48 22 49 28 50 21 51 23 52 25 53 24 54 26 55 27 56 37 57
REMARK SMILES IDX 38 58 31 60 40 62
REMARK H PARENT 55 9 53 18 51 20 47 23 49 25 38 59 31 61 40 63
REMARK Flexibility Score: inf
ROOT
ATOM      1  C   UNL     1      17.177 124.034  17.723  1.00  0.00     0.041 C 
ATOM      2  C   UNL     1      18.359 123.161  17.271  1.00  0.00     0.150 C 
ATOM      3  C   UNL     1      18.662 123.267  15.739  1.00  0.00     0.175 C 
ATOM      4  C   UNL     1      18.033 122.077  14.961  1.00  0.00     0.186 C 
ATOM      5  C   UNL     1      16.840 121.452  15.708  1.00  0.00     0.202 C 
ATOM      6  C   UNL     1      17.349 120.961  17.084  1.00  0.00     0.282 C 
ATOM      7  O   UNL     1      18.241 121.838  17.772  1.00  0.00    -0.344 OA
ENDROOT
BRANCH   3   8
ATOM      8  O   UNL     1      18.234 124.518  15.275  1.00  0.00    -0.388 OA
ATOM      9  H   UNL     1      18.548 125.196  15.931  1.00  0.00     0.211 HD
ENDBRANCH   3   8
BRANCH   4  10
ATOM     10  O   UNL     1      17.908 122.109  13.533  1.00  0.00    -0.341 OA
BRANCH  10  11
ATOM     11  C   UNL     1      18.822 121.413  12.688  1.00  0.00     0.282 C 
ATOM     12  C   UNL     1      18.655 119.867  12.624  1.00  0.00     0.202 C 
ATOM     13  O   UNL     1      18.841 121.997  11.404  1.00  0.00    -0.341 OA
ATOM     14  C   UNL     1      19.596 119.253  11.556  1.00  0.00     0.179 C 
ATOM     15  C   UNL     1      19.947 121.611  10.594  1.00  0.00     0.178 C 
ATOM     16  C   UNL     1      20.620 120.257  10.988  1.00  0.00     0.177 C 
BRANCH  12  17
ATOM     17  O   UNL     1      18.964 119.278  13.865  1.00  0.00    -0.385 OA
ATOM     18  H   UNL     1      18.154 118.826  14.207  1.00  0.00     0.211 HD
ENDBRANCH  12  17
BRANCH  14  19
ATOM     19  O   UNL     1      18.856 118.686  10.509  1.00  0.00    -0.387 OA
ATOM     20  H   UNL     1      19.295 118.977   9.667  1.00  0.00     0.211 HD
ENDBRANCH  14  19
BRANCH  15  21
ATOM     21  C   UNL     1      19.478 121.586   9.127  1.00  0.00     0.191 C 
BRANCH  21  22
ATOM     22  O   UNL     1      18.118 121.263   9.051  1.00  0.00    -0.394 OA
ATOM     23  H   UNL     1      17.743 121.413   9.954  1.00  0.00     0.210 HD
ENDBRANCH  21  22
ENDBRANCH  15  21
BRANCH  16  24
ATOM     24  O   UNL     1      21.633 120.500  11.935  1.00  0.00    -0.387 OA
ATOM     25  H   UNL     1      22.259 119.733  11.899  1.00  0.00     0.211 HD
ENDBRANCH  16  24
ENDBRANCH  10  11
ENDBRANCH   4  10
BRANCH   6  26
ATOM     26  O   UNL     1      16.270 120.518  17.897  1.00  0.00    -0.346 OA
BRANCH  26  27
ATOM     27  C   UNL     1      15.658 119.275  17.523  1.00  0.00     0.130 C 
ATOM     28  C   UNL     1      16.442 118.173  18.260  1.00  0.00     0.033 C 
ATOM     29  C   UNL     1      14.085 119.104  17.778  1.00  0.00     0.020 C 
ATOM     30  C   UNL     1      16.270 118.262  19.775  1.00  0.00     0.010 C 
ATOM     31  C   UNL     1      13.673 118.693  19.297  1.00  0.00     0.006 C 
ATOM     32  C   UNL     1      13.296 120.361  17.304  1.00  0.00     0.017 C 
ATOM     33  C   UNL     1      14.790 118.135  20.293  1.00  0.00    -0.022 C 
ATOM     34  C   UNL     1      12.555 119.544  20.031  1.00  0.00     0.005 C 
ATOM     35  C   UNL     1      14.601 116.588  20.469  1.00  0.00     0.012 C 
ATOM     36  C   UNL     1      14.687 118.845  21.725  1.00  0.00     0.024 C 
ATOM     37  C   UNL     1      12.986 120.610  21.077  1.00  0.00     0.008 C 
ATOM     38  C   UNL     1      14.423 120.407  21.681  1.00  0.00    -0.017 C 
ATOM     39  C   UNL     1      13.587 118.256  22.624  1.00  0.00    -0.024 C 
ATOM     40  C   UNL     1      15.351 121.198  20.727  1.00  0.00     0.013 C 
ATOM     41  C   UNL     1      14.579 121.008  23.188  1.00  0.00     0.009 C 
ATOM     42  C   UNL     1      13.202 118.896  23.732  1.00  0.00     0.005 C 
ATOM     43  C   UNL     1      14.054 119.990  24.325  1.00  0.00     0.096 C 
ATOM     44  C   UNL     1      16.085 121.336  23.493  1.00  0.00     0.043 C 
ATOM     45  C   UNL     1      13.810 122.376  23.282  1.00  0.00     0.015 C 
ATOM     46  C   UNL     1      15.190 119.313  25.154  1.00  0.00     0.037 C 
ATOM     47  O   UNL     1      13.315 120.719  25.286  1.00  0.00    -0.369 OA
ATOM     48  C   UNL     1      16.453 121.488  24.995  1.00  0.00     0.124 C 
ATOM     49  C   UNL     1      15.632 120.527  25.951  1.00  0.00     0.026 C 
ATOM     50  C   UNL     1      14.641 118.160  26.062  1.00  0.00     0.014 C 
ATOM     51  C   UNL     1      14.245 121.150  26.272  1.00  0.00     0.171 C 
ATOM     52  C   UNL     1      16.435 120.203  27.251  1.00  0.00     0.013 C 
ATOM     53  C   UNL     1      15.572 117.787  27.234  1.00  0.00    -0.035 C 
ATOM     54  C   UNL     1      15.859 119.046  28.082  1.00  0.00     0.007 C 
ATOM     55  C   UNL     1      14.852 116.748  28.125  1.00  0.00     0.011 C 
ATOM     56  C   UNL     1      16.876 117.145  26.704  1.00  0.00     0.011 C 
BRANCH  29  57
ATOM     57  C   UNL     1      13.570 117.981  16.790  1.00  0.00     0.165 C 
BRANCH  57  58
ATOM     58  O   UNL     1      14.258 117.982  15.564  1.00  0.00    -0.396 OA
ATOM     59  H   UNL     1      14.096 118.857  15.126  1.00  0.00     0.210 HD
ENDBRANCH  57  58
ENDBRANCH  29  57
BRANCH  48  60
ATOM     60  O   UNL     1      17.844 121.316  25.133  1.00  0.00    -0.392 OA
ATOM     61  H   UNL     1      18.283 122.027  24.607  1.00  0.00     0.210 HD
ENDBRANCH  48  60
ENDBRANCH  26  27
ENDBRANCH   6  26
BRANCH   5  62
ATOM     62  O   UNL     1      16.300 120.370  14.984  1.00  0.00    -0.385 OA
ATOM     63  H   UNL     1      17.046 119.886  14.539  1.00  0.00     0.211 HD
ENDBRANCH   5  62
TORSDOF 14
ENDMDL
MODEL 2
REMARK VINA RESULT:     7.650      1.918      4.141
REMARK INTER + INTRA:          10.556
REMARK INTER:                  11.788
REMARK INTRA:                  -1.232
REMARK UNBOUND:                -1.566
REMARK SMILES C[C@H]1O[C@@H](O[C@H]2CC[C@]3(C)[C@@H](CC[C@]4(C)[C@H]3C=C[C@@]35OC[C@]6(CCC(C)(C)C[C@H]63)[C@@H](O)C[C@@]45C)[C@]2(C)CO)[C@H](O)[C@@H](O[C@@H]2O[C@H](CO)[C@@H](O)[C@H](O)[C@H]2O)[C@H]1O
REMARK SMILES IDX 1 1 2 2 54 3 41 4 39 5 4 6 3 7 55 8 42 10 43 11 52 12 44 13
REMARK SMILES IDX 50 14 45 15 48 16 53 17 51 19 46 21 47 22 49 24 5 26 6 27
REMARK SMILES IDX 7 28 35 29 8 30 11 31 36 32 9 33 12 34 10 35 16 36 13 37
REMARK SMILES IDX 14 38 17 39 15 40 33 41 18 42 19 43 32 44 34 45 29 46 20 47
REMARK SMILES IDX 30 48 22 49 28 50 21 51 23 52 25 53 24 54 26 55 27 56 37 57
REMARK SMILES IDX 38 58 31 60 40 62
REMARK H PARENT 55 9 53 18 51 20 47 23 49 25 38 59 31 61 40 63
REMARK Flexibility Score: inf
ROOT
ATOM      1  C   UNL     1      17.586 119.810  14.935  1.00  0.00     0.041 C 
ATOM      2  C   UNL     1      16.918 121.178  14.729  1.00  0.00     0.150 C 
ATOM      3  C   UNL     1      17.939 122.351  14.553  1.00  0.00     0.175 C 
ATOM      4  C   UNL     1      18.140 123.123  15.887  1.00  0.00     0.186 C 
ATOM      5  C   UNL     1      17.800 122.264  17.119  1.00  0.00     0.202 C 
ATOM      6  C   UNL     1      16.323 121.821  16.994  1.00  0.00     0.282 C 
ATOM      7  O   UNL     1      15.902 121.404  15.695  1.00  0.00    -0.344 OA
ENDROOT
BRANCH   3   8
ATOM      8  O   UNL     1      19.133 121.840  14.025  1.00  0.00    -0.388 OA
ATOM      9  H   UNL     1      19.666 122.616  13.704  1.00  0.00     0.211 HD
ENDBRANCH   3   8
BRANCH   4  10
ATOM     10  O   UNL     1      19.239 124.028  16.061  1.00  0.00    -0.341 OA
BRANCH  10  11
ATOM     11  C   UNL     1      19.037 125.438  16.140  1.00  0.00     0.282 C 
ATOM     12  C   UNL     1      18.959 126.040  17.573  1.00  0.00     0.202 C 
ATOM     13  O   UNL     1      19.979 126.112  15.334  1.00  0.00    -0.341 OA
ATOM     14  C   UNL     1      18.902 127.588  17.520  1.00  0.00     0.179 C 
ATOM     15  C   UNL     1      19.665 127.474  15.068  1.00  0.00     0.178 C 
ATOM     16  C   UNL     1      18.701 128.149  16.097  1.00  0.00     0.177 C 
BRANCH  12  17
ATOM     17  O   UNL     1      17.809 125.585  18.245  1.00  0.00    -0.385 OA
ATOM     18  H   UNL     1      17.041 125.639  17.624  1.00  0.00     0.211 HD
ENDBRANCH  12  17
BRANCH  14  19
ATOM     19  O   UNL     1      20.053 128.148  18.093  1.00  0.00    -0.387 OA
ATOM     20  H   UNL     1      19.860 129.114  18.219  1.00  0.00     0.211 HD
ENDBRANCH  14  19
BRANCH  15  21
ATOM     21  C   UNL     1      20.987 128.256  14.959  1.00  0.00     0.191 C 
BRANCH  21  22
ATOM     22  O   UNL     1      21.359 128.408  13.617  1.00  0.00    -0.394 OA
ATOM     23  H   UNL     1      20.520 128.462  13.098  1.00  0.00     0.210 HD
ENDBRANCH  21  22
ENDBRANCH  15  21
BRANCH  16  24
ATOM     24  O   UNL     1      17.370 127.951  15.685  1.00  0.00    -0.387 OA
ATOM     25  H   UNL     1      16.833 128.694  16.060  1.00  0.00     0.211 HD
ENDBRANCH  16  24
ENDBRANCH  10  11
ENDBRANCH   4  10
BRANCH   6  26
ATOM     26  O   UNL     1      15.982 120.890  18.013  1.00  0.00    -0.346 OA
BRANCH  26  27
ATOM     27  C   UNL     1      15.645 119.564  17.580  1.00  0.00     0.130 C 
ATOM     28  C   UNL     1      16.624 118.617  18.297  1.00  0.00     0.033 C 
ATOM     29  C   UNL     1      14.136 119.066  17.787  1.00  0.00     0.020 C 
ATOM     30  C   UNL     1      16.411 118.609  19.809  1.00  0.00     0.010 C 
ATOM     31  C   UNL     1      13.789 118.519  19.280  1.00  0.00     0.006 C 
ATOM     32  C   UNL     1      13.115 120.153  17.338  1.00  0.00     0.017 C 
ATOM     33  C   UNL     1      14.979 118.161  20.284  1.00  0.00    -0.022 C 
ATOM     34  C   UNL     1      12.507 119.094  20.015  1.00  0.00     0.005 C 
ATOM     35  C   UNL     1      15.108 116.603  20.400  1.00  0.00     0.012 C 
ATOM     36  C   UNL     1      14.706 118.777  21.737  1.00  0.00     0.024 C 
ATOM     37  C   UNL     1      12.692 120.183  21.109  1.00  0.00     0.008 C 
ATOM     38  C   UNL     1      14.129 120.254  21.741  1.00  0.00    -0.017 C 
ATOM     39  C   UNL     1      13.735 117.941  22.586  1.00  0.00    -0.024 C 
ATOM     40  C   UNL     1      14.893 121.254  20.840  1.00  0.00     0.013 C 
ATOM     41  C   UNL     1      14.132 120.813  23.273  1.00  0.00     0.009 C 
ATOM     42  C   UNL     1      13.207 118.444  23.706  1.00  0.00     0.005 C 
ATOM     43  C   UNL     1      13.806 119.665  24.359  1.00  0.00     0.096 C 
ATOM     44  C   UNL     1      15.532 121.429  23.628  1.00  0.00     0.043 C 
ATOM     45  C   UNL     1      13.097 121.990  23.396  1.00  0.00     0.015 C 
ATOM     46  C   UNL     1      15.042 119.201  25.192  1.00  0.00     0.037 C 
ATOM     47  O   UNL     1      12.916 120.188  25.326  1.00  0.00    -0.369 OA
ATOM     48  C   UNL     1      15.835 121.592  25.143  1.00  0.00     0.124 C 
ATOM     49  C   UNL     1      15.211 120.447  26.043  1.00  0.00     0.026 C 
ATOM     50  C   UNL     1      14.725 117.925  26.044  1.00  0.00     0.014 C 
ATOM     51  C   UNL     1      13.720 120.761  26.350  1.00  0.00     0.171 C 
ATOM     52  C   UNL     1      16.039 120.242  27.351  1.00  0.00     0.013 C 
ATOM     53  C   UNL     1      15.690 117.703  27.226  1.00  0.00    -0.035 C 
ATOM     54  C   UNL     1      15.698 118.959  28.125  1.00  0.00     0.007 C 
ATOM     55  C   UNL     1      15.183 116.505  28.061  1.00  0.00     0.011 C 
ATOM     56  C   UNL     1      17.108 117.362  26.708  1.00  0.00     0.011 C 
BRANCH  29  57
ATOM     57  C   UNL     1      13.880 117.902  16.747  1.00  0.00     0.165 C 
BRANCH  57  58
ATOM     58  O   UNL     1      14.357 118.211  15.461  1.00  0.00    -0.396 OA
ATOM     59  H   UNL     1      15.342 118.315  15.521  1.00  0.00     0.210 HD
ENDBRANCH  57  58
ENDBRANCH  29  57
BRANCH  48  60
ATOM     60  O   UNL     1      17.229 121.703  25.311  1.00  0.00    -0.392 OA
ATOM     61  H   UNL     1      17.651 121.044  24.709  1.00  0.00     0.210 HD
ENDBRANCH  48  60
ENDBRANCH  26  27
ENDBRANCH   6  26
BRANCH   5  62
ATOM     62  O   UNL     1      17.981 122.994  18.311  1.00  0.00    -0.385 OA
ATOM     63  H   UNL     1      18.018 123.962  18.085  1.00  0.00     0.211 HD
ENDBRANCH   5  62
TORSDOF 14
ENDMDL
MODEL 3
REMARK VINA RESULT:     8.547      3.395      6.566
REMARK INTER + INTRA:          11.978
REMARK INTER:                  13.622
REMARK INTRA:                  -1.644
REMARK UNBOUND:                -1.566
REMARK SMILES C[C@H]1O[C@@H](O[C@H]2CC[C@]3(C)[C@@H](CC[C@]4(C)[C@H]3C=C[C@@]35OC[C@]6(CCC(C)(C)C[C@H]63)[C@@H](O)C[C@@]45C)[C@]2(C)CO)[C@H](O)[C@@H](O[C@@H]2O[C@H](CO)[C@@H](O)[C@H](O)[C@H]2O)[C@H]1O
REMARK SMILES IDX 1 1 2 2 54 3 41 4 39 5 4 6 3 7 55 8 42 10 43 11 52 12 44 13
REMARK SMILES IDX 50 14 45 15 48 16 53 17 51 19 46 21 47 22 49 24 5 26 6 27
REMARK SMILES IDX 7 28 35 29 8 30 11 31 36 32 9 33 12 34 10 35 16 36 13 37
REMARK SMILES IDX 14 38 17 39 15 40 33 41 18 42 19 43 32 44 34 45 29 46 20 47
REMARK SMILES IDX 30 48 22 49 28 50 21 51 23 52 25 53 24 54 26 55 27 56 37 57
REMARK SMILES IDX 38 58 31 60 40 62
REMARK H PARENT 55 9 53 18 51 20 47 23 49 25 38 59 31 61 40 63
REMARK Flexibility Score: inf
ROOT
ATOM      1  C   UNL     1      12.840 114.380  17.940  1.00  0.00     0.041 C 
ATOM      2  C   UNL     1      11.650 115.220  17.452  1.00  0.00     0.150 C 
ATOM      3  C   UNL     1      11.347 115.046  15.926  1.00  0.00     0.175 C 
ATOM      4  C   UNL     1      11.963 116.210  15.099  1.00  0.00     0.186 C 
ATOM      5  C   UNL     1      13.149 116.878  15.819  1.00  0.00     0.202 C 
ATOM      6  C   UNL     1      12.635 117.421  17.174  1.00  0.00     0.282 C 
ATOM      7  O   UNL     1      11.753 116.563  17.898  1.00  0.00    -0.344 OA
ENDROOT
BRANCH   3   8
ATOM      8  O   UNL     1      11.790 113.781  15.515  1.00  0.00    -0.388 OA
ATOM      9  H   UNL     1      10.981 113.243  15.307  1.00  0.00     0.211 HD
ENDBRANCH   3   8
BRANCH   4  10
ATOM     10  O   UNL     1      12.089 116.119  13.673  1.00  0.00    -0.341 OA
BRANCH  10  11
ATOM     11  C   UNL     1      11.141 116.731  12.801  1.00  0.00     0.282 C 
ATOM     12  C   UNL     1      11.275 118.271  12.614  1.00  0.00     0.202 C 
ATOM     13  O   UNL     1      11.104 116.050  11.565  1.00  0.00    -0.341 OA
ATOM     14  C   UNL     1      10.298 118.783  11.526  1.00  0.00     0.179 C 
ATOM     15  C   UNL     1       9.972 116.351  10.757  1.00  0.00     0.178 C 
ATOM     16  C   UNL     1       9.281 117.719  11.062  1.00  0.00     0.177 C 
BRANCH  12  17
ATOM     17  O   UNL     1      10.984 118.947  13.814  1.00  0.00    -0.385 OA
ATOM     18  H   UNL     1      11.795 119.431  14.106  1.00  0.00     0.211 HD
ENDBRANCH  12  17
BRANCH  14  19
ATOM     19  O   UNL     1      11.001 119.281  10.421  1.00  0.00    -0.387 OA
ATOM     20  H   UNL     1      11.916 118.896  10.475  1.00  0.00     0.211 HD
ENDBRANCH  14  19
BRANCH  15  21
ATOM     21  C   UNL     1      10.406 116.272   9.281  1.00  0.00     0.191 C 
BRANCH  21  22
ATOM     22  O   UNL     1      11.709 116.761   9.125  1.00  0.00    -0.394 OA
ATOM     23  H   UNL     1      11.759 117.597   9.649  1.00  0.00     0.210 HD
ENDBRANCH  21  22
ENDBRANCH  15  21
BRANCH  16  24
ATOM     24  O   UNL     1       8.296 117.531  12.049  1.00  0.00    -0.387 OA
ATOM     25  H   UNL     1       8.294 118.339  12.621  1.00  0.00     0.211 HD
ENDBRANCH  16  24
ENDBRANCH  10  11
ENDBRANCH   4  10
BRANCH   6  26
ATOM     26  O   UNL     1      13.709 117.910  17.967  1.00  0.00    -0.346 OA
BRANCH  26  27
ATOM     27  C   UNL     1      14.277 119.166  17.567  1.00  0.00     0.130 C 
ATOM     28  C   UNL     1      13.501 120.251  18.335  1.00  0.00     0.033 C 
ATOM     29  C   UNL     1      15.855 119.371  17.756  1.00  0.00     0.020 C 
ATOM     30  C   UNL     1      13.736 120.168  19.841  1.00  0.00     0.010 C 
ATOM     31  C   UNL     1      16.321 119.793  19.257  1.00  0.00     0.006 C 
ATOM     32  C   UNL     1      16.651 118.131  17.251  1.00  0.00     0.017 C 
ATOM     33  C   UNL     1      15.234 120.328  20.298  1.00  0.00    -0.022 C 
ATOM     34  C   UNL     1      17.486 118.968  19.945  1.00  0.00     0.005 C 
ATOM     35  C   UNL     1      15.396 121.879  20.465  1.00  0.00     0.012 C 
ATOM     36  C   UNL     1      15.412 119.623  21.725  1.00  0.00     0.024 C 
ATOM     37  C   UNL     1      17.122 117.895  21.009  1.00  0.00     0.008 C 
ATOM     38  C   UNL     1      15.707 118.067  21.671  1.00  0.00    -0.017 C 
ATOM     39  C   UNL     1      16.534 120.237  22.577  1.00  0.00    -0.024 C 
ATOM     40  C   UNL     1      14.758 117.255  20.756  1.00  0.00     0.013 C 
ATOM     41  C   UNL     1      15.626 117.465  23.184  1.00  0.00     0.009 C 
ATOM     42  C   UNL     1      16.979 119.607  23.669  1.00  0.00     0.005 C 
ATOM     43  C   UNL     1      16.175 118.496  24.297  1.00  0.00     0.096 C 
ATOM     44  C   UNL     1      14.142 117.104  23.551  1.00  0.00     0.043 C 
ATOM     45  C   UNL     1      16.428 116.114  23.247  1.00  0.00     0.015 C 
ATOM     46  C   UNL     1      15.060 119.150  25.172  1.00  0.00     0.037 C 
ATOM     47  O   UNL     1      16.970 117.785  25.228  1.00  0.00    -0.369 OA
ATOM     48  C   UNL     1      13.839 116.947  25.067  1.00  0.00     0.124 C 
ATOM     49  C   UNL     1      14.678 117.927  25.988  1.00  0.00     0.026 C 
ATOM     50  C   UNL     1      15.620 120.316  26.055  1.00  0.00     0.014 C 
ATOM     51  C   UNL     1      16.091 117.335  26.251  1.00  0.00     0.171 C 
ATOM     52  C   UNL     1      13.923 118.236  27.319  1.00  0.00     0.013 C 
ATOM     53  C   UNL     1      14.731 120.671  27.265  1.00  0.00    -0.035 C 
ATOM     54  C   UNL     1      14.507 119.406  28.125  1.00  0.00     0.007 C 
ATOM     55  C   UNL     1      15.464 121.726  28.125  1.00  0.00     0.011 C 
ATOM     56  C   UNL     1      13.393 121.283  26.789  1.00  0.00     0.011 C 
BRANCH  29  57
ATOM     57  C   UNL     1      16.304 120.503  16.747  1.00  0.00     0.165 C 
BRANCH  57  58
ATOM     58  O   UNL     1      15.737 120.347  15.471  1.00  0.00    -0.396 OA
ATOM     59  H   UNL     1      15.791 121.222  15.006  1.00  0.00     0.210 HD
ENDBRANCH  57  58
ENDBRANCH  29  57
BRANCH  48  60
ATOM     60  O   UNL     1      12.452 117.089  25.262  1.00  0.00    -0.392 OA
ATOM     61  H   UNL     1      12.080 117.503  24.447  1.00  0.00     0.210 HD
ENDBRANCH  48  60
ENDBRANCH  26  27
ENDBRANCH   6  26
BRANCH   5  62
ATOM     62  O   UNL     1      13.678 117.935  15.050  1.00  0.00    -0.385 OA
ATOM     63  H   UNL     1      14.359 118.412  15.596  1.00  0.00     0.211 HD
ENDBRANCH   5  62
TORSDOF 14
ENDMDL
MODEL 4
REMARK VINA RESULT:     8.670      3.632      7.689
REMARK INTER + INTRA:          12.172
REMARK INTER:                  13.846
REMARK INTRA:                  -1.674
REMARK UNBOUND:                -1.566
REMARK SMILES C[C@H]1O[C@@H](O[C@H]2CC[C@]3(C)[C@@H](CC[C@]4(C)[C@H]3C=C[C@@]35OC[C@]6(CCC(C)(C)C[C@H]63)[C@@H](O)C[C@@]45C)[C@]2(C)CO)[C@H](O)[C@@H](O[C@@H]2O[C@H](CO)[C@@H](O)[C@H](O)[C@H]2O)[C@H]1O
REMARK SMILES IDX 1 1 2 2 54 3 41 4 39 5 4 6 3 7 55 8 42 10 43 11 52 12 44 13
REMARK SMILES IDX 50 14 45 15 48 16 53 17 51 19 46 21 47 22 49 24 5 26 6 27
REMARK SMILES IDX 7 28 35 29 8 30 11 31 36 32 9 33 12 34 10 35 16 36 13 37
REMARK SMILES IDX 14 38 17 39 15 40 33 41 18 42 19 43 32 44 34 45 29 46 20 47
REMARK SMILES IDX 30 48 22 49 28 50 21 51 23 52 25 53 24 54 26 55 27 56 37 57
REMARK SMILES IDX 38 58 31 60 40 62
REMARK H PARENT 55 9 53 18 51 20 47 23 49 25 38 59 31 61 40 63
REMARK Flexibility Score: inf
ROOT
ATOM      1  C   UNL     1      12.439 118.685  14.827  1.00  0.00     0.041 C 
ATOM      2  C   UNL     1      13.090 117.303  14.655  1.00  0.00     0.150 C 
ATOM      3  C   UNL     1      12.056 116.151  14.423  1.00  0.00     0.175 C 
ATOM      4  C   UNL     1      11.769 115.384  15.744  1.00  0.00     0.186 C 
ATOM      5  C   UNL     1      12.060 116.235  16.994  1.00  0.00     0.202 C 
ATOM      6  C   UNL     1      13.551 116.649  16.948  1.00  0.00     0.282 C 
ATOM      7  O   UNL     1      14.048 117.058  15.673  1.00  0.00    -0.344 OA
ENDROOT
BRANCH   3   8
ATOM      8  O   UNL     1      10.903 116.686  13.833  1.00  0.00    -0.388 OA
ATOM      9  H   UNL     1      10.876 116.358  12.895  1.00  0.00     0.211 HD
ENDBRANCH   3   8
BRANCH   4  10
ATOM     10  O   UNL     1      10.645 114.500  15.858  1.00  0.00    -0.341 OA
BRANCH  10  11
ATOM     11  C   UNL     1      10.807 113.130  16.221  1.00  0.00     0.282 C 
ATOM     12  C   UNL     1      11.891 112.337  15.435  1.00  0.00     0.202 C 
ATOM     13  O   UNL     1      10.974 113.012  17.618  1.00  0.00    -0.341 OA
ATOM     14  C   UNL     1      12.079 110.918  16.031  1.00  0.00     0.179 C 
ATOM     15  C   UNL     1      10.803 111.693  18.125  1.00  0.00     0.178 C 
ATOM     16  C   UNL     1      11.013 110.547  17.084  1.00  0.00     0.177 C 
BRANCH  12  17
ATOM     17  O   UNL     1      11.525 112.195  14.083  1.00  0.00    -0.385 OA
ATOM     18  H   UNL     1      10.554 112.016  14.038  1.00  0.00     0.211 HD
ENDBRANCH  12  17
BRANCH  14  19
ATOM     19  O   UNL     1      13.360 110.776  16.582  1.00  0.00    -0.387 OA
ATOM     20  H   UNL     1      13.228 110.561  17.543  1.00  0.00     0.211 HD
ENDBRANCH  14  19
BRANCH  15  21
ATOM     21  C   UNL     1      11.746 111.520  19.330  1.00  0.00     0.191 C 
BRANCH  21  22
ATOM     22  O   UNL     1      12.861 112.358  19.207  1.00  0.00    -0.394 OA
ATOM     23  H   UNL     1      13.082 112.391  18.244  1.00  0.00     0.210 HD
ENDBRANCH  21  22
ENDBRANCH  15  21
BRANCH  16  24
ATOM     24  O   UNL     1       9.788 110.265  16.450  1.00  0.00    -0.387 OA
ATOM     25  H   UNL     1       9.083 110.298  17.144  1.00  0.00     0.211 HD
ENDBRANCH  16  24
ENDBRANCH  10  11
ENDBRANCH   4  10
BRANCH   6  26
ATOM     26  O   UNL     1      13.855 117.572  17.985  1.00  0.00    -0.346 OA
BRANCH  26  27
ATOM     27  C   UNL     1      14.124 118.922  17.578  1.00  0.00     0.130 C 
ATOM     28  C   UNL     1      13.157 119.812  18.380  1.00  0.00     0.033 C 
ATOM     29  C   UNL     1      15.626 119.465  17.719  1.00  0.00     0.020 C 
ATOM     30  C   UNL     1      13.455 119.779  19.877  1.00  0.00     0.010 C 
ATOM     31  C   UNL     1      16.038 119.975  19.207  1.00  0.00     0.006 C 
ATOM     32  C   UNL     1      16.655 118.428  17.177  1.00  0.00     0.017 C 
ATOM     33  C   UNL     1      14.896 120.260  20.288  1.00  0.00    -0.022 C 
ATOM     34  C   UNL     1      17.377 119.421  19.851  1.00  0.00     0.005 C 
ATOM     35  C   UNL     1      14.724 121.808  20.463  1.00  0.00     0.012 C 
ATOM     36  C   UNL     1      15.270 119.607  21.702  1.00  0.00     0.024 C 
ATOM     37  C   UNL     1      17.289 118.292  20.916  1.00  0.00     0.008 C 
ATOM     38  C   UNL     1      15.893 118.152  21.624  1.00  0.00    -0.017 C 
ATOM     39  C   UNL     1      16.260 120.448  22.523  1.00  0.00    -0.024 C 
ATOM     40  C   UNL     1      15.113 117.155  20.733  1.00  0.00     0.013 C 
ATOM     41  C   UNL     1      15.996 117.544  23.133  1.00  0.00     0.009 C 
ATOM     42  C   UNL     1      16.866 119.928  23.595  1.00  0.00     0.005 C 
ATOM     43  C   UNL     1      16.344 118.668  24.238  1.00  0.00     0.096 C 
ATOM     44  C   UNL     1      14.638 116.870  23.545  1.00  0.00     0.043 C 
ATOM     45  C   UNL     1      17.073 116.400  23.159  1.00  0.00     0.015 C 
ATOM     46  C   UNL     1      15.143 119.062  25.154  1.00  0.00     0.037 C 
ATOM     47  O   UNL     1      17.304 118.144  25.136  1.00  0.00    -0.369 OA
ATOM     48  C   UNL     1      14.426 116.648  25.068  1.00  0.00     0.124 C 
ATOM     49  C   UNL     1      15.063 117.785  25.970  1.00  0.00     0.026 C 
ATOM     50  C   UNL     1      15.467 120.321  26.029  1.00  0.00     0.014 C 
ATOM     51  C   UNL     1      16.578 117.512  26.183  1.00  0.00     0.171 C 
ATOM     52  C   UNL     1      14.303 117.919  27.328  1.00  0.00     0.013 C 
ATOM     53  C   UNL     1      14.562 120.472  27.269  1.00  0.00    -0.035 C 
ATOM     54  C   UNL     1      14.646 119.187  28.125  1.00  0.00     0.007 C 
ATOM     55  C   UNL     1      15.077 121.659  28.115  1.00  0.00     0.011 C 
ATOM     56  C   UNL     1      13.108 120.780  26.842  1.00  0.00     0.011 C 
BRANCH  29  57
ATOM     57  C   UNL     1      15.785 120.669  16.706  1.00  0.00     0.165 C 
BRANCH  57  58
ATOM     58  O   UNL     1      15.797 120.250  15.364  1.00  0.00    -0.396 OA
ATOM     59  H   UNL     1      15.725 119.261  15.355  1.00  0.00     0.210 HD
ENDBRANCH  57  58
ENDBRANCH  29  57
BRANCH  48  60
ATOM     60  O   UNL     1      13.048 116.485  25.309  1.00  0.00    -0.392 OA
ATOM     61  H   UNL     1      12.690 115.909  24.591  1.00  0.00     0.210 HD
ENDBRANCH  48  60
ENDBRANCH  26  27
ENDBRANCH   6  26
BRANCH   5  62
ATOM     62  O   UNL     1      11.802 115.509  18.173  1.00  0.00    -0.385 OA
ATOM     63  H   UNL     1      12.339 114.672  18.152  1.00  0.00     0.211 HD
ENDBRANCH   5  62
TORSDOF 14
ENDMDL
MODEL 5
REMARK VINA RESULT:     9.575      6.531     10.747
REMARK INTER + INTRA:          13.606
REMARK INTER:                  14.394
REMARK INTRA:                  -0.787
REMARK UNBOUND:                -1.566
REMARK SMILES C[C@H]1O[C@@H](O[C@H]2CC[C@]3(C)[C@@H](CC[C@]4(C)[C@H]3C=C[C@@]35OC[C@]6(CCC(C)(C)C[C@H]63)[C@@H](O)C[C@@]45C)[C@]2(C)CO)[C@H](O)[C@@H](O[C@@H]2O[C@H](CO)[C@@H](O)[C@H](O)[C@H]2O)[C@H]1O
REMARK SMILES IDX 1 1 2 2 54 3 41 4 39 5 4 6 3 7 55 8 42 10 43 11 52 12 44 13
REMARK SMILES IDX 50 14 45 15 48 16 53 17 51 19 46 21 47 22 49 24 5 26 6 27
REMARK SMILES IDX 7 28 35 29 8 30 11 31 36 32 9 33 12 34 10 35 16 36 13 37
REMARK SMILES IDX 14 38 17 39 15 40 33 41 18 42 19 43 32 44 34 45 29 46 20 47
REMARK SMILES IDX 30 48 22 49 28 50 21 51 23 52 25 53 24 54 26 55 27 56 37 57
REMARK SMILES IDX 38 58 31 60 40 62
REMARK H PARENT 55 9 53 18 51 20 47 23 49 25 38 59 31 61 40 63
REMARK Flexibility Score: inf
ROOT
ATOM      1  C   UNL     1      15.099 121.145   9.942  1.00  0.00     0.041 C 
ATOM      2  C   UNL     1      14.926 120.879   8.439  1.00  0.00     0.150 C 
ATOM      3  C   UNL     1      13.607 120.112   8.088  1.00  0.00     0.175 C 
ATOM      4  C   UNL     1      13.879 118.593   7.896  1.00  0.00     0.186 C 
ATOM      5  C   UNL     1      15.148 118.125   8.632  1.00  0.00     0.202 C 
ATOM      6  C   UNL     1      16.342 118.939   8.080  1.00  0.00     0.282 C 
ATOM      7  O   UNL     1      16.109 120.333   7.875  1.00  0.00    -0.344 OA
ENDROOT
BRANCH   3   8
ATOM      8  O   UNL     1      12.648 120.381   9.074  1.00  0.00    -0.388 OA
ATOM      9  H   UNL     1      11.936 119.694   8.983  1.00  0.00     0.211 HD
ENDBRANCH   3   8
BRANCH   4  10
ATOM     10  O   UNL     1      12.803 117.645   7.875  1.00  0.00    -0.341 OA
BRANCH  10  11
ATOM     11  C   UNL     1      11.851 117.575   8.935  1.00  0.00     0.282 C 
ATOM     12  C   UNL     1      12.432 117.570  10.379  1.00  0.00     0.202 C 
ATOM     13  O   UNL     1      10.859 118.566   8.767  1.00  0.00    -0.341 OA
ATOM     14  C   UNL     1      11.298 117.655  11.432  1.00  0.00     0.179 C 
ATOM     15  C   UNL     1       9.691 118.374   9.558  1.00  0.00     0.178 C 
ATOM     16  C   UNL     1       9.886 117.489  10.831  1.00  0.00     0.177 C 
BRANCH  12  17
ATOM     17  O   UNL     1      13.162 116.391  10.621  1.00  0.00    -0.385 OA
ATOM     18  H   UNL     1      14.110 116.557  10.393  1.00  0.00     0.211 HD
ENDBRANCH  12  17
BRANCH  14  19
ATOM     19  O   UNL     1      11.372 118.859  12.146  1.00  0.00    -0.387 OA
ATOM     20  H   UNL     1      10.515 118.942  12.642  1.00  0.00     0.211 HD
ENDBRANCH  14  19
BRANCH  15  21
ATOM     21  C   UNL     1       9.137 119.761   9.932  1.00  0.00     0.191 C 
BRANCH  21  22
ATOM     22  O   UNL     1      10.178 120.628  10.287  1.00  0.00    -0.394 OA
ATOM     23  H   UNL     1       9.775 121.526  10.381  1.00  0.00     0.210 HD
ENDBRANCH  21  22
ENDBRANCH  15  21
BRANCH  16  24
ATOM     24  O   UNL     1       9.660 116.141  10.498  1.00  0.00    -0.387 OA
ATOM     25  H   UNL     1       8.681 116.019  10.411  1.00  0.00     0.211 HD
ENDBRANCH  16  24
ENDBRANCH  10  11
ENDBRANCH   4  10
BRANCH   6  26
ATOM     26  O   UNL     1      17.524 118.678   8.826  1.00  0.00    -0.346 OA
BRANCH  26  27
ATOM     27  C   UNL     1      18.761 119.088   8.224  1.00  0.00     0.130 C 
ATOM     28  C   UNL     1      18.670 120.615   8.054  1.00  0.00     0.033 C 
ATOM     29  C   UNL     1      20.126 118.690   8.965  1.00  0.00     0.020 C 
ATOM     30  C   UNL     1      18.621 121.340   9.396  1.00  0.00     0.010 C 
ATOM     31  C   UNL     1      20.555 119.671  10.190  1.00  0.00     0.006 C 
ATOM     32  C   UNL     1      20.110 117.200   9.419  1.00  0.00     0.017 C 
ATOM     33  C   UNL     1      19.860 121.101  10.336  1.00  0.00    -0.022 C 
ATOM     34  C   UNL     1      20.926 119.015  11.586  1.00  0.00     0.005 C 
ATOM     35  C   UNL     1      20.870 122.216   9.892  1.00  0.00     0.012 C 
ATOM     36  C   UNL     1      19.412 121.369  11.851  1.00  0.00     0.024 C 
ATOM     37  C   UNL     1      19.875 119.038  12.731  1.00  0.00     0.008 C 
ATOM     38  C   UNL     1      18.753 120.128  12.584  1.00  0.00    -0.017 C 
ATOM     39  C   UNL     1      20.563 121.834  12.758  1.00  0.00    -0.024 C 
ATOM     40  C   UNL     1      17.634 119.418  11.784  1.00  0.00     0.013 C 
ATOM     41  C   UNL     1      18.147 120.625  14.013  1.00  0.00     0.009 C 
ATOM     42  C   UNL     1      20.417 121.848  14.086  1.00  0.00     0.005 C 
ATOM     43  C   UNL     1      19.046 121.770  14.710  1.00  0.00     0.096 C 
ATOM     44  C   UNL     1      16.697 121.200  13.823  1.00  0.00     0.043 C 
ATOM     45  C   UNL     1      17.999 119.388  14.971  1.00  0.00     0.015 C 
ATOM     46  C   UNL     1      18.418 123.198  14.661  1.00  0.00     0.037 C 
ATOM     47  O   UNL     1      19.154 121.490  16.093  1.00  0.00    -0.369 OA
ATOM     48  C   UNL     1      16.171 122.102  14.974  1.00  0.00     0.124 C 
ATOM     49  C   UNL     1      17.298 122.978  15.661  1.00  0.00     0.026 C 
ATOM     50  C   UNL     1      19.434 124.298  15.121  1.00  0.00     0.014 C 
ATOM     51  C   UNL     1      18.056 122.136  16.725  1.00  0.00     0.171 C 
ATOM     52  C   UNL     1      16.700 124.284  16.276  1.00  0.00     0.013 C 
ATOM     53  C   UNL     1      18.772 125.620  15.561  1.00  0.00    -0.035 C 
ATOM     54  C   UNL     1      17.748 125.332  16.683  1.00  0.00     0.007 C 
ATOM     55  C   UNL     1      19.864 126.557  16.124  1.00  0.00     0.011 C 
ATOM     56  C   UNL     1      18.111 126.322  14.352  1.00  0.00     0.011 C 
BRANCH  29  57
ATOM     57  C   UNL     1      21.272 118.706   7.875  1.00  0.00     0.165 C 
BRANCH  57  58
ATOM     58  O   UNL     1      22.376 119.487   8.261  1.00  0.00    -0.396 OA
ATOM     59  H   UNL     1      23.184 118.915   8.208  1.00  0.00     0.210 HD
ENDBRANCH  57  58
ENDBRANCH  29  57
BRANCH  48  60
ATOM     60  O   UNL     1      15.112 122.887  14.477  1.00  0.00    -0.392 OA
ATOM     61  H   UNL     1      15.491 123.499  13.801  1.00  0.00     0.210 HD
ENDBRANCH  48  60
ENDBRANCH  26  27
ENDBRANCH   6  26
BRANCH   5  62
ATOM     62  O   UNL     1      15.373 116.749   8.429  1.00  0.00    -0.385 OA
ATOM     63  H   UNL     1      14.497 116.279   8.459  1.00  0.00     0.211 HD
ENDBRANCH   5  62
TORSDOF 14
ENDMDL
