MODEL 1
REMARK VINA RESULT:    -4.079      0.000      0.000
REMARK INTER + INTRA:          -8.694
REMARK INTER:                  -7.179
REMARK INTRA:                  -1.515
REMARK UNBOUND:                -1.515
REMARK SMILES CCCCCCCCCCCCCCC(=O)[O-]
REMARK SMILES IDX 9 1 10 2 11 3 12 4 13 5 14 6 15 7 16 8 17 9 8 10 7 11 6 12
REMARK SMILES IDX 5 13 4 14 3 15 2 16 1 17
REMARK H PARENT
REMARK Flexibility Score: inf
ROOT
ATOM      1  C   UNL     1      13.432  22.258 -25.765  1.00  0.00     0.000 C 
ENDROOT
BRANCH   1   2
ATOM      2  C   UNL     1      12.570  23.315 -25.046  1.00  0.00     0.000 C 
BRANCH   2   3
ATOM      3  C   UNL     1      12.220  22.981 -23.585  1.00  0.00     0.000 C 
BRANCH   3   4
ATOM      4  C   UNL     1      13.389  22.429 -22.742  1.00  0.00     0.000 C 
BRANCH   4   5
ATOM      5  C   UNL     1      13.292  22.707 -21.231  1.00  0.00     0.006 C 
BRANCH   5   6
ATOM      6  C   UNL     1      12.396  21.702 -20.496  1.00  0.00     0.053 C 
BRANCH   6   7
ATOM      7  C   UNL     1      12.753  21.649 -19.044  1.00  0.00     0.041 C 
ATOM      8  O   UNL     1      13.811  21.076 -18.672  1.00  0.00    -0.550 OA
ATOM      9  O   UNL     1      11.894  22.189 -18.096  1.00  0.00    -0.550 OA
ENDBRANCH   6   7
ENDBRANCH   5   6
ENDBRANCH   4   5
ENDBRANCH   3   4
ENDBRANCH   2   3
ENDBRANCH   1   2
BRANCH   1  10
ATOM     10  C   UNL     1      13.265  22.261 -27.300  1.00  0.00     0.000 C 
BRANCH  10  11
ATOM     11  C   UNL     1      12.659  20.950 -27.828  1.00  0.00    -0.000 C 
BRANCH  11  12
ATOM     12  C   UNL     1      12.140  20.042 -26.702  1.00  0.00    -0.000 C 
BRANCH  12  13
ATOM     13  C   UNL     1      12.762  18.638 -26.742  1.00  0.00    -0.000 C 
BRANCH  13  14
ATOM     14  C   UNL     1      12.938  18.075 -25.326  1.00  0.00    -0.000 C 
BRANCH  14  15
ATOM     15  C   UNL     1      12.633  19.142 -24.267  1.00  0.00    -0.000 C 
BRANCH  15  16
ATOM     16  C   UNL     1      12.807  18.578 -22.853  1.00  0.00    -0.003 C 
ATOM     17  C   UNL     1      14.201  18.873 -22.309  1.00  0.00     0.004 C 
ENDBRANCH  15  16
ENDBRANCH  14  15
ENDBRANCH  13  14
ENDBRANCH  12  13
ENDBRANCH  11  12
ENDBRANCH  10  11
ENDBRANCH   1  10
TORSDOF 13
ENDMDL
MODEL 2
REMARK VINA RESULT:    -4.073      3.371      6.359
REMARK INTER + INTRA:          -8.684
REMARK INTER:                  -7.865
REMARK INTRA:                  -0.819
REMARK UNBOUND:                -1.515
REMARK SMILES CCCCCCCCCCCCCCC(=O)[O-]
REMARK SMILES IDX 9 1 10 2 11 3 12 4 13 5 14 6 15 7 16 8 17 9 8 10 7 11 6 12
REMARK SMILES IDX 5 13 4 14 3 15 2 16 1 17
REMARK H PARENT
REMARK Flexibility Score: inf
ROOT
ATOM      1  C   UNL     1      13.583  22.154 -23.136  1.00  0.00     0.000 C 
ENDROOT
BRANCH   1   2
ATOM      2  C   UNL     1      13.688  22.884 -24.489  1.00  0.00     0.000 C 
BRANCH   2   3
ATOM      3  C   UNL     1      12.459  22.733 -25.403  1.00  0.00     0.000 C 
BRANCH   3   4
ATOM      4  C   UNL     1      12.776  22.436 -26.884  1.00  0.00     0.000 C 
BRANCH   4   5
ATOM      5  C   UNL     1      12.611  20.965 -27.305  1.00  0.00     0.006 C 
BRANCH   5   6
ATOM      6  C   UNL     1      12.242  20.046 -26.132  1.00  0.00     0.053 C 
BRANCH   6   7
ATOM      7  C   UNL     1      12.562  18.624 -26.464  1.00  0.00     0.041 C 
ATOM      8  O   UNL     1      12.193  18.130 -27.562  1.00  0.00    -0.550 OA
ATOM      9  O   UNL     1      13.226  17.826 -25.540  1.00  0.00    -0.550 OA
ENDBRANCH   6   7
ENDBRANCH   5   6
ENDBRANCH   4   5
ENDBRANCH   3   4
ENDBRANCH   2   3
ENDBRANCH   1   2
BRANCH   1  10
ATOM     10  C   UNL     1      12.411  22.643 -22.257  1.00  0.00     0.000 C 
BRANCH  10  11
ATOM     11  C   UNL     1      12.886  23.228 -20.915  1.00  0.00    -0.000 C 
BRANCH  11  12
ATOM     12  C   UNL     1      12.179  22.591 -19.708  1.00  0.00    -0.000 C 
BRANCH  12  13
ATOM     13  C   UNL     1      13.134  21.767 -18.832  1.00  0.00    -0.000 C 
BRANCH  13  14
ATOM     14  C   UNL     1      13.783  20.637 -19.641  1.00  0.00    -0.000 C 
BRANCH  14  15
ATOM     15  C   UNL     1      14.947  20.005 -18.867  1.00  0.00    -0.000 C 
BRANCH  15  16
ATOM     16  C   UNL     1      15.473  20.959 -17.790  1.00  0.00    -0.003 C 
ATOM     17  C   UNL     1      16.913  21.375 -18.077  1.00  0.00     0.004 C 
ENDBRANCH  15  16
ENDBRANCH  14  15
ENDBRANCH  13  14
ENDBRANCH  12  13
ENDBRANCH  11  12
ENDBRANCH  10  11
ENDBRANCH   1  10
TORSDOF 13
ENDMDL
MODEL 3
REMARK VINA RESULT:    -4.065      1.517      2.524
REMARK INTER + INTRA:          -8.669
REMARK INTER:                  -7.631
REMARK INTRA:                  -1.037
REMARK UNBOUND:                -1.515
REMARK SMILES CCCCCCCCCCCCCCC(=O)[O-]
REMARK SMILES IDX 9 1 10 2 11 3 12 4 13 5 14 6 15 7 16 8 17 9 8 10 7 11 6 12
REMARK SMILES IDX 5 13 4 14 3 15 2 16 1 17
REMARK H PARENT
REMARK Flexibility Score: inf
ROOT
ATOM      1  C   UNL     1      12.871  23.398 -23.908  1.00  0.00     0.000 C 
ENDROOT
BRANCH   1   2
ATOM      2  C   UNL     1      13.198  22.557 -22.659  1.00  0.00     0.000 C 
BRANCH   2   3
ATOM      3  C   UNL     1      11.996  22.262 -21.744  1.00  0.00     0.000 C 
BRANCH   3   4
ATOM      4  C   UNL     1      12.245  22.499 -20.239  1.00  0.00     0.000 C 
BRANCH   4   5
ATOM      5  C   UNL     1      13.677  22.204 -19.760  1.00  0.00     0.006 C 
BRANCH   5   6
ATOM      6  C   UNL     1      13.715  21.395 -18.457  1.00  0.00     0.053 C 
BRANCH   6   7
ATOM      7  C   UNL     1      15.090  20.855 -18.219  1.00  0.00     0.041 C 
ATOM      8  O   UNL     1      15.303  19.616 -18.274  1.00  0.00    -0.550 OA
ATOM      9  O   UNL     1      16.128  21.718 -17.886  1.00  0.00    -0.550 OA
ENDBRANCH   6   7
ENDBRANCH   5   6
ENDBRANCH   4   5
ENDBRANCH   3   4
ENDBRANCH   2   3
ENDBRANCH   1   2
BRANCH   1  10
ATOM     10  C   UNL     1      13.488  22.842 -25.210  1.00  0.00     0.000 C 
BRANCH  10  11
ATOM     11  C   UNL     1      12.422  22.456 -26.249  1.00  0.00    -0.000 C 
BRANCH  11  12
ATOM     12  C   UNL     1      13.031  22.072 -27.607  1.00  0.00    -0.000 C 
BRANCH  12  13
ATOM     13  C   UNL     1      12.689  20.634 -28.023  1.00  0.00    -0.000 C 
BRANCH  13  14
ATOM     14  C   UNL     1      12.062  19.860 -26.856  1.00  0.00    -0.000 C 
BRANCH  14  15
ATOM     15  C   UNL     1      12.601  18.425 -26.794  1.00  0.00    -0.000 C 
BRANCH  15  16
ATOM     16  C   UNL     1      12.934  18.025 -25.353  1.00  0.00    -0.003 C 
ATOM     17  C   UNL     1      12.875  19.229 -24.418  1.00  0.00     0.004 C 
ENDBRANCH  15  16
ENDBRANCH  14  15
ENDBRANCH  13  14
ENDBRANCH  12  13
ENDBRANCH  11  12
ENDBRANCH  10  11
ENDBRANCH   1  10
TORSDOF 13
ENDMDL
MODEL 4
REMARK VINA RESULT:    -4.013      3.110      5.704
REMARK INTER + INTRA:          -8.578
REMARK INTER:                  -8.069
REMARK INTRA:                  -0.509
REMARK UNBOUND:                -1.515
REMARK SMILES CCCCCCCCCCCCCCC(=O)[O-]
REMARK SMILES IDX 9 1 10 2 11 3 12 4 13 5 14 6 15 7 16 8 17 9 8 10 7 11 6 12
REMARK SMILES IDX 5 13 4 14 3 15 2 16 1 17
REMARK H PARENT
REMARK Flexibility Score: inf
ROOT
ATOM      1  C   UNL     1      12.092  22.781 -19.553  1.00  0.00     0.000 C 
ENDROOT
BRANCH   1   2
ATOM      2  C   UNL     1      12.856  21.877 -18.566  1.00  0.00     0.000 C 
BRANCH   2   3
ATOM      3  C   UNL     1      14.245  21.421 -19.048  1.00  0.00     0.000 C 
BRANCH   3   4
ATOM      4  C   UNL     1      15.155  20.825 -17.954  1.00  0.00     0.000 C 
BRANCH   4   5
ATOM      5  C   UNL     1      16.545  20.373 -18.435  1.00  0.00     0.006 C 
BRANCH   5   6
ATOM      6  C   UNL     1      17.673  20.801 -17.487  1.00  0.00     0.053 C 
BRANCH   6   7
ATOM      7  C   UNL     1      18.136  19.639 -16.669  1.00  0.00     0.041 C 
ATOM      8  O   UNL     1      17.339  19.053 -15.890  1.00  0.00    -0.550 OA
ATOM      9  O   UNL     1      19.464  19.231 -16.727  1.00  0.00    -0.550 OA
ENDBRANCH   6   7
ENDBRANCH   5   6
ENDBRANCH   4   5
ENDBRANCH   3   4
ENDBRANCH   2   3
ENDBRANCH   1   2
BRANCH   1  10
ATOM     10  C   UNL     1      12.868  23.071 -20.857  1.00  0.00     0.000 C 
BRANCH  10  11
ATOM     11  C   UNL     1      12.270  22.341 -22.072  1.00  0.00    -0.000 C 
BRANCH  11  12
ATOM     12  C   UNL     1      12.652  23.002 -23.406  1.00  0.00    -0.000 C 
BRANCH  12  13
ATOM     13  C   UNL     1      13.113  21.984 -24.459  1.00  0.00    -0.000 C 
BRANCH  13  14
ATOM     14  C   UNL     1      13.777  22.688 -25.649  1.00  0.00    -0.000 C 
BRANCH  14  15
ATOM     15  C   UNL     1      12.966  22.483 -26.934  1.00  0.00    -0.000 C 
BRANCH  15  16
ATOM     16  C   UNL     1      12.248  21.129 -26.920  1.00  0.00    -0.003 C 
ATOM     17  C   UNL     1      12.245  20.491 -28.306  1.00  0.00     0.004 C 
ENDBRANCH  15  16
ENDBRANCH  14  15
ENDBRANCH  13  14
ENDBRANCH  12  13
ENDBRANCH  11  12
ENDBRANCH  10  11
ENDBRANCH   1  10
TORSDOF 13
ENDMDL
MODEL 5
REMARK VINA RESULT:    -3.892      1.814      3.868
REMARK INTER + INTRA:          -8.365
REMARK INTER:                  -6.673
REMARK INTRA:                  -1.691
REMARK UNBOUND:                -1.515
REMARK SMILES CCCCCCCCCCCCCCC(=O)[O-]
REMARK SMILES IDX 9 1 10 2 11 3 12 4 13 5 14 6 15 7 16 8 17 9 8 10 7 11 6 12
REMARK SMILES IDX 5 13 4 14 3 15 2 16 1 17
REMARK H PARENT
REMARK Flexibility Score: inf
ROOT
ATOM      1  C   UNL     1      12.545  23.016 -22.514  1.00  0.00     0.000 C 
ENDROOT
BRANCH   1   2
ATOM      2  C   UNL     1      12.938  23.194 -21.035  1.00  0.00     0.000 C 
BRANCH   2   3
ATOM      3  C   UNL     1      11.993  22.514 -20.028  1.00  0.00     0.000 C 
BRANCH   3   4
ATOM      4  C   UNL     1      12.663  21.489 -19.090  1.00  0.00     0.000 C 
BRANCH   4   5
ATOM      5  C   UNL     1      14.188  21.356 -19.251  1.00  0.00     0.006 C 
BRANCH   5   6
ATOM      6  C   UNL     1      14.650  19.899 -19.385  1.00  0.00     0.053 C 
BRANCH   6   7
ATOM      7  C   UNL     1      15.637  19.564 -18.313  1.00  0.00     0.041 C 
ATOM      8  O   UNL     1      16.072  20.464 -17.547  1.00  0.00    -0.550 OA
ATOM      9  O   UNL     1      16.116  18.265 -18.189  1.00  0.00    -0.550 OA
ENDBRANCH   6   7
ENDBRANCH   5   6
ENDBRANCH   4   5
ENDBRANCH   3   4
ENDBRANCH   2   3
ENDBRANCH   1   2
BRANCH   1  10
ATOM     10  C   UNL     1      13.595  22.249 -23.347  1.00  0.00     0.000 C 
BRANCH  10  11
ATOM     11  C   UNL     1      13.571  20.735 -23.075  1.00  0.00    -0.000 C 
BRANCH  11  12
ATOM     12  C   UNL     1      12.176  20.120 -23.275  1.00  0.00    -0.000 C 
BRANCH  12  13
ATOM     13  C   UNL     1      12.193  18.915 -24.226  1.00  0.00    -0.000 C 
BRANCH  13  14
ATOM     14  C   UNL     1      12.761  19.305 -25.596  1.00  0.00    -0.000 C 
BRANCH  14  15
ATOM     15  C   UNL     1      11.903  20.389 -26.260  1.00  0.00    -0.000 C 
BRANCH  15  16
ATOM     16  C   UNL     1      12.779  21.511 -26.829  1.00  0.00    -0.003 C 
ATOM     17  C   UNL     1      12.102  22.870 -26.677  1.00  0.00     0.004 C 
ENDBRANCH  15  16
ENDBRANCH  14  15
ENDBRANCH  13  14
ENDBRANCH  12  13
ENDBRANCH  11  12
ENDBRANCH  10  11
ENDBRANCH   1  10
TORSDOF 13
ENDMDL
MODEL 6
REMARK VINA RESULT:    -3.826     20.548     22.494
REMARK INTER + INTRA:          -8.249
REMARK INTER:                  -7.333
REMARK INTRA:                  -0.917
REMARK UNBOUND:                -1.515
REMARK SMILES CCCCCCCCCCCCCCC(=O)[O-]
REMARK SMILES IDX 9 1 10 2 11 3 12 4 13 5 14 6 15 7 16 8 17 9 8 10 7 11 6 12
REMARK SMILES IDX 5 13 4 14 3 15 2 16 1 17
REMARK H PARENT
REMARK Flexibility Score: inf
ROOT
ATOM      1  C   UNL     1      27.247   7.170 -20.079  1.00  0.00     0.000 C 
ENDROOT
BRANCH   1   2
ATOM      2  C   UNL     1      27.693   7.593 -18.666  1.00  0.00     0.000 C 
BRANCH   2   3
ATOM      3  C   UNL     1      28.740   6.672 -18.015  1.00  0.00     0.000 C 
BRANCH   3   4
ATOM      4  C   UNL     1      28.269   5.945 -16.738  1.00  0.00     0.000 C 
BRANCH   4   5
ATOM      5  C   UNL     1      27.073   6.595 -16.020  1.00  0.00     0.006 C 
BRANCH   5   6
ATOM      6  C   UNL     1      25.824   5.704 -16.013  1.00  0.00     0.053 C 
BRANCH   6   7
ATOM      7  C   UNL     1      25.762   4.904 -14.752  1.00  0.00     0.041 C 
ATOM      8  O   UNL     1      26.531   3.922 -14.584  1.00  0.00    -0.550 OA
ATOM      9  O   UNL     1      24.819   5.212 -13.778  1.00  0.00    -0.550 OA
ENDBRANCH   6   7
ENDBRANCH   5   6
ENDBRANCH   4   5
ENDBRANCH   3   4
ENDBRANCH   2   3
ENDBRANCH   1   2
BRANCH   1  10
ATOM     10  C   UNL     1      27.684   5.740 -20.466  1.00  0.00     0.000 C 
BRANCH  10  11
ATOM     11  C   UNL     1      28.709   5.728 -21.612  1.00  0.00    -0.000 C 
BRANCH  11  12
ATOM     12  C   UNL     1      30.048   5.094 -21.202  1.00  0.00    -0.000 C 
BRANCH  12  13
ATOM     13  C   UNL     1      30.652   4.221 -22.312  1.00  0.00    -0.000 C 
BRANCH  13  14
ATOM     14  C   UNL     1      30.037   4.563 -23.675  1.00  0.00    -0.000 C 
BRANCH  14  15
ATOM     15  C   UNL     1      30.990   4.192 -24.818  1.00  0.00    -0.000 C 
BRANCH  15  16
ATOM     16  C   UNL     1      30.217   3.920 -26.113  1.00  0.00    -0.003 C 
ATOM     17  C   UNL     1      28.713   4.064 -25.897  1.00  0.00     0.004 C 
ENDBRANCH  15  16
ENDBRANCH  14  15
ENDBRANCH  13  14
ENDBRANCH  12  13
ENDBRANCH  11  12
ENDBRANCH  10  11
ENDBRANCH   1  10
TORSDOF 13
ENDMDL
MODEL 7
REMARK VINA RESULT:    -3.807      3.583      5.594
REMARK INTER + INTRA:          -8.215
REMARK INTER:                  -6.597
REMARK INTRA:                  -1.618
REMARK UNBOUND:                -1.515
REMARK SMILES CCCCCCCCCCCCCCC(=O)[O-]
REMARK SMILES IDX 9 1 10 2 11 3 12 4 13 5 14 6 15 7 16 8 17 9 8 10 7 11 6 12
REMARK SMILES IDX 5 13 4 14 3 15 2 16 1 17
REMARK H PARENT
REMARK Flexibility Score: inf
ROOT
ATOM      1  C   UNL     1      14.059  22.354 -19.844  1.00  0.00     0.000 C 
ENDROOT
BRANCH   1   2
ATOM      2  C   UNL     1      13.715  21.445 -18.649  1.00  0.00     0.000 C 
BRANCH   2   3
ATOM      3  C   UNL     1      14.930  20.830 -17.931  1.00  0.00     0.000 C 
BRANCH   3   4
ATOM      4  C   UNL     1      16.244  21.629 -18.068  1.00  0.00     0.000 C 
BRANCH   4   5
ATOM      5  C   UNL     1      17.521  20.854 -17.698  1.00  0.00     0.006 C 
BRANCH   5   6
ATOM      6  C   UNL     1      17.230  19.446 -17.161  1.00  0.00     0.053 C 
BRANCH   6   7
ATOM      7  C   UNL     1      18.209  19.084 -16.089  1.00  0.00     0.041 C 
ATOM      8  O   UNL     1      17.807  18.830 -14.924  1.00  0.00    -0.550 OA
ATOM      9  O   UNL     1      19.571  19.076 -16.364  1.00  0.00    -0.550 OA
ENDBRANCH   6   7
ENDBRANCH   5   6
ENDBRANCH   4   5
ENDBRANCH   3   4
ENDBRANCH   2   3
ENDBRANCH   1   2
BRANCH   1  10
ATOM     10  C   UNL     1      12.828  23.041 -20.475  1.00  0.00     0.000 C 
BRANCH  10  11
ATOM     11  C   UNL     1      12.779  22.872 -22.003  1.00  0.00    -0.000 C 
BRANCH  11  12
ATOM     12  C   UNL     1      12.353  21.458 -22.430  1.00  0.00    -0.000 C 
BRANCH  12  13
ATOM     13  C   UNL     1      13.474  20.696 -23.152  1.00  0.00    -0.000 C 
BRANCH  13  14
ATOM     14  C   UNL     1      13.454  19.208 -22.779  1.00  0.00    -0.000 C 
BRANCH  14  15
ATOM     15  C   UNL     1      13.041  19.012 -21.315  1.00  0.00    -0.000 C 
BRANCH  15  16
ATOM     16  C   UNL     1      13.948  17.992 -20.619  1.00  0.00    -0.003 C 
ATOM     17  C   UNL     1      15.399  18.465 -20.604  1.00  0.00     0.004 C 
ENDBRANCH  15  16
ENDBRANCH  14  15
ENDBRANCH  13  14
ENDBRANCH  12  13
ENDBRANCH  11  12
ENDBRANCH  10  11
ENDBRANCH   1  10
TORSDOF 13
ENDMDL
MODEL 8
REMARK VINA RESULT:    -3.774      3.705      6.284
REMARK INTER + INTRA:          -8.157
REMARK INTER:                  -6.298
REMARK INTRA:                  -1.859
REMARK UNBOUND:                -1.515
REMARK SMILES CCCCCCCCCCCCCCC(=O)[O-]
REMARK SMILES IDX 9 1 10 2 11 3 12 4 13 5 14 6 15 7 16 8 17 9 8 10 7 11 6 12
REMARK SMILES IDX 5 13 4 14 3 15 2 16 1 17
REMARK H PARENT
REMARK Flexibility Score: inf
ROOT
ATOM      1  C   UNL     1      13.333  21.568 -22.966  1.00  0.00     0.000 C 
ENDROOT
BRANCH   1   2
ATOM      2  C   UNL     1      13.436  20.031 -23.010  1.00  0.00     0.000 C 
BRANCH   2   3
ATOM      3  C   UNL     1      12.788  19.304 -21.818  1.00  0.00     0.000 C 
BRANCH   3   4
ATOM      4  C   UNL     1      13.772  18.554 -20.895  1.00  0.00     0.000 C 
BRANCH   4   5
ATOM      5  C   UNL     1      15.061  18.062 -21.578  1.00  0.00     0.006 C 
BRANCH   5   6
ATOM      6  C   UNL     1      15.133  16.533 -21.685  1.00  0.00     0.053 C 
BRANCH   6   7
ATOM      7  C   UNL     1      15.013  16.104 -23.113  1.00  0.00     0.041 C 
ATOM      8  O   UNL     1      15.979  15.539 -23.689  1.00  0.00    -0.550 OA
ATOM      9  O   UNL     1      13.850  16.374 -23.825  1.00  0.00    -0.550 OA
ENDBRANCH   6   7
ENDBRANCH   5   6
ENDBRANCH   4   5
ENDBRANCH   3   4
ENDBRANCH   2   3
ENDBRANCH   1   2
BRANCH   1  10
ATOM     10  C   UNL     1      12.207  22.088 -22.045  1.00  0.00     0.000 C 
BRANCH  10  11
ATOM     11  C   UNL     1      12.728  23.048 -20.962  1.00  0.00    -0.000 C 
BRANCH  11  12
ATOM     12  C   UNL     1      12.121  22.765 -19.578  1.00  0.00    -0.000 C 
BRANCH  12  13
ATOM     13  C   UNL     1      12.849  21.635 -18.834  1.00  0.00    -0.000 C 
BRANCH  13  14
ATOM     14  C   UNL     1      14.350  21.649 -19.149  1.00  0.00    -0.000 C 
BRANCH  14  15
ATOM     15  C   UNL     1      15.162  21.054 -17.991  1.00  0.00    -0.000 C 
BRANCH  15  16
ATOM     16  C   UNL     1      16.323  20.202 -18.514  1.00  0.00    -0.003 C 
ATOM     17  C   UNL     1      16.171  18.744 -18.093  1.00  0.00     0.004 C 
ENDBRANCH  15  16
ENDBRANCH  14  15
ENDBRANCH  13  14
ENDBRANCH  12  13
ENDBRANCH  11  12
ENDBRANCH  10  11
ENDBRANCH   1  10
TORSDOF 13
ENDMDL
MODEL 9
REMARK VINA RESULT:    -3.756      3.750      7.049
REMARK INTER + INTRA:          -8.126
REMARK INTER:                  -6.785
REMARK INTRA:                  -1.341
REMARK UNBOUND:                -1.515
REMARK SMILES CCCCCCCCCCCCCCC(=O)[O-]
REMARK SMILES IDX 9 1 10 2 11 3 12 4 13 5 14 6 15 7 16 8 17 9 8 10 7 11 6 12
REMARK SMILES IDX 5 13 4 14 3 15 2 16 1 17
REMARK H PARENT
REMARK Flexibility Score: inf
ROOT
ATOM      1  C   UNL     1      15.434  20.888 -17.871  1.00  0.00     0.000 C 
ENDROOT
BRANCH   1   2
ATOM      2  C   UNL     1      14.465  21.168 -19.036  1.00  0.00     0.000 C 
BRANCH   2   3
ATOM      3  C   UNL     1      13.031  21.535 -18.610  1.00  0.00     0.000 C 
BRANCH   3   4
ATOM      4  C   UNL     1      12.340  22.600 -19.488  1.00  0.00     0.000 C 
BRANCH   4   5
ATOM      5  C   UNL     1      11.875  22.105 -20.869  1.00  0.00     0.006 C 
BRANCH   5   6
ATOM      6  C   UNL     1      12.624  22.777 -22.027  1.00  0.00     0.053 C 
BRANCH   6   7
ATOM      7  C   UNL     1      13.335  21.753 -22.852  1.00  0.00     0.041 C 
ATOM      8  O   UNL     1      13.747  22.042 -24.006  1.00  0.00    -0.550 OA
ATOM      9  O   UNL     1      13.500  20.461 -22.367  1.00  0.00    -0.550 OA
ENDBRANCH   6   7
ENDBRANCH   5   6
ENDBRANCH   4   5
ENDBRANCH   3   4
ENDBRANCH   2   3
ENDBRANCH   1   2
BRANCH   1  10
ATOM     10  C   UNL     1      16.916  21.147 -18.222  1.00  0.00     0.000 C 
BRANCH  10  11
ATOM     11  C   UNL     1      17.880  20.539 -17.189  1.00  0.00    -0.000 C 
BRANCH  11  12
ATOM     12  C   UNL     1      17.309  19.281 -16.515  1.00  0.00    -0.000 C 
BRANCH  12  13
ATOM     13  C   UNL     1      17.681  17.991 -17.261  1.00  0.00    -0.000 C 
BRANCH  13  14
ATOM     14  C   UNL     1      16.442  17.347 -17.894  1.00  0.00    -0.000 C 
BRANCH  14  15
ATOM     15  C   UNL     1      16.698  16.988 -19.364  1.00  0.00    -0.000 C 
BRANCH  15  16
ATOM     16  C   UNL     1      15.840  17.850 -20.297  1.00  0.00    -0.003 C 
ATOM     17  C   UNL     1      16.344  17.774 -21.735  1.00  0.00     0.004 C 
ENDBRANCH  15  16
ENDBRANCH  14  15
ENDBRANCH  13  14
ENDBRANCH  12  13
ENDBRANCH  11  12
ENDBRANCH  10  11
ENDBRANCH   1  10
TORSDOF 13
ENDMDL
