MODEL 1
REMARK VINA RESULT:    -7.868      0.000      0.000
REMARK INTER + INTRA:         -10.093
REMARK INTER:                  -9.708
REMARK INTRA:                  -0.385
REMARK UNBOUND:                -0.385
REMARK SMILES Oc1cc(O)c2cc(O)c(-c3cc(O)c(O)c(O)c3)[o+]c2c1
REMARK SMILES IDX 10 1 20 2 21 3 22 4 2 5 3 6 4 7 6 8 7 9 8 10 11 11 12 12
REMARK SMILES IDX 13 13 19 14 15 15 17 16 14 17 16 19 18 21 9 23 1 25 5 27
REMARK H PARENT 14 18 16 20 18 22 9 24 1 26 5 28
REMARK Flexibility Score: inf
ROOT
ATOM      1  C   UNL     1     -28.134 -26.489 104.603  1.00  0.00     0.402 A 
ATOM      2  O   UNL     1     -27.154 -27.245 105.091  1.00  0.00    -0.202 OA
ATOM      3  C   UNL     1     -27.041 -27.553 106.378  1.00  0.00     0.368 A 
ATOM      4  C   UNL     1     -25.974 -28.352 106.796  1.00  0.00     0.162 A 
ATOM      5  C   UNL     1     -25.830 -28.690 108.141  1.00  0.00     0.128 A 
ATOM      6  C   UNL     1     -26.758 -28.224 109.081  1.00  0.00     0.093 A 
ATOM      7  C   UNL     1     -27.836 -27.422 108.688  1.00  0.00     0.136 A 
ATOM      8  C   UNL     1     -27.988 -27.079 107.319  1.00  0.00     0.125 A 
ATOM      9  C   UNL     1     -29.043 -26.290 106.832  1.00  0.00     0.078 A 
ATOM     10  C   UNL     1     -29.130 -25.998 105.468  1.00  0.00     0.223 A 
ENDROOT
BRANCH   1  11
ATOM     11  C   UNL     1     -28.145 -26.207 103.149  1.00  0.00     0.091 A 
ATOM     12  C   UNL     1     -27.510 -25.070 102.619  1.00  0.00     0.068 A 
ATOM     13  C   UNL     1     -27.511 -24.834 101.238  1.00  0.00     0.162 A 
ATOM     14  C   UNL     1     -28.750 -27.121 102.274  1.00  0.00     0.068 A 
ATOM     15  C   UNL     1     -28.141 -25.743 100.371  1.00  0.00     0.200 A 
ATOM     16  C   UNL     1     -28.759 -26.891 100.895  1.00  0.00     0.162 A 
BRANCH  13  17
ATOM     17  O   UNL     1     -26.885 -23.699 100.724  1.00  0.00    -0.504 OA
ATOM     18  H   UNL     1     -26.665 -23.614  99.739  1.00  0.00     0.293 HD
ENDBRANCH  13  17
BRANCH  15  19
ATOM     19  O   UNL     1     -28.156 -25.519  98.993  1.00  0.00    -0.502 OA
ATOM     20  H   UNL     1     -28.538 -24.673  98.587  1.00  0.00     0.293 HD
ENDBRANCH  15  19
BRANCH  16  21
ATOM     21  O   UNL     1     -29.384 -27.817 100.060  1.00  0.00    -0.504 OA
ATOM     22  H   UNL     1     -28.881 -28.586  99.635  1.00  0.00     0.293 HD
ENDBRANCH  16  21
ENDBRANCH   1  11
BRANCH  10  23
ATOM     23  O   UNL     1     -30.206 -25.258 104.977  1.00  0.00    -0.500 OA
ATOM     24  H   UNL     1     -30.160 -24.251 104.885  1.00  0.00     0.294 HD
ENDBRANCH  10  23
BRANCH   5  25
ATOM     25  O   UNL     1     -24.759 -29.488 108.538  1.00  0.00    -0.507 OA
ATOM     26  H   UNL     1     -24.668 -29.818 109.492  1.00  0.00     0.293 HD
ENDBRANCH   5  25
BRANCH   7  27
ATOM     27  O   UNL     1     -28.717 -26.995 109.685  1.00  0.00    -0.507 OA
ATOM     28  H   UNL     1     -28.585 -27.159 110.672  1.00  0.00     0.293 HD
ENDBRANCH   7  27
TORSDOF 7
ENDMDL
MODEL 2
REMARK VINA RESULT:    -7.800      0.073      1.795
REMARK INTER + INTRA:         -10.009
REMARK INTER:                  -9.630
REMARK INTRA:                  -0.380
REMARK UNBOUND:                -0.385
REMARK SMILES Oc1cc(O)c2cc(O)c(-c3cc(O)c(O)c(O)c3)[o+]c2c1
REMARK SMILES IDX 10 1 20 2 21 3 22 4 2 5 3 6 4 7 6 8 7 9 8 10 11 11 12 12
REMARK SMILES IDX 13 13 19 14 15 15 17 16 14 17 16 19 18 21 9 23 1 25 5 27
REMARK H PARENT 14 18 16 20 18 22 9 24 1 26 5 28
REMARK Flexibility Score: inf
ROOT
ATOM      1  C   UNL     1     -28.111 -26.575 104.574  1.00  0.00     0.402 A 
ATOM      2  O   UNL     1     -27.122 -27.306 105.082  1.00  0.00    -0.202 OA
ATOM      3  C   UNL     1     -27.014 -27.588 106.377  1.00  0.00     0.368 A 
ATOM      4  C   UNL     1     -25.937 -28.361 106.817  1.00  0.00     0.162 A 
ATOM      5  C   UNL     1     -25.797 -28.670 108.169  1.00  0.00     0.128 A 
ATOM      6  C   UNL     1     -26.739 -28.202 109.093  1.00  0.00     0.093 A 
ATOM      7  C   UNL     1     -27.828 -27.425 108.678  1.00  0.00     0.136 A 
ATOM      8  C   UNL     1     -27.975 -27.111 107.301  1.00  0.00     0.125 A 
ATOM      9  C   UNL     1     -29.040 -26.350 106.792  1.00  0.00     0.078 A 
ATOM     10  C   UNL     1     -29.122 -26.085 105.422  1.00  0.00     0.223 A 
ENDROOT
BRANCH   1  11
ATOM     11  C   UNL     1     -28.116 -26.322 103.114  1.00  0.00     0.091 A 
ATOM     12  C   UNL     1     -28.749 -27.202 102.221  1.00  0.00     0.068 A 
ATOM     13  C   UNL     1     -28.763 -26.932 100.845  1.00  0.00     0.162 A 
ATOM     14  C   UNL     1     -27.527 -25.150 102.616  1.00  0.00     0.068 A 
ATOM     15  C   UNL     1     -28.149 -25.768 100.353  1.00  0.00     0.200 A 
ATOM     16  C   UNL     1     -27.533 -24.874 101.245  1.00  0.00     0.162 A 
BRANCH  13  17
ATOM     17  O   UNL     1     -29.388 -27.816  99.967  1.00  0.00    -0.504 OA
ATOM     18  H   UNL     1     -30.200 -28.355 100.244  1.00  0.00     0.293 HD
ENDBRANCH  13  17
BRANCH  15  19
ATOM     19  O   UNL     1     -28.150 -25.486  98.986  1.00  0.00    -0.502 OA
ATOM     20  H   UNL     1     -28.924 -25.738  98.383  1.00  0.00     0.293 HD
ENDBRANCH  15  19
BRANCH  16  21
ATOM     21  O   UNL     1     -26.924 -23.706 100.789  1.00  0.00    -0.504 OA
ATOM     22  H   UNL     1     -26.657 -22.957 101.416  1.00  0.00     0.293 HD
ENDBRANCH  16  21
ENDBRANCH   1  11
BRANCH  10  23
ATOM     23  O   UNL     1     -30.206 -25.373 104.909  1.00  0.00    -0.500 OA
ATOM     24  H   UNL     1     -31.118 -25.799 104.799  1.00  0.00     0.294 HD
ENDBRANCH  10  23
BRANCH   5  25
ATOM     25  O   UNL     1     -24.716 -29.443 108.589  1.00  0.00    -0.507 OA
ATOM     26  H   UNL     1     -23.764 -29.099 108.533  1.00  0.00     0.293 HD
ENDBRANCH   5  25
BRANCH   7  27
ATOM     27  O   UNL     1     -28.723 -26.994 109.660  1.00  0.00    -0.507 OA
ATOM     28  H   UNL     1     -28.520 -26.976 110.649  1.00  0.00     0.293 HD
ENDBRANCH   7  27
TORSDOF 7
ENDMDL
MODEL 3
REMARK VINA RESULT:    -7.065      3.666      6.265
REMARK INTER + INTRA:          -9.102
REMARK INTER:                  -9.047
REMARK INTRA:                  -0.054
REMARK UNBOUND:                -0.385
REMARK SMILES Oc1cc(O)c2cc(O)c(-c3cc(O)c(O)c(O)c3)[o+]c2c1
REMARK SMILES IDX 10 1 20 2 21 3 22 4 2 5 3 6 4 7 6 8 7 9 8 10 11 11 12 12
REMARK SMILES IDX 13 13 19 14 15 15 17 16 14 17 16 19 18 21 9 23 1 25 5 27
REMARK H PARENT 14 18 16 20 18 22 9 24 1 26 5 28
REMARK Flexibility Score: inf
ROOT
ATOM      1  C   UNL     1     -25.655 -23.778 102.659  1.00  0.00     0.402 A 
ATOM      2  O   UNL     1     -26.912 -23.828 102.226  1.00  0.00    -0.202 OA
ATOM      3  C   UNL     1     -27.816 -24.676 102.704  1.00  0.00     0.368 A 
ATOM      4  C   UNL     1     -29.112 -24.655 102.184  1.00  0.00     0.162 A 
ATOM      5  C   UNL     1     -30.080 -25.535 102.665  1.00  0.00     0.128 A 
ATOM      6  C   UNL     1     -29.752 -26.448 103.675  1.00  0.00     0.093 A 
ATOM      7  C   UNL     1     -28.460 -26.490 104.213  1.00  0.00     0.136 A 
ATOM      8  C   UNL     1     -27.474 -25.593 103.728  1.00  0.00     0.125 A 
ATOM      9  C   UNL     1     -26.157 -25.555 104.217  1.00  0.00     0.078 A 
ATOM     10  C   UNL     1     -25.240 -24.639 103.692  1.00  0.00     0.223 A 
ENDROOT
BRANCH   1  11
ATOM     11  C   UNL     1     -24.738 -22.794 102.038  1.00  0.00     0.091 A 
ATOM     12  C   UNL     1     -23.448 -23.159 101.617  1.00  0.00     0.068 A 
ATOM     13  C   UNL     1     -22.604 -22.219 101.011  1.00  0.00     0.162 A 
ATOM     14  C   UNL     1     -25.184 -21.483 101.813  1.00  0.00     0.068 A 
ATOM     15  C   UNL     1     -23.051 -20.902 100.811  1.00  0.00     0.200 A 
ATOM     16  C   UNL     1     -24.348 -20.537 101.211  1.00  0.00     0.162 A 
BRANCH  13  17
ATOM     17  O   UNL     1     -21.324 -22.591 100.603  1.00  0.00    -0.504 OA
ATOM     18  H   UNL     1     -20.512 -22.427 101.187  1.00  0.00     0.293 HD
ENDBRANCH  13  17
BRANCH  15  19
ATOM     19  O   UNL     1     -22.222 -19.951 100.213  1.00  0.00    -0.502 OA
ATOM     20  H   UNL     1     -22.107 -19.891  99.208  1.00  0.00     0.293 HD
ENDBRANCH  15  19
BRANCH  16  21
ATOM     21  O   UNL     1     -24.824 -19.241 101.018  1.00  0.00    -0.504 OA
ATOM     22  H   UNL     1     -24.701 -18.513 101.711  1.00  0.00     0.293 HD
ENDBRANCH  16  21
ENDBRANCH   1  11
BRANCH  10  23
ATOM     23  O   UNL     1     -23.948 -24.566 104.212  1.00  0.00    -0.500 OA
ATOM     24  H   UNL     1     -23.760 -24.133 105.109  1.00  0.00     0.294 HD
ENDBRANCH  10  23
BRANCH   5  25
ATOM     25  O   UNL     1     -31.367 -25.498 102.133  1.00  0.00    -0.507 OA
ATOM     26  H   UNL     1     -32.058 -26.202 102.366  1.00  0.00     0.293 HD
ENDBRANCH   5  25
BRANCH   7  27
ATOM     27  O   UNL     1     -28.211 -27.431 105.216  1.00  0.00    -0.507 OA
ATOM     28  H   UNL     1     -27.411 -28.046 105.235  1.00  0.00     0.293 HD
ENDBRANCH   7  27
TORSDOF 7
ENDMDL
MODEL 4
REMARK VINA RESULT:    -7.023      5.339      8.003
REMARK INTER + INTRA:          -9.050
REMARK INTER:                  -8.751
REMARK INTRA:                  -0.299
REMARK UNBOUND:                -0.385
REMARK SMILES Oc1cc(O)c2cc(O)c(-c3cc(O)c(O)c(O)c3)[o+]c2c1
REMARK SMILES IDX 10 1 20 2 21 3 22 4 2 5 3 6 4 7 6 8 7 9 8 10 11 11 12 12
REMARK SMILES IDX 13 13 19 14 15 15 17 16 14 17 16 19 18 21 9 23 1 25 5 27
REMARK H PARENT 14 18 16 20 18 22 9 24 1 26 5 28
REMARK Flexibility Score: inf
ROOT
ATOM      1  C   UNL     1     -28.772 -21.046 103.540  1.00  0.00     0.402 A 
ATOM      2  O   UNL     1     -29.423 -22.128 103.960  1.00  0.00    -0.202 OA
ATOM      3  C   UNL     1     -29.314 -23.317 103.378  1.00  0.00     0.368 A 
ATOM      4  C   UNL     1     -30.040 -24.395 103.890  1.00  0.00     0.162 A 
ATOM      5  C   UNL     1     -29.947 -25.654 103.298  1.00  0.00     0.128 A 
ATOM      6  C   UNL     1     -29.123 -25.840 102.181  1.00  0.00     0.093 A 
ATOM      7  C   UNL     1     -28.385 -24.776 101.648  1.00  0.00     0.136 A 
ATOM      8  C   UNL     1     -28.475 -23.495 102.251  1.00  0.00     0.125 A 
ATOM      9  C   UNL     1     -27.763 -22.374 101.792  1.00  0.00     0.078 A 
ATOM     10  C   UNL     1     -27.898 -21.143 102.441  1.00  0.00     0.223 A 
ENDROOT
BRANCH   1  11
ATOM     11  C   UNL     1     -28.985 -19.774 104.268  1.00  0.00     0.091 A 
ATOM     12  C   UNL     1     -29.670 -18.699 103.677  1.00  0.00     0.068 A 
ATOM     13  C   UNL     1     -29.882 -17.511 104.391  1.00  0.00     0.162 A 
ATOM     14  C   UNL     1     -28.544 -19.656 105.594  1.00  0.00     0.068 A 
ATOM     15  C   UNL     1     -29.416 -17.394 105.711  1.00  0.00     0.200 A 
ATOM     16  C   UNL     1     -28.749 -18.474 106.313  1.00  0.00     0.162 A 
BRANCH  13  17
ATOM     17  O   UNL     1     -30.557 -16.448 103.792  1.00  0.00    -0.504 OA
ATOM     18  H   UNL     1     -31.419 -16.082 104.178  1.00  0.00     0.293 HD
ENDBRANCH  13  17
BRANCH  15  19
ATOM     19  O   UNL     1     -29.614 -16.216 106.434  1.00  0.00    -0.502 OA
ATOM     20  H   UNL     1     -28.904 -15.834 107.048  1.00  0.00     0.293 HD
ENDBRANCH  15  19
BRANCH  16  21
ATOM     21  O   UNL     1     -28.282 -18.392 107.624  1.00  0.00    -0.504 OA
ATOM     22  H   UNL     1     -28.400 -17.559 108.188  1.00  0.00     0.293 HD
ENDBRANCH  16  21
ENDBRANCH   1  11
BRANCH  10  23
ATOM     23  O   UNL     1     -27.152 -20.043 102.018  1.00  0.00    -0.500 OA
ATOM     24  H   UNL     1     -26.827 -19.956 101.063  1.00  0.00     0.294 HD
ENDBRANCH  10  23
BRANCH   5  25
ATOM     25  O   UNL     1     -30.679 -26.716 103.824  1.00  0.00    -0.507 OA
ATOM     26  H   UNL     1     -30.273 -27.639 103.931  1.00  0.00     0.293 HD
ENDBRANCH   5  25
BRANCH   7  27
ATOM     27  O   UNL     1     -27.588 -25.042 100.531  1.00  0.00    -0.507 OA
ATOM     28  H   UNL     1     -27.946 -25.282  99.618  1.00  0.00     0.293 HD
ENDBRANCH   7  27
TORSDOF 7
ENDMDL
MODEL 5
REMARK VINA RESULT:    -6.951      4.301      7.662
REMARK INTER + INTRA:          -8.961
REMARK INTER:                  -8.606
REMARK INTRA:                  -0.355
REMARK UNBOUND:                -0.385
REMARK SMILES Oc1cc(O)c2cc(O)c(-c3cc(O)c(O)c(O)c3)[o+]c2c1
REMARK SMILES IDX 10 1 20 2 21 3 22 4 2 5 3 6 4 7 6 8 7 9 8 10 11 11 12 12
REMARK SMILES IDX 13 13 19 14 15 15 17 16 14 17 16 19 18 21 9 23 1 25 5 27
REMARK H PARENT 14 18 16 20 18 22 9 24 1 26 5 28
REMARK Flexibility Score: inf
ROOT
ATOM      1  C   UNL     1     -25.814 -22.780 101.573  1.00  0.00     0.402 A 
ATOM      2  O   UNL     1     -24.520 -22.987 101.345  1.00  0.00    -0.202 OA
ATOM      3  C   UNL     1     -23.631 -22.005 101.234  1.00  0.00     0.368 A 
ATOM      4  C   UNL     1     -22.293 -22.322 100.990  1.00  0.00     0.162 A 
ATOM      5  C   UNL     1     -21.340 -21.313 100.867  1.00  0.00     0.128 A 
ATOM      6  C   UNL     1     -21.725 -19.972 100.986  1.00  0.00     0.093 A 
ATOM      7  C   UNL     1     -23.060 -19.627 101.230  1.00  0.00     0.136 A 
ATOM      8  C   UNL     1     -24.032 -20.653 101.359  1.00  0.00     0.125 A 
ATOM      9  C   UNL     1     -25.390 -20.402 101.616  1.00  0.00     0.078 A 
ATOM     10  C   UNL     1     -26.290 -21.465 101.736  1.00  0.00     0.223 A 
ENDROOT
BRANCH   1  11
ATOM     11  C   UNL     1     -26.707 -23.958 101.666  1.00  0.00     0.091 A 
ATOM     12  C   UNL     1     -27.191 -24.601 100.514  1.00  0.00     0.068 A 
ATOM     13  C   UNL     1     -28.017 -25.729 100.623  1.00  0.00     0.162 A 
ATOM     14  C   UNL     1     -27.032 -24.479 102.927  1.00  0.00     0.068 A 
ATOM     15  C   UNL     1     -28.356 -26.230 101.891  1.00  0.00     0.200 A 
ATOM     16  C   UNL     1     -27.857 -25.602 103.045  1.00  0.00     0.162 A 
BRANCH  13  17
ATOM     17  O   UNL     1     -28.497 -26.355  99.474  1.00  0.00    -0.504 OA
ATOM     18  H   UNL     1     -28.274 -27.321  99.262  1.00  0.00     0.293 HD
ENDBRANCH  13  17
BRANCH  15  19
ATOM     19  O   UNL     1     -29.181 -27.349 102.018  1.00  0.00    -0.502 OA
ATOM     20  H   UNL     1     -29.686 -27.554 102.872  1.00  0.00     0.293 HD
ENDBRANCH  15  19
BRANCH  16  21
ATOM     21  O   UNL     1     -28.168 -26.080 104.317  1.00  0.00    -0.504 OA
ATOM     22  H   UNL     1     -27.633 -26.816 104.763  1.00  0.00     0.293 HD
ENDBRANCH  16  21
ENDBRANCH   1  11
BRANCH  10  23
ATOM     23  O   UNL     1     -27.628 -21.219 102.042  1.00  0.00    -0.500 OA
ATOM     24  H   UNL     1     -28.378 -21.530 101.435  1.00  0.00     0.294 HD
ENDBRANCH  10  23
BRANCH   5  25
ATOM     25  O   UNL     1     -20.010 -21.650 100.624  1.00  0.00    -0.507 OA
ATOM     26  H   UNL     1     -19.682 -22.606 100.701  1.00  0.00     0.293 HD
ENDBRANCH   5  25
BRANCH   7  27
ATOM     27  O   UNL     1     -23.365 -18.267 101.333  1.00  0.00    -0.507 OA
ATOM     28  H   UNL     1     -22.721 -17.561 101.659  1.00  0.00     0.293 HD
ENDBRANCH   7  27
TORSDOF 7
ENDMDL
MODEL 6
REMARK VINA RESULT:    -6.930      4.967      7.409
REMARK INTER + INTRA:          -8.935
REMARK INTER:                  -8.855
REMARK INTRA:                  -0.080
REMARK UNBOUND:                -0.385
REMARK SMILES Oc1cc(O)c2cc(O)c(-c3cc(O)c(O)c(O)c3)[o+]c2c1
REMARK SMILES IDX 10 1 20 2 21 3 22 4 2 5 3 6 4 7 6 8 7 9 8 10 11 11 12 12
REMARK SMILES IDX 13 13 19 14 15 15 17 16 14 17 16 19 18 21 9 23 1 25 5 27
REMARK H PARENT 14 18 16 20 18 22 9 24 1 26 5 28
REMARK Flexibility Score: inf
ROOT
ATOM      1  C   UNL     1     -29.220 -21.950 104.267  1.00  0.00     0.402 A 
ATOM      2  O   UNL     1     -28.961 -22.278 103.003  1.00  0.00    -0.202 OA
ATOM      3  C   UNL     1     -28.872 -23.534 102.579  1.00  0.00     0.368 A 
ATOM      4  C   UNL     1     -28.592 -23.779 101.232  1.00  0.00     0.162 A 
ATOM      5  C   UNL     1     -28.491 -25.086 100.759  1.00  0.00     0.128 A 
ATOM      6  C   UNL     1     -28.667 -26.162 101.638  1.00  0.00     0.093 A 
ATOM      7  C   UNL     1     -28.947 -25.943 102.993  1.00  0.00     0.136 A 
ATOM      8  C   UNL     1     -29.055 -24.613 103.476  1.00  0.00     0.125 A 
ATOM      9  C   UNL     1     -29.345 -24.299 104.815  1.00  0.00     0.078 A 
ATOM     10  C   UNL     1     -29.440 -22.964 105.217  1.00  0.00     0.223 A 
ENDROOT
BRANCH   1  11
ATOM     11  C   UNL     1     -29.284 -20.512 104.619  1.00  0.00     0.091 A 
ATOM     12  C   UNL     1     -28.586 -19.999 105.725  1.00  0.00     0.068 A 
ATOM     13  C   UNL     1     -28.641 -18.631 106.028  1.00  0.00     0.162 A 
ATOM     14  C   UNL     1     -30.008 -19.633 103.800  1.00  0.00     0.068 A 
ATOM     15  C   UNL     1     -29.389 -17.762 105.216  1.00  0.00     0.200 A 
ATOM     16  C   UNL     1     -30.070 -18.268 104.096  1.00  0.00     0.162 A 
BRANCH  13  17
ATOM     17  O   UNL     1     -27.951 -18.133 107.132  1.00  0.00    -0.504 OA
ATOM     18  H   UNL     1     -28.037 -17.166 107.421  1.00  0.00     0.293 HD
ENDBRANCH  13  17
BRANCH  15  19
ATOM     19  O   UNL     1     -29.458 -16.398 105.506  1.00  0.00    -0.502 OA
ATOM     20  H   UNL     1     -28.660 -15.879 105.854  1.00  0.00     0.293 HD
ENDBRANCH  15  19
BRANCH  16  21
ATOM     21  O   UNL     1     -30.814 -17.430 103.266  1.00  0.00    -0.504 OA
ATOM     22  H   UNL     1     -31.822 -17.499 103.194  1.00  0.00     0.293 HD
ENDBRANCH  16  21
ENDBRANCH   1  11
BRANCH  10  23
ATOM     23  O   UNL     1     -29.779 -22.652 106.534  1.00  0.00    -0.500 OA
ATOM     24  H   UNL     1     -29.857 -23.368 107.247  1.00  0.00     0.294 HD
ENDBRANCH  10  23
BRANCH   5  25
ATOM     25  O   UNL     1     -28.212 -25.310  99.412  1.00  0.00    -0.507 OA
ATOM     26  H   UNL     1     -27.629 -24.675  98.879  1.00  0.00     0.293 HD
ENDBRANCH   5  25
BRANCH   7  27
ATOM     27  O   UNL     1     -29.107 -27.068 103.806  1.00  0.00    -0.507 OA
ATOM     28  H   UNL     1     -29.542 -27.056 104.717  1.00  0.00     0.293 HD
ENDBRANCH   7  27
TORSDOF 7
ENDMDL
MODEL 7
REMARK VINA RESULT:    -6.924      1.770      7.049
REMARK INTER + INTRA:          -8.928
REMARK INTER:                  -8.697
REMARK INTRA:                  -0.230
REMARK UNBOUND:                -0.385
REMARK SMILES Oc1cc(O)c2cc(O)c(-c3cc(O)c(O)c(O)c3)[o+]c2c1
REMARK SMILES IDX 10 1 20 2 21 3 22 4 2 5 3 6 4 7 6 8 7 9 8 10 11 11 12 12
REMARK SMILES IDX 13 13 19 14 15 15 17 16 14 17 16 19 18 21 9 23 1 25 5 27
REMARK H PARENT 14 18 16 20 18 22 9 24 1 26 5 28
REMARK Flexibility Score: inf
ROOT
ATOM      1  C   UNL     1     -26.916 -26.113 104.830  1.00  0.00     0.402 A 
ATOM      2  O   UNL     1     -25.976 -25.217 104.542  1.00  0.00    -0.202 OA
ATOM      3  C   UNL     1     -26.018 -24.433 103.470  1.00  0.00     0.368 A 
ATOM      4  C   UNL     1     -24.981 -23.524 103.250  1.00  0.00     0.162 A 
ATOM      5  C   UNL     1     -24.998 -22.691 102.132  1.00  0.00     0.128 A 
ATOM      6  C   UNL     1     -26.060 -22.766 101.222  1.00  0.00     0.093 A 
ATOM      7  C   UNL     1     -27.112 -23.669 101.419  1.00  0.00     0.136 A 
ATOM      8  C   UNL     1     -27.099 -24.516 102.558  1.00  0.00     0.125 A 
ATOM      9  C   UNL     1     -28.116 -25.442 102.844  1.00  0.00     0.078 A 
ATOM     10  C   UNL     1     -28.037 -26.240 103.989  1.00  0.00     0.223 A 
ENDROOT
BRANCH   1  11
ATOM     11  C   UNL     1     -26.750 -26.936 106.051  1.00  0.00     0.091 A 
ATOM     12  C   UNL     1     -27.630 -26.815 107.140  1.00  0.00     0.068 A 
ATOM     13  C   UNL     1     -27.469 -27.620 108.276  1.00  0.00     0.162 A 
ATOM     14  C   UNL     1     -25.728 -27.896 106.101  1.00  0.00     0.068 A 
ATOM     15  C   UNL     1     -26.429 -28.562 108.327  1.00  0.00     0.200 A 
ATOM     16  C   UNL     1     -25.560 -28.701 107.232  1.00  0.00     0.162 A 
BRANCH  13  17
ATOM     17  O   UNL     1     -28.344 -27.487 109.354  1.00  0.00    -0.504 OA
ATOM     18  H   UNL     1     -28.824 -28.286 109.750  1.00  0.00     0.293 HD
ENDBRANCH  13  17
BRANCH  15  19
ATOM     19  O   UNL     1     -26.252 -29.368 109.454  1.00  0.00    -0.502 OA
ATOM     20  H   UNL     1     -26.522 -30.344 109.467  1.00  0.00     0.293 HD
ENDBRANCH  15  19
BRANCH  16  21
ATOM     21  O   UNL     1     -24.523 -29.633 107.248  1.00  0.00    -0.504 OA
ATOM     22  H   UNL     1     -23.593 -29.411 106.916  1.00  0.00     0.293 HD
ENDBRANCH  16  21
ENDBRANCH   1  11
BRANCH  10  23
ATOM     23  O   UNL     1     -29.071 -27.124 104.299  1.00  0.00    -0.500 OA
ATOM     24  H   UNL     1     -29.849 -26.845 104.884  1.00  0.00     0.294 HD
ENDBRANCH  10  23
BRANCH   5  25
ATOM     25  O   UNL     1     -23.954 -21.790 101.930  1.00  0.00    -0.507 OA
ATOM     26  H   UNL     1     -23.796 -21.011 102.559  1.00  0.00     0.293 HD
ENDBRANCH   5  25
BRANCH   7  27
ATOM     27  O   UNL     1     -28.133 -23.686 100.466  1.00  0.00    -0.507 OA
ATOM     28  H   UNL     1     -29.026 -24.137 100.594  1.00  0.00     0.293 HD
ENDBRANCH   7  27
TORSDOF 7
ENDMDL
MODEL 8
REMARK VINA RESULT:    -6.853      3.413      5.676
REMARK INTER + INTRA:          -8.840
REMARK INTER:                  -8.588
REMARK INTRA:                  -0.252
REMARK UNBOUND:                -0.385
REMARK SMILES Oc1cc(O)c2cc(O)c(-c3cc(O)c(O)c(O)c3)[o+]c2c1
REMARK SMILES IDX 10 1 20 2 21 3 22 4 2 5 3 6 4 7 6 8 7 9 8 10 11 11 12 12
REMARK SMILES IDX 13 13 19 14 15 15 17 16 14 17 16 19 18 21 9 23 1 25 5 27
REMARK H PARENT 14 18 16 20 18 22 9 24 1 26 5 28
REMARK Flexibility Score: inf
ROOT
ATOM      1  C   UNL     1     -26.499 -23.440 102.215  1.00  0.00     0.402 A 
ATOM      2  O   UNL     1     -26.456 -24.062 103.390  1.00  0.00    -0.202 OA
ATOM      3  C   UNL     1     -27.448 -24.815 103.854  1.00  0.00     0.368 A 
ATOM      4  C   UNL     1     -27.312 -25.427 105.102  1.00  0.00     0.162 A 
ATOM      5  C   UNL     1     -28.337 -26.220 105.615  1.00  0.00     0.128 A 
ATOM      6  C   UNL     1     -29.512 -26.405 104.876  1.00  0.00     0.093 A 
ATOM      7  C   UNL     1     -29.674 -25.802 103.622  1.00  0.00     0.136 A 
ATOM      8  C   UNL     1     -28.631 -24.997 103.096  1.00  0.00     0.125 A 
ATOM      9  C   UNL     1     -28.699 -24.364 101.844  1.00  0.00     0.078 A 
ATOM     10  C   UNL     1     -27.628 -23.589 101.389  1.00  0.00     0.223 A 
ENDROOT
BRANCH   1  11
ATOM     11  C   UNL     1     -25.332 -22.620 101.813  1.00  0.00     0.091 A 
ATOM     12  C   UNL     1     -25.440 -21.230 101.639  1.00  0.00     0.068 A 
ATOM     13  C   UNL     1     -24.319 -20.468 101.282  1.00  0.00     0.162 A 
ATOM     14  C   UNL     1     -24.080 -23.232 101.658  1.00  0.00     0.068 A 
ATOM     15  C   UNL     1     -23.073 -21.094 101.105  1.00  0.00     0.200 A 
ATOM     16  C   UNL     1     -22.956 -22.481 101.299  1.00  0.00     0.162 A 
BRANCH  13  17
ATOM     17  O   UNL     1     -24.439 -19.091 101.105  1.00  0.00    -0.504 OA
ATOM     18  H   UNL     1     -24.309 -18.443 101.873  1.00  0.00     0.293 HD
ENDBRANCH  13  17
BRANCH  15  19
ATOM     19  O   UNL     1     -21.948 -20.351 100.744  1.00  0.00    -0.502 OA
ATOM     20  H   UNL     1     -21.581 -19.609 101.328  1.00  0.00     0.293 HD
ENDBRANCH  15  19
BRANCH  16  21
ATOM     21  O   UNL     1     -21.733 -23.130 101.141  1.00  0.00    -0.504 OA
ATOM     22  H   UNL     1     -21.594 -23.859 100.451  1.00  0.00     0.293 HD
ENDBRANCH  16  21
ENDBRANCH   1  11
BRANCH  10  23
ATOM     23  O   UNL     1     -27.675 -23.003 100.124  1.00  0.00    -0.500 OA
ATOM     24  H   UNL     1     -27.819 -23.556  99.287  1.00  0.00     0.294 HD
ENDBRANCH  10  23
BRANCH   5  25
ATOM     25  O   UNL     1     -28.182 -26.822 106.862  1.00  0.00    -0.507 OA
ATOM     26  H   UNL     1     -28.884 -27.449 107.239  1.00  0.00     0.293 HD
ENDBRANCH   5  25
BRANCH   7  27
ATOM     27  O   UNL     1     -30.876 -26.032 102.948  1.00  0.00    -0.507 OA
ATOM     28  H   UNL     1     -31.017 -26.760 102.263  1.00  0.00     0.293 HD
ENDBRANCH   7  27
TORSDOF 7
ENDMDL
MODEL 9
REMARK VINA RESULT:    -6.793      5.280      7.423
REMARK INTER + INTRA:          -8.766
REMARK INTER:                  -8.484
REMARK INTRA:                  -0.282
REMARK UNBOUND:                -0.385
REMARK SMILES Oc1cc(O)c2cc(O)c(-c3cc(O)c(O)c(O)c3)[o+]c2c1
REMARK SMILES IDX 10 1 20 2 21 3 22 4 2 5 3 6 4 7 6 8 7 9 8 10 11 11 12 12
REMARK SMILES IDX 13 13 19 14 15 15 17 16 14 17 16 19 18 21 9 23 1 25 5 27
REMARK H PARENT 14 18 16 20 18 22 9 24 1 26 5 28
REMARK Flexibility Score: inf
ROOT
ATOM      1  C   UNL     1     -28.913 -21.922 104.220  1.00  0.00     0.402 A 
ATOM      2  O   UNL     1     -29.576 -20.851 103.792  1.00  0.00    -0.202 OA
ATOM      3  C   UNL     1     -29.527 -19.670 104.399  1.00  0.00     0.368 A 
ATOM      4  C   UNL     1     -30.261 -18.604 103.875  1.00  0.00     0.162 A 
ATOM      5  C   UNL     1     -30.230 -17.355 104.493  1.00  0.00     0.128 A 
ATOM      6  C   UNL     1     -29.461 -17.167 105.648  1.00  0.00     0.093 A 
ATOM      7  C   UNL     1     -28.716 -18.219 106.194  1.00  0.00     0.136 A 
ATOM      8  C   UNL     1     -28.743 -19.491 105.565  1.00  0.00     0.125 A 
ATOM      9  C   UNL     1     -28.019 -20.600 106.034  1.00  0.00     0.078 A 
ATOM     10  C   UNL     1     -28.090 -21.822 105.358  1.00  0.00     0.223 A 
ENDROOT
BRANCH   1  11
ATOM     11  C   UNL     1     -29.057 -23.186 103.461  1.00  0.00     0.091 A 
ATOM     12  C   UNL     1     -29.697 -24.306 104.019  1.00  0.00     0.068 A 
ATOM     13  C   UNL     1     -29.844 -25.485 103.276  1.00  0.00     0.162 A 
ATOM     14  C   UNL     1     -28.598 -23.252 102.137  1.00  0.00     0.068 A 
ATOM     15  C   UNL     1     -29.359 -25.549 101.959  1.00  0.00     0.200 A 
ATOM     16  C   UNL     1     -28.738 -24.425 101.390  1.00  0.00     0.162 A 
BRANCH  13  17
ATOM     17  O   UNL     1     -30.474 -26.592 103.842  1.00  0.00    -0.504 OA
ATOM     18  H   UNL     1     -29.949 -27.396 104.165  1.00  0.00     0.293 HD
ENDBRANCH  13  17
BRANCH  15  19
ATOM     19  O   UNL     1     -29.493 -26.717 101.207  1.00  0.00    -0.502 OA
ATOM     20  H   UNL     1     -30.392 -27.158 101.049  1.00  0.00     0.293 HD
ENDBRANCH  15  19
BRANCH  16  21
ATOM     21  O   UNL     1     -28.254 -24.454 100.082  1.00  0.00    -0.504 OA
ATOM     22  H   UNL     1     -28.403 -23.688  99.435  1.00  0.00     0.293 HD
ENDBRANCH  16  21
ENDBRANCH   1  11
BRANCH  10  23
ATOM     23  O   UNL     1     -27.332 -22.909 105.793  1.00  0.00    -0.500 OA
ATOM     24  H   UNL     1     -27.673 -23.860 105.715  1.00  0.00     0.294 HD
ENDBRANCH  10  23
BRANCH   5  25
ATOM     25  O   UNL     1     -30.969 -16.303 103.955  1.00  0.00    -0.507 OA
ATOM     26  H   UNL     1     -31.588 -16.440 103.164  1.00  0.00     0.293 HD
ENDBRANCH   5  25
BRANCH   7  27
ATOM     27  O   UNL     1     -27.976 -17.953 107.349  1.00  0.00    -0.507 OA
ATOM     28  H   UNL     1     -27.700 -17.030 107.650  1.00  0.00     0.293 HD
ENDBRANCH   7  27
TORSDOF 7
ENDMDL
