MODEL 1
REMARK VINA RESULT:    -4.031      0.000      0.000
REMARK INTER + INTRA:          -6.612
REMARK INTER:                  -6.152
REMARK INTRA:                  -0.460
REMARK UNBOUND:                -0.460
REMARK SMILES CC1=CCC[C@H](C)C(=O)C[C@H](C(C)C)C(=O)C1
REMARK SMILES IDX 8 1 9 2 6 3 7 4 5 5 4 6 3 7 2 8 1 9 10 11 11 12 15 13 16 14
REMARK SMILES IDX 17 15 12 17 13 18 14 19
REMARK H PARENT
REMARK Flexibility Score: 70.00
ROOT
ATOM      1  C   UNL     1     -16.823  12.821 -31.804  1.00  0.00     0.136 C 
ATOM      2  O   UNL     1     -17.018  13.747 -32.580  1.00  0.00    -0.299 OA
ENDROOT
BRANCH   1   3
ATOM      3  C   UNL     1     -17.886  12.562 -30.742  1.00  0.00     0.053 C 
ATOM      4  C   UNL     1     -18.372  11.109 -30.868  1.00  0.00     0.016 C 
BRANCH   3   5
ATOM      5  C   UNL     1     -17.485  12.831 -29.272  1.00  0.00     0.015 C 
BRANCH   5   6
ATOM      6  C   UNL     1     -17.492  11.623 -28.318  1.00  0.00     0.028 C 
BRANCH   6   7
ATOM      7  C   UNL     1     -16.207  11.404 -27.554  1.00  0.00    -0.028 C 
ATOM      8  C   UNL     1     -15.107  10.704 -27.946  1.00  0.00    -0.070 CG0
ATOM      9  C   UNL     1     -13.988  10.590 -26.938  1.00  0.00     0.039 C 
ATOM     10  G   UNL     1     -14.840  10.138 -29.341  1.00  0.00     0.000 G0
ENDBRANCH   6   7
ENDBRANCH   5   6
ENDBRANCH   3   5
ENDBRANCH   1   3
BRANCH   1  11
ATOM     11  C   UNL     1     -15.542  12.034 -31.979  1.00  0.00     0.087 C 
BRANCH  11  12
ATOM     12  C   UNL     1     -14.540  12.296 -30.815  1.00  0.00     0.066 C 
BRANCH  12  13
ATOM     13  C   UNL     1     -13.997  10.974 -30.268  1.00  0.00     0.140 C 
ATOM     14  O   UNL     1     -12.866  10.604 -30.551  1.00  0.00    -0.299 OA
BRANCH  13  15
ATOM     15  C   UNL     1     -14.825  10.125 -29.338  1.00  0.00     0.106 CG0
ATOM     16  G   UNL     1     -15.098  10.712 -27.953  1.00  0.00     0.000 G0
ENDBRANCH  13  15
ENDBRANCH  12  13
BRANCH  12  17
ATOM     17  C   UNL     1     -13.381  13.276 -31.208  1.00  0.00    -0.006 C 
ATOM     18  C   UNL     1     -13.218  13.440 -32.730  1.00  0.00     0.008 C 
ATOM     19  C   UNL     1     -13.608  14.670 -30.592  1.00  0.00     0.008 C 
ENDBRANCH  12  17
ENDBRANCH  11  12
ENDBRANCH   1  11
TORSDOF 1
ENDMDL
MODEL 2
REMARK VINA RESULT:    -3.340      1.643      3.965
REMARK INTER + INTRA:          -5.557
REMARK INTER:                  -5.172
REMARK INTRA:                  -0.385
REMARK UNBOUND:                -0.460
REMARK SMILES CC1=CCC[C@H](C)C(=O)C[C@H](C(C)C)C(=O)C1
REMARK SMILES IDX 8 1 9 2 6 3 7 4 5 5 4 6 3 7 2 8 1 9 10 11 11 12 15 13 16 14
REMARK SMILES IDX 17 15 12 17 13 18 14 19
REMARK H PARENT
REMARK Flexibility Score: 70.00
ROOT
ATOM      1  C   UNL     1     -16.418  13.182 -31.408  1.00  0.00     0.136 C 
ATOM      2  O   UNL     1     -17.060  12.931 -32.418  1.00  0.00    -0.299 OA
ENDROOT
BRANCH   1   3
ATOM      3  C   UNL     1     -14.948  13.548 -31.585  1.00  0.00     0.053 C 
ATOM      4  C   UNL     1     -14.577  14.628 -30.556  1.00  0.00     0.016 C 
BRANCH   3   5
ATOM      5  C   UNL     1     -13.924  12.391 -31.490  1.00  0.00     0.015 C 
BRANCH   5   6
ATOM      6  C   UNL     1     -14.463  11.023 -31.034  1.00  0.00     0.028 C 
BRANCH   6   7
ATOM      7  C   UNL     1     -13.912  10.526 -29.718  1.00  0.00    -0.028 C 
ATOM      8  C   UNL     1     -14.289  10.887 -28.460  1.00  0.00    -0.070 CG0
ATOM      9  C   UNL     1     -13.504  10.277 -27.322  1.00  0.00     0.039 C 
ATOM     10  G   UNL     1     -15.501  11.740 -28.085  1.00  0.00     0.000 G0
ENDBRANCH   6   7
ENDBRANCH   5   6
ENDBRANCH   3   5
ENDBRANCH   1   3
BRANCH   1  11
ATOM     11  C   UNL     1     -17.152  13.098 -30.086  1.00  0.00     0.087 C 
BRANCH  11  12
ATOM     12  C   UNL     1     -17.542  11.631 -29.734  1.00  0.00     0.066 C 
BRANCH  12  13
ATOM     13  C   UNL     1     -16.849  11.187 -28.445  1.00  0.00     0.140 C 
ATOM     14  O   UNL     1     -17.367  10.347 -27.720  1.00  0.00    -0.299 OA
BRANCH  13  15
ATOM     15  C   UNL     1     -15.501  11.741 -28.062  1.00  0.00     0.106 CG0
ATOM     16  G   UNL     1     -14.289  10.900 -28.465  1.00  0.00     0.000 G0
ENDBRANCH  13  15
ENDBRANCH  12  13
BRANCH  12  17
ATOM     17  C   UNL     1     -19.092  11.405 -29.663  1.00  0.00    -0.006 C 
ATOM     18  C   UNL     1     -19.903  12.657 -30.043  1.00  0.00     0.008 C 
ATOM     19  C   UNL     1     -19.521  10.250 -30.589  1.00  0.00     0.008 C 
ENDBRANCH  12  17
ENDBRANCH  11  12
ENDBRANCH   1  11
TORSDOF 1
ENDMDL
MODEL 3
REMARK VINA RESULT:    -3.255      1.581      3.768
REMARK INTER + INTRA:          -5.427
REMARK INTER:                  -5.698
REMARK INTRA:                   0.270
REMARK UNBOUND:                -0.460
REMARK SMILES CC1=CCC[C@H](C)C(=O)C[C@H](C(C)C)C(=O)C1
REMARK SMILES IDX 8 1 9 2 6 3 7 4 5 5 4 6 3 7 2 8 1 9 10 11 11 12 15 13 16 14
REMARK SMILES IDX 17 15 12 17 13 18 14 19
REMARK H PARENT
REMARK Flexibility Score: 70.00
ROOT
ATOM      1  C   UNL     1     -14.745  10.664 -29.649  1.00  0.00     0.136 C 
ATOM      2  O   UNL     1     -14.982  10.035 -30.671  1.00  0.00    -0.299 OA
ENDROOT
BRANCH   1   3
ATOM      3  C   UNL     1     -14.709   9.884 -28.338  1.00  0.00     0.053 C 
ATOM      4  C   UNL     1     -13.482  10.330 -27.527  1.00  0.00     0.016 C 
BRANCH   3   5
ATOM      5  C   UNL     1     -15.965   9.974 -27.438  1.00  0.00     0.015 C 
BRANCH   5   6
ATOM      6  C   UNL     1     -16.811  11.255 -27.553  1.00  0.00     0.028 C 
BRANCH   6   7
ATOM      7  C   UNL     1     -17.906  11.206 -28.593  1.00  0.00    -0.028 C 
ATOM      8  C   UNL     1     -18.137  12.082 -29.609  1.00  0.00    -0.070 CG0
ATOM      9  C   UNL     1     -19.360  11.821 -30.456  1.00  0.00     0.039 C 
ATOM     10  G   UNL     1     -17.217  13.218 -30.056  1.00  0.00     0.000 G0
ENDBRANCH   6   7
ENDBRANCH   5   6
ENDBRANCH   3   5
ENDBRANCH   1   3
BRANCH   1  11
ATOM     11  C   UNL     1     -14.517  12.153 -29.794  1.00  0.00     0.087 C 
BRANCH  11  12
ATOM     12  C   UNL     1     -14.893  12.659 -31.218  1.00  0.00     0.066 C 
BRANCH  12  13
ATOM     13  C   UNL     1     -16.397  12.929 -31.311  1.00  0.00     0.140 C 
ATOM     14  O   UNL     1     -16.970  12.880 -32.391  1.00  0.00    -0.299 OA
BRANCH  13  15
ATOM     15  C   UNL     1     -17.208  13.216 -30.074  1.00  0.00     0.106 CG0
ATOM     16  G   UNL     1     -18.145  12.102 -29.609  1.00  0.00     0.000 G0
ENDBRANCH  13  15
ENDBRANCH  12  13
BRANCH  12  17
ATOM     17  C   UNL     1     -14.056  13.905 -31.672  1.00  0.00    -0.006 C 
ATOM     18  C   UNL     1     -14.231  15.121 -30.744  1.00  0.00     0.008 C 
ATOM     19  C   UNL     1     -12.555  13.561 -31.743  1.00  0.00     0.008 C 
ENDBRANCH  12  17
ENDBRANCH  11  12
ENDBRANCH   1  11
TORSDOF 1
ENDMDL
MODEL 4
REMARK VINA RESULT:    -3.155      1.739      4.079
REMARK INTER + INTRA:          -5.275
REMARK INTER:                  -5.347
REMARK INTRA:                   0.072
REMARK UNBOUND:                -0.460
REMARK SMILES CC1=CCC[C@H](C)C(=O)C[C@H](C(C)C)C(=O)C1
REMARK SMILES IDX 8 1 9 2 6 3 7 4 5 5 4 6 3 7 2 8 1 9 10 11 11 12 15 13 16 14
REMARK SMILES IDX 17 15 12 17 13 18 14 19
REMARK H PARENT
REMARK Flexibility Score: 70.00
ROOT
ATOM      1  C   UNL     1     -17.056  12.872 -29.376  1.00  0.00     0.136 C 
ATOM      2  O   UNL     1     -17.721  13.746 -28.837  1.00  0.00    -0.299 OA
ENDROOT
BRANCH   1   3
ATOM      3  C   UNL     1     -17.574  12.312 -30.697  1.00  0.00     0.053 C 
ATOM      4  C   UNL     1     -19.105  12.445 -30.728  1.00  0.00     0.016 C 
BRANCH   3   5
ATOM      5  C   UNL     1     -16.991  12.927 -31.992  1.00  0.00     0.015 C 
BRANCH   5   6
ATOM      6  C   UNL     1     -15.888  12.125 -32.706  1.00  0.00     0.028 C 
BRANCH   6   7
ATOM      7  C   UNL     1     -14.596  12.876 -32.930  1.00  0.00    -0.028 C 
ATOM      8  C   UNL     1     -13.686  13.277 -32.000  1.00  0.00    -0.070 CG0
ATOM      9  C   UNL     1     -12.514  14.082 -32.509  1.00  0.00     0.039 C 
ATOM     10  G   UNL     1     -13.665  12.884 -30.522  1.00  0.00     0.000 G0
ENDBRANCH   6   7
ENDBRANCH   5   6
ENDBRANCH   3   5
ENDBRANCH   1   3
BRANCH   1  11
ATOM     11  C   UNL     1     -15.790  12.434 -28.670  1.00  0.00     0.087 C 
BRANCH  11  12
ATOM     12  C   UNL     1     -15.200  11.135 -29.295  1.00  0.00     0.066 C 
BRANCH  12  13
ATOM     13  C   UNL     1     -13.987  11.463 -30.167  1.00  0.00     0.140 C 
ATOM     14  O   UNL     1     -13.294  10.566 -30.629  1.00  0.00    -0.299 OA
BRANCH  13  15
ATOM     15  C   UNL     1     -13.645  12.890 -30.510  1.00  0.00     0.106 CG0
ATOM     16  G   UNL     1     -13.672  13.250 -31.996  1.00  0.00     0.000 G0
ENDBRANCH  13  15
ENDBRANCH  12  13
BRANCH  12  17
ATOM     17  C   UNL     1     -14.863  10.036 -28.229  1.00  0.00    -0.006 C 
ATOM     18  C   UNL     1     -13.496  10.249 -27.553  1.00  0.00     0.008 C 
ATOM     19  C   UNL     1     -15.943   9.985 -27.131  1.00  0.00     0.008 C 
ENDBRANCH  12  17
ENDBRANCH  11  12
ENDBRANCH   1  11
TORSDOF 1
ENDMDL
MODEL 5
REMARK VINA RESULT:    -2.849      9.186     11.669
REMARK INTER + INTRA:          -4.808
REMARK INTER:                  -4.363
REMARK INTRA:                  -0.445
REMARK UNBOUND:                -0.460
REMARK SMILES CC1=CCC[C@H](C)C(=O)C[C@H](C(C)C)C(=O)C1
REMARK SMILES IDX 8 1 9 2 6 3 7 4 5 5 4 6 3 7 2 8 1 9 10 11 11 12 15 13 16 14
REMARK SMILES IDX 17 15 12 17 13 18 14 19
REMARK H PARENT
REMARK Flexibility Score: 70.00
ROOT
ATOM      1  C   UNL     1     -27.082  13.904 -30.781  1.00  0.00     0.136 C 
ATOM      2  O   UNL     1     -28.028  14.094 -31.533  1.00  0.00    -0.299 OA
ENDROOT
BRANCH   1   3
ATOM      3  C   UNL     1     -25.758  14.572 -31.139  1.00  0.00     0.053 C 
ATOM      4  C   UNL     1     -25.864  16.077 -30.844  1.00  0.00     0.016 C 
BRANCH   3   5
ATOM      5  C   UNL     1     -24.487  14.016 -30.452  1.00  0.00     0.015 C 
BRANCH   5   6
ATOM      6  C   UNL     1     -23.982  12.645 -30.935  1.00  0.00     0.028 C 
BRANCH   6   7
ATOM      7  C   UNL     1     -23.609  11.678 -29.835  1.00  0.00    -0.028 C 
ATOM      8  C   UNL     1     -24.339  10.634 -29.352  1.00  0.00    -0.070 CG0
ATOM      9  C   UNL     1     -23.742   9.878 -28.189  1.00  0.00     0.039 C 
ATOM     10  G   UNL     1     -25.630  10.075 -29.951  1.00  0.00     0.000 G0
ENDBRANCH   6   7
ENDBRANCH   5   6
ENDBRANCH   3   5
ENDBRANCH   1   3
BRANCH   1  11
ATOM     11  C   UNL     1     -27.325  13.021 -29.576  1.00  0.00     0.087 C 
BRANCH  11  12
ATOM     12  C   UNL     1     -27.782  11.591 -29.992  1.00  0.00     0.066 C 
BRANCH  12  13
ATOM     13  C   UNL     1     -26.915  10.532 -29.308  1.00  0.00     0.140 C 
ATOM     14  O   UNL     1     -27.270  10.028 -28.250  1.00  0.00    -0.299 OA
BRANCH  13  15
ATOM     15  C   UNL     1     -25.633  10.057 -29.941  1.00  0.00     0.106 CG0
ATOM     16  G   UNL     1     -24.342  10.646 -29.370  1.00  0.00     0.000 G0
ENDBRANCH  13  15
ENDBRANCH  12  13
BRANCH  12  17
ATOM     17  C   UNL     1     -29.309  11.334 -29.743  1.00  0.00    -0.006 C 
ATOM     18  C   UNL     1     -29.963  12.401 -28.845  1.00  0.00     0.008 C 
ATOM     19  C   UNL     1     -30.082  11.282 -31.075  1.00  0.00     0.008 C 
ENDBRANCH  12  17
ENDBRANCH  11  12
ENDBRANCH   1  11
TORSDOF 1
ENDMDL
MODEL 6
REMARK VINA RESULT:    -2.835      9.641     11.518
REMARK INTER + INTRA:          -4.786
REMARK INTER:                  -5.342
REMARK INTRA:                   0.555
REMARK UNBOUND:                -0.460
REMARK SMILES CC1=CCC[C@H](C)C(=O)C[C@H](C(C)C)C(=O)C1
REMARK SMILES IDX 8 1 9 2 6 3 7 4 5 5 4 6 3 7 2 8 1 9 10 11 11 12 15 13 16 14
REMARK SMILES IDX 17 15 12 17 13 18 14 19
REMARK H PARENT
REMARK Flexibility Score: 70.00
ROOT
ATOM      1  C   UNL     1     -28.766  13.293 -30.866  1.00  0.00     0.136 C 
ATOM      2  O   UNL     1     -29.425  14.249 -31.253  1.00  0.00    -0.299 OA
ENDROOT
BRANCH   1   3
ATOM      3  C   UNL     1     -29.458  12.290 -29.949  1.00  0.00     0.053 C 
ATOM      4  C   UNL     1     -29.590  10.949 -30.688  1.00  0.00     0.016 C 
BRANCH   3   5
ATOM      5  C   UNL     1     -28.806  12.040 -28.569  1.00  0.00     0.015 C 
BRANCH   5   6
ATOM      6  C   UNL     1     -28.492  10.578 -28.204  1.00  0.00     0.028 C 
BRANCH   6   7
ATOM      7  C   UNL     1     -27.071  10.322 -27.757  1.00  0.00    -0.028 C 
ATOM      8  C   UNL     1     -25.928  10.437 -28.488  1.00  0.00    -0.070 CG0
ATOM      9  C   UNL     1     -24.645  10.040 -27.796  1.00  0.00     0.039 C 
ATOM     10  G   UNL     1     -25.800  11.048 -29.884  1.00  0.00     0.000 G0
ENDBRANCH   6   7
ENDBRANCH   5   6
ENDBRANCH   3   5
ENDBRANCH   1   3
BRANCH   1  11
ATOM     11  C   UNL     1     -27.329  13.212 -31.336  1.00  0.00     0.087 C 
BRANCH  11  12
ATOM     12  C   UNL     1     -26.330  13.622 -30.213  1.00  0.00     0.066 C 
BRANCH  12  13
ATOM     13  C   UNL     1     -25.336  12.491 -29.942  1.00  0.00     0.140 C 
ATOM     14  O   UNL     1     -24.157  12.741 -29.727  1.00  0.00    -0.299 OA
BRANCH  13  15
ATOM     15  C   UNL     1     -25.792  11.056 -29.891  1.00  0.00     0.106 CG0
ATOM     16  G   UNL     1     -25.910  10.436 -28.499  1.00  0.00     0.000 G0
ENDBRANCH  13  15
ENDBRANCH  12  13
BRANCH  12  17
ATOM     17  C   UNL     1     -25.598  14.977 -30.503  1.00  0.00    -0.006 C 
ATOM     18  C   UNL     1     -24.437  14.834 -31.505  1.00  0.00     0.008 C 
ATOM     19  C   UNL     1     -26.583  16.028 -31.050  1.00  0.00     0.008 C 
ENDBRANCH  12  17
ENDBRANCH  11  12
ENDBRANCH   1  11
TORSDOF 1
ENDMDL
MODEL 7
REMARK VINA RESULT:    -2.830      9.432     11.930
REMARK INTER + INTRA:          -4.778
REMARK INTER:                  -4.937
REMARK INTRA:                   0.158
REMARK UNBOUND:                -0.460
REMARK SMILES CC1=CCC[C@H](C)C(=O)C[C@H](C(C)C)C(=O)C1
REMARK SMILES IDX 8 1 9 2 6 3 7 4 5 5 4 6 3 7 2 8 1 9 10 11 11 12 15 13 16 14
REMARK SMILES IDX 17 15 12 17 13 18 14 19
REMARK H PARENT
REMARK Flexibility Score: 70.00
ROOT
ATOM      1  C   UNL     1     -24.838  13.409 -30.617  1.00  0.00     0.136 C 
ATOM      2  O   UNL     1     -23.863  14.136 -30.747  1.00  0.00    -0.299 OA
ENDROOT
BRANCH   1   3
ATOM      3  C   UNL     1     -26.186  14.081 -30.376  1.00  0.00     0.053 C 
ATOM      4  C   UNL     1     -26.006  15.604 -30.470  1.00  0.00     0.016 C 
BRANCH   3   5
ATOM      5  C   UNL     1     -27.352  13.656 -31.300  1.00  0.00     0.015 C 
BRANCH   5   6
ATOM      6  C   UNL     1     -28.760  13.644 -30.679  1.00  0.00     0.028 C 
BRANCH   6   7
ATOM      7  C   UNL     1     -29.533  12.360 -30.872  1.00  0.00    -0.028 C 
ATOM      8  C   UNL     1     -29.185  11.104 -30.477  1.00  0.00    -0.070 CG0
ATOM      9  C   UNL     1     -30.125   9.990 -30.875  1.00  0.00     0.039 C 
ATOM     10  G   UNL     1     -28.016  10.730 -29.566  1.00  0.00     0.000 G0
ENDBRANCH   6   7
ENDBRANCH   5   6
ENDBRANCH   3   5
ENDBRANCH   1   3
BRANCH   1  11
ATOM     11  C   UNL     1     -24.600  11.917 -30.703  1.00  0.00     0.087 C 
BRANCH  11  12
ATOM     12  C   UNL     1     -25.411  11.139 -29.623  1.00  0.00     0.066 C 
BRANCH  12  13
ATOM     13  C   UNL     1     -26.682  10.545 -30.232  1.00  0.00     0.140 C 
ATOM     14  O   UNL     1     -26.626   9.884 -31.262  1.00  0.00    -0.299 OA
BRANCH  13  15
ATOM     15  C   UNL     1     -28.018  10.723 -29.558  1.00  0.00     0.106 CG0
ATOM     16  G   UNL     1     -29.185  11.105 -30.469  1.00  0.00     0.000 G0
ENDBRANCH  13  15
ENDBRANCH  12  13
BRANCH  12  17
ATOM     17  C   UNL     1     -24.563  10.049 -28.882  1.00  0.00    -0.006 C 
ATOM     18  C   UNL     1     -23.046  10.222 -29.083  1.00  0.00     0.008 C 
ATOM     19  C   UNL     1     -24.855  10.060 -27.368  1.00  0.00     0.008 C 
ENDBRANCH  12  17
ENDBRANCH  11  12
ENDBRANCH   1  11
TORSDOF 1
ENDMDL
MODEL 8
REMARK VINA RESULT:    -2.775      1.866      2.603
REMARK INTER + INTRA:          -4.695
REMARK INTER:                  -5.285
REMARK INTRA:                   0.590
REMARK UNBOUND:                -0.460
REMARK SMILES CC1=CCC[C@H](C)C(=O)C[C@H](C(C)C)C(=O)C1
REMARK SMILES IDX 8 1 9 2 6 3 7 4 5 5 4 6 3 7 2 8 1 9 10 11 11 12 15 13 16 14
REMARK SMILES IDX 17 15 12 17 13 18 14 19
REMARK H PARENT
REMARK Flexibility Score: 70.00
ROOT
ATOM      1  C   UNL     1     -14.376  14.576 -31.147  1.00  0.00     0.136 C 
ATOM      2  O   UNL     1     -13.753  15.146 -30.262  1.00  0.00    -0.299 OA
ENDROOT
BRANCH   1   3
ATOM      3  C   UNL     1     -15.894  14.521 -31.012  1.00  0.00     0.053 C 
ATOM      4  C   UNL     1     -16.470  13.725 -32.195  1.00  0.00     0.016 C 
BRANCH   3   5
ATOM      5  C   UNL     1     -16.456  13.937 -29.694  1.00  0.00     0.015 C 
BRANCH   5   6
ATOM      6  C   UNL     1     -16.712  12.420 -29.660  1.00  0.00     0.028 C 
BRANCH   6   7
ATOM      7  C   UNL     1     -15.570  11.592 -29.119  1.00  0.00    -0.028 C 
ATOM      8  C   UNL     1     -14.534  11.039 -29.809  1.00  0.00    -0.070 CG0
ATOM      9  C   UNL     1     -13.572  10.191 -29.011  1.00  0.00     0.039 C 
ATOM     10  G   UNL     1     -14.178  11.296 -31.273  1.00  0.00     0.000 G0
ENDBRANCH   6   7
ENDBRANCH   5   6
ENDBRANCH   3   5
ENDBRANCH   1   3
BRANCH   1  11
ATOM     11  C   UNL     1     -13.570  13.982 -32.283  1.00  0.00     0.087 C 
BRANCH  11  12
ATOM     12  C   UNL     1     -12.348  13.169 -31.761  1.00  0.00     0.066 C 
BRANCH  12  13
ATOM     13  C   UNL     1     -12.727  11.699 -31.566  1.00  0.00     0.140 C 
ATOM     14  O   UNL     1     -11.868  10.827 -31.605  1.00  0.00    -0.299 OA
BRANCH  13  15
ATOM     15  C   UNL     1     -14.151  11.299 -31.282  1.00  0.00     0.106 CG0
ATOM     16  G   UNL     1     -14.503  11.060 -29.813  1.00  0.00     0.000 G0
ENDBRANCH  13  15
ENDBRANCH  12  13
BRANCH  12  17
ATOM     17  C   UNL     1     -11.075  13.321 -32.662  1.00  0.00    -0.006 C 
ATOM     18  C   UNL     1     -10.991  12.260 -33.775  1.00  0.00     0.008 C 
ATOM     19  C   UNL     1     -11.030  14.715 -33.318  1.00  0.00     0.008 C 
ENDBRANCH  12  17
ENDBRANCH  11  12
ENDBRANCH   1  11
TORSDOF 1
ENDMDL
MODEL 9
REMARK VINA RESULT:    -2.561      9.135     11.535
REMARK INTER + INTRA:          -4.368
REMARK INTER:                  -4.825
REMARK INTRA:                   0.457
REMARK UNBOUND:                -0.460
REMARK SMILES CC1=CCC[C@H](C)C(=O)C[C@H](C(C)C)C(=O)C1
REMARK SMILES IDX 8 1 9 2 6 3 7 4 5 5 4 6 3 7 2 8 1 9 10 11 11 12 15 13 16 14
REMARK SMILES IDX 17 15 12 17 13 18 14 19
REMARK H PARENT
REMARK Flexibility Score: 70.00
ROOT
ATOM      1  C   UNL     1     -25.812  10.800 -30.071  1.00  0.00     0.136 C 
ATOM      2  O   UNL     1     -25.792  10.628 -31.282  1.00  0.00    -0.299 OA
ENDROOT
BRANCH   1   3
ATOM      3  C   UNL     1     -26.733   9.903 -29.251  1.00  0.00     0.053 C 
ATOM      4  C   UNL     1     -26.522  10.204 -27.759  1.00  0.00     0.016 C 
BRANCH   3   5
ATOM      5  C   UNL     1     -28.246   9.979 -29.568  1.00  0.00     0.015 C 
BRANCH   5   6
ATOM      6  C   UNL     1     -28.967  11.289 -29.203  1.00  0.00     0.028 C 
BRANCH   6   7
ATOM      7  C   UNL     1     -29.038  12.311 -30.314  1.00  0.00    -0.028 C 
ATOM      8  C   UNL     1     -28.292  13.441 -30.464  1.00  0.00    -0.070 CG0
ATOM      9  C   UNL     1     -28.635  14.321 -31.643  1.00  0.00     0.039 C 
ATOM     10  G   UNL     1     -27.066  13.836 -29.640  1.00  0.00     0.000 G0
ENDBRANCH   6   7
ENDBRANCH   5   6
ENDBRANCH   3   5
ENDBRANCH   1   3
BRANCH   1  11
ATOM     11  C   UNL     1     -24.923  11.892 -29.515  1.00  0.00     0.087 C 
BRANCH  11  12
ATOM     12  C   UNL     1     -24.710  13.043 -30.543  1.00  0.00     0.066 C 
BRANCH  12  13
ATOM     13  C   UNL     1     -25.779  14.123 -30.367  1.00  0.00     0.140 C 
ATOM     14  O   UNL     1     -25.622  15.236 -30.851  1.00  0.00    -0.299 OA
BRANCH  13  15
ATOM     15  C   UNL     1     -27.063  13.828 -29.634  1.00  0.00     0.106 CG0
ATOM     16  G   UNL     1     -28.264  13.454 -30.503  1.00  0.00     0.000 G0
ENDBRANCH  13  15
ENDBRANCH  12  13
BRANCH  12  17
ATOM     17  C   UNL     1     -23.265  13.650 -30.500  1.00  0.00    -0.006 C 
ATOM     18  C   UNL     1     -22.159  12.579 -30.522  1.00  0.00     0.008 C 
ATOM     19  C   UNL     1     -23.036  14.608 -31.686  1.00  0.00     0.008 C 
ENDBRANCH  12  17
ENDBRANCH  11  12
ENDBRANCH   1  11
TORSDOF 1
ENDMDL
