MODEL 1
REMARK VINA RESULT:    -3.365      0.000      0.000
REMARK INTER + INTRA:          -7.220
REMARK INTER:                  -5.725
REMARK INTRA:                  -1.495
REMARK UNBOUND:                -1.495
REMARK SMILES CCCCCCCCCCCCCC(=O)[O-]
REMARK SMILES IDX 8 1 9 2 10 3 11 4 12 5 13 6 14 7 15 8 16 9 7 10 6 11 5 12
REMARK SMILES IDX 4 13 3 14 2 15 1 16
REMARK H PARENT
REMARK Flexibility Score: inf
ROOT
ATOM      1  C   UNL     1      58.040  28.091  51.380  1.00  0.00     0.000 C 
ENDROOT
BRANCH   1   2
ATOM      2  C   UNL     1      57.925  28.983  50.124  1.00  0.00     0.000 C 
BRANCH   2   3
ATOM      3  C   UNL     1      59.187  29.051  49.246  1.00  0.00     0.000 C 
BRANCH   3   4
ATOM      4  C   UNL     1      60.194  27.935  49.560  1.00  0.00     0.000 C 
BRANCH   4   5
ATOM      5  C   UNL     1      61.596  28.512  49.800  1.00  0.00     0.006 C 
BRANCH   5   6
ATOM      6  C   UNL     1      61.553  29.986  50.227  1.00  0.00     0.053 C 
BRANCH   6   7
ATOM      7  C   UNL     1      62.780  30.727  49.792  1.00  0.00     0.041 C 
ATOM      8  O   UNL     1      62.979  31.907  50.183  1.00  0.00    -0.550 OA
ATOM      9  O   UNL     1      63.686  30.127  48.926  1.00  0.00    -0.550 OA
ENDBRANCH   6   7
ENDBRANCH   5   6
ENDBRANCH   4   5
ENDBRANCH   3   4
ENDBRANCH   2   3
ENDBRANCH   1   2
BRANCH   1  10
ATOM     10  C   UNL     1      57.071  26.892  51.436  1.00  0.00     0.000 C 
BRANCH  10  11
ATOM     11  C   UNL     1      56.807  26.217  50.071  1.00  0.00    -0.000 C 
BRANCH  11  12
ATOM     12  C   UNL     1      55.312  26.041  49.742  1.00  0.00    -0.000 C 
BRANCH  12  13
ATOM     13  C   UNL     1      54.356  26.884  50.606  1.00  0.00    -0.000 C 
BRANCH  13  14
ATOM     14  C   UNL     1      53.716  28.085  49.885  1.00  0.00    -0.000 C 
BRANCH  14  15
ATOM     15  C   UNL     1      54.142  29.453  50.456  1.00  0.00    -0.003 C 
ATOM     16  C   UNL     1      54.505  29.382  51.939  1.00  0.00     0.004 C 
ENDBRANCH  14  15
ENDBRANCH  13  14
ENDBRANCH  12  13
ENDBRANCH  11  12
ENDBRANCH  10  11
ENDBRANCH   1  10
TORSDOF 12
ENDMDL
MODEL 2
REMARK VINA RESULT:    -3.352      4.816      7.575
REMARK INTER + INTRA:          -7.198
REMARK INTER:                  -6.451
REMARK INTRA:                  -0.747
REMARK UNBOUND:                -1.495
REMARK SMILES CCCCCCCCCCCCCC(=O)[O-]
REMARK SMILES IDX 8 1 9 2 10 3 11 4 12 5 13 6 14 7 15 8 16 9 7 10 6 11 5 12
REMARK SMILES IDX 4 13 3 14 2 15 1 16
REMARK H PARENT
REMARK Flexibility Score: inf
ROOT
ATOM      1  C   UNL     1      59.015  28.893  49.375  1.00  0.00     0.000 C 
ENDROOT
BRANCH   1   2
ATOM      2  C   UNL     1      58.078  28.947  50.601  1.00  0.00     0.000 C 
BRANCH   2   3
ATOM      3  C   UNL     1      56.971  27.878  50.634  1.00  0.00     0.000 C 
BRANCH   3   4
ATOM      4  C   UNL     1      55.572  28.474  50.841  1.00  0.00     0.000 C 
BRANCH   4   5
ATOM      5  C   UNL     1      54.533  27.749  49.973  1.00  0.00     0.006 C 
BRANCH   5   6
ATOM      6  C   UNL     1      54.936  26.298  49.673  1.00  0.00     0.053 C 
BRANCH   6   7
ATOM      7  C   UNL     1      53.748  25.450  49.336  1.00  0.00     0.041 C 
ATOM      8  O   UNL     1      52.875  25.873  48.534  1.00  0.00    -0.550 OA
ATOM      9  O   UNL     1      53.588  24.206  49.934  1.00  0.00    -0.550 OA
ENDBRANCH   6   7
ENDBRANCH   5   6
ENDBRANCH   4   5
ENDBRANCH   3   4
ENDBRANCH   2   3
ENDBRANCH   1   2
BRANCH   1  10
ATOM     10  C   UNL     1      59.820  27.587  49.209  1.00  0.00     0.000 C 
BRANCH  10  11
ATOM     11  C   UNL     1      61.299  27.687  49.646  1.00  0.00    -0.000 C 
BRANCH  11  12
ATOM     12  C   UNL     1      61.639  26.844  50.890  1.00  0.00    -0.000 C 
BRANCH  12  13
ATOM     13  C   UNL     1      60.872  25.514  50.999  1.00  0.00    -0.000 C 
BRANCH  13  14
ATOM     14  C   UNL     1      61.475  24.347  50.193  1.00  0.00    -0.000 C 
BRANCH  14  15
ATOM     15  C   UNL     1      60.513  23.154  50.013  1.00  0.00    -0.003 C 
ATOM     16  C   UNL     1      61.216  21.911  49.469  1.00  0.00     0.004 C 
ENDBRANCH  14  15
ENDBRANCH  13  14
ENDBRANCH  12  13
ENDBRANCH  11  12
ENDBRANCH  10  11
ENDBRANCH   1  10
TORSDOF 12
ENDMDL
MODEL 3
REMARK VINA RESULT:    -3.349      1.689      2.203
REMARK INTER + INTRA:          -7.193
REMARK INTER:                  -5.835
REMARK INTRA:                  -1.358
REMARK UNBOUND:                -1.495
REMARK SMILES CCCCCCCCCCCCCC(=O)[O-]
REMARK SMILES IDX 8 1 9 2 10 3 11 4 12 5 13 6 14 7 15 8 16 9 7 10 6 11 5 12
REMARK SMILES IDX 4 13 3 14 2 15 1 16
REMARK H PARENT
REMARK Flexibility Score: inf
ROOT
ATOM      1  C   UNL     1      57.720  28.023  51.385  1.00  0.00     0.000 C 
ENDROOT
BRANCH   1   2
ATOM      2  C   UNL     1      57.759  28.883  50.103  1.00  0.00     0.000 C 
BRANCH   2   3
ATOM      3  C   UNL     1      59.117  28.929  49.381  1.00  0.00     0.000 C 
BRANCH   3   4
ATOM      4  C   UNL     1      59.826  27.568  49.356  1.00  0.00     0.000 C 
BRANCH   4   5
ATOM      5  C   UNL     1      61.352  27.742  49.380  1.00  0.00     0.006 C 
BRANCH   5   6
ATOM      6  C   UNL     1      62.075  26.471  49.844  1.00  0.00     0.053 C 
BRANCH   6   7
ATOM      7  C   UNL     1      63.564  26.614  49.755  1.00  0.00     0.041 C 
ATOM      8  O   UNL     1      64.315  25.796  50.348  1.00  0.00    -0.550 OA
ATOM      9  O   UNL     1      64.121  27.671  49.047  1.00  0.00    -0.550 OA
ENDBRANCH   6   7
ENDBRANCH   5   6
ENDBRANCH   4   5
ENDBRANCH   3   4
ENDBRANCH   2   3
ENDBRANCH   1   2
BRANCH   1  10
ATOM     10  C   UNL     1      56.776  26.804  51.341  1.00  0.00     0.000 C 
BRANCH  10  11
ATOM     11  C   UNL     1      56.454  26.294  49.918  1.00  0.00    -0.000 C 
BRANCH  11  12
ATOM     12  C   UNL     1      54.953  26.052  49.667  1.00  0.00    -0.000 C 
BRANCH  12  13
ATOM     13  C   UNL     1      54.008  26.909  50.527  1.00  0.00    -0.000 C 
BRANCH  13  14
ATOM     14  C   UNL     1      53.551  28.228  49.875  1.00  0.00    -0.000 C 
BRANCH  14  15
ATOM     15  C   UNL     1      54.180  29.486  50.510  1.00  0.00    -0.003 C 
ATOM     16  C   UNL     1      54.221  29.415  52.036  1.00  0.00     0.004 C 
ENDBRANCH  14  15
ENDBRANCH  13  14
ENDBRANCH  12  13
ENDBRANCH  11  12
ENDBRANCH  10  11
ENDBRANCH   1  10
TORSDOF 12
ENDMDL
MODEL 4
REMARK VINA RESULT:    -3.282      1.436      2.182
REMARK INTER + INTRA:          -7.078
REMARK INTER:                  -5.738
REMARK INTRA:                  -1.340
REMARK UNBOUND:                -1.495
REMARK SMILES CCCCCCCCCCCCCC(=O)[O-]
REMARK SMILES IDX 8 1 9 2 10 3 11 4 12 5 13 6 14 7 15 8 16 9 7 10 6 11 5 12
REMARK SMILES IDX 4 13 3 14 2 15 1 16
REMARK H PARENT
REMARK Flexibility Score: inf
ROOT
ATOM      1  C   UNL     1      58.306  29.132  50.620  1.00  0.00     0.000 C 
ENDROOT
BRANCH   1   2
ATOM      2  C   UNL     1      58.997  28.769  49.287  1.00  0.00     0.000 C 
BRANCH   2   3
ATOM      3  C   UNL     1      59.641  27.373  49.237  1.00  0.00     0.000 C 
BRANCH   3   4
ATOM      4  C   UNL     1      60.590  27.111  50.415  1.00  0.00     0.000 C 
BRANCH   4   5
ATOM      5  C   UNL     1      61.968  26.650  49.919  1.00  0.00     0.006 C 
BRANCH   5   6
ATOM      6  C   UNL     1      62.719  27.762  49.173  1.00  0.00     0.053 C 
BRANCH   6   7
ATOM      7  C   UNL     1      62.963  28.952  50.050  1.00  0.00     0.041 C 
ATOM      8  O   UNL     1      63.675  28.841  51.083  1.00  0.00    -0.550 OA
ATOM      9  O   UNL     1      62.377  30.174  49.747  1.00  0.00    -0.550 OA
ENDBRANCH   6   7
ENDBRANCH   5   6
ENDBRANCH   4   5
ENDBRANCH   3   4
ENDBRANCH   2   3
ENDBRANCH   1   2
BRANCH   1  10
ATOM     10  C   UNL     1      56.926  28.482  50.853  1.00  0.00     0.000 C 
BRANCH  10  11
ATOM     11  C   UNL     1      56.954  27.220  51.745  1.00  0.00    -0.000 C 
BRANCH  11  12
ATOM     12  C   UNL     1      56.400  25.958  51.056  1.00  0.00    -0.000 C 
BRANCH  12  13
ATOM     13  C   UNL     1      55.731  26.206  49.692  1.00  0.00    -0.000 C 
BRANCH  13  14
ATOM     14  C   UNL     1      54.411  25.445  49.467  1.00  0.00    -0.000 C 
BRANCH  14  15
ATOM     15  C   UNL     1      53.179  26.363  49.331  1.00  0.00    -0.003 C 
ATOM     16  C   UNL     1      53.473  27.805  49.744  1.00  0.00     0.004 C 
ENDBRANCH  14  15
ENDBRANCH  13  14
ENDBRANCH  12  13
ENDBRANCH  11  12
ENDBRANCH  10  11
ENDBRANCH   1  10
TORSDOF 12
ENDMDL
MODEL 5
REMARK VINA RESULT:    -3.281      2.280      3.904
REMARK INTER + INTRA:          -7.078
REMARK INTER:                  -5.081
REMARK INTRA:                  -1.997
REMARK UNBOUND:                -1.495
REMARK SMILES CCCCCCCCCCCCCC(=O)[O-]
REMARK SMILES IDX 8 1 9 2 10 3 11 4 12 5 13 6 14 7 15 8 16 9 7 10 6 11 5 12
REMARK SMILES IDX 4 13 3 14 2 15 1 16
REMARK H PARENT
REMARK Flexibility Score: inf
ROOT
ATOM      1  C   UNL     1      54.479  29.068  50.465  1.00  0.00     0.000 C 
ENDROOT
BRANCH   1   2
ATOM      2  C   UNL     1      55.234  29.202  51.806  1.00  0.00     0.000 C 
BRANCH   2   3
ATOM      3  C   UNL     1      56.769  29.194  51.702  1.00  0.00     0.000 C 
BRANCH   3   4
ATOM      4  C   UNL     1      57.272  28.707  50.336  1.00  0.00     0.000 C 
BRANCH   4   5
ATOM      5  C   UNL     1      58.745  29.087  50.125  1.00  0.00     0.006 C 
BRANCH   5   6
ATOM      6  C   UNL     1      59.450  28.153  49.132  1.00  0.00     0.053 C 
BRANCH   6   7
ATOM      7  C   UNL     1      60.311  27.145  49.832  1.00  0.00     0.041 C 
ATOM      8  O   UNL     1      60.263  25.932  49.499  1.00  0.00    -0.550 OA
ATOM      9  O   UNL     1      61.140  27.540  50.874  1.00  0.00    -0.550 OA
ENDBRANCH   6   7
ENDBRANCH   5   6
ENDBRANCH   4   5
ENDBRANCH   3   4
ENDBRANCH   2   3
ENDBRANCH   1   2
BRANCH   1  10
ATOM     10  C   UNL     1      53.577  27.824  50.331  1.00  0.00     0.000 C 
BRANCH  10  11
ATOM     11  C   UNL     1      54.159  26.704  49.437  1.00  0.00    -0.000 C 
BRANCH  11  12
ATOM     12  C   UNL     1      55.053  25.704  50.196  1.00  0.00    -0.000 C 
BRANCH  12  13
ATOM     13  C   UNL     1      54.718  25.541  51.690  1.00  0.00    -0.000 C 
BRANCH  13  14
ATOM     14  C   UNL     1      55.939  25.407  52.619  1.00  0.00    -0.000 C 
BRANCH  14  15
ATOM     15  C   UNL     1      57.291  25.433  51.877  1.00  0.00    -0.003 C 
ATOM     16  C   UNL     1      58.425  25.986  52.740  1.00  0.00     0.004 C 
ENDBRANCH  14  15
ENDBRANCH  13  14
ENDBRANCH  12  13
ENDBRANCH  11  12
ENDBRANCH  10  11
ENDBRANCH   1  10
TORSDOF 12
ENDMDL
MODEL 6
REMARK VINA RESULT:    -3.255      2.348      3.252
REMARK INTER + INTRA:          -7.033
REMARK INTER:                  -5.468
REMARK INTRA:                  -1.565
REMARK UNBOUND:                -1.495
REMARK SMILES CCCCCCCCCCCCCC(=O)[O-]
REMARK SMILES IDX 8 1 9 2 10 3 11 4 12 5 13 6 14 7 15 8 16 9 7 10 6 11 5 12
REMARK SMILES IDX 4 13 3 14 2 15 1 16
REMARK H PARENT
REMARK Flexibility Score: inf
ROOT
ATOM      1  C   UNL     1      59.126  25.339  50.430  1.00  0.00     0.000 C 
ENDROOT
BRANCH   1   2
ATOM      2  C   UNL     1      60.482  26.006  50.752  1.00  0.00     0.000 C 
BRANCH   2   3
ATOM      3  C   UNL     1      60.906  27.134  49.794  1.00  0.00     0.000 C 
BRANCH   3   4
ATOM      4  C   UNL     1      59.724  27.736  49.021  1.00  0.00     0.000 C 
BRANCH   4   5
ATOM      5  C   UNL     1      59.327  29.102  49.601  1.00  0.00     0.006 C 
BRANCH   5   6
ATOM      6  C   UNL     1      58.127  29.003  50.553  1.00  0.00     0.053 C 
BRANCH   6   7
ATOM      7  C   UNL     1      58.532  29.213  51.980  1.00  0.00     0.041 C 
ATOM      8  O   UNL     1      59.669  29.679  52.253  1.00  0.00    -0.550 OA
ATOM      9  O   UNL     1      57.667  28.862  53.009  1.00  0.00    -0.550 OA
ENDBRANCH   6   7
ENDBRANCH   5   6
ENDBRANCH   4   5
ENDBRANCH   3   4
ENDBRANCH   2   3
ENDBRANCH   1   2
BRANCH   1  10
ATOM     10  C   UNL     1      58.174  25.155  51.629  1.00  0.00     0.000 C 
BRANCH  10  11
ATOM     11  C   UNL     1      56.737  25.672  51.391  1.00  0.00    -0.000 C 
BRANCH  11  12
ATOM     12  C   UNL     1      56.441  26.036  49.923  1.00  0.00    -0.000 C 
BRANCH  12  13
ATOM     13  C   UNL     1      54.993  25.778  49.472  1.00  0.00    -0.000 C 
BRANCH  13  14
ATOM     14  C   UNL     1      53.917  26.536  50.272  1.00  0.00    -0.000 C 
BRANCH  14  15
ATOM     15  C   UNL     1      53.666  27.973  49.771  1.00  0.00    -0.003 C 
ATOM     16  C   UNL     1      54.475  29.014  50.545  1.00  0.00     0.004 C 
ENDBRANCH  14  15
ENDBRANCH  13  14
ENDBRANCH  12  13
ENDBRANCH  11  12
ENDBRANCH  10  11
ENDBRANCH   1  10
TORSDOF 12
ENDMDL
MODEL 7
REMARK VINA RESULT:    -3.245      2.682      3.899
REMARK INTER + INTRA:          -7.015
REMARK INTER:                  -5.426
REMARK INTRA:                  -1.589
REMARK UNBOUND:                -1.495
REMARK SMILES CCCCCCCCCCCCCC(=O)[O-]
REMARK SMILES IDX 8 1 9 2 10 3 11 4 12 5 13 6 14 7 15 8 16 9 7 10 6 11 5 12
REMARK SMILES IDX 4 13 3 14 2 15 1 16
REMARK H PARENT
REMARK Flexibility Score: inf
ROOT
ATOM      1  C   UNL     1      57.194  29.924  52.331  1.00  0.00     0.000 C 
ENDROOT
BRANCH   1   2
ATOM      2  C   UNL     1      58.332  29.256  51.529  1.00  0.00     0.000 C 
BRANCH   2   3
ATOM      3  C   UNL     1      58.002  28.933  50.061  1.00  0.00     0.000 C 
BRANCH   3   4
ATOM      4  C   UNL     1      59.236  28.978  49.148  1.00  0.00     0.000 C 
BRANCH   4   5
ATOM      5  C   UNL     1      60.205  27.834  49.479  1.00  0.00     0.006 C 
BRANCH   5   6
ATOM      6  C   UNL     1      59.534  26.457  49.384  1.00  0.00     0.053 C 
BRANCH   6   7
ATOM      7  C   UNL     1      60.075  25.503  50.404  1.00  0.00     0.041 C 
ATOM      8  O   UNL     1      60.338  24.314  50.083  1.00  0.00    -0.550 OA
ATOM      9  O   UNL     1      60.256  25.916  51.718  1.00  0.00    -0.550 OA
ENDBRANCH   6   7
ENDBRANCH   5   6
ENDBRANCH   4   5
ENDBRANCH   3   4
ENDBRANCH   2   3
ENDBRANCH   1   2
BRANCH   1  10
ATOM     10  C   UNL     1      55.994  29.014  52.668  1.00  0.00     0.000 C 
BRANCH  10  11
ATOM     11  C   UNL     1      54.646  29.486  52.077  1.00  0.00    -0.000 C 
BRANCH  11  12
ATOM     12  C   UNL     1      54.549  29.328  50.547  1.00  0.00    -0.000 C 
BRANCH  12  13
ATOM     13  C   UNL     1      53.935  27.999  50.072  1.00  0.00    -0.000 C 
BRANCH  13  14
ATOM     14  C   UNL     1      54.951  26.869  49.813  1.00  0.00    -0.000 C 
BRANCH  14  15
ATOM     15  C   UNL     1      55.091  25.878  50.987  1.00  0.00    -0.003 C 
ATOM     16  C   UNL     1      56.539  25.715  51.446  1.00  0.00     0.004 C 
ENDBRANCH  14  15
ENDBRANCH  13  14
ENDBRANCH  12  13
ENDBRANCH  11  12
ENDBRANCH  10  11
ENDBRANCH   1  10
TORSDOF 12
ENDMDL
MODEL 8
REMARK VINA RESULT:    -3.213      2.325      3.244
REMARK INTER + INTRA:          -6.961
REMARK INTER:                  -5.667
REMARK INTRA:                  -1.294
REMARK UNBOUND:                -1.495
REMARK SMILES CCCCCCCCCCCCCC(=O)[O-]
REMARK SMILES IDX 8 1 9 2 10 3 11 4 12 5 13 6 14 7 15 8 16 9 7 10 6 11 5 12
REMARK SMILES IDX 4 13 3 14 2 15 1 16
REMARK H PARENT
REMARK Flexibility Score: inf
ROOT
ATOM      1  C   UNL     1      55.862  26.259  50.544  1.00  0.00     0.000 C 
ENDROOT
BRANCH   1   2
ATOM      2  C   UNL     1      57.210  26.872  50.106  1.00  0.00     0.000 C 
BRANCH   2   3
ATOM      3  C   UNL     1      57.377  28.373  50.395  1.00  0.00     0.000 C 
BRANCH   3   4
ATOM      4  C   UNL     1      58.573  28.994  49.659  1.00  0.00     0.000 C 
BRANCH   4   5
ATOM      5  C   UNL     1      59.551  27.909  49.186  1.00  0.00     0.006 C 
BRANCH   5   6
ATOM      6  C   UNL     1      60.779  27.795  50.100  1.00  0.00     0.053 C 
BRANCH   6   7
ATOM      7  C   UNL     1      61.145  26.367  50.363  1.00  0.00     0.041 C 
ATOM      8  O   UNL     1      60.384  25.634  51.047  1.00  0.00    -0.550 OA
ATOM      9  O   UNL     1      62.344  25.855  49.884  1.00  0.00    -0.550 OA
ENDBRANCH   6   7
ENDBRANCH   5   6
ENDBRANCH   4   5
ENDBRANCH   3   4
ENDBRANCH   2   3
ENDBRANCH   1   2
BRANCH   1  10
ATOM     10  C   UNL     1      54.921  25.830  49.399  1.00  0.00     0.000 C 
BRANCH  10  11
ATOM     11  C   UNL     1      53.543  26.531  49.405  1.00  0.00    -0.000 C 
BRANCH  11  12
ATOM     12  C   UNL     1      53.370  27.553  50.545  1.00  0.00    -0.000 C 
BRANCH  12  13
ATOM     13  C   UNL     1      53.192  29.011  50.085  1.00  0.00    -0.000 C 
BRANCH  13  14
ATOM     14  C   UNL     1      53.850  30.065  50.996  1.00  0.00    -0.000 C 
BRANCH  14  15
ATOM     15  C   UNL     1      54.534  29.470  52.244  1.00  0.00    -0.003 C 
ATOM     16  C   UNL     1      55.244  30.529  53.086  1.00  0.00     0.004 C 
ENDBRANCH  14  15
ENDBRANCH  13  14
ENDBRANCH  12  13
ENDBRANCH  11  12
ENDBRANCH  10  11
ENDBRANCH   1  10
TORSDOF 12
ENDMDL
MODEL 9
REMARK VINA RESULT:    -3.201      3.173      4.154
REMARK INTER + INTRA:          -6.941
REMARK INTER:                  -5.370
REMARK INTRA:                  -1.572
REMARK UNBOUND:                -1.495
REMARK SMILES CCCCCCCCCCCCCC(=O)[O-]
REMARK SMILES IDX 8 1 9 2 10 3 11 4 12 5 13 6 14 7 15 8 16 9 7 10 6 11 5 12
REMARK SMILES IDX 4 13 3 14 2 15 1 16
REMARK H PARENT
REMARK Flexibility Score: inf
ROOT
ATOM      1  C   UNL     1      58.913  29.042  51.457  1.00  0.00     0.000 C 
ENDROOT
BRANCH   1   2
ATOM      2  C   UNL     1      58.650  29.217  49.946  1.00  0.00     0.000 C 
BRANCH   2   3
ATOM      3  C   UNL     1      59.550  28.382  49.019  1.00  0.00     0.000 C 
BRANCH   3   4
ATOM      4  C   UNL     1      60.348  27.307  49.770  1.00  0.00     0.000 C 
BRANCH   4   5
ATOM      5  C   UNL     1      59.714  25.921  49.583  1.00  0.00     0.006 C 
BRANCH   5   6
ATOM      6  C   UNL     1      59.801  25.066  50.854  1.00  0.00     0.053 C 
BRANCH   6   7
ATOM      7  C   UNL     1      60.580  23.807  50.625  1.00  0.00     0.041 C 
ATOM      8  O   UNL     1      61.706  23.853  50.064  1.00  0.00    -0.550 OA
ATOM      9  O   UNL     1      60.047  22.579  50.998  1.00  0.00    -0.550 OA
ENDBRANCH   6   7
ENDBRANCH   5   6
ENDBRANCH   4   5
ENDBRANCH   3   4
ENDBRANCH   2   3
ENDBRANCH   1   2
BRANCH   1  10
ATOM     10  C   UNL     1      57.775  28.376  52.258  1.00  0.00     0.000 C 
BRANCH  10  11
ATOM     11  C   UNL     1      56.512  28.050  51.427  1.00  0.00    -0.000 C 
BRANCH  11  12
ATOM     12  C   UNL     1      56.283  26.542  51.209  1.00  0.00    -0.000 C 
BRANCH  12  13
ATOM     13  C   UNL     1      56.027  26.132  49.748  1.00  0.00    -0.000 C 
BRANCH  13  14
ATOM     14  C   UNL     1      54.559  25.808  49.411  1.00  0.00    -0.000 C 
BRANCH  14  15
ATOM     15  C   UNL     1      53.539  26.533  50.315  1.00  0.00    -0.003 C 
ATOM     16  C   UNL     1      53.092  27.875  49.737  1.00  0.00     0.004 C 
ENDBRANCH  14  15
ENDBRANCH  13  14
ENDBRANCH  12  13
ENDBRANCH  11  12
ENDBRANCH  10  11
ENDBRANCH   1  10
TORSDOF 12
ENDMDL
