MODEL 1
REMARK VINA RESULT:    -4.413      0.000      0.000
REMARK INTER + INTRA:          -6.423
REMARK INTER:                  -5.960
REMARK INTRA:                  -0.463
REMARK UNBOUND:                -0.463
REMARK SMILES CCCCCCCC(=O)[O-]
REMARK SMILES IDX 5 1 6 2 7 3 8 4 9 5 10 6 4 7 3 8 2 9 1 10
REMARK H PARENT
REMARK Flexibility Score: inf
ROOT
ATOM      1  C   UNL     1       8.103  22.858  -9.551  1.00  0.00     0.000 C 
ENDROOT
BRANCH   1   2
ATOM      2  C   UNL     1       7.918  24.028  -8.574  1.00  0.00     0.006 C 
BRANCH   2   3
ATOM      3  C   UNL     1       6.686  23.849  -7.678  1.00  0.00     0.053 C 
BRANCH   3   4
ATOM      4  C   UNL     1       7.001  24.129  -6.240  1.00  0.00     0.041 C 
ATOM      5  O   UNL     1       7.635  23.285  -5.553  1.00  0.00    -0.550 OA
ATOM      6  O   UNL     1       6.621  25.336  -5.668  1.00  0.00    -0.550 OA
ENDBRANCH   3   4
ENDBRANCH   2   3
ENDBRANCH   1   2
BRANCH   1   7
ATOM      7  C   UNL     1       9.401  22.097  -9.258  1.00  0.00     0.000 C 
BRANCH   7   8
ATOM      8  C   UNL     1      10.164  22.739  -8.094  1.00  0.00    -0.000 C 
BRANCH   8   9
ATOM      9  C   UNL     1      10.509  21.699  -7.022  1.00  0.00    -0.003 C 
ATOM     10  C   UNL     1      10.177  20.287  -7.497  1.00  0.00     0.004 C 
ENDBRANCH   8   9
ENDBRANCH   7   8
ENDBRANCH   1   7
TORSDOF 6
ENDMDL
MODEL 2
REMARK VINA RESULT:    -4.409      1.502      2.142
REMARK INTER + INTRA:          -6.419
REMARK INTER:                  -6.140
REMARK INTRA:                  -0.278
REMARK UNBOUND:                -0.463
REMARK SMILES CCCCCCCC(=O)[O-]
REMARK SMILES IDX 5 1 6 2 7 3 8 4 9 5 10 6 4 7 3 8 2 9 1 10
REMARK H PARENT
REMARK Flexibility Score: inf
ROOT
ATOM      1  C   UNL     1       8.574  23.012  -9.291  1.00  0.00     0.000 C 
ENDROOT
BRANCH   1   2
ATOM      2  C   UNL     1       7.969  24.249  -8.611  1.00  0.00     0.006 C 
BRANCH   2   3
ATOM      3  C   UNL     1       6.723  23.906  -7.783  1.00  0.00     0.053 C 
BRANCH   3   4
ATOM      4  C   UNL     1       6.976  24.051  -6.314  1.00  0.00     0.041 C 
ATOM      5  O   UNL     1       7.650  23.183  -5.697  1.00  0.00    -0.550 OA
ATOM      6  O   UNL     1       6.495  25.160  -5.632  1.00  0.00    -0.550 OA
ENDBRANCH   3   4
ENDBRANCH   2   3
ENDBRANCH   1   2
BRANCH   1   7
ATOM      7  C   UNL     1      10.040  22.824  -8.885  1.00  0.00     0.000 C 
BRANCH   7   8
ATOM      8  C   UNL     1      10.982  23.185 -10.040  1.00  0.00    -0.000 C 
BRANCH   8   9
ATOM      9  C   UNL     1      11.776  24.458  -9.725  1.00  0.00    -0.003 C 
ATOM     10  C   UNL     1      12.708  24.245  -8.536  1.00  0.00     0.004 C 
ENDBRANCH   8   9
ENDBRANCH   7   8
ENDBRANCH   1   7
TORSDOF 6
ENDMDL
MODEL 3
REMARK VINA RESULT:    -4.355      3.288      4.783
REMARK INTER + INTRA:          -6.345
REMARK INTER:                  -6.030
REMARK INTRA:                  -0.315
REMARK UNBOUND:                -0.463
REMARK SMILES CCCCCCCC(=O)[O-]
REMARK SMILES IDX 5 1 6 2 7 3 8 4 9 5 10 6 4 7 3 8 2 9 1 10
REMARK H PARENT
REMARK Flexibility Score: inf
ROOT
ATOM      1  C   UNL     1       9.009  22.142  -9.145  1.00  0.00     0.000 C 
ENDROOT
BRANCH   1   2
ATOM      2  C   UNL     1      10.363  22.660  -9.654  1.00  0.00     0.006 C 
BRANCH   2   3
ATOM      3  C   UNL     1      11.259  23.162  -8.515  1.00  0.00     0.053 C 
BRANCH   3   4
ATOM      4  C   UNL     1      12.269  24.156  -9.001  1.00  0.00     0.041 C 
ATOM      5  O   UNL     1      12.082  24.775 -10.081  1.00  0.00    -0.550 OA
ATOM      6  O   UNL     1      13.403  24.422  -8.244  1.00  0.00    -0.550 OA
ENDBRANCH   3   4
ENDBRANCH   2   3
ENDBRANCH   1   2
BRANCH   1   7
ATOM      7  C   UNL     1       7.880  22.510 -10.114  1.00  0.00     0.000 C 
BRANCH   7   8
ATOM      8  C   UNL     1       6.749  23.247  -9.386  1.00  0.00    -0.000 C 
BRANCH   8   9
ATOM      9  C   UNL     1       7.290  24.452  -8.608  1.00  0.00    -0.003 C 
ATOM     10  C   UNL     1       6.901  24.376  -7.135  1.00  0.00     0.004 C 
ENDBRANCH   8   9
ENDBRANCH   7   8
ENDBRANCH   1   7
TORSDOF 6
ENDMDL
MODEL 4
REMARK VINA RESULT:    -4.350      1.793      3.962
REMARK INTER + INTRA:          -6.339
REMARK INTER:                  -5.957
REMARK INTRA:                  -0.382
REMARK UNBOUND:                -0.463
REMARK SMILES CCCCCCCC(=O)[O-]
REMARK SMILES IDX 5 1 6 2 7 3 8 4 9 5 10 6 4 7 3 8 2 9 1 10
REMARK H PARENT
REMARK Flexibility Score: inf
ROOT
ATOM      1  C   UNL     1       7.715  22.745  -9.769  1.00  0.00     0.000 C 
ENDROOT
BRANCH   1   2
ATOM      2  C   UNL     1       9.110  23.044  -9.197  1.00  0.00     0.006 C 
BRANCH   2   3
ATOM      3  C   UNL     1       9.772  21.797  -8.598  1.00  0.00     0.053 C 
BRANCH   3   4
ATOM      4  C   UNL     1      10.236  22.036  -7.193  1.00  0.00     0.041 C 
ATOM      5  O   UNL     1       9.415  22.000  -6.239  1.00  0.00    -0.550 OA
ATOM      6  O   UNL     1      11.581  22.268  -6.936  1.00  0.00    -0.550 OA
ENDBRANCH   3   4
ENDBRANCH   2   3
ENDBRANCH   1   2
BRANCH   1   7
ATOM      7  C   UNL     1       6.652  23.636  -9.117  1.00  0.00     0.000 C 
BRANCH   7   8
ATOM      8  C   UNL     1       7.241  24.429  -7.945  1.00  0.00    -0.000 C 
BRANCH   8   9
ATOM      9  C   UNL     1       6.607  24.000  -6.617  1.00  0.00    -0.003 C 
ATOM     10  C   UNL     1       6.516  25.173  -5.645  1.00  0.00     0.004 C 
ENDBRANCH   8   9
ENDBRANCH   7   8
ENDBRANCH   1   7
TORSDOF 6
ENDMDL
MODEL 5
REMARK VINA RESULT:    -4.224      2.819      4.833
REMARK INTER + INTRA:          -6.169
REMARK INTER:                  -5.870
REMARK INTRA:                  -0.299
REMARK UNBOUND:                -0.463
REMARK SMILES CCCCCCCC(=O)[O-]
REMARK SMILES IDX 5 1 6 2 7 3 8 4 9 5 10 6 4 7 3 8 2 9 1 10
REMARK H PARENT
REMARK Flexibility Score: inf
ROOT
ATOM      1  C   UNL     1       8.718  22.496  -9.648  1.00  0.00     0.000 C 
ENDROOT
BRANCH   1   2
ATOM      2  C   UNL     1      10.244  22.393  -9.506  1.00  0.00     0.006 C 
BRANCH   2   3
ATOM      3  C   UNL     1      10.672  22.038  -8.075  1.00  0.00     0.053 C 
BRANCH   3   4
ATOM      4  C   UNL     1      10.899  20.566  -7.914  1.00  0.00     0.041 C 
ATOM      5  O   UNL     1       9.976  19.825  -7.485  1.00  0.00    -0.550 OA
ATOM      6  O   UNL     1      12.121  20.009  -8.266  1.00  0.00    -0.550 OA
ENDBRANCH   3   4
ENDBRANCH   2   3
ENDBRANCH   1   2
BRANCH   1   7
ATOM      7  C   UNL     1       8.114  23.322  -8.507  1.00  0.00     0.000 C 
BRANCH   7   8
ATOM      8  C   UNL     1       6.830  24.028  -8.958  1.00  0.00    -0.000 C 
BRANCH   8   9
ATOM      9  C   UNL     1       6.041  23.158  -9.943  1.00  0.00    -0.003 C 
ATOM     10  C   UNL     1       4.690  22.752  -9.359  1.00  0.00     0.004 C 
ENDBRANCH   8   9
ENDBRANCH   7   8
ENDBRANCH   1   7
TORSDOF 6
ENDMDL
MODEL 6
REMARK VINA RESULT:    -4.224      3.422      4.981
REMARK INTER + INTRA:          -6.168
REMARK INTER:                  -5.857
REMARK INTRA:                  -0.311
REMARK UNBOUND:                -0.463
REMARK SMILES CCCCCCCC(=O)[O-]
REMARK SMILES IDX 5 1 6 2 7 3 8 4 9 5 10 6 4 7 3 8 2 9 1 10
REMARK H PARENT
REMARK Flexibility Score: inf
ROOT
ATOM      1  C   UNL     1       8.805  22.515  -9.663  1.00  0.00     0.000 C 
ENDROOT
BRANCH   1   2
ATOM      2  C   UNL     1      10.338  22.566  -9.744  1.00  0.00     0.006 C 
BRANCH   2   3
ATOM      3  C   UNL     1      10.957  23.336  -8.570  1.00  0.00     0.053 C 
BRANCH   3   4
ATOM      4  C   UNL     1      12.103  24.194  -9.013  1.00  0.00     0.041 C 
ATOM      5  O   UNL     1      12.055  24.796 -10.118  1.00  0.00    -0.550 OA
ATOM      6  O   UNL     1      13.210  24.354  -8.190  1.00  0.00    -0.550 OA
ENDBRANCH   3   4
ENDBRANCH   2   3
ENDBRANCH   1   2
BRANCH   1   7
ATOM      7  C   UNL     1       8.264  23.644  -8.778  1.00  0.00     0.000 C 
BRANCH   7   8
ATOM      8  C   UNL     1       6.777  23.896  -9.055  1.00  0.00    -0.000 C 
BRANCH   8   9
ATOM      9  C   UNL     1       6.191  22.798  -9.949  1.00  0.00    -0.003 C 
ATOM     10  C   UNL     1       5.380  23.395 -11.096  1.00  0.00     0.004 C 
ENDBRANCH   8   9
ENDBRANCH   7   8
ENDBRANCH   1   7
TORSDOF 6
ENDMDL
MODEL 7
REMARK VINA RESULT:    -4.139      2.882      4.065
REMARK INTER + INTRA:          -6.054
REMARK INTER:                  -5.496
REMARK INTRA:                  -0.558
REMARK UNBOUND:                -0.463
REMARK SMILES CCCCCCCC(=O)[O-]
REMARK SMILES IDX 5 1 6 2 7 3 8 4 9 5 10 6 4 7 3 8 2 9 1 10
REMARK H PARENT
REMARK Flexibility Score: inf
ROOT
ATOM      1  C   UNL     1      10.869  24.033  -8.967  1.00  0.00     0.000 C 
ENDROOT
BRANCH   1   2
ATOM      2  C   UNL     1      10.386  22.834  -9.796  1.00  0.00     0.006 C 
BRANCH   2   3
ATOM      3  C   UNL     1       9.432  21.928  -9.006  1.00  0.00     0.053 C 
BRANCH   3   4
ATOM      4  C   UNL     1      10.126  21.254  -7.862  1.00  0.00     0.041 C 
ATOM      5  O   UNL     1       9.846  21.570  -6.676  1.00  0.00    -0.550 OA
ATOM      6  O   UNL     1      11.060  20.256  -8.107  1.00  0.00    -0.550 OA
ENDBRANCH   3   4
ENDBRANCH   2   3
ENDBRANCH   1   2
BRANCH   1   7
ATOM      7  C   UNL     1      12.310  24.408  -9.331  1.00  0.00     0.000 C 
BRANCH   7   8
ATOM      8  C   UNL     1      13.235  24.281  -8.115  1.00  0.00    -0.000 C 
BRANCH   8   9
ATOM      9  C   UNL     1      13.525  22.810  -7.795  1.00  0.00    -0.003 C 
ATOM     10  C   UNL     1      13.306  22.513  -6.315  1.00  0.00     0.004 C 
ENDBRANCH   8   9
ENDBRANCH   7   8
ENDBRANCH   1   7
TORSDOF 6
ENDMDL
MODEL 8
REMARK VINA RESULT:    -4.128      2.768      4.893
REMARK INTER + INTRA:          -6.039
REMARK INTER:                  -5.796
REMARK INTRA:                  -0.243
REMARK UNBOUND:                -0.463
REMARK SMILES CCCCCCCC(=O)[O-]
REMARK SMILES IDX 5 1 6 2 7 3 8 4 9 5 10 6 4 7 3 8 2 9 1 10
REMARK H PARENT
REMARK Flexibility Score: inf
ROOT
ATOM      1  C   UNL     1       7.675  22.256 -10.108  1.00  0.00     0.000 C 
ENDROOT
BRANCH   1   2
ATOM      2  C   UNL     1       9.127  22.476  -9.660  1.00  0.00     0.006 C 
BRANCH   2   3
ATOM      3  C   UNL     1       9.237  22.746  -8.154  1.00  0.00     0.053 C 
BRANCH   3   4
ATOM      4  C   UNL     1      10.124  21.749  -7.474  1.00  0.00     0.041 C 
ATOM      5  O   UNL     1      10.864  22.105  -6.520  1.00  0.00    -0.550 OA
ATOM      6  O   UNL     1      10.111  20.419  -7.876  1.00  0.00    -0.550 OA
ENDBRANCH   3   4
ENDBRANCH   2   3
ENDBRANCH   1   2
BRANCH   1   7
ATOM      7  C   UNL     1       6.729  23.239  -9.408  1.00  0.00     0.000 C 
BRANCH   7   8
ATOM      8  C   UNL     1       5.295  23.087  -9.928  1.00  0.00    -0.000 C 
BRANCH   8   9
ATOM      9  C   UNL     1       5.184  23.559 -11.383  1.00  0.00    -0.003 C 
ATOM     10  C   UNL     1       4.674  24.995 -11.459  1.00  0.00     0.004 C 
ENDBRANCH   8   9
ENDBRANCH   7   8
ENDBRANCH   1   7
TORSDOF 6
ENDMDL
MODEL 9
REMARK VINA RESULT:    -4.009      2.557      4.438
REMARK INTER + INTRA:          -5.878
REMARK INTER:                  -5.458
REMARK INTRA:                  -0.420
REMARK UNBOUND:                -0.463
REMARK SMILES CCCCCCCC(=O)[O-]
REMARK SMILES IDX 5 1 6 2 7 3 8 4 9 5 10 6 4 7 3 8 2 9 1 10
REMARK H PARENT
REMARK Flexibility Score: inf
ROOT
ATOM      1  C   UNL     1      11.000  23.669  -9.860  1.00  0.00     0.000 C 
ENDROOT
BRANCH   1   2
ATOM      2  C   UNL     1      12.063  23.667  -8.752  1.00  0.00     0.006 C 
BRANCH   2   3
ATOM      3  C   UNL     1      12.305  22.264  -8.180  1.00  0.00     0.053 C 
BRANCH   3   4
ATOM      4  C   UNL     1      12.014  22.206  -6.712  1.00  0.00     0.041 C 
ATOM      5  O   UNL     1      10.861  21.905  -6.304  1.00  0.00    -0.550 OA
ATOM      6  O   UNL     1      13.026  22.453  -5.793  1.00  0.00    -0.550 OA
ENDBRANCH   3   4
ENDBRANCH   2   3
ENDBRANCH   1   2
BRANCH   1   7
ATOM      7  C   UNL     1      10.089  22.441  -9.750  1.00  0.00     0.000 C 
BRANCH   7   8
ATOM      8  C   UNL     1       8.616  22.855  -9.658  1.00  0.00    -0.000 C 
BRANCH   8   9
ATOM      9  C   UNL     1       8.339  23.618  -8.357  1.00  0.00    -0.003 C 
ATOM     10  C   UNL     1       7.285  24.701  -8.566  1.00  0.00     0.004 C 
ENDBRANCH   8   9
ENDBRANCH   7   8
ENDBRANCH   1   7
TORSDOF 6
ENDMDL
