MODEL 1
REMARK VINA RESULT:    -3.771      0.000      0.000
REMARK INTER + INTRA:          -4.101
REMARK INTER:                  -4.101
REMARK INTRA:                   0.000
REMARK UNBOUND:                 0.000
REMARK SMILES [NH3+]CC(=O)[O-]
REMARK SMILES IDX 2 1 1 2 3 6 4 7 5 8
REMARK H PARENT 1 3 1 4 1 5
REMARK Flexibility Score: inf
ROOT
ATOM      1  C   UNL     1       2.738   2.793 -38.964  1.00  0.00     0.312 C 
ENDROOT
BRANCH   1   2
ATOM      2  N   UNL     1       2.618   4.194 -38.566  1.00  0.00    -0.353 N 
ATOM      3  H   UNL     1       2.210   4.260 -37.604  1.00  0.00     0.344 HD
ATOM      4  H   UNL     1       3.567   4.631 -38.561  1.00  0.00     0.344 HD
ATOM      5  H   UNL     1       2.010   4.709 -39.244  1.00  0.00     0.344 HD
ENDBRANCH   1   2
BRANCH   1   6
ATOM      6  C   UNL     1       1.669   1.966 -38.320  1.00  0.00     0.096 C 
ATOM      7  O   UNL     1       0.642   2.517 -37.844  1.00  0.00    -0.544 OA
ATOM      8  O   UNL     1       1.784   0.582 -38.292  1.00  0.00    -0.544 OA
ENDBRANCH   1   6
TORSDOF 2
ENDMDL
MODEL 2
REMARK VINA RESULT:    -3.767      2.643      2.938
REMARK INTER + INTRA:          -4.097
REMARK INTER:                  -4.097
REMARK INTRA:                   0.000
REMARK UNBOUND:                 0.000
REMARK SMILES [NH3+]CC(=O)[O-]
REMARK SMILES IDX 2 1 1 2 3 6 4 7 5 8
REMARK H PARENT 1 3 1 4 1 5
REMARK Flexibility Score: inf
ROOT
ATOM      1  C   UNL     1       2.055   1.048 -38.174  1.00  0.00     0.312 C 
ENDROOT
BRANCH   1   2
ATOM      2  N   UNL     1       1.740  -0.257 -38.751  1.00  0.00    -0.353 N 
ATOM      3  H   UNL     1       0.888  -0.656 -38.292  1.00  0.00     0.344 HD
ATOM      4  H   UNL     1       1.552  -0.143 -39.773  1.00  0.00     0.344 HD
ATOM      5  H   UNL     1       2.548  -0.910 -38.625  1.00  0.00     0.344 HD
ENDBRANCH   1   2
BRANCH   1   6
ATOM      6  C   UNL     1       2.202   2.080 -39.249  1.00  0.00     0.096 C 
ATOM      7  O   UNL     1       1.786   1.844 -40.414  1.00  0.00    -0.544 OA
ATOM      8  O   UNL     1       2.749   3.321 -38.951  1.00  0.00    -0.544 OA
ENDBRANCH   1   6
TORSDOF 2
ENDMDL
MODEL 3
REMARK VINA RESULT:    -3.541      2.146      2.539
REMARK INTER + INTRA:          -3.851
REMARK INTER:                  -3.851
REMARK INTRA:                   0.000
REMARK UNBOUND:                 0.000
REMARK SMILES [NH3+]CC(=O)[O-]
REMARK SMILES IDX 2 1 1 2 3 6 4 7 5 8
REMARK H PARENT 1 3 1 4 1 5
REMARK Flexibility Score: inf
ROOT
ATOM      1  C   UNL     1       1.010   1.905 -38.208  1.00  0.00     0.312 C 
ENDROOT
BRANCH   1   2
ATOM      2  N   UNL     1       0.182   2.975 -37.657  1.00  0.00    -0.353 N 
ATOM      3  H   UNL     1      -0.819   2.832 -37.930  1.00  0.00     0.344 HD
ATOM      4  H   UNL     1       0.253   2.961 -36.614  1.00  0.00     0.344 HD
ATOM      5  H   UNL     1       0.514   3.904 -38.008  1.00  0.00     0.344 HD
ENDBRANCH   1   2
BRANCH   1   6
ATOM      6  C   UNL     1       1.914   2.434 -39.279  1.00  0.00     0.096 C 
ATOM      7  O   UNL     1       1.854   1.967 -40.447  1.00  0.00    -0.544 OA
ATOM      8  O   UNL     1       2.786   3.478 -38.999  1.00  0.00    -0.544 OA
ENDBRANCH   1   6
TORSDOF 2
ENDMDL
MODEL 4
REMARK VINA RESULT:    -3.538      1.749      1.749
REMARK INTER + INTRA:          -3.848
REMARK INTER:                  -3.848
REMARK INTRA:                   0.000
REMARK UNBOUND:                 0.000
REMARK SMILES [NH3+]CC(=O)[O-]
REMARK SMILES IDX 2 1 1 2 3 6 4 7 5 8
REMARK H PARENT 1 3 1 4 1 5
REMARK Flexibility Score: inf
ROOT
ATOM      1  C   UNL     1       2.151   2.256 -39.785  1.00  0.00     0.312 C 
ENDROOT
BRANCH   1   2
ATOM      2  N   UNL     1       1.636   1.565 -40.964  1.00  0.00    -0.353 N 
ATOM      3  H   UNL     1       2.388   0.976 -41.392  1.00  0.00     0.344 HD
ATOM      4  H   UNL     1       0.843   0.946 -40.679  1.00  0.00     0.344 HD
ATOM      5  H   UNL     1       1.289   2.260 -41.665  1.00  0.00     0.344 HD
ENDBRANCH   1   2
BRANCH   1   6
ATOM      6  C   UNL     1       1.540   1.699 -38.536  1.00  0.00     0.096 C 
ATOM      7  O   UNL     1       0.565   2.282 -37.994  1.00  0.00    -0.544 OA
ATOM      8  O   UNL     1       2.015   0.509 -38.001  1.00  0.00    -0.544 OA
ENDBRANCH   1   6
TORSDOF 2
ENDMDL
MODEL 5
REMARK VINA RESULT:    -1.993     16.069     16.412
REMARK INTER + INTRA:          -2.167
REMARK INTER:                  -2.167
REMARK INTRA:                   0.000
REMARK UNBOUND:                 0.000
REMARK SMILES [NH3+]CC(=O)[O-]
REMARK SMILES IDX 2 1 1 2 3 6 4 7 5 8
REMARK H PARENT 1 3 1 4 1 5
REMARK Flexibility Score: inf
ROOT
ATOM      1  C   UNL     1     -13.894   5.742 -31.875  1.00  0.00     0.312 C 
ENDROOT
BRANCH   1   2
ATOM      2  N   UNL     1     -13.777   7.151 -32.242  1.00  0.00    -0.353 N 
ATOM      3  H   UNL     1     -14.562   7.699 -31.819  1.00  0.00     0.344 HD
ATOM      4  H   UNL     1     -12.870   7.525 -31.880  1.00  0.00     0.344 HD
ATOM      5  H   UNL     1     -13.795   7.254 -33.283  1.00  0.00     0.344 HD
ENDBRANCH   1   2
BRANCH   1   6
ATOM      6  C   UNL     1     -12.611   5.017 -32.144  1.00  0.00     0.096 C 
ATOM      7  O   UNL     1     -11.508   5.563 -31.882  1.00  0.00    -0.544 OA
ATOM      8  O   UNL     1     -12.637   3.718 -32.636  1.00  0.00    -0.544 OA
ENDBRANCH   1   6
TORSDOF 2
ENDMDL
MODEL 6
REMARK VINA RESULT:    -1.699     18.685     18.843
REMARK INTER + INTRA:          -1.848
REMARK INTER:                  -1.848
REMARK INTRA:                   0.000
REMARK UNBOUND:                 0.000
REMARK SMILES [NH3+]CC(=O)[O-]
REMARK SMILES IDX 2 1 1 2 3 6 4 7 5 8
REMARK H PARENT 1 3 1 4 1 5
REMARK Flexibility Score: inf
ROOT
ATOM      1  C   UNL     1     -13.281  -0.444 -49.026  1.00  0.00     0.312 C 
ENDROOT
BRANCH   1   2
ATOM      2  N   UNL     1     -13.982   0.088 -50.193  1.00  0.00    -0.353 N 
ATOM      3  H   UNL     1     -14.583   0.898 -49.913  1.00  0.00     0.344 HD
ATOM      4  H   UNL     1     -13.280   0.415 -50.895  1.00  0.00     0.344 HD
ATOM      5  H   UNL     1     -14.574  -0.658 -50.627  1.00  0.00     0.344 HD
ENDBRANCH   1   2
BRANCH   1   6
ATOM      6  C   UNL     1     -12.430  -1.615 -49.409  1.00  0.00     0.096 C 
ATOM      7  O   UNL     1     -12.224  -1.879 -50.623  1.00  0.00    -0.544 OA
ATOM      8  O   UNL     1     -11.822  -2.383 -48.425  1.00  0.00    -0.544 OA
ENDBRANCH   1   6
TORSDOF 2
ENDMDL
MODEL 7
REMARK VINA RESULT:    -1.467     18.533     18.757
REMARK INTER + INTRA:          -1.596
REMARK INTER:                  -1.596
REMARK INTRA:                   0.000
REMARK UNBOUND:                 0.000
REMARK SMILES [NH3+]CC(=O)[O-]
REMARK SMILES IDX 2 1 1 2 3 6 4 7 5 8
REMARK H PARENT 1 3 1 4 1 5
REMARK Flexibility Score: inf
ROOT
ATOM      1  C   UNL     1     -12.281  -1.651 -48.311  1.00  0.00     0.312 C 
ENDROOT
BRANCH   1   2
ATOM      2  N   UNL     1     -11.854  -3.048 -48.334  1.00  0.00    -0.353 N 
ATOM      3  H   UNL     1     -11.437  -3.280 -49.266  1.00  0.00     0.344 HD
ATOM      4  H   UNL     1     -11.131  -3.198 -47.593  1.00  0.00     0.344 HD
ATOM      5  H   UNL     1     -12.669  -3.677 -48.145  1.00  0.00     0.344 HD
ENDBRANCH   1   2
BRANCH   1   6
ATOM      6  C   UNL     1     -12.729  -1.212 -49.671  1.00  0.00     0.096 C 
ATOM      7  O   UNL     1     -12.250  -1.755 -50.701  1.00  0.00    -0.544 OA
ATOM      8  O   UNL     1     -13.712  -0.239 -49.798  1.00  0.00    -0.544 OA
ENDBRANCH   1   6
TORSDOF 2
ENDMDL
MODEL 8
REMARK VINA RESULT:    -1.367     18.064     18.434
REMARK INTER + INTRA:          -1.487
REMARK INTER:                  -1.487
REMARK INTRA:                   0.000
REMARK UNBOUND:                 0.000
REMARK SMILES [NH3+]CC(=O)[O-]
REMARK SMILES IDX 2 1 1 2 3 6 4 7 5 8
REMARK H PARENT 1 3 1 4 1 5
REMARK Flexibility Score: inf
ROOT
ATOM      1  C   UNL     1     -14.124  11.255 -43.635  1.00  0.00     0.312 C 
ENDROOT
BRANCH   1   2
ATOM      2  N   UNL     1     -13.457  10.504 -44.696  1.00  0.00    -0.353 N 
ATOM      3  H   UNL     1     -14.168  10.037 -45.307  1.00  0.00     0.344 HD
ATOM      4  H   UNL     1     -12.891  11.162 -45.278  1.00  0.00     0.344 HD
ATOM      5  H   UNL     1     -12.821   9.784 -44.281  1.00  0.00     0.344 HD
ENDBRANCH   1   2
BRANCH   1   6
ATOM      6  C   UNL     1     -13.119  11.917 -42.744  1.00  0.00     0.096 C 
ATOM      7  O   UNL     1     -13.470  12.375 -41.624  1.00  0.00    -0.544 OA
ATOM      8  O   UNL     1     -11.786  11.982 -43.127  1.00  0.00    -0.544 OA
ENDBRANCH   1   6
TORSDOF 2
ENDMDL
MODEL 9
REMARK VINA RESULT:    -1.354     19.033     19.253
REMARK INTER + INTRA:          -1.473
REMARK INTER:                  -1.473
REMARK INTRA:                   0.000
REMARK UNBOUND:                 0.000
REMARK SMILES [NH3+]CC(=O)[O-]
REMARK SMILES IDX 2 1 1 2 3 6 4 7 5 8
REMARK H PARENT 1 3 1 4 1 5
REMARK Flexibility Score: inf
ROOT
ATOM      1  C   UNL     1     -12.608  -1.547 -49.423  1.00  0.00     0.312 C 
ENDROOT
BRANCH   1   2
ATOM      2  N   UNL     1     -12.110  -1.862 -50.760  1.00  0.00    -0.353 N 
ATOM      3  H   UNL     1     -12.066  -0.992 -51.341  1.00  0.00     0.344 HD
ATOM      4  H   UNL     1     -11.148  -2.264 -50.681  1.00  0.00     0.344 HD
ATOM      5  H   UNL     1     -12.734  -2.564 -51.220  1.00  0.00     0.344 HD
ENDBRANCH   1   2
BRANCH   1   6
ATOM      6  C   UNL     1     -13.508  -0.350 -49.462  1.00  0.00     0.096 C 
ATOM      7  O   UNL     1     -13.708   0.326 -48.419  1.00  0.00    -0.544 OA
ATOM      8  O   UNL     1     -14.083   0.048 -50.661  1.00  0.00    -0.544 OA
ENDBRANCH   1   6
TORSDOF 2
ENDMDL
