MODEL 1
REMARK VINA RESULT:    -4.634      0.000      0.000
REMARK INTER + INTRA:          -5.955
REMARK INTER:                  -6.531
REMARK INTRA:                   0.576
REMARK UNBOUND:                 0.576
REMARK SMILES CC1=CCC(=C(C)C)C(=O)CC(C)=CCC1
REMARK SMILES IDX 12 1 14 2 13 3 15 4 16 5 2 6 1 7 3 8 11 10 9 11 10 12 5 13
REMARK SMILES IDX 6 14 7 15 8 16 4 17
REMARK H PARENT
REMARK Flexibility Score: 60.00
ROOT
ATOM      1  C   UNL     1     259.611 -28.417  55.733  1.00  0.00    -0.070 C 
ATOM      2  C   UNL     1     260.584 -27.708  55.120  1.00  0.00    -0.027 C 
ATOM      3  C   UNL     1     258.889 -29.468  54.927  1.00  0.00     0.039 C 
ENDROOT
BRANCH   2   4
ATOM      4  C   UNL     1     261.352 -26.553  55.726  1.00  0.00     0.032 C 
BRANCH   4   5
ATOM      5  C   UNL     1     262.887 -26.676  55.633  1.00  0.00     0.034 C 
BRANCH   5   6
ATOM      6  C   UNL     1     263.462 -27.703  56.592  1.00  0.00    -0.077 C 
ATOM      7  C   UNL     1     264.521 -28.639  56.065  1.00  0.00     0.039 C 
ATOM      8  C   UNL     1     263.041 -27.877  57.868  1.00  0.00    -0.023 CG0
ATOM      9  G   UNL     1     262.012 -27.049  58.612  1.00  0.00     0.000 G0
ENDBRANCH   5   6
ENDBRANCH   4   5
ENDBRANCH   2   4
BRANCH   1  10
ATOM     10  C   UNL     1     259.151 -28.146  57.151  1.00  0.00     0.111 C 
BRANCH  10  11
ATOM     11  C   UNL     1     260.106 -28.721  58.164  1.00  0.00     0.163 C 
ATOM     12  O   UNL     1     260.249 -29.973  58.200  1.00  0.00    -0.294 OA
BRANCH  11  13
ATOM     13  C   UNL     1     260.832 -27.871  59.154  1.00  0.00    -0.002 C 
ATOM     14  C   UNL     1     260.398 -27.778  60.446  1.00  0.00    -0.069 C 
ATOM     15  C   UNL     1     261.013 -26.806  61.430  1.00  0.00     0.039 C 
ATOM     16  C   UNL     1     259.270 -28.647  60.960  1.00  0.00     0.039 C 
BRANCH  13  17
ATOM     17  C   UNL     1     262.003 -27.050  58.638  1.00  0.00     0.066 CG0
ATOM     18  G   UNL     1     263.015 -27.895  57.891  1.00  0.00     0.000 G0
ENDBRANCH  13  17
ENDBRANCH  11  13
ENDBRANCH  10  11
ENDBRANCH   1  10
TORSDOF 0
ENDMDL
MODEL 2
REMARK VINA RESULT:    -4.568      9.840     11.673
REMARK INTER + INTRA:          -5.861
REMARK INTER:                  -6.392
REMARK INTRA:                   0.531
REMARK UNBOUND:                 0.576
REMARK SMILES CC1=CCC(=C(C)C)C(=O)CC(C)=CCC1
REMARK SMILES IDX 12 1 14 2 13 3 15 4 16 5 2 6 1 7 3 8 11 10 9 11 10 12 5 13
REMARK SMILES IDX 6 14 7 15 8 16 4 17
REMARK H PARENT
REMARK Flexibility Score: 60.00
ROOT
ATOM      1  C   UNL     1     254.080 -23.448  49.211  1.00  0.00    -0.070 C 
ATOM      2  C   UNL     1     253.440 -22.257  49.185  1.00  0.00    -0.027 C 
ATOM      3  C   UNL     1     254.003 -24.317  47.980  1.00  0.00     0.039 C 
ENDROOT
BRANCH   2   4
ATOM      4  C   UNL     1     253.320 -21.294  50.346  1.00  0.00     0.032 C 
BRANCH   4   5
ATOM      5  C   UNL     1     251.890 -21.125  50.902  1.00  0.00     0.034 C 
BRANCH   5   6
ATOM      6  C   UNL     1     251.119 -22.432  50.971  1.00  0.00    -0.077 C 
ATOM      7  C   UNL     1     249.920 -22.586  50.069  1.00  0.00     0.039 C 
ATOM      8  C   UNL     1     251.396 -23.439  51.834  1.00  0.00    -0.023 CG0
ATOM      9  G   UNL     1     252.554 -23.513  52.811  1.00  0.00     0.000 G0
ENDBRANCH   5   6
ENDBRANCH   4   5
ENDBRANCH   2   4
BRANCH   1  10
ATOM     10  C   UNL     1     254.785 -23.987  50.439  1.00  0.00     0.111 C 
BRANCH  10  11
ATOM     11  C   UNL     1     253.929 -24.981  51.179  1.00  0.00     0.163 C 
ATOM     12  O   UNL     1     253.571 -26.025  50.569  1.00  0.00    -0.294 OA
BRANCH  11  13
ATOM     13  C   UNL     1     253.448 -24.744  52.572  1.00  0.00    -0.002 C 
ATOM     14  C   UNL     1     253.728 -25.636  53.569  1.00  0.00    -0.069 C 
ATOM     15  C   UNL     1     253.124 -25.509  54.951  1.00  0.00     0.039 C 
ATOM     16  C   UNL     1     254.659 -26.806  53.338  1.00  0.00     0.039 C 
BRANCH  13  17
ATOM     17  C   UNL     1     252.563 -23.531  52.805  1.00  0.00     0.066 CG0
ATOM     18  G   UNL     1     251.401 -23.469  51.833  1.00  0.00     0.000 G0
ENDBRANCH  13  17
ENDBRANCH  11  13
ENDBRANCH  10  11
ENDBRANCH   1  10
TORSDOF 0
ENDMDL
MODEL 3
REMARK VINA RESULT:    -4.543      1.827      4.041
REMARK INTER + INTRA:          -5.826
REMARK INTER:                  -6.063
REMARK INTRA:                   0.237
REMARK UNBOUND:                 0.576
REMARK SMILES CC1=CCC(=C(C)C)C(=O)CC(C)=CCC1
REMARK SMILES IDX 12 1 14 2 13 3 15 4 16 5 2 6 1 7 3 8 11 10 9 11 10 12 5 13
REMARK SMILES IDX 6 14 7 15 8 16 4 17
REMARK H PARENT
REMARK Flexibility Score: 60.00
ROOT
ATOM      1  C   UNL     1     260.129 -28.378  56.774  1.00  0.00    -0.070 C 
ATOM      2  C   UNL     1     258.985 -28.453  57.491  1.00  0.00    -0.027 C 
ATOM      3  C   UNL     1     260.015 -28.281  55.274  1.00  0.00     0.039 C 
ENDROOT
BRANCH   2   4
ATOM      4  C   UNL     1     258.892 -28.651  58.989  1.00  0.00     0.032 C 
BRANCH   4   5
ATOM      5  C   UNL     1     259.284 -27.418  59.831  1.00  0.00     0.034 C 
BRANCH   5   6
ATOM      6  C   UNL     1     260.351 -27.720  60.868  1.00  0.00    -0.077 C 
ATOM      7  C   UNL     1     260.014 -28.713  61.952  1.00  0.00     0.039 C 
ATOM      8  C   UNL     1     261.559 -27.107  60.923  1.00  0.00    -0.023 CG0
ATOM      9  G   UNL     1     262.118 -26.100  59.938  1.00  0.00     0.000 G0
ENDBRANCH   5   6
ENDBRANCH   4   5
ENDBRANCH   2   4
BRANCH   1  10
ATOM     10  C   UNL     1     261.507 -28.479  57.395  1.00  0.00     0.111 C 
BRANCH  10  11
ATOM     11  C   UNL     1     262.140 -27.123  57.568  1.00  0.00     0.163 C 
ATOM     12  O   UNL     1     262.062 -26.306  56.611  1.00  0.00    -0.294 OA
BRANCH  11  13
ATOM     13  C   UNL     1     262.897 -26.744  58.796  1.00  0.00    -0.002 C 
ATOM     14  C   UNL     1     264.225 -27.044  58.920  1.00  0.00    -0.069 C 
ATOM     15  C   UNL     1     264.982 -26.817  60.210  1.00  0.00     0.039 C 
ATOM     16  C   UNL     1     265.009 -27.624  57.763  1.00  0.00     0.039 C 
BRANCH  13  17
ATOM     17  C   UNL     1     262.111 -26.104  59.929  1.00  0.00     0.066 CG0
ATOM     18  G   UNL     1     261.561 -27.130  60.901  1.00  0.00     0.000 G0
ENDBRANCH  13  17
ENDBRANCH  11  13
ENDBRANCH  10  11
ENDBRANCH   1  10
TORSDOF 0
ENDMDL
MODEL 4
REMARK VINA RESULT:    -4.537      2.205      3.982
REMARK INTER + INTRA:          -5.818
REMARK INTER:                  -6.113
REMARK INTRA:                   0.295
REMARK UNBOUND:                 0.576
REMARK SMILES CC1=CCC(=C(C)C)C(=O)CC(C)=CCC1
REMARK SMILES IDX 12 1 14 2 13 3 15 4 16 5 2 6 1 7 3 8 11 10 9 11 10 12 5 13
REMARK SMILES IDX 6 14 7 15 8 16 4 17
REMARK H PARENT
REMARK Flexibility Score: 60.00
ROOT
ATOM      1  C   UNL     1     262.443 -26.994  55.393  1.00  0.00    -0.070 C 
ATOM      2  C   UNL     1     261.132 -27.300  55.268  1.00  0.00    -0.027 C 
ATOM      3  C   UNL     1     263.167 -26.478  54.175  1.00  0.00     0.039 C 
ENDROOT
BRANCH   2   4
ATOM      4  C   UNL     1     260.263 -27.918  56.341  1.00  0.00     0.032 C 
BRANCH   4   5
ATOM      5  C   UNL     1     259.897 -26.970  57.503  1.00  0.00     0.034 C 
BRANCH   5   6
ATOM      6  C   UNL     1     260.161 -27.574  58.870  1.00  0.00    -0.077 C 
ATOM      7  C   UNL     1     259.410 -28.829  59.239  1.00  0.00     0.039 C 
ATOM      8  C   UNL     1     260.974 -27.025  59.805  1.00  0.00    -0.023 CG0
ATOM      9  G   UNL     1     261.837 -25.788  59.652  1.00  0.00     0.000 G0
ENDBRANCH   5   6
ENDBRANCH   4   5
ENDBRANCH   2   4
BRANCH   1  10
ATOM     10  C   UNL     1     263.235 -27.231  56.664  1.00  0.00     0.111 C 
BRANCH  10  11
ATOM     11  C   UNL     1     263.265 -26.003  57.536  1.00  0.00     0.163 C 
ATOM     12  O   UNL     1     263.419 -24.883  56.979  1.00  0.00    -0.294 OA
BRANCH  11  13
ATOM     13  C   UNL     1     263.180 -26.076  59.024  1.00  0.00    -0.002 C 
ATOM     14  C   UNL     1     264.256 -26.476  59.767  1.00  0.00    -0.069 C 
ATOM     15  C   UNL     1     264.157 -26.714  61.258  1.00  0.00     0.039 C 
ATOM     16  C   UNL     1     265.608 -26.706  59.128  1.00  0.00     0.039 C 
BRANCH  13  17
ATOM     17  C   UNL     1     261.830 -25.783  59.660  1.00  0.00     0.066 CG0
ATOM     18  G   UNL     1     260.970 -27.024  59.784  1.00  0.00     0.000 G0
ENDBRANCH  13  17
ENDBRANCH  11  13
ENDBRANCH  10  11
ENDBRANCH   1  10
TORSDOF 0
ENDMDL
MODEL 5
REMARK VINA RESULT:    -4.529      2.089      4.943
REMARK INTER + INTRA:          -5.807
REMARK INTER:                  -6.234
REMARK INTRA:                   0.427
REMARK UNBOUND:                 0.576
REMARK SMILES CC1=CCC(=C(C)C)C(=O)CC(C)=CCC1
REMARK SMILES IDX 12 1 14 2 13 3 15 4 16 5 2 6 1 7 3 8 11 10 9 11 10 12 5 13
REMARK SMILES IDX 6 14 7 15 8 16 4 17
REMARK H PARENT
REMARK Flexibility Score: 60.00
ROOT
ATOM      1  C   UNL     1     262.610 -26.740  60.397  1.00  0.00    -0.070 C 
ATOM      2  C   UNL     1     261.534 -27.508  60.684  1.00  0.00    -0.027 C 
ATOM      3  C   UNL     1     263.795 -26.811  61.328  1.00  0.00     0.039 C 
ENDROOT
BRANCH   2   4
ATOM      4  C   UNL     1     260.222 -27.504  59.931  1.00  0.00     0.032 C 
BRANCH   4   5
ATOM      5  C   UNL     1     260.023 -28.694  58.969  1.00  0.00     0.034 C 
BRANCH   5   6
ATOM      6  C   UNL     1     260.408 -28.373  57.536  1.00  0.00    -0.077 C 
ATOM      7  C   UNL     1     259.311 -27.942  56.595  1.00  0.00     0.039 C 
ATOM      8  C   UNL     1     261.658 -28.513  57.030  1.00  0.00    -0.023 CG0
ATOM      9  G   UNL     1     262.910 -28.910  57.786  1.00  0.00     0.000 G0
ENDBRANCH   5   6
ENDBRANCH   4   5
ENDBRANCH   2   4
BRANCH   1  10
ATOM     10  C   UNL     1     262.645 -25.752  59.249  1.00  0.00     0.111 C 
BRANCH  10  11
ATOM     11  C   UNL     1     263.257 -26.359  58.013  1.00  0.00     0.163 C 
ATOM     12  O   UNL     1     263.202 -25.699  56.940  1.00  0.00    -0.294 OA
BRANCH  11  13
ATOM     13  C   UNL     1     263.863 -27.722  58.006  1.00  0.00    -0.002 C 
ATOM     14  C   UNL     1     265.216 -27.887  58.119  1.00  0.00    -0.069 C 
ATOM     15  C   UNL     1     265.875 -29.239  57.956  1.00  0.00     0.039 C 
ATOM     16  C   UNL     1     266.126 -26.715  58.413  1.00  0.00     0.039 C 
BRANCH  13  17
ATOM     17  C   UNL     1     262.928 -28.898  57.771  1.00  0.00     0.066 CG0
ATOM     18  G   UNL     1     261.668 -28.494  57.033  1.00  0.00     0.000 G0
ENDBRANCH  13  17
ENDBRANCH  11  13
ENDBRANCH  10  11
ENDBRANCH   1  10
TORSDOF 0
ENDMDL
MODEL 6
REMARK VINA RESULT:    -4.404      1.979      4.025
REMARK INTER + INTRA:          -5.630
REMARK INTER:                  -5.790
REMARK INTRA:                   0.159
REMARK UNBOUND:                 0.576
REMARK SMILES CC1=CCC(=C(C)C)C(=O)CC(C)=CCC1
REMARK SMILES IDX 12 1 14 2 13 3 15 4 16 5 2 6 1 7 3 8 11 10 9 11 10 12 5 13
REMARK SMILES IDX 6 14 7 15 8 16 4 17
REMARK H PARENT
REMARK Flexibility Score: 60.00
ROOT
ATOM      1  C   UNL     1     264.725 -28.154  56.860  1.00  0.00    -0.070 C 
ATOM      2  C   UNL     1     265.607 -27.500  57.649  1.00  0.00    -0.027 C 
ATOM      3  C   UNL     1     265.011 -28.212  55.380  1.00  0.00     0.039 C 
ENDROOT
BRANCH   2   4
ATOM      4  C   UNL     1     265.449 -27.251  59.133  1.00  0.00     0.032 C 
BRANCH   4   5
ATOM      5  C   UNL     1     264.491 -26.096  59.498  1.00  0.00     0.034 C 
BRANCH   5   6
ATOM      6  C   UNL     1     263.505 -26.463  60.592  1.00  0.00    -0.077 C 
ATOM      7  C   UNL     1     264.059 -26.771  61.961  1.00  0.00     0.039 C 
ATOM      8  C   UNL     1     262.170 -26.598  60.404  1.00  0.00    -0.023 CG0
ATOM      9  G   UNL     1     261.394 -26.324  59.131  1.00  0.00     0.000 G0
ENDBRANCH   5   6
ENDBRANCH   4   5
ENDBRANCH   2   4
BRANCH   1  10
ATOM     10  C   UNL     1     263.429 -28.747  57.375  1.00  0.00     0.111 C 
BRANCH  10  11
ATOM     11  C   UNL     1     262.274 -27.797  57.195  1.00  0.00     0.163 C 
ATOM     12  O   UNL     1     262.215 -27.130  56.127  1.00  0.00    -0.294 OA
BRANCH  11  13
ATOM     13  C   UNL     1     261.245 -27.578  58.254  1.00  0.00    -0.002 C 
ATOM     14  C   UNL     1     260.177 -28.422  58.376  1.00  0.00    -0.069 C 
ATOM     15  C   UNL     1     259.037 -28.140  59.330  1.00  0.00     0.039 C 
ATOM     16  C   UNL     1     260.081 -29.689  57.555  1.00  0.00     0.039 C 
BRANCH  13  17
ATOM     17  C   UNL     1     261.387 -26.333  59.115  1.00  0.00     0.066 CG0
ATOM     18  G   UNL     1     262.168 -26.598  60.387  1.00  0.00     0.000 G0
ENDBRANCH  13  17
ENDBRANCH  11  13
ENDBRANCH  10  11
ENDBRANCH   1  10
TORSDOF 0
ENDMDL
MODEL 7
REMARK VINA RESULT:    -4.373     13.962     16.086
REMARK INTER + INTRA:          -5.587
REMARK INTER:                  -5.766
REMARK INTRA:                   0.178
REMARK UNBOUND:                 0.576
REMARK SMILES CC1=CCC(=C(C)C)C(=O)CC(C)=CCC1
REMARK SMILES IDX 12 1 14 2 13 3 15 4 16 5 2 6 1 7 3 8 11 10 9 11 10 12 5 13
REMARK SMILES IDX 6 14 7 15 8 16 4 17
REMARK H PARENT
REMARK Flexibility Score: 60.00
ROOT
ATOM      1  C   UNL     1     253.976 -24.689  46.305  1.00  0.00    -0.070 C 
ATOM      2  C   UNL     1     255.136 -24.865  45.632  1.00  0.00    -0.027 C 
ATOM      3  C   UNL     1     254.048 -24.091  47.688  1.00  0.00     0.039 C 
ENDROOT
BRANCH   2   4
ATOM      4  C   UNL     1     255.281 -25.534  44.282  1.00  0.00     0.032 C 
BRANCH   4   5
ATOM      5  C   UNL     1     254.529 -24.836  43.129  1.00  0.00     0.034 C 
BRANCH   5   6
ATOM      6  C   UNL     1     254.757 -23.335  43.091  1.00  0.00    -0.077 C 
ATOM      7  C   UNL     1     256.157 -22.845  42.821  1.00  0.00     0.039 C 
ATOM      8  C   UNL     1     253.801 -22.410  43.349  1.00  0.00    -0.023 CG0
ATOM      9  G   UNL     1     252.332 -22.666  43.623  1.00  0.00     0.000 G0
ENDBRANCH   5   6
ENDBRANCH   4   5
ENDBRANCH   2   4
BRANCH   1  10
ATOM     10  C   UNL     1     252.631 -25.147  45.779  1.00  0.00     0.111 C 
BRANCH  10  11
ATOM     11  C   UNL     1     251.645 -24.010  45.711  1.00  0.00     0.163 C 
ATOM     12  O   UNL     1     250.475 -24.214  46.133  1.00  0.00    -0.294 OA
BRANCH  11  13
ATOM     13  C   UNL     1     251.988 -22.686  45.113  1.00  0.00    -0.002 C 
ATOM     14  C   UNL     1     251.919 -21.543  45.860  1.00  0.00    -0.069 C 
ATOM     15  C   UNL     1     252.104 -20.172  45.245  1.00  0.00     0.039 C 
ATOM     16  C   UNL     1     251.648 -21.592  47.347  1.00  0.00     0.039 C 
BRANCH  13  17
ATOM     17  C   UNL     1     252.320 -22.658  43.630  1.00  0.00     0.066 CG0
ATOM     18  G   UNL     1     253.792 -22.403  43.373  1.00  0.00     0.000 G0
ENDBRANCH  13  17
ENDBRANCH  11  13
ENDBRANCH  10  11
ENDBRANCH   1  10
TORSDOF 0
ENDMDL
MODEL 8
REMARK VINA RESULT:    -4.234      1.587      4.197
REMARK INTER + INTRA:          -5.391
REMARK INTER:                  -5.551
REMARK INTRA:                   0.160
REMARK UNBOUND:                 0.576
REMARK SMILES CC1=CCC(=C(C)C)C(=O)CC(C)=CCC1
REMARK SMILES IDX 12 1 14 2 13 3 15 4 16 5 2 6 1 7 3 8 11 10 9 11 10 12 5 13
REMARK SMILES IDX 6 14 7 15 8 16 4 17
REMARK H PARENT
REMARK Flexibility Score: 60.00
ROOT
ATOM      1  C   UNL     1     259.707 -27.769  59.379  1.00  0.00    -0.070 C 
ATOM      2  C   UNL     1     260.179 -27.263  60.540  1.00  0.00    -0.027 C 
ATOM      3  C   UNL     1     258.805 -28.976  59.451  1.00  0.00     0.039 C 
ENDROOT
BRANCH   2   4
ATOM      4  C   UNL     1     261.167 -26.124  60.671  1.00  0.00     0.032 C 
BRANCH   4   5
ATOM      5  C   UNL     1     262.651 -26.545  60.619  1.00  0.00     0.034 C 
BRANCH   5   6
ATOM      6  C   UNL     1     263.468 -25.730  59.633  1.00  0.00    -0.077 C 
ATOM      7  C   UNL     1     263.817 -24.313  60.014  1.00  0.00     0.039 C 
ATOM      8  C   UNL     1     263.844 -26.167  58.407  1.00  0.00    -0.023 CG0
ATOM      9  G   UNL     1     263.623 -27.548  57.821  1.00  0.00     0.000 G0
ENDBRANCH   5   6
ENDBRANCH   4   5
ENDBRANCH   2   4
BRANCH   1  10
ATOM     10  C   UNL     1     260.112 -27.244  58.017  1.00  0.00     0.111 C 
BRANCH  10  11
ATOM     11  C   UNL     1     261.157 -28.117  57.374  1.00  0.00     0.163 C 
ATOM     12  O   UNL     1     260.947 -29.360  57.330  1.00  0.00    -0.294 OA
BRANCH  11  13
ATOM     13  C   UNL     1     262.444 -27.573  56.849  1.00  0.00    -0.002 C 
ATOM     14  C   UNL     1     262.563 -27.199  55.539  1.00  0.00    -0.069 C 
ATOM     15  C   UNL     1     263.891 -26.795  54.938  1.00  0.00     0.039 C 
ATOM     16  C   UNL     1     261.362 -27.175  54.618  1.00  0.00     0.039 C 
BRANCH  13  17
ATOM     17  C   UNL     1     263.628 -27.544  57.802  1.00  0.00     0.066 CG0
ATOM     18  G   UNL     1     263.846 -26.173  58.409  1.00  0.00     0.000 G0
ENDBRANCH  13  17
ENDBRANCH  11  13
ENDBRANCH  10  11
ENDBRANCH   1  10
TORSDOF 0
ENDMDL
MODEL 9
REMARK VINA RESULT:    -4.206      1.947      3.982
REMARK INTER + INTRA:          -5.351
REMARK INTER:                  -5.590
REMARK INTRA:                   0.239
REMARK UNBOUND:                 0.576
REMARK SMILES CC1=CCC(=C(C)C)C(=O)CC(C)=CCC1
REMARK SMILES IDX 12 1 14 2 13 3 15 4 16 5 2 6 1 7 3 8 11 10 9 11 10 12 5 13
REMARK SMILES IDX 6 14 7 15 8 16 4 17
REMARK H PARENT
REMARK Flexibility Score: 60.00
ROOT
ATOM      1  C   UNL     1     260.982 -27.406  54.375  1.00  0.00    -0.070 C 
ATOM      2  C   UNL     1     260.013 -28.268  54.758  1.00  0.00    -0.027 C 
ATOM      3  C   UNL     1     261.508 -27.518  52.966  1.00  0.00     0.039 C 
ENDROOT
BRANCH   2   4
ATOM      4  C   UNL     1     259.429 -28.378  56.150  1.00  0.00     0.032 C 
BRANCH   4   5
ATOM      5  C   UNL     1     260.255 -29.232  57.134  1.00  0.00     0.034 C 
BRANCH   5   6
ATOM      6  C   UNL     1     260.609 -28.493  58.412  1.00  0.00    -0.077 C 
ATOM      7  C   UNL     1     259.500 -28.228  59.399  1.00  0.00     0.039 C 
ATOM      8  C   UNL     1     261.839 -27.999  58.694  1.00  0.00    -0.023 CG0
ATOM      9  G   UNL     1     263.100 -28.159  57.868  1.00  0.00     0.000 G0
ENDBRANCH   5   6
ENDBRANCH   4   5
ENDBRANCH   2   4
BRANCH   1  10
ATOM     10  C   UNL     1     261.623 -26.404  55.314  1.00  0.00     0.111 C 
BRANCH  10  11
ATOM     11  C   UNL     1     263.024 -26.812  55.688  1.00  0.00     0.163 C 
ATOM     12  O   UNL     1     263.816 -27.134  54.761  1.00  0.00    -0.294 OA
BRANCH  11  13
ATOM     13  C   UNL     1     263.480 -26.904  57.106  1.00  0.00    -0.002 C 
ATOM     14  C   UNL     1     264.273 -25.933  57.650  1.00  0.00    -0.069 C 
ATOM     15  C   UNL     1     264.881 -26.073  59.028  1.00  0.00     0.039 C 
ATOM     16  C   UNL     1     264.587 -24.661  56.893  1.00  0.00     0.039 C 
BRANCH  13  17
ATOM     17  C   UNL     1     263.106 -28.160  57.877  1.00  0.00     0.066 CG0
ATOM     18  G   UNL     1     261.836 -27.982  58.686  1.00  0.00     0.000 G0
ENDBRANCH  13  17
ENDBRANCH  11  13
ENDBRANCH  10  11
ENDBRANCH   1  10
TORSDOF 0
ENDMDL
