MODEL 1
REMARK VINA RESULT:    -4.077      0.000      0.000
REMARK INTER + INTRA:          -4.877
REMARK INTER:                  -4.792
REMARK INTRA:                  -0.085
REMARK UNBOUND:                -0.085
REMARK SMILES O=C([O-])CCC(=O)[O-]
REMARK SMILES IDX 4 1 2 2 1 3 3 4 5 5 6 6 7 7 8 8
REMARK H PARENT
REMARK Flexibility Score: inf
ROOT
ATOM      1  C   UNL     1      81.835  66.698  14.662  1.00  0.00     0.059 C 
ENDROOT
BRANCH   1   2
ATOM      2  C   UNL     1      83.218  67.006  15.152  1.00  0.00     0.042 C 
ATOM      3  O   UNL     1      83.549  68.193  15.413  1.00  0.00    -0.550 OA
ATOM      4  O   UNL     1      84.127  65.977  15.359  1.00  0.00    -0.550 OA
ENDBRANCH   1   2
BRANCH   1   5
ATOM      5  C   UNL     1      80.930  66.211  15.798  1.00  0.00     0.059 C 
BRANCH   5   6
ATOM      6  C   UNL     1      81.049  64.731  16.000  1.00  0.00     0.042 C 
ATOM      7  O   UNL     1      81.722  64.274  16.962  1.00  0.00    -0.550 OA
ATOM      8  O   UNL     1      80.382  63.858  15.151  1.00  0.00    -0.550 OA
ENDBRANCH   5   6
ENDBRANCH   1   5
TORSDOF 3
ENDMDL
MODEL 2
REMARK VINA RESULT:    -4.063      0.052      3.617
REMARK INTER + INTRA:          -4.861
REMARK INTER:                  -4.786
REMARK INTRA:                  -0.075
REMARK UNBOUND:                -0.085
REMARK SMILES O=C([O-])CCC(=O)[O-]
REMARK SMILES IDX 4 1 2 2 1 3 3 4 5 5 6 6 7 7 8 8
REMARK H PARENT
REMARK Flexibility Score: inf
ROOT
ATOM      1  C   UNL     1      80.905  66.238  15.805  1.00  0.00     0.059 C 
ENDROOT
BRANCH   1   2
ATOM      2  C   UNL     1      81.028  64.756  15.984  1.00  0.00     0.042 C 
ATOM      3  O   UNL     1      81.659  64.286  16.969  1.00  0.00    -0.550 OA
ATOM      4  O   UNL     1      80.413  63.892  15.087  1.00  0.00    -0.550 OA
ENDBRANCH   1   2
BRANCH   1   5
ATOM      5  C   UNL     1      81.795  66.744  14.666  1.00  0.00     0.059 C 
BRANCH   5   6
ATOM      6  C   UNL     1      83.189  67.023  15.138  1.00  0.00     0.042 C 
ATOM      7  O   UNL     1      83.547  68.202  15.399  1.00  0.00    -0.550 OA
ATOM      8  O   UNL     1      84.081  65.975  15.328  1.00  0.00    -0.550 OA
ENDBRANCH   5   6
ENDBRANCH   1   5
TORSDOF 3
ENDMDL
MODEL 3
REMARK VINA RESULT:    -3.427      8.488      9.211
REMARK INTER + INTRA:          -4.113
REMARK INTER:                  -4.038
REMARK INTRA:                  -0.075
REMARK UNBOUND:                -0.085
REMARK SMILES O=C([O-])CCC(=O)[O-]
REMARK SMILES IDX 4 1 2 2 1 3 3 4 5 5 6 6 7 7 8 8
REMARK H PARENT
REMARK Flexibility Score: inf
ROOT
ATOM      1  C   UNL     1      84.818  62.871   8.499  1.00  0.00     0.059 C 
ENDROOT
BRANCH   1   2
ATOM      2  C   UNL     1      84.886  62.875   7.002  1.00  0.00     0.042 C 
ATOM      3  O   UNL     1      85.928  63.272   6.415  1.00  0.00    -0.550 OA
ATOM      4  O   UNL     1      83.815  62.402   6.255  1.00  0.00    -0.550 OA
ENDBRANCH   1   2
BRANCH   1   5
ATOM      5  C   UNL     1      86.209  62.999   9.127  1.00  0.00     0.059 C 
BRANCH   5   6
ATOM      6  C   UNL     1      86.623  61.731   9.810  1.00  0.00     0.042 C 
ATOM      7  O   UNL     1      85.754  60.950  10.279  1.00  0.00    -0.550 OA
ATOM      8  O   UNL     1      87.968  61.394   9.893  1.00  0.00    -0.550 OA
ENDBRANCH   5   6
ENDBRANCH   1   5
TORSDOF 3
ENDMDL
MODEL 4
REMARK VINA RESULT:    -3.425      8.600      9.477
REMARK INTER + INTRA:          -4.110
REMARK INTER:                  -3.997
REMARK INTRA:                  -0.114
REMARK UNBOUND:                -0.085
REMARK SMILES O=C([O-])CCC(=O)[O-]
REMARK SMILES IDX 4 1 2 2 1 3 3 4 5 5 6 6 7 7 8 8
REMARK H PARENT
REMARK Flexibility Score: inf
ROOT
ATOM      1  C   UNL     1      85.791  61.607   9.675  1.00  0.00     0.059 C 
ENDROOT
BRANCH   1   2
ATOM      2  C   UNL     1      86.942  61.072  10.471  1.00  0.00     0.042 C 
ATOM      3  O   UNL     1      88.125  61.369  10.156  1.00  0.00    -0.550 OA
ATOM      4  O   UNL     1      86.707  60.277  11.586  1.00  0.00    -0.550 OA
ENDBRANCH   1   2
BRANCH   1   5
ATOM      5  C   UNL     1      86.179  62.874   8.906  1.00  0.00     0.059 C 
BRANCH   5   6
ATOM      6  C   UNL     1      86.282  62.616   7.434  1.00  0.00     0.042 C 
ATOM      7  O   UNL     1      85.552  63.250   6.626  1.00  0.00    -0.550 OA
ATOM      8  O   UNL     1      87.212  61.704   6.951  1.00  0.00    -0.550 OA
ENDBRANCH   5   6
ENDBRANCH   1   5
TORSDOF 3
ENDMDL
MODEL 5
REMARK VINA RESULT:    -3.397      8.512      9.260
REMARK INTER + INTRA:          -4.077
REMARK INTER:                  -4.002
REMARK INTRA:                  -0.076
REMARK UNBOUND:                -0.085
REMARK SMILES O=C([O-])CCC(=O)[O-]
REMARK SMILES IDX 4 1 2 2 1 3 3 4 5 5 6 6 7 7 8 8
REMARK H PARENT
REMARK Flexibility Score: inf
ROOT
ATOM      1  C   UNL     1      86.216  63.024   9.138  1.00  0.00     0.059 C 
ENDROOT
BRANCH   1   2
ATOM      2  C   UNL     1      86.687  61.744   9.760  1.00  0.00     0.042 C 
ATOM      3  O   UNL     1      85.871  60.989  10.353  1.00  0.00    -0.550 OA
ATOM      4  O   UNL     1      88.018  61.365   9.649  1.00  0.00    -0.550 OA
ENDBRANCH   1   2
BRANCH   1   5
ATOM      5  C   UNL     1      84.833  62.865   8.499  1.00  0.00     0.059 C 
BRANCH   5   6
ATOM      6  C   UNL     1      84.911  62.893   7.003  1.00  0.00     0.042 C 
ATOM      7  O   UNL     1      85.966  63.272   6.430  1.00  0.00    -0.550 OA
ATOM      8  O   UNL     1      83.831  62.462   6.243  1.00  0.00    -0.550 OA
ENDBRANCH   5   6
ENDBRANCH   1   5
TORSDOF 3
ENDMDL
MODEL 6
REMARK VINA RESULT:    -3.361      8.369      9.140
REMARK INTER + INTRA:          -4.035
REMARK INTER:                  -3.948
REMARK INTRA:                  -0.087
REMARK UNBOUND:                -0.085
REMARK SMILES O=C([O-])CCC(=O)[O-]
REMARK SMILES IDX 4 1 2 2 1 3 3 4 5 5 6 6 7 7 8 8
REMARK H PARENT
REMARK Flexibility Score: inf
ROOT
ATOM      1  C   UNL     1      85.533  60.958   9.711  1.00  0.00     0.059 C 
ENDROOT
BRANCH   1   2
ATOM      2  C   UNL     1      86.789  60.935  10.527  1.00  0.00     0.042 C 
ATOM      3  O   UNL     1      86.791  60.413  11.674  1.00  0.00    -0.550 OA
ATOM      4  O   UNL     1      87.967  61.455  10.006  1.00  0.00    -0.550 OA
ENDBRANCH   1   2
BRANCH   1   5
ATOM      5  C   UNL     1      85.825  61.243   8.234  1.00  0.00     0.059 C 
BRANCH   5   6
ATOM      6  C   UNL     1      85.342  62.603   7.830  1.00  0.00     0.042 C 
ATOM      7  O   UNL     1      84.472  63.198   8.520  1.00  0.00    -0.550 OA
ATOM      8  O   UNL     1      85.882  63.229   6.714  1.00  0.00    -0.550 OA
ENDBRANCH   5   6
ENDBRANCH   1   5
TORSDOF 3
ENDMDL
MODEL 7
REMARK VINA RESULT:    -3.289      8.852      9.473
REMARK INTER + INTRA:          -3.951
REMARK INTER:                  -3.888
REMARK INTRA:                  -0.062
REMARK UNBOUND:                -0.085
REMARK SMILES O=C([O-])CCC(=O)[O-]
REMARK SMILES IDX 4 1 2 2 1 3 3 4 5 5 6 6 7 7 8 8
REMARK H PARENT
REMARK Flexibility Score: inf
ROOT
ATOM      1  C   UNL     1      85.938  62.965   7.335  1.00  0.00     0.059 C 
ENDROOT
BRANCH   1   2
ATOM      2  C   UNL     1      87.003  61.992   7.741  1.00  0.00     0.042 C 
ATOM      3  O   UNL     1      87.639  61.346   6.866  1.00  0.00    -0.550 OA
ATOM      4  O   UNL     1      87.320  61.829   9.083  1.00  0.00    -0.550 OA
ENDBRANCH   1   2
BRANCH   1   5
ATOM      5  C   UNL     1      84.739  62.919   8.287  1.00  0.00     0.059 C 
BRANCH   5   6
ATOM      6  C   UNL     1      83.460  62.659   7.551  1.00  0.00     0.042 C 
ATOM      7  O   UNL     1      83.474  62.038   6.455  1.00  0.00    -0.550 OA
ATOM      8  O   UNL     1      82.249  63.067   8.095  1.00  0.00    -0.550 OA
ENDBRANCH   5   6
ENDBRANCH   1   5
TORSDOF 3
ENDMDL
MODEL 8
REMARK VINA RESULT:    -3.274      8.861      9.815
REMARK INTER + INTRA:          -3.933
REMARK INTER:                  -3.871
REMARK INTRA:                  -0.062
REMARK UNBOUND:                -0.085
REMARK SMILES O=C([O-])CCC(=O)[O-]
REMARK SMILES IDX 4 1 2 2 1 3 3 4 5 5 6 6 7 7 8 8
REMARK H PARENT
REMARK Flexibility Score: inf
ROOT
ATOM      1  C   UNL     1      84.696  62.944   8.279  1.00  0.00     0.059 C 
ENDROOT
BRANCH   1   2
ATOM      2  C   UNL     1      83.388  62.657   7.606  1.00  0.00     0.042 C 
ATOM      3  O   UNL     1      82.317  63.124   8.077  1.00  0.00    -0.550 OA
ATOM      4  O   UNL     1      83.356  61.908   6.437  1.00  0.00    -0.550 OA
ENDBRANCH   1   2
BRANCH   1   5
ATOM      5  C   UNL     1      85.856  62.948   7.278  1.00  0.00     0.059 C 
BRANCH   5   6
ATOM      6  C   UNL     1      86.929  61.981   7.675  1.00  0.00     0.042 C 
ATOM      7  O   UNL     1      87.592  61.373   6.793  1.00  0.00    -0.550 OA
ATOM      8  O   UNL     1      87.225  61.783   9.017  1.00  0.00    -0.550 OA
ENDBRANCH   5   6
ENDBRANCH   1   5
TORSDOF 3
ENDMDL
MODEL 9
REMARK VINA RESULT:    -3.165      8.359      8.930
REMARK INTER + INTRA:          -3.805
REMARK INTER:                  -3.749
REMARK INTRA:                  -0.056
REMARK UNBOUND:                -0.085
REMARK SMILES O=C([O-])CCC(=O)[O-]
REMARK SMILES IDX 4 1 2 2 1 3 3 4 5 5 6 6 7 7 8 8
REMARK H PARENT
REMARK Flexibility Score: inf
ROOT
ATOM      1  C   UNL     1      84.231  62.297   8.282  1.00  0.00     0.059 C 
ENDROOT
BRANCH   1   2
ATOM      2  C   UNL     1      85.590  62.923   8.202  1.00  0.00     0.042 C 
ATOM      3  O   UNL     1      86.239  63.164   9.254  1.00  0.00    -0.550 OA
ATOM      4  O   UNL     1      86.156  63.202   6.965  1.00  0.00    -0.550 OA
ENDBRANCH   1   2
BRANCH   1   5
ATOM      5  C   UNL     1      83.509  62.342   6.931  1.00  0.00     0.059 C 
BRANCH   5   6
ATOM      6  C   UNL     1      82.068  62.717   7.088  1.00  0.00     0.042 C 
ATOM      7  O   UNL     1      81.677  63.314   8.127  1.00  0.00    -0.550 OA
ATOM      8  O   UNL     1      81.163  62.445   6.070  1.00  0.00    -0.550 OA
ENDBRANCH   5   6
ENDBRANCH   1   5
TORSDOF 3
ENDMDL
