MODEL 1
REMARK VINA RESULT:    -5.074      0.000      0.000
REMARK INTER + INTRA:          -8.734
REMARK INTER:                  -7.743
REMARK INTRA:                  -0.991
REMARK UNBOUND:                -0.991
REMARK SMILES O=C([O-])CCCCCCCCC(=O)[O-]
REMARK SMILES IDX 7 1 6 2 5 3 4 4 2 5 1 6 3 7 8 8 9 9 10 10 11 11 12 12 13 13
REMARK SMILES IDX 14 14
REMARK H PARENT
REMARK Flexibility Score: inf
ROOT
ATOM      1  C   UNL     1      20.954  12.031  -0.793  1.00  0.00     0.000 C 
ENDROOT
BRANCH   1   2
ATOM      2  C   UNL     1      21.719  11.102   0.157  1.00  0.00     0.000 C 
BRANCH   2   3
ATOM      3  C   UNL     1      22.728  11.892   1.005  1.00  0.00     0.006 C 
BRANCH   3   4
ATOM      4  C   UNL     1      22.105  12.421   2.304  1.00  0.00     0.053 C 
BRANCH   4   5
ATOM      5  C   UNL     1      23.150  12.804   3.306  1.00  0.00     0.041 C 
ATOM      6  O   UNL     1      24.096  13.566   2.976  1.00  0.00    -0.550 OA
ATOM      7  O   UNL     1      23.060  12.344   4.614  1.00  0.00    -0.550 OA
ENDBRANCH   4   5
ENDBRANCH   3   4
ENDBRANCH   2   3
ENDBRANCH   1   2
BRANCH   1   8
ATOM      8  C   UNL     1      19.475  12.125  -0.398  1.00  0.00     0.000 C 
BRANCH   8   9
ATOM      9  C   UNL     1      19.103  13.562  -0.001  1.00  0.00     0.000 C 
BRANCH   9  10
ATOM     10  C   UNL     1      20.239  14.563  -0.268  1.00  0.00     0.006 C 
BRANCH  10  11
ATOM     11  C   UNL     1      20.241  15.731   0.728  1.00  0.00     0.053 C 
BRANCH  11  12
ATOM     12  C   UNL     1      21.627  15.980   1.235  1.00  0.00     0.041 C 
ATOM     13  O   UNL     1      21.804  16.610   2.310  1.00  0.00    -0.550 OA
ATOM     14  O   UNL     1      22.721  15.475   0.545  1.00  0.00    -0.550 OA
ENDBRANCH  11  12
ENDBRANCH  10  11
ENDBRANCH   9  10
ENDBRANCH   8   9
ENDBRANCH   1   8
TORSDOF 9
ENDMDL
MODEL 2
REMARK VINA RESULT:    -5.067      2.220      3.696
REMARK INTER + INTRA:          -8.724
REMARK INTER:                  -7.765
REMARK INTRA:                  -0.960
REMARK UNBOUND:                -0.991
REMARK SMILES O=C([O-])CCCCCCCCC(=O)[O-]
REMARK SMILES IDX 7 1 6 2 5 3 4 4 2 5 1 6 3 7 8 8 9 9 10 10 11 11 12 12 13 13
REMARK SMILES IDX 14 14
REMARK H PARENT
REMARK Flexibility Score: inf
ROOT
ATOM      1  C   UNL     1      21.948  15.015   0.456  1.00  0.00     0.000 C 
ENDROOT
BRANCH   1   2
ATOM      2  C   UNL     1      22.536  15.836   1.610  1.00  0.00     0.000 C 
BRANCH   2   3
ATOM      3  C   UNL     1      21.818  15.521   2.931  1.00  0.00     0.006 C 
BRANCH   3   4
ATOM      4  C   UNL     1      22.759  14.889   3.966  1.00  0.00     0.053 C 
BRANCH   4   5
ATOM      5  C   UNL     1      22.971  13.429   3.706  1.00  0.00     0.041 C 
ATOM      6  O   UNL     1      22.097  12.590   4.047  1.00  0.00    -0.550 OA
ATOM      7  O   UNL     1      24.121  12.999   3.056  1.00  0.00    -0.550 OA
ENDBRANCH   4   5
ENDBRANCH   3   4
ENDBRANCH   2   3
ENDBRANCH   1   2
BRANCH   1   8
ATOM      8  C   UNL     1      22.963  13.991  -0.065  1.00  0.00     0.000 C 
BRANCH   8   9
ATOM      9  C   UNL     1      22.347  12.585  -0.119  1.00  0.00     0.000 C 
BRANCH   9  10
ATOM     10  C   UNL     1      20.964  12.518   0.551  1.00  0.00     0.006 C 
BRANCH  10  11
ATOM     11  C   UNL     1      19.871  12.014  -0.402  1.00  0.00     0.053 C 
BRANCH  11  12
ATOM     12  C   UNL     1      19.303  13.152  -1.190  1.00  0.00     0.041 C 
ATOM     13  O   UNL     1      18.720  14.101  -0.603  1.00  0.00    -0.550 OA
ATOM     14  O   UNL     1      19.459  13.190  -2.570  1.00  0.00    -0.550 OA
ENDBRANCH  11  12
ENDBRANCH  10  11
ENDBRANCH   9  10
ENDBRANCH   8   9
ENDBRANCH   1   8
TORSDOF 9
ENDMDL
MODEL 3
REMARK VINA RESULT:    -5.023      1.992      3.065
REMARK INTER + INTRA:          -8.657
REMARK INTER:                  -7.613
REMARK INTRA:                  -1.044
REMARK UNBOUND:                -0.991
REMARK SMILES O=C([O-])CCCCCCCCC(=O)[O-]
REMARK SMILES IDX 7 1 6 2 5 3 4 4 2 5 1 6 3 7 8 8 9 9 10 10 11 11 12 12 13 13
REMARK SMILES IDX 14 14
REMARK H PARENT
REMARK Flexibility Score: inf
ROOT
ATOM      1  C   UNL     1      23.013  14.515   0.344  1.00  0.00     0.000 C 
ENDROOT
BRANCH   1   2
ATOM      2  C   UNL     1      23.636  13.402   1.194  1.00  0.00     0.000 C 
BRANCH   2   3
ATOM      3  C   UNL     1      22.625  12.274   1.450  1.00  0.00     0.006 C 
BRANCH   3   4
ATOM      4  C   UNL     1      21.796  12.515   2.719  1.00  0.00     0.053 C 
BRANCH   4   5
ATOM      5  C   UNL     1      22.649  12.976   3.861  1.00  0.00     0.041 C 
ATOM      6  O   UNL     1      22.588  14.170   4.258  1.00  0.00    -0.550 OA
ATOM      7  O   UNL     1      23.487  12.077   4.509  1.00  0.00    -0.550 OA
ENDBRANCH   4   5
ENDBRANCH   3   4
ENDBRANCH   2   3
ENDBRANCH   1   2
BRANCH   1   8
ATOM      8  C   UNL     1      22.933  15.829   1.130  1.00  0.00     0.000 C 
BRANCH   8   9
ATOM      9  C   UNL     1      21.481  16.155   1.508  1.00  0.00     0.000 C 
BRANCH   9  10
ATOM     10  C   UNL     1      20.493  15.872   0.365  1.00  0.00     0.006 C 
BRANCH  10  11
ATOM     11  C   UNL     1      19.422  14.843   0.752  1.00  0.00     0.053 C 
BRANCH  11  12
ATOM     12  C   UNL     1      19.352  13.755  -0.274  1.00  0.00     0.041 C 
ATOM     13  O   UNL     1      18.992  12.595   0.058  1.00  0.00    -0.550 OA
ATOM     14  O   UNL     1      19.637  14.033  -1.604  1.00  0.00    -0.550 OA
ENDBRANCH  11  12
ENDBRANCH  10  11
ENDBRANCH   9  10
ENDBRANCH   8   9
ENDBRANCH   1   8
TORSDOF 9
ENDMDL
MODEL 4
REMARK VINA RESULT:    -5.012      2.407      3.831
REMARK INTER + INTRA:          -8.640
REMARK INTER:                  -7.927
REMARK INTRA:                  -0.713
REMARK UNBOUND:                -0.991
REMARK SMILES O=C([O-])CCCCCCCCC(=O)[O-]
REMARK SMILES IDX 7 1 6 2 5 3 4 4 2 5 1 6 3 7 8 8 9 9 10 10 11 11 12 12 13 13
REMARK SMILES IDX 14 14
REMARK H PARENT
REMARK Flexibility Score: inf
ROOT
ATOM      1  C   UNL     1      22.900  15.418   1.228  1.00  0.00     0.000 C 
ENDROOT
BRANCH   1   2
ATOM      2  C   UNL     1      21.904  15.832   2.317  1.00  0.00     0.000 C 
BRANCH   2   3
ATOM      3  C   UNL     1      22.274  15.204   3.669  1.00  0.00     0.006 C 
BRANCH   3   4
ATOM      4  C   UNL     1      23.384  14.152   3.536  1.00  0.00     0.053 C 
BRANCH   4   5
ATOM      5  C   UNL     1      22.903  12.785   3.915  1.00  0.00     0.041 C 
ATOM      6  O   UNL     1      23.366  12.210   4.935  1.00  0.00    -0.550 OA
ATOM      7  O   UNL     1      21.919  12.160   3.160  1.00  0.00    -0.550 OA
ENDBRANCH   4   5
ENDBRANCH   3   4
ENDBRANCH   2   3
ENDBRANCH   1   2
BRANCH   1   8
ATOM      8  C   UNL     1      22.207  14.604   0.128  1.00  0.00     0.000 C 
BRANCH   8   9
ATOM      9  C   UNL     1      20.680  14.671   0.276  1.00  0.00     0.000 C 
BRANCH   9  10
ATOM     10  C   UNL     1      20.045  13.288   0.493  1.00  0.00     0.006 C 
BRANCH  10  11
ATOM     11  C   UNL     1      20.257  12.347  -0.700  1.00  0.00     0.053 C 
BRANCH  11  12
ATOM     12  C   UNL     1      19.501  12.841  -1.894  1.00  0.00     0.041 C 
ATOM     13  O   UNL     1      18.333  13.289  -1.761  1.00  0.00    -0.550 OA
ATOM     14  O   UNL     1      20.105  12.851  -3.144  1.00  0.00    -0.550 OA
ENDBRANCH  11  12
ENDBRANCH  10  11
ENDBRANCH   9  10
ENDBRANCH   8   9
ENDBRANCH   1   8
TORSDOF 9
ENDMDL
MODEL 5
REMARK VINA RESULT:    -5.004      2.208      3.361
REMARK INTER + INTRA:          -8.628
REMARK INTER:                  -7.564
REMARK INTRA:                  -1.063
REMARK UNBOUND:                -0.991
REMARK SMILES O=C([O-])CCCCCCCCC(=O)[O-]
REMARK SMILES IDX 7 1 6 2 5 3 4 4 2 5 1 6 3 7 8 8 9 9 10 10 11 11 12 12 13 13
REMARK SMILES IDX 14 14
REMARK H PARENT
REMARK Flexibility Score: inf
ROOT
ATOM      1  C   UNL     1      23.150  13.317  -1.287  1.00  0.00     0.000 C 
ENDROOT
BRANCH   1   2
ATOM      2  C   UNL     1      23.840  12.826  -0.008  1.00  0.00     0.000 C 
BRANCH   2   3
ATOM      3  C   UNL     1      23.987  13.967   1.010  1.00  0.00     0.006 C 
BRANCH   3   4
ATOM      4  C   UNL     1      22.895  15.032   0.849  1.00  0.00     0.053 C 
BRANCH   4   5
ATOM      5  C   UNL     1      22.227  15.345   2.153  1.00  0.00     0.041 C 
ATOM      6  O   UNL     1      22.083  14.447   3.024  1.00  0.00    -0.550 OA
ATOM      7  O   UNL     1      21.791  16.638   2.419  1.00  0.00    -0.550 OA
ENDBRANCH   4   5
ENDBRANCH   3   4
ENDBRANCH   2   3
ENDBRANCH   1   2
BRANCH   1   8
ATOM      8  C   UNL     1      22.203  12.249  -1.847  1.00  0.00     0.000 C 
BRANCH   8   9
ATOM      9  C   UNL     1      21.719  11.307  -0.735  1.00  0.00     0.000 C 
BRANCH   9  10
ATOM     10  C   UNL     1      20.240  11.526  -0.375  1.00  0.00     0.006 C 
BRANCH  10  11
ATOM     11  C   UNL     1      20.035  12.710   0.580  1.00  0.00     0.053 C 
BRANCH  11  12
ATOM     12  C   UNL     1      19.225  13.780  -0.084  1.00  0.00     0.041 C 
ATOM     13  O   UNL     1      19.094  14.905   0.464  1.00  0.00    -0.550 OA
ATOM     14  O   UNL     1      18.657  13.550  -1.330  1.00  0.00    -0.550 OA
ENDBRANCH  11  12
ENDBRANCH  10  11
ENDBRANCH   9  10
ENDBRANCH   8   9
ENDBRANCH   1   8
TORSDOF 9
ENDMDL
MODEL 6
REMARK VINA RESULT:    -4.940      2.175      4.166
REMARK INTER + INTRA:          -8.530
REMARK INTER:                  -7.591
REMARK INTRA:                  -0.940
REMARK UNBOUND:                -0.991
REMARK SMILES O=C([O-])CCCCCCCCC(=O)[O-]
REMARK SMILES IDX 7 1 6 2 5 3 4 4 2 5 1 6 3 7 8 8 9 9 10 10 11 11 12 12 13 13
REMARK SMILES IDX 14 14
REMARK H PARENT
REMARK Flexibility Score: inf
ROOT
ATOM      1  C   UNL     1      21.760  11.965   1.880  1.00  0.00     0.000 C 
ENDROOT
BRANCH   1   2
ATOM      2  C   UNL     1      22.176  11.284   0.571  1.00  0.00     0.000 C 
BRANCH   2   3
ATOM      3  C   UNL     1      20.968  11.097  -0.360  1.00  0.00     0.006 C 
BRANCH   3   4
ATOM      4  C   UNL     1      19.908  12.188  -0.159  1.00  0.00     0.053 C 
BRANCH   4   5
ATOM      5  C   UNL     1      19.649  12.951  -1.422  1.00  0.00     0.041 C 
ATOM      6  O   UNL     1      18.479  13.312  -1.716  1.00  0.00    -0.550 OA
ATOM      7  O   UNL     1      20.705  13.290  -2.259  1.00  0.00    -0.550 OA
ENDBRANCH   4   5
ENDBRANCH   3   4
ENDBRANCH   2   3
ENDBRANCH   1   2
BRANCH   1   8
ATOM      8  C   UNL     1      22.952  12.673   2.535  1.00  0.00     0.000 C 
BRANCH   8   9
ATOM      9  C   UNL     1      23.854  13.324   1.476  1.00  0.00     0.000 C 
BRANCH   9  10
ATOM     10  C   UNL     1      23.580  14.827   1.307  1.00  0.00     0.006 C 
BRANCH  10  11
ATOM     11  C   UNL     1      22.439  15.112   0.321  1.00  0.00     0.053 C 
BRANCH  11  12
ATOM     12  C   UNL     1      21.376  15.934   0.979  1.00  0.00     0.041 C 
ATOM     13  O   UNL     1      20.216  15.977   0.491  1.00  0.00    -0.550 OA
ATOM     14  O   UNL     1      21.651  16.614   2.158  1.00  0.00    -0.550 OA
ENDBRANCH  11  12
ENDBRANCH  10  11
ENDBRANCH   9  10
ENDBRANCH   8   9
ENDBRANCH   1   8
TORSDOF 9
ENDMDL
MODEL 7
REMARK VINA RESULT:    -4.925      3.056      4.596
REMARK INTER + INTRA:          -8.508
REMARK INTER:                  -7.544
REMARK INTRA:                  -0.964
REMARK UNBOUND:                -0.991
REMARK SMILES O=C([O-])CCCCCCCCC(=O)[O-]
REMARK SMILES IDX 7 1 6 2 5 3 4 4 2 5 1 6 3 7 8 8 9 9 10 10 11 11 12 12 13 13
REMARK SMILES IDX 14 14
REMARK H PARENT
REMARK Flexibility Score: inf
ROOT
ATOM      1  C   UNL     1      23.383  14.279   1.675  1.00  0.00     0.000 C 
ENDROOT
BRANCH   1   2
ATOM      2  C   UNL     1      24.205  13.451   0.680  1.00  0.00     0.000 C 
BRANCH   2   3
ATOM      3  C   UNL     1      23.306  12.484  -0.105  1.00  0.00     0.006 C 
BRANCH   3   4
ATOM      4  C   UNL     1      22.760  13.115  -1.393  1.00  0.00     0.053 C 
BRANCH   4   5
ATOM      5  C   UNL     1      22.161  12.088  -2.305  1.00  0.00     0.041 C 
ATOM      6  O   UNL     1      21.846  10.952  -1.861  1.00  0.00    -0.550 OA
ATOM      7  O   UNL     1      21.921  12.398  -3.638  1.00  0.00    -0.550 OA
ENDBRANCH   4   5
ENDBRANCH   3   4
ENDBRANCH   2   3
ENDBRANCH   1   2
BRANCH   1   8
ATOM      8  C   UNL     1      23.131  15.694   1.138  1.00  0.00     0.000 C 
BRANCH   8   9
ATOM      9  C   UNL     1      21.645  16.065   1.246  1.00  0.00     0.000 C 
BRANCH   9  10
ATOM     10  C   UNL     1      20.725  14.833   1.254  1.00  0.00     0.006 C 
BRANCH  10  11
ATOM     11  C   UNL     1      19.565  14.958   0.257  1.00  0.00     0.053 C 
BRANCH  11  12
ATOM     12  C   UNL     1      19.269  13.629  -0.366  1.00  0.00     0.041 C 
ATOM     13  O   UNL     1      18.829  13.567  -1.544  1.00  0.00    -0.550 OA
ATOM     14  O   UNL     1      19.527  12.459   0.336  1.00  0.00    -0.550 OA
ENDBRANCH  11  12
ENDBRANCH  10  11
ENDBRANCH   9  10
ENDBRANCH   8   9
ENDBRANCH   1   8
TORSDOF 9
ENDMDL
MODEL 8
REMARK VINA RESULT:    -4.909      2.312      4.459
REMARK INTER + INTRA:          -8.482
REMARK INTER:                  -7.446
REMARK INTRA:                  -1.037
REMARK UNBOUND:                -0.991
REMARK SMILES O=C([O-])CCCCCCCCC(=O)[O-]
REMARK SMILES IDX 7 1 6 2 5 3 4 4 2 5 1 6 3 7 8 8 9 9 10 10 11 11 12 12 13 13
REMARK SMILES IDX 14 14
REMARK H PARENT
REMARK Flexibility Score: inf
ROOT
ATOM      1  C   UNL     1      22.567  14.532   0.022  1.00  0.00     0.000 C 
ENDROOT
BRANCH   1   2
ATOM      2  C   UNL     1      22.337  13.029  -0.174  1.00  0.00     0.000 C 
BRANCH   2   3
ATOM      3  C   UNL     1      21.036  12.577   0.506  1.00  0.00     0.006 C 
BRANCH   3   4
ATOM      4  C   UNL     1      20.151  11.744  -0.431  1.00  0.00     0.053 C 
BRANCH   4   5
ATOM      5  C   UNL     1      19.688  12.541  -1.612  1.00  0.00     0.041 C 
ATOM      6  O   UNL     1      20.099  12.258  -2.768  1.00  0.00    -0.550 OA
ATOM      7  O   UNL     1      18.777  13.575  -1.439  1.00  0.00    -0.550 OA
ENDBRANCH   4   5
ENDBRANCH   3   4
ENDBRANCH   2   3
ENDBRANCH   1   2
BRANCH   1   8
ATOM      8  C   UNL     1      21.291  15.224   0.517  1.00  0.00     0.000 C 
BRANCH   8   9
ATOM      9  C   UNL     1      21.601  16.184   1.675  1.00  0.00     0.000 C 
BRANCH   9  10
ATOM     10  C   UNL     1      22.792  15.719   2.528  1.00  0.00     0.006 C 
BRANCH  10  11
ATOM     11  C   UNL     1      22.358  14.913   3.759  1.00  0.00     0.053 C 
BRANCH  11  12
ATOM     12  C   UNL     1      22.825  13.496   3.646  1.00  0.00     0.041 C 
ATOM     13  O   UNL     1      22.092  12.554   4.046  1.00  0.00    -0.550 OA
ATOM     14  O   UNL     1      24.049  13.213   3.055  1.00  0.00    -0.550 OA
ENDBRANCH  11  12
ENDBRANCH  10  11
ENDBRANCH   9  10
ENDBRANCH   8   9
ENDBRANCH   1   8
TORSDOF 9
ENDMDL
MODEL 9
REMARK VINA RESULT:    -4.875      2.455      4.756
REMARK INTER + INTRA:          -8.430
REMARK INTER:                  -7.577
REMARK INTRA:                  -0.853
REMARK UNBOUND:                -0.991
REMARK SMILES O=C([O-])CCCCCCCCC(=O)[O-]
REMARK SMILES IDX 7 1 6 2 5 3 4 4 2 5 1 6 3 7 8 8 9 9 10 10 11 11 12 12 13 13
REMARK SMILES IDX 14 14
REMARK H PARENT
REMARK Flexibility Score: inf
ROOT
ATOM      1  C   UNL     1      20.639  15.088   0.678  1.00  0.00     0.000 C 
ENDROOT
BRANCH   1   2
ATOM      2  C   UNL     1      20.787  13.674   0.104  1.00  0.00     0.000 C 
BRANCH   2   3
ATOM      3  C   UNL     1      22.232  13.412  -0.347  1.00  0.00     0.006 C 
BRANCH   3   4
ATOM      4  C   UNL     1      22.328  13.129  -1.852  1.00  0.00     0.053 C 
BRANCH   4   5
ATOM      5  C   UNL     1      21.525  11.927  -2.244  1.00  0.00     0.041 C 
ATOM      6  O   UNL     1      21.834  10.787  -1.806  1.00  0.00    -0.550 OA
ATOM      7  O   UNL     1      20.414  12.071  -3.066  1.00  0.00    -0.550 OA
ENDBRANCH   4   5
ENDBRANCH   3   4
ENDBRANCH   2   3
ENDBRANCH   1   2
BRANCH   1   8
ATOM      8  C   UNL     1      22.010  15.724   0.937  1.00  0.00     0.000 C 
BRANCH   8   9
ATOM      9  C   UNL     1      22.088  16.299   2.360  1.00  0.00     0.000 C 
BRANCH   9  10
ATOM     10  C   UNL     1      22.084  15.206   3.441  1.00  0.00     0.006 C 
BRANCH  10  11
ATOM     11  C   UNL     1      23.189  14.163   3.229  1.00  0.00     0.053 C 
BRANCH  11  12
ATOM     12  C   UNL     1      22.753  12.829   3.751  1.00  0.00     0.041 C 
ATOM     13  O   UNL     1      22.995  12.506   4.943  1.00  0.00    -0.550 OA
ATOM     14  O   UNL     1      22.036  11.964   2.935  1.00  0.00    -0.550 OA
ENDBRANCH  11  12
ENDBRANCH  10  11
ENDBRANCH   9  10
ENDBRANCH   8   9
ENDBRANCH   1   8
TORSDOF 9
ENDMDL
