MODEL 1
REMARK VINA RESULT:    -5.009      0.000      0.000
REMARK INTER + INTRA:          -5.575
REMARK INTER:                  -5.448
REMARK INTRA:                  -0.127
REMARK UNBOUND:                -0.127
REMARK SMILES Cc1ccc(C(C)C)cc1O
REMARK SMILES IDX 1 1 2 2 10 3 9 4 5 5 4 6 3 7 11 8 6 10 7 11 8 12
REMARK H PARENT 11 9
REMARK Flexibility Score: inf
ROOT
ATOM      1  C   UNL     1     -27.160  97.624   0.236  1.00  0.00     0.048 C 
ATOM      2  C   UNL     1     -27.330  99.117   0.273  1.00  0.00    -0.009 A 
ATOM      3  C   UNL     1     -28.616  99.684   0.290  1.00  0.00     0.118 A 
ATOM      4  C   UNL     1     -28.767 101.078   0.324  1.00  0.00     0.050 A 
ATOM      5  C   UNL     1     -27.640 101.921   0.341  1.00  0.00    -0.042 A 
ATOM      6  C   UNL     1     -26.359 101.345   0.324  1.00  0.00     0.004 A 
ATOM      7  C   UNL     1     -26.206  99.956   0.290  1.00  0.00     0.007 A 
ENDROOT
BRANCH   3   8
ATOM      8  O   UNL     1     -29.742  98.860   0.273  1.00  0.00    -0.508 OA
ATOM      9  H   UNL     1     -30.444  98.936  -0.454  1.00  0.00     0.293 HD
ENDBRANCH   3   8
BRANCH   5  10
ATOM     10  C   UNL     1     -27.792 103.430   0.378  1.00  0.00     0.013 C 
ATOM     11  C   UNL     1     -26.526 104.125  -0.136  1.00  0.00     0.012 C 
ATOM     12  C   UNL     1     -29.028 103.882  -0.409  1.00  0.00     0.012 C 
ENDBRANCH   5  10
TORSDOF 2
ENDMDL
MODEL 2
REMARK VINA RESULT:    -4.990     11.469     12.815
REMARK INTER + INTRA:          -5.555
REMARK INTER:                  -5.427
REMARK INTRA:                  -0.128
REMARK UNBOUND:                -0.127
REMARK SMILES Cc1ccc(C(C)C)cc1O
REMARK SMILES IDX 1 1 2 2 10 3 9 4 5 5 4 6 3 7 11 8 6 10 7 11 8 12
REMARK H PARENT 11 9
REMARK Flexibility Score: inf
ROOT
ATOM      1  C   UNL     1     -34.179  92.780   5.487  1.00  0.00     0.048 C 
ATOM      2  C   UNL     1     -32.952  92.066   5.979  1.00  0.00    -0.009 A 
ATOM      3  C   UNL     1     -31.925  91.722   5.083  1.00  0.00     0.118 A 
ATOM      4  C   UNL     1     -30.782  91.055   5.549  1.00  0.00     0.050 A 
ATOM      5  C   UNL     1     -30.650  90.724   6.910  1.00  0.00    -0.042 A 
ATOM      6  C   UNL     1     -31.682  91.072   7.798  1.00  0.00     0.004 A 
ATOM      7  C   UNL     1     -32.821  91.737   7.336  1.00  0.00     0.007 A 
ENDROOT
BRANCH   3   8
ATOM      8  O   UNL     1     -32.042  92.044   3.731  1.00  0.00    -0.508 OA
ATOM      9  H   UNL     1     -31.419  92.709   3.287  1.00  0.00     0.293 HD
ENDBRANCH   3   8
BRANCH   5  10
ATOM     10  C   UNL     1     -29.419  90.003   7.425  1.00  0.00     0.013 C 
ATOM     11  C   UNL     1     -28.305  90.995   7.778  1.00  0.00     0.012 C 
ATOM     12  C   UNL     1     -29.762  89.110   8.624  1.00  0.00     0.012 C 
ENDBRANCH   5  10
TORSDOF 2
ENDMDL
MODEL 3
REMARK VINA RESULT:    -4.864      9.942     11.112
REMARK INTER + INTRA:          -5.417
REMARK INTER:                  -5.289
REMARK INTRA:                  -0.128
REMARK UNBOUND:                -0.127
REMARK SMILES Cc1ccc(C(C)C)cc1O
REMARK SMILES IDX 1 1 2 2 10 3 9 4 5 5 4 6 3 7 11 8 6 10 7 11 8 12
REMARK H PARENT 11 9
REMARK Flexibility Score: inf
ROOT
ATOM      1  C   UNL     1     -33.690  91.666   6.735  1.00  0.00     0.048 C 
ATOM      2  C   UNL     1     -33.656  93.142   7.013  1.00  0.00    -0.009 A 
ATOM      3  C   UNL     1     -34.852  93.856   7.200  1.00  0.00     0.118 A 
ATOM      4  C   UNL     1     -34.813  95.234   7.458  1.00  0.00     0.050 A 
ATOM      5  C   UNL     1     -33.584  95.916   7.532  1.00  0.00    -0.042 A 
ATOM      6  C   UNL     1     -32.394  95.193   7.342  1.00  0.00     0.004 A 
ATOM      7  C   UNL     1     -32.430  93.820   7.086  1.00  0.00     0.007 A 
ENDROOT
BRANCH   3   8
ATOM      8  O   UNL     1     -36.078  93.194   7.130  1.00  0.00    -0.508 OA
ATOM      9  H   UNL     1     -36.458  92.871   6.248  1.00  0.00     0.293 HD
ENDBRANCH   3   8
BRANCH   5  10
ATOM     10  C   UNL     1     -33.529  97.406   7.810  1.00  0.00     0.013 C 
ATOM     11  C   UNL     1     -32.706  97.703   9.069  1.00  0.00     0.012 C 
ATOM     12  C   UNL     1     -32.985  98.175   6.601  1.00  0.00     0.012 C 
ENDBRANCH   5  10
TORSDOF 2
ENDMDL
MODEL 4
REMARK VINA RESULT:    -4.858     11.146     12.147
REMARK INTER + INTRA:          -5.411
REMARK INTER:                  -5.283
REMARK INTRA:                  -0.128
REMARK UNBOUND:                -0.127
REMARK SMILES Cc1ccc(C(C)C)cc1O
REMARK SMILES IDX 1 1 2 2 10 3 9 4 5 5 4 6 3 7 11 8 6 10 7 11 8 12
REMARK H PARENT 11 9
REMARK Flexibility Score: inf
ROOT
ATOM      1  C   UNL     1     -34.810  95.319   7.729  1.00  0.00     0.048 C 
ATOM      2  C   UNL     1     -33.904  94.229   7.230  1.00  0.00    -0.009 A 
ATOM      3  C   UNL     1     -34.443  93.070   6.646  1.00  0.00     0.118 A 
ATOM      4  C   UNL     1     -33.591  92.057   6.183  1.00  0.00     0.050 A 
ATOM      5  C   UNL     1     -32.195  92.186   6.297  1.00  0.00    -0.042 A 
ATOM      6  C   UNL     1     -31.665  93.348   6.884  1.00  0.00     0.004 A 
ATOM      7  C   UNL     1     -32.512  94.359   7.345  1.00  0.00     0.007 A 
ENDROOT
BRANCH   3   8
ATOM      8  O   UNL     1     -35.826  92.928   6.525  1.00  0.00    -0.508 OA
ATOM      9  H   UNL     1     -36.266  92.016   6.495  1.00  0.00     0.293 HD
ENDBRANCH   3   8
BRANCH   5  10
ATOM     10  C   UNL     1     -31.264  91.096   5.800  1.00  0.00     0.013 C 
ATOM     11  C   UNL     1     -31.139  91.130   4.273  1.00  0.00     0.012 C 
ATOM     12  C   UNL     1     -29.887  91.198   6.468  1.00  0.00     0.012 C 
ENDBRANCH   5  10
TORSDOF 2
ENDMDL
MODEL 5
REMARK VINA RESULT:    -4.820      9.692     10.813
REMARK INTER + INTRA:          -5.370
REMARK INTER:                  -5.242
REMARK INTRA:                  -0.128
REMARK UNBOUND:                -0.127
REMARK SMILES Cc1ccc(C(C)C)cc1O
REMARK SMILES IDX 1 1 2 2 10 3 9 4 5 5 4 6 3 7 11 8 6 10 7 11 8 12
REMARK H PARENT 11 9
REMARK Flexibility Score: inf
ROOT
ATOM      1  C   UNL     1     -17.963  94.552  -4.368  1.00  0.00     0.048 C 
ATOM      2  C   UNL     1     -18.730  95.768  -4.805  1.00  0.00    -0.009 A 
ATOM      3  C   UNL     1     -18.058  96.976  -5.060  1.00  0.00     0.118 A 
ATOM      4  C   UNL     1     -18.780  98.107  -5.467  1.00  0.00     0.050 A 
ATOM      5  C   UNL     1     -20.178  98.049  -5.623  1.00  0.00    -0.042 A 
ATOM      6  C   UNL     1     -20.840  96.837  -5.365  1.00  0.00     0.004 A 
ATOM      7  C   UNL     1     -20.123  95.708  -4.960  1.00  0.00     0.007 A 
ENDROOT
BRANCH   3   8
ATOM      8  O   UNL     1     -16.673  97.049  -4.910  1.00  0.00    -0.508 OA
ATOM      9  H   UNL     1     -16.044  96.852  -5.680  1.00  0.00     0.293 HD
ENDBRANCH   3   8
BRANCH   5  10
ATOM     10  C   UNL     1     -20.969  99.266  -6.062  1.00  0.00     0.013 C 
ATOM     11  C   UNL     1     -21.567  99.061  -7.459  1.00  0.00     0.012 C 
ATOM     12  C   UNL     1     -22.059  99.615  -5.042  1.00  0.00     0.012 C 
ENDBRANCH   5  10
TORSDOF 2
ENDMDL
MODEL 6
REMARK VINA RESULT:    -4.732     11.193     11.802
REMARK INTER + INTRA:          -5.274
REMARK INTER:                  -5.145
REMARK INTRA:                  -0.128
REMARK UNBOUND:                -0.127
REMARK SMILES Cc1ccc(C(C)C)cc1O
REMARK SMILES IDX 1 1 2 2 10 3 9 4 5 5 4 6 3 7 11 8 6 10 7 11 8 12
REMARK H PARENT 11 9
REMARK Flexibility Score: inf
ROOT
ATOM      1  C   UNL     1     -29.438  90.584   6.233  1.00  0.00     0.048 C 
ATOM      2  C   UNL     1     -30.692  91.406   6.321  1.00  0.00    -0.009 A 
ATOM      3  C   UNL     1     -31.560  91.494   5.219  1.00  0.00     0.118 A 
ATOM      4  C   UNL     1     -32.730  92.263   5.308  1.00  0.00     0.050 A 
ATOM      5  C   UNL     1     -33.047  92.953   6.493  1.00  0.00    -0.042 A 
ATOM      6  C   UNL     1     -32.172  92.859   7.589  1.00  0.00     0.004 A 
ATOM      7  C   UNL     1     -31.007  92.092   7.503  1.00  0.00     0.007 A 
ENDROOT
BRANCH   3   8
ATOM      8  O   UNL     1     -31.259  90.816   4.038  1.00  0.00    -0.508 OA
ATOM      9  H   UNL     1     -30.589  91.182   3.372  1.00  0.00     0.293 HD
ENDBRANCH   3   8
BRANCH   5  10
ATOM     10  C   UNL     1     -34.308  93.788   6.601  1.00  0.00     0.013 C 
ATOM     11  C   UNL     1     -35.398  93.045   7.382  1.00  0.00     0.012 C 
ATOM     12  C   UNL     1     -34.015  95.156   7.229  1.00  0.00     0.012 C 
ENDBRANCH   5  10
TORSDOF 2
ENDMDL
MODEL 7
REMARK VINA RESULT:    -4.700     10.347     11.832
REMARK INTER + INTRA:          -5.239
REMARK INTER:                  -5.112
REMARK INTRA:                  -0.127
REMARK UNBOUND:                -0.127
REMARK SMILES Cc1ccc(C(C)C)cc1O
REMARK SMILES IDX 1 1 2 2 10 3 9 4 5 5 4 6 3 7 11 8 6 10 7 11 8 12
REMARK H PARENT 11 9
REMARK Flexibility Score: inf
ROOT
ATOM      1  C   UNL     1     -35.007  90.632   6.639  1.00  0.00     0.048 C 
ATOM      2  C   UNL     1     -34.548  92.055   6.781  1.00  0.00    -0.009 A 
ATOM      3  C   UNL     1     -33.228  92.411   6.453  1.00  0.00     0.118 A 
ATOM      4  C   UNL     1     -32.807  93.742   6.588  1.00  0.00     0.050 A 
ATOM      5  C   UNL     1     -33.693  94.732   7.052  1.00  0.00    -0.042 A 
ATOM      6  C   UNL     1     -35.009  94.366   7.379  1.00  0.00     0.004 A 
ATOM      7  C   UNL     1     -35.432  93.041   7.244  1.00  0.00     0.007 A 
ENDROOT
BRANCH   3   8
ATOM      8  O   UNL     1     -32.339  91.441   5.991  1.00  0.00    -0.508 OA
ATOM      9  H   UNL     1     -32.106  90.626   6.546  1.00  0.00     0.293 HD
ENDBRANCH   3   8
BRANCH   5  10
ATOM     10  C   UNL     1     -33.248  96.174   7.203  1.00  0.00     0.013 C 
ATOM     11  C   UNL     1     -34.260  96.981   8.024  1.00  0.00     0.012 C 
ATOM     12  C   UNL     1     -31.845  96.259   7.818  1.00  0.00     0.012 C 
ENDBRANCH   5  10
TORSDOF 2
ENDMDL
MODEL 8
REMARK VINA RESULT:    -4.655     10.819     12.518
REMARK INTER + INTRA:          -5.190
REMARK INTER:                  -5.062
REMARK INTRA:                  -0.128
REMARK UNBOUND:                -0.127
REMARK SMILES Cc1ccc(C(C)C)cc1O
REMARK SMILES IDX 1 1 2 2 10 3 9 4 5 5 4 6 3 7 11 8 6 10 7 11 8 12
REMARK H PARENT 11 9
REMARK Flexibility Score: inf
ROOT
ATOM      1  C   UNL     1     -21.456  98.092  -5.387  1.00  0.00     0.048 C 
ATOM      2  C   UNL     1     -20.115  97.415  -5.380  1.00  0.00    -0.009 A 
ATOM      3  C   UNL     1     -18.998  98.047  -5.954  1.00  0.00     0.118 A 
ATOM      4  C   UNL     1     -17.750  97.408  -5.944  1.00  0.00     0.050 A 
ATOM      5  C   UNL     1     -17.599  96.135  -5.364  1.00  0.00    -0.042 A 
ATOM      6  C   UNL     1     -18.722  95.512  -4.793  1.00  0.00     0.004 A 
ATOM      7  C   UNL     1     -19.967  96.146  -4.800  1.00  0.00     0.007 A 
ENDROOT
BRANCH   3   8
ATOM      8  O   UNL     1     -19.132  99.309  -6.533  1.00  0.00    -0.508 OA
ATOM      9  H   UNL     1     -19.297 100.136  -5.971  1.00  0.00     0.293 HD
ENDBRANCH   3   8
BRANCH   5  10
ATOM     10  C   UNL     1     -16.254  95.435  -5.348  1.00  0.00     0.013 C 
ATOM     11  C   UNL     1     -16.150  94.464  -4.166  1.00  0.00     0.012 C 
ATOM     12  C   UNL     1     -15.988  94.717  -6.676  1.00  0.00     0.012 C 
ENDBRANCH   5  10
TORSDOF 2
ENDMDL
