MODEL 1
REMARK VINA RESULT:    -3.550      0.000      0.000
REMARK INTER + INTRA:          -4.258
REMARK INTER:                  -4.172
REMARK INTRA:                  -0.085
REMARK UNBOUND:                -0.085
REMARK SMILES O=C([O-])CCC(=O)[O-]
REMARK SMILES IDX 4 1 2 2 1 3 3 4 5 5 6 6 7 7 8 8
REMARK H PARENT
REMARK Flexibility Score: inf
ROOT
ATOM      1  C   UNL     1     203.302 202.304 241.398  1.00  0.00     0.059 C 
ENDROOT
BRANCH   1   2
ATOM      2  C   UNL     1     203.462 202.691 239.963  1.00  0.00     0.042 C 
ATOM      3  O   UNL     1     202.571 203.369 239.386  1.00  0.00    -0.550 OA
ATOM      4  O   UNL     1     204.571 202.261 239.246  1.00  0.00    -0.550 OA
ENDBRANCH   1   2
BRANCH   1   5
ATOM      5  C   UNL     1     202.705 203.461 242.202  1.00  0.00     0.059 C 
BRANCH   5   6
ATOM      6  C   UNL     1     203.747 204.088 243.072  1.00  0.00     0.042 C 
ATOM      7  O   UNL     1     203.775 203.841 244.306  1.00  0.00    -0.550 OA
ATOM      8  O   UNL     1     204.660 204.983 242.529  1.00  0.00    -0.550 OA
ENDBRANCH   5   6
ENDBRANCH   1   5
TORSDOF 3
ENDMDL
MODEL 2
REMARK VINA RESULT:    -3.542      1.997      2.548
REMARK INTER + INTRA:          -4.249
REMARK INTER:                  -4.130
REMARK INTRA:                  -0.119
REMARK UNBOUND:                -0.085
REMARK SMILES O=C([O-])CCC(=O)[O-]
REMARK SMILES IDX 4 1 2 2 1 3 3 4 5 5 6 6 7 7 8 8
REMARK H PARENT
REMARK Flexibility Score: inf
ROOT
ATOM      1  C   UNL     1     203.603 203.246 241.392  1.00  0.00     0.059 C 
ENDROOT
BRANCH   1   2
ATOM      2  C   UNL     1     203.606 202.990 239.918  1.00  0.00     0.042 C 
ATOM      3  O   UNL     1     204.214 203.772 239.141  1.00  0.00    -0.550 OA
ATOM      4  O   UNL     1     202.895 201.917 239.398  1.00  0.00    -0.550 OA
ENDBRANCH   1   2
BRANCH   1   5
ATOM      5  C   UNL     1     204.234 202.071 242.141  1.00  0.00     0.059 C 
BRANCH   5   6
ATOM      6  C   UNL     1     203.210 201.371 242.977  1.00  0.00     0.042 C 
ATOM      7  O   UNL     1     202.325 200.661 242.432  1.00  0.00    -0.550 OA
ATOM      8  O   UNL     1     203.203 201.542 244.356  1.00  0.00    -0.550 OA
ENDBRANCH   5   6
ENDBRANCH   1   5
TORSDOF 3
ENDMDL
MODEL 3
REMARK VINA RESULT:    -3.524      1.605      3.810
REMARK INTER + INTRA:          -4.227
REMARK INTER:                  -4.104
REMARK INTRA:                  -0.123
REMARK UNBOUND:                -0.085
REMARK SMILES O=C([O-])CCC(=O)[O-]
REMARK SMILES IDX 4 1 2 2 1 3 3 4 5 5 6 6 7 7 8 8
REMARK H PARENT
REMARK Flexibility Score: inf
ROOT
ATOM      1  C   UNL     1     202.861 201.944 242.127  1.00  0.00     0.059 C 
ENDROOT
BRANCH   1   2
ATOM      2  C   UNL     1     202.205 202.869 243.102  1.00  0.00     0.042 C 
ATOM      3  O   UNL     1     201.483 203.814 242.691  1.00  0.00    -0.550 OA
ATOM      4  O   UNL     1     202.432 202.717 244.464  1.00  0.00    -0.550 OA
ENDBRANCH   1   2
BRANCH   1   5
ATOM      5  C   UNL     1     203.984 202.663 241.379  1.00  0.00     0.059 C 
BRANCH   5   6
ATOM      6  C   UNL     1     203.671 202.749 239.918  1.00  0.00     0.042 C 
ATOM      7  O   UNL     1     202.593 203.272 239.531  1.00  0.00    -0.550 OA
ATOM      8  O   UNL     1     204.547 202.207 238.986  1.00  0.00    -0.550 OA
ENDBRANCH   5   6
ENDBRANCH   1   5
TORSDOF 3
ENDMDL
MODEL 4
REMARK VINA RESULT:    -3.523      2.165      4.578
REMARK INTER + INTRA:          -4.227
REMARK INTER:                  -4.088
REMARK INTRA:                  -0.138
REMARK UNBOUND:                -0.085
REMARK SMILES O=C([O-])CCC(=O)[O-]
REMARK SMILES IDX 4 1 2 2 1 3 3 4 5 5 6 6 7 7 8 8
REMARK H PARENT
REMARK Flexibility Score: inf
ROOT
ATOM      1  C   UNL     1     203.612 203.716 243.972  1.00  0.00     0.059 C 
ENDROOT
BRANCH   1   2
ATOM      2  C   UNL     1     203.660 202.804 245.157  1.00  0.00     0.042 C 
ATOM      3  O   UNL     1     204.705 202.149 245.410  1.00  0.00    -0.550 OA
ATOM      4  O   UNL     1     202.534 202.640 245.953  1.00  0.00    -0.550 OA
ENDBRANCH   1   2
BRANCH   1   5
ATOM      5  C   UNL     1     202.476 203.313 243.031  1.00  0.00     0.059 C 
BRANCH   5   6
ATOM      6  C   UNL     1     202.878 202.137 242.198  1.00  0.00     0.042 C 
ATOM      7  O   UNL     1     203.542 202.306 241.142  1.00  0.00    -0.550 OA
ATOM      8  O   UNL     1     202.479 200.857 242.561  1.00  0.00    -0.550 OA
ENDBRANCH   5   6
ENDBRANCH   1   5
TORSDOF 3
ENDMDL
MODEL 5
REMARK VINA RESULT:    -3.504      2.264      2.975
REMARK INTER + INTRA:          -4.204
REMARK INTER:                  -4.064
REMARK INTRA:                  -0.140
REMARK UNBOUND:                -0.085
REMARK SMILES O=C([O-])CCC(=O)[O-]
REMARK SMILES IDX 4 1 2 2 1 3 3 4 5 5 6 6 7 7 8 8
REMARK H PARENT
REMARK Flexibility Score: inf
ROOT
ATOM      1  C   UNL     1     202.363 203.118 243.149  1.00  0.00     0.059 C 
ENDROOT
BRANCH   1   2
ATOM      2  C   UNL     1     202.821 202.006 242.261  1.00  0.00     0.042 C 
ATOM      3  O   UNL     1     202.419 200.829 242.460  1.00  0.00    -0.550 OA
ATOM      4  O   UNL     1     203.731 202.260 241.243  1.00  0.00    -0.550 OA
ENDBRANCH   1   2
BRANCH   1   5
ATOM      5  C   UNL     1     203.503 203.585 244.055  1.00  0.00     0.059 C 
BRANCH   5   6
ATOM      6  C   UNL     1     203.621 202.696 245.252  1.00  0.00     0.042 C 
ATOM      7  O   UNL     1     204.689 202.066 245.471  1.00  0.00    -0.550 OA
ATOM      8  O   UNL     1     202.535 202.525 246.101  1.00  0.00    -0.550 OA
ENDBRANCH   5   6
ENDBRANCH   1   5
TORSDOF 3
ENDMDL
MODEL 6
REMARK VINA RESULT:    -3.489      2.521      3.513
REMARK INTER + INTRA:          -4.186
REMARK INTER:                  -4.072
REMARK INTRA:                  -0.114
REMARK UNBOUND:                -0.085
REMARK SMILES O=C([O-])CCC(=O)[O-]
REMARK SMILES IDX 4 1 2 2 1 3 3 4 5 5 6 6 7 7 8 8
REMARK H PARENT
REMARK Flexibility Score: inf
ROOT
ATOM      1  C   UNL     1     204.580 202.623 243.403  1.00  0.00     0.059 C 
ENDROOT
BRANCH   1   2
ATOM      2  C   UNL     1     203.924 203.856 242.871  1.00  0.00     0.042 C 
ATOM      3  O   UNL     1     204.608 204.885 242.629  1.00  0.00    -0.550 OA
ATOM      4  O   UNL     1     202.547 203.887 242.688  1.00  0.00    -0.550 OA
ENDBRANCH   1   2
BRANCH   1   5
ATOM      5  C   UNL     1     203.752 202.023 244.541  1.00  0.00     0.059 C 
BRANCH   5   6
ATOM      6  C   UNL     1     204.243 202.519 245.864  1.00  0.00     0.042 C 
ATOM      7  O   UNL     1     205.116 201.871 246.500  1.00  0.00    -0.550 OA
ATOM      8  O   UNL     1     203.702 203.672 246.419  1.00  0.00    -0.550 OA
ENDBRANCH   5   6
ENDBRANCH   1   5
TORSDOF 3
ENDMDL
MODEL 7
REMARK VINA RESULT:    -3.466      2.374      4.072
REMARK INTER + INTRA:          -4.160
REMARK INTER:                  -3.983
REMARK INTRA:                  -0.176
REMARK UNBOUND:                -0.085
REMARK SMILES O=C([O-])CCC(=O)[O-]
REMARK SMILES IDX 4 1 2 2 1 3 3 4 5 5 6 6 7 7 8 8
REMARK H PARENT
REMARK Flexibility Score: inf
ROOT
ATOM      1  C   UNL     1     203.226 201.530 243.948  1.00  0.00     0.059 C 
ENDROOT
BRANCH   1   2
ATOM      2  C   UNL     1     203.481 202.108 245.304  1.00  0.00     0.042 C 
ATOM      3  O   UNL     1     202.530 202.582 245.979  1.00  0.00    -0.550 OA
ATOM      4  O   UNL     1     204.775 202.167 245.802  1.00  0.00    -0.550 OA
ENDBRANCH   1   2
BRANCH   1   5
ATOM      5  C   UNL     1     204.007 202.301 242.882  1.00  0.00     0.059 C 
BRANCH   5   6
ATOM      6  C   UNL     1     203.481 203.695 242.752  1.00  0.00     0.042 C 
ATOM      7  O   UNL     1     202.262 203.892 242.509  1.00  0.00    -0.550 OA
ATOM      8  O   UNL     1     204.347 204.777 242.850  1.00  0.00    -0.550 OA
ENDBRANCH   5   6
ENDBRANCH   1   5
TORSDOF 3
ENDMDL
MODEL 8
REMARK VINA RESULT:    -3.297     10.708     11.829
REMARK INTER + INTRA:          -3.960
REMARK INTER:                  -3.787
REMARK INTRA:                  -0.173
REMARK UNBOUND:                -0.085
REMARK SMILES O=C([O-])CCC(=O)[O-]
REMARK SMILES IDX 4 1 2 2 1 3 3 4 5 5 6 6 7 7 8 8
REMARK H PARENT
REMARK Flexibility Score: inf
ROOT
ATOM      1  C   UNL     1     204.549 203.546 229.993  1.00  0.00     0.059 C 
ENDROOT
BRANCH   1   2
ATOM      2  C   UNL     1     205.455 202.507 230.575  1.00  0.00     0.042 C 
ATOM      3  O   UNL     1     206.247 201.870 229.833  1.00  0.00    -0.550 OA
ATOM      4  O   UNL     1     205.389 202.208 231.930  1.00  0.00    -0.550 OA
ENDBRANCH   1   2
BRANCH   1   5
ATOM      5  C   UNL     1     203.525 202.901 229.058  1.00  0.00     0.059 C 
BRANCH   5   6
ATOM      6  C   UNL     1     202.511 202.131 229.842  1.00  0.00     0.042 C 
ATOM      7  O   UNL     1     201.692 202.734 230.584  1.00  0.00    -0.550 OA
ATOM      8  O   UNL     1     202.500 200.743 229.792  1.00  0.00    -0.550 OA
ENDBRANCH   5   6
ENDBRANCH   1   5
TORSDOF 3
ENDMDL
MODEL 9
REMARK VINA RESULT:    -3.290     10.735     11.651
REMARK INTER + INTRA:          -3.953
REMARK INTER:                  -3.784
REMARK INTRA:                  -0.169
REMARK UNBOUND:                -0.085
REMARK SMILES O=C([O-])CCC(=O)[O-]
REMARK SMILES IDX 4 1 2 2 1 3 3 4 5 5 6 6 7 7 8 8
REMARK H PARENT
REMARK Flexibility Score: inf
ROOT
ATOM      1  C   UNL     1     203.607 202.962 229.087  1.00  0.00     0.059 C 
ENDROOT
BRANCH   1   2
ATOM      2  C   UNL     1     202.561 202.206 229.843  1.00  0.00     0.042 C 
ATOM      3  O   UNL     1     201.737 202.820 230.571  1.00  0.00    -0.550 OA
ATOM      4  O   UNL     1     202.526 200.819 229.783  1.00  0.00    -0.550 OA
ENDBRANCH   1   2
BRANCH   1   5
ATOM      5  C   UNL     1     204.642 203.550 230.048  1.00  0.00     0.059 C 
BRANCH   5   6
ATOM      6  C   UNL     1     205.540 202.475 230.572  1.00  0.00     0.042 C 
ATOM      7  O   UNL     1     206.274 201.821 229.784  1.00  0.00    -0.550 OA
ATOM      8  O   UNL     1     205.533 202.161 231.925  1.00  0.00    -0.550 OA
ENDBRANCH   5   6
ENDBRANCH   1   5
TORSDOF 3
ENDMDL
