MODEL 1
REMARK VINA RESULT:    -2.692      0.000      0.000
REMARK INTER + INTRA:          -4.710
REMARK INTER:                  -3.950
REMARK INTRA:                  -0.760
REMARK UNBOUND:                -0.760
REMARK SMILES O=C([O-])CCCCCCCC(=O)[O-]
REMARK SMILES IDX 7 1 6 2 5 3 4 4 2 5 1 6 3 7 8 8 9 9 10 10 11 11 12 12 13 13
REMARK H PARENT
REMARK Flexibility Score: inf
ROOT
ATOM      1  C   UNL     1       7.751 -20.227  20.466  1.00  0.00     0.000 C 
ENDROOT
BRANCH   1   2
ATOM      2  C   UNL     1       8.376 -19.135  21.347  1.00  0.00     0.000 C 
BRANCH   2   3
ATOM      3  C   UNL     1       9.870 -19.398  21.569  1.00  0.00     0.006 C 
BRANCH   3   4
ATOM      4  C   UNL     1      10.716 -18.224  21.067  1.00  0.00     0.053 C 
BRANCH   4   5
ATOM      5  C   UNL     1      11.933 -18.722  20.355  1.00  0.00     0.041 C 
ATOM      6  O   UNL     1      13.057 -18.689  20.922  1.00  0.00    -0.550 OA
ATOM      7  O   UNL     1      11.835 -19.178  19.047  1.00  0.00    -0.550 OA
ENDBRANCH   4   5
ENDBRANCH   3   4
ENDBRANCH   2   3
ENDBRANCH   1   2
BRANCH   1   8
ATOM      8  C   UNL     1       8.382 -20.291  19.066  1.00  0.00     0.000 C 
BRANCH   8   9
ATOM      9  C   UNL     1       7.790 -19.247  18.102  1.00  0.00     0.006 C 
BRANCH   9  10
ATOM     10  C   UNL     1       8.740 -18.064  17.875  1.00  0.00     0.053 C 
BRANCH  10  11
ATOM     11  C   UNL     1       8.162 -16.782  18.392  1.00  0.00     0.041 C 
ATOM     12  O   UNL     1       8.890 -15.963  19.012  1.00  0.00    -0.550 OA
ATOM     13  O   UNL     1       6.811 -16.507  18.220  1.00  0.00    -0.550 OA
ENDBRANCH  10  11
ENDBRANCH   9  10
ENDBRANCH   8   9
ENDBRANCH   1   8
TORSDOF 8
ENDMDL
MODEL 2
REMARK VINA RESULT:    -2.671      2.336      3.411
REMARK INTER + INTRA:          -4.681
REMARK INTER:                  -3.944
REMARK INTRA:                  -0.737
REMARK UNBOUND:                -0.760
REMARK SMILES O=C([O-])CCCCCCCC(=O)[O-]
REMARK SMILES IDX 7 1 6 2 5 3 4 4 2 5 1 6 3 7 8 8 9 9 10 10 11 11 12 12 13 13
REMARK H PARENT
REMARK Flexibility Score: inf
ROOT
ATOM      1  C   UNL     1      10.609 -19.391  18.425  1.00  0.00     0.000 C 
ENDROOT
BRANCH   1   2
ATOM      2  C   UNL     1      11.671 -18.857  19.399  1.00  0.00     0.000 C 
BRANCH   2   3
ATOM      3  C   UNL     1      11.016 -18.263  20.652  1.00  0.00     0.006 C 
BRANCH   3   4
ATOM      4  C   UNL     1      11.770 -17.018  21.129  1.00  0.00     0.053 C 
BRANCH   4   5
ATOM      5  C   UNL     1      11.717 -15.944  20.091  1.00  0.00     0.041 C 
ATOM      6  O   UNL     1      10.611 -15.468  19.726  1.00  0.00    -0.550 OA
ATOM      7  O   UNL     1      12.888 -15.500  19.490  1.00  0.00    -0.550 OA
ENDBRANCH   4   5
ENDBRANCH   3   4
ENDBRANCH   2   3
ENDBRANCH   1   2
BRANCH   1   8
ATOM      8  C   UNL     1       9.360 -18.497  18.364  1.00  0.00     0.000 C 
BRANCH   8   9
ATOM      9  C   UNL     1       8.053 -19.309  18.335  1.00  0.00     0.006 C 
BRANCH   9  10
ATOM     10  C   UNL     1       8.141 -20.580  19.189  1.00  0.00     0.053 C 
BRANCH  10  11
ATOM     11  C   UNL     1       7.751 -20.321  20.612  1.00  0.00     0.041 C 
ATOM     12  O   UNL     1       8.549 -20.595  21.547  1.00  0.00    -0.550 OA
ATOM     13  O   UNL     1       6.493 -19.812  20.908  1.00  0.00    -0.550 OA
ENDBRANCH  10  11
ENDBRANCH   9  10
ENDBRANCH   8   9
ENDBRANCH   1   8
TORSDOF 8
ENDMDL
MODEL 3
REMARK VINA RESULT:    -2.637      5.157      7.779
REMARK INTER + INTRA:          -4.630
REMARK INTER:                  -4.430
REMARK INTRA:                  -0.199
REMARK UNBOUND:                -0.760
REMARK SMILES O=C([O-])CCCCCCCC(=O)[O-]
REMARK SMILES IDX 7 1 6 2 5 3 4 4 2 5 1 6 3 7 8 8 9 9 10 10 11 11 12 12 13 13
REMARK H PARENT
REMARK Flexibility Score: inf
ROOT
ATOM      1  C   UNL     1       4.239 -18.857  19.773  1.00  0.00     0.000 C 
ENDROOT
BRANCH   1   2
ATOM      2  C   UNL     1       3.024 -19.153  18.881  1.00  0.00     0.000 C 
BRANCH   2   3
ATOM      3  C   UNL     1       1.879 -19.763  19.698  1.00  0.00     0.006 C 
BRANCH   3   4
ATOM      4  C   UNL     1       0.920 -20.549  18.799  1.00  0.00     0.053 C 
BRANCH   4   5
ATOM      5  C   UNL     1      -0.372 -19.812  18.642  1.00  0.00     0.041 C 
ATOM      6  O   UNL     1      -1.448 -20.325  19.046  1.00  0.00    -0.550 OA
ATOM      7  O   UNL     1      -0.395 -18.578  18.005  1.00  0.00    -0.550 OA
ENDBRANCH   4   5
ENDBRANCH   3   4
ENDBRANCH   2   3
ENDBRANCH   1   2
BRANCH   1   8
ATOM      8  C   UNL     1       5.445 -18.335  18.976  1.00  0.00     0.000 C 
BRANCH   8   9
ATOM      9  C   UNL     1       6.782 -18.906  19.482  1.00  0.00     0.006 C 
BRANCH   9  10
ATOM     10  C   UNL     1       7.711 -19.311  18.331  1.00  0.00     0.053 C 
BRANCH  10  11
ATOM     11  C   UNL     1       9.015 -18.576  18.385  1.00  0.00     0.041 C 
ATOM     12  O   UNL     1      10.098 -19.212  18.475  1.00  0.00    -0.550 OA
ATOM     13  O   UNL     1       9.032 -17.187  18.373  1.00  0.00    -0.550 OA
ENDBRANCH  10  11
ENDBRANCH   9  10
ENDBRANCH   8   9
ENDBRANCH   1   8
TORSDOF 8
ENDMDL
MODEL 4
REMARK VINA RESULT:    -2.634      2.595      5.371
REMARK INTER + INTRA:          -4.626
REMARK INTER:                  -4.160
REMARK INTRA:                  -0.467
REMARK UNBOUND:                -0.760
REMARK SMILES O=C([O-])CCCCCCCC(=O)[O-]
REMARK SMILES IDX 7 1 6 2 5 3 4 4 2 5 1 6 3 7 8 8 9 9 10 10 11 11 12 12 13 13
REMARK H PARENT
REMARK Flexibility Score: inf
ROOT
ATOM      1  C   UNL     1      11.414 -18.875  20.707  1.00  0.00     0.000 C 
ENDROOT
BRANCH   1   2
ATOM      2  C   UNL     1      11.786 -18.959  19.219  1.00  0.00     0.000 C 
BRANCH   2   3
ATOM      3  C   UNL     1      10.561 -19.308  18.366  1.00  0.00     0.006 C 
BRANCH   3   4
ATOM      4  C   UNL     1       9.307 -18.602  18.888  1.00  0.00     0.053 C 
BRANCH   4   5
ATOM      5  C   UNL     1       8.122 -19.510  18.807  1.00  0.00     0.041 C 
ATOM      6  O   UNL     1       6.991 -19.051  18.500  1.00  0.00    -0.550 OA
ATOM      7  O   UNL     1       8.256 -20.857  19.117  1.00  0.00    -0.550 OA
ENDBRANCH   4   5
ENDBRANCH   3   4
ENDBRANCH   2   3
ENDBRANCH   1   2
BRANCH   1   8
ATOM      8  C   UNL     1      12.601 -19.185  21.633  1.00  0.00     0.000 C 
BRANCH   8   9
ATOM      9  C   UNL     1      13.204 -17.919  22.267  1.00  0.00     0.006 C 
BRANCH   9  10
ATOM     10  C   UNL     1      14.417 -17.400  21.485  1.00  0.00     0.053 C 
BRANCH  10  11
ATOM     11  C   UNL     1      14.187 -16.017  20.957  1.00  0.00     0.041 C 
ATOM     12  O   UNL     1      14.862 -15.050  21.398  1.00  0.00    -0.550 OA
ATOM     13  O   UNL     1      13.203 -15.791  20.003  1.00  0.00    -0.550 OA
ENDBRANCH  10  11
ENDBRANCH   9  10
ENDBRANCH   8   9
ENDBRANCH   1   8
TORSDOF 8
ENDMDL
MODEL 5
REMARK VINA RESULT:    -2.621      8.590     10.351
REMARK INTER + INTRA:          -4.607
REMARK INTER:                  -3.972
REMARK INTRA:                  -0.635
REMARK UNBOUND:                -0.760
REMARK SMILES O=C([O-])CCCCCCCC(=O)[O-]
REMARK SMILES IDX 7 1 6 2 5 3 4 4 2 5 1 6 3 7 8 8 9 9 10 10 11 11 12 12 13 13
REMARK H PARENT
REMARK Flexibility Score: inf
ROOT
ATOM      1  C   UNL     1      -1.466 -19.264  19.201  1.00  0.00     0.000 C 
ENDROOT
BRANCH   1   2
ATOM      2  C   UNL     1      -0.410 -19.538  18.119  1.00  0.00     0.000 C 
BRANCH   2   3
ATOM      3  C   UNL     1       0.685 -20.472  18.647  1.00  0.00     0.006 C 
BRANCH   3   4
ATOM      4  C   UNL     1       1.237 -19.973  19.985  1.00  0.00     0.053 C 
BRANCH   4   5
ATOM      5  C   UNL     1       2.658 -19.531  19.834  1.00  0.00     0.041 C 
ATOM      6  O   UNL     1       3.103 -19.204  18.704  1.00  0.00    -0.550 OA
ATOM      7  O   UNL     1       3.505 -19.525  20.935  1.00  0.00    -0.550 OA
ENDBRANCH   4   5
ENDBRANCH   3   4
ENDBRANCH   2   3
ENDBRANCH   1   2
BRANCH   1   8
ATOM      8  C   UNL     1      -2.495 -20.399  19.323  1.00  0.00     0.000 C 
BRANCH   8   9
ATOM      9  C   UNL     1      -2.603 -20.950  20.756  1.00  0.00     0.006 C 
BRANCH   9  10
ATOM     10  C   UNL     1      -2.499 -19.842  21.812  1.00  0.00     0.053 C 
BRANCH  10  11
ATOM     11  C   UNL     1      -1.656 -20.263  22.977  1.00  0.00     0.041 C 
ATOM     12  O   UNL     1      -1.897 -19.813  24.128  1.00  0.00    -0.550 OA
ATOM     13  O   UNL     1      -0.583 -21.124  22.786  1.00  0.00    -0.550 OA
ENDBRANCH  10  11
ENDBRANCH   9  10
ENDBRANCH   8   9
ENDBRANCH   1   8
TORSDOF 8
ENDMDL
MODEL 6
REMARK VINA RESULT:    -2.615      2.331      4.070
REMARK INTER + INTRA:          -4.598
REMARK INTER:                  -3.760
REMARK INTRA:                  -0.838
REMARK UNBOUND:                -0.760
REMARK SMILES O=C([O-])CCCCCCCC(=O)[O-]
REMARK SMILES IDX 7 1 6 2 5 3 4 4 2 5 1 6 3 7 8 8 9 9 10 10 11 11 12 12 13 13
REMARK H PARENT
REMARK Flexibility Score: inf
ROOT
ATOM      1  C   UNL     1       7.618 -17.844  18.517  1.00  0.00     0.000 C 
ENDROOT
BRANCH   1   2
ATOM      2  C   UNL     1       7.976 -19.254  18.022  1.00  0.00     0.000 C 
BRANCH   2   3
ATOM      3  C   UNL     1       8.253 -20.195  19.200  1.00  0.00     0.006 C 
BRANCH   3   4
ATOM      4  C   UNL     1       7.379 -19.839  20.406  1.00  0.00     0.053 C 
BRANCH   4   5
ATOM      5  C   UNL     1       7.977 -20.382  21.665  1.00  0.00     0.041 C 
ATOM      6  O   UNL     1       9.208 -20.247  21.891  1.00  0.00    -0.550 OA
ATOM      7  O   UNL     1       7.184 -21.078  22.567  1.00  0.00    -0.550 OA
ENDBRANCH   4   5
ENDBRANCH   3   4
ENDBRANCH   2   3
ENDBRANCH   1   2
BRANCH   1   8
ATOM      8  C   UNL     1       8.710 -16.811  18.199  1.00  0.00     0.000 C 
BRANCH   8   9
ATOM      9  C   UNL     1       9.252 -16.114  19.460  1.00  0.00     0.006 C 
BRANCH   9  10
ATOM     10  C   UNL     1       9.925 -17.100  20.423  1.00  0.00     0.053 C 
BRANCH  10  11
ATOM     11  C   UNL     1      11.249 -17.570  19.901  1.00  0.00     0.041 C 
ATOM     12  O   UNL     1      11.387 -18.757  19.503  1.00  0.00    -0.550 OA
ATOM     13  O   UNL     1      12.338 -16.709  19.889  1.00  0.00    -0.550 OA
ENDBRANCH  10  11
ENDBRANCH   9  10
ENDBRANCH   8   9
ENDBRANCH   1   8
TORSDOF 8
ENDMDL
MODEL 7
REMARK VINA RESULT:    -2.607      9.203     11.464
REMARK INTER + INTRA:          -4.587
REMARK INTER:                  -3.974
REMARK INTRA:                  -0.613
REMARK UNBOUND:                -0.760
REMARK SMILES O=C([O-])CCCCCCCC(=O)[O-]
REMARK SMILES IDX 7 1 6 2 5 3 4 4 2 5 1 6 3 7 8 8 9 9 10 10 11 11 12 12 13 13
REMARK H PARENT
REMARK Flexibility Score: inf
ROOT
ATOM      1  C   UNL     1      -1.578 -19.216  19.173  1.00  0.00     0.000 C 
ENDROOT
BRANCH   1   2
ATOM      2  C   UNL     1      -2.613 -20.351  19.164  1.00  0.00     0.000 C 
BRANCH   2   3
ATOM      3  C   UNL     1      -2.758 -20.972  20.558  1.00  0.00     0.006 C 
BRANCH   3   4
ATOM      4  C   UNL     1      -2.509 -19.931  21.653  1.00  0.00     0.053 C 
BRANCH   4   5
ATOM      5  C   UNL     1      -3.784 -19.600  22.361  1.00  0.00     0.041 C 
ATOM      6  O   UNL     1      -4.888 -19.973  21.886  1.00  0.00    -0.550 OA
ATOM      7  O   UNL     1      -3.757 -18.837  23.522  1.00  0.00    -0.550 OA
ENDBRANCH   4   5
ENDBRANCH   3   4
ENDBRANCH   2   3
ENDBRANCH   1   2
BRANCH   1   8
ATOM      8  C   UNL     1      -0.431 -19.454  18.177  1.00  0.00     0.000 C 
BRANCH   8   9
ATOM      9  C   UNL     1       0.602 -20.470  18.696  1.00  0.00     0.006 C 
BRANCH   9  10
ATOM     10  C   UNL     1       1.221 -20.037  20.031  1.00  0.00     0.053 C 
BRANCH  10  11
ATOM     11  C   UNL     1       2.642 -19.591  19.865  1.00  0.00     0.041 C 
ATOM     12  O   UNL     1       3.091 -19.320  18.720  1.00  0.00    -0.550 OA
ATOM     13  O   UNL     1       3.479 -19.508  20.970  1.00  0.00    -0.550 OA
ENDBRANCH  10  11
ENDBRANCH   9  10
ENDBRANCH   8   9
ENDBRANCH   1   8
TORSDOF 8
ENDMDL
MODEL 8
REMARK VINA RESULT:    -2.585      2.443      4.772
REMARK INTER + INTRA:          -4.554
REMARK INTER:                  -3.918
REMARK INTRA:                  -0.636
REMARK UNBOUND:                -0.760
REMARK SMILES O=C([O-])CCCCCCCC(=O)[O-]
REMARK SMILES IDX 7 1 6 2 5 3 4 4 2 5 1 6 3 7 8 8 9 9 10 10 11 11 12 12 13 13
REMARK H PARENT
REMARK Flexibility Score: inf
ROOT
ATOM      1  C   UNL     1      10.542 -19.283  18.380  1.00  0.00     0.000 C 
ENDROOT
BRANCH   1   2
ATOM      2  C   UNL     1       9.248 -18.477  18.190  1.00  0.00     0.000 C 
BRANCH   2   3
ATOM      3  C   UNL     1       8.019 -19.391  18.244  1.00  0.00     0.006 C 
BRANCH   3   4
ATOM      4  C   UNL     1       8.225 -20.531  19.246  1.00  0.00     0.053 C 
BRANCH   4   5
ATOM      5  C   UNL     1       7.829 -20.098  20.621  1.00  0.00     0.041 C 
ATOM      6  O   UNL     1       6.621 -19.868  20.891  1.00  0.00    -0.550 OA
ATOM      7  O   UNL     1       8.801 -19.901  21.594  1.00  0.00    -0.550 OA
ENDBRANCH   4   5
ENDBRANCH   3   4
ENDBRANCH   2   3
ENDBRANCH   1   2
BRANCH   1   8
ATOM      8  C   UNL     1      11.473 -18.667  19.437  1.00  0.00     0.000 C 
BRANCH   8   9
ATOM      9  C   UNL     1      10.896 -17.381  20.056  1.00  0.00     0.006 C 
BRANCH   9  10
ATOM     10  C   UNL     1      11.890 -16.214  19.997  1.00  0.00     0.053 C 
BRANCH  10  11
ATOM     11  C   UNL     1      12.965 -16.347  21.032  1.00  0.00     0.041 C 
ATOM     12  O   UNL     1      12.676 -16.712  22.202  1.00  0.00    -0.550 OA
ATOM     13  O   UNL     1      14.281 -16.034  20.714  1.00  0.00    -0.550 OA
ENDBRANCH  10  11
ENDBRANCH   9  10
ENDBRANCH   8   9
ENDBRANCH   1   8
TORSDOF 8
ENDMDL
MODEL 9
REMARK VINA RESULT:    -2.540      1.659      4.397
REMARK INTER + INTRA:          -4.489
REMARK INTER:                  -3.624
REMARK INTRA:                  -0.864
REMARK UNBOUND:                -0.760
REMARK SMILES O=C([O-])CCCCCCCC(=O)[O-]
REMARK SMILES IDX 7 1 6 2 5 3 4 4 2 5 1 6 3 7 8 8 9 9 10 10 11 11 12 12 13 13
REMARK H PARENT
REMARK Flexibility Score: inf
ROOT
ATOM      1  C   UNL     1       9.891 -19.016  23.239  1.00  0.00     0.000 C 
ENDROOT
BRANCH   1   2
ATOM      2  C   UNL     1       9.455 -20.038  22.177  1.00  0.00     0.000 C 
BRANCH   2   3
ATOM      3  C   UNL     1       8.409 -19.435  21.232  1.00  0.00     0.006 C 
BRANCH   3   4
ATOM      4  C   UNL     1       8.369 -20.192  19.901  1.00  0.00     0.053 C 
BRANCH   4   5
ATOM      5  C   UNL     1       7.799 -19.326  18.824  1.00  0.00     0.041 C 
ATOM      6  O   UNL     1       8.527 -18.930  17.877  1.00  0.00    -0.550 OA
ATOM      7  O   UNL     1       6.473 -18.916  18.890  1.00  0.00    -0.550 OA
ENDBRANCH   4   5
ENDBRANCH   3   4
ENDBRANCH   2   3
ENDBRANCH   1   2
BRANCH   1   8
ATOM      8  C   UNL     1      11.346 -18.558  23.056  1.00  0.00     0.000 C 
BRANCH   8   9
ATOM      9  C   UNL     1      12.120 -19.429  22.050  1.00  0.00     0.006 C 
BRANCH   9  10
ATOM     10  C   UNL     1      12.711 -18.603  20.902  1.00  0.00     0.053 C 
BRANCH  10  11
ATOM     11  C   UNL     1      11.740 -18.449  19.771  1.00  0.00     0.041 C 
ATOM     12  O   UNL     1      11.722 -19.289  18.833  1.00  0.00    -0.550 OA
ATOM     13  O   UNL     1      10.880 -17.358  19.735  1.00  0.00    -0.550 OA
ENDBRANCH  10  11
ENDBRANCH   9  10
ENDBRANCH   8   9
ENDBRANCH   1   8
TORSDOF 8
ENDMDL
