MODEL 1
REMARK VINA RESULT:    -2.135      0.000      0.000
REMARK INTER + INTRA:          -3.923
REMARK INTER:                  -3.882
REMARK INTRA:                  -0.041
REMARK UNBOUND:                -0.041
REMARK SMILES CCCCCCCCCCCCCCCC(=O)[O-]
REMARK SMILES IDX 9 1 10 2 11 3 12 4 13 5 14 6 15 7 16 8 17 9 18 10 8 11 7 12
REMARK SMILES IDX 6 13 5 14 4 15 3 16 2 17 1 18
REMARK H PARENT
REMARK Flexibility Score: inf
ROOT
ATOM      1  C   UNL     1      37.076 106.385 263.162  1.00  0.00     0.000 C 
ENDROOT
BRANCH   1   2
ATOM      2  C   UNL     1      35.846 105.582 262.702  1.00  0.00     0.000 C 
BRANCH   2   3
ATOM      3  C   UNL     1      35.184 104.818 263.869  1.00  0.00     0.000 C 
BRANCH   3   4
ATOM      4  C   UNL     1      34.923 105.693 265.108  1.00  0.00     0.000 C 
BRANCH   4   5
ATOM      5  C   UNL     1      34.875 104.882 266.413  1.00  0.00     0.000 C 
BRANCH   5   6
ATOM      6  C   UNL     1      34.876 105.775 267.663  1.00  0.00     0.006 C 
BRANCH   6   7
ATOM      7  C   UNL     1      35.437 105.062 268.901  1.00  0.00     0.053 C 
BRANCH   7   8
ATOM      8  C   UNL     1      35.820 106.059 269.948  1.00  0.00     0.041 C 
ATOM      9  O   UNL     1      34.951 106.825 270.443  1.00  0.00    -0.550 OA
ATOM     10  O   UNL     1      37.146 106.178 270.343  1.00  0.00    -0.550 OA
ENDBRANCH   7   8
ENDBRANCH   6   7
ENDBRANCH   5   6
ENDBRANCH   4   5
ENDBRANCH   3   4
ENDBRANCH   2   3
ENDBRANCH   1   2
BRANCH   1  11
ATOM     11  C   UNL     1      38.312 106.121 262.287  1.00  0.00     0.000 C 
BRANCH  11  12
ATOM     12  C   UNL     1      38.034 106.360 260.795  1.00  0.00    -0.000 C 
BRANCH  12  13
ATOM     13  C   UNL     1      37.707 105.041 260.080  1.00  0.00    -0.000 C 
BRANCH  13  14
ATOM     14  C   UNL     1      37.832 105.147 258.552  1.00  0.00    -0.000 C 
BRANCH  14  15
ATOM     15  C   UNL     1      36.545 105.659 257.886  1.00  0.00    -0.000 C 
BRANCH  15  16
ATOM     16  C   UNL     1      35.890 106.762 258.731  1.00  0.00    -0.000 C 
BRANCH  16  17
ATOM     17  C   UNL     1      35.117 107.779 257.879  1.00  0.00    -0.003 C 
ATOM     18  C   UNL     1      35.330 109.221 258.340  1.00  0.00     0.004 C 
ENDBRANCH  16  17
ENDBRANCH  15  16
ENDBRANCH  14  15
ENDBRANCH  13  14
ENDBRANCH  12  13
ENDBRANCH  11  12
ENDBRANCH   1  11
TORSDOF 14
ENDMDL
MODEL 2
REMARK VINA RESULT:    -1.586      1.461      2.805
REMARK INTER + INTRA:          -2.925
REMARK INTER:                  -1.897
REMARK INTRA:                  -1.029
REMARK UNBOUND:                -0.041
REMARK SMILES CCCCCCCCCCCCCCCC(=O)[O-]
REMARK SMILES IDX 9 1 10 2 11 3 12 4 13 5 14 6 15 7 16 8 17 9 18 10 8 11 7 12
REMARK SMILES IDX 6 13 5 14 4 15 3 16 2 17 1 18
REMARK H PARENT
REMARK Flexibility Score: inf
ROOT
ATOM      1  C   UNL     1      35.552 104.476 264.966  1.00  0.00     0.000 C 
ENDROOT
BRANCH   1   2
ATOM      2  C   UNL     1      34.934 105.874 264.786  1.00  0.00     0.000 C 
BRANCH   2   3
ATOM      3  C   UNL     1      35.724 106.960 265.549  1.00  0.00     0.000 C 
BRANCH   3   4
ATOM      4  C   UNL     1      34.895 108.219 265.860  1.00  0.00     0.000 C 
BRANCH   4   5
ATOM      5  C   UNL     1      34.875 108.565 267.358  1.00  0.00     0.000 C 
BRANCH   5   6
ATOM      6  C   UNL     1      34.982 107.320 268.252  1.00  0.00     0.006 C 
BRANCH   6   7
ATOM      7  C   UNL     1      36.275 107.291 269.077  1.00  0.00     0.053 C 
BRANCH   7   8
ATOM      8  C   UNL     1      36.330 106.055 269.917  1.00  0.00     0.041 C 
ATOM      9  O   UNL     1      37.317 105.844 270.671  1.00  0.00    -0.550 OA
ATOM     10  O   UNL     1      35.316 105.110 269.832  1.00  0.00    -0.550 OA
ENDBRANCH   7   8
ENDBRANCH   6   7
ENDBRANCH   5   6
ENDBRANCH   4   5
ENDBRANCH   3   4
ENDBRANCH   2   3
ENDBRANCH   1   2
BRANCH   1  11
ATOM     11  C   UNL     1      35.531 103.651 263.670  1.00  0.00     0.000 C 
BRANCH  11  12
ATOM     12  C   UNL     1      34.950 104.439 262.486  1.00  0.00    -0.000 C 
BRANCH  12  13
ATOM     13  C   UNL     1      35.981 104.571 261.355  1.00  0.00    -0.000 C 
BRANCH  13  14
ATOM     14  C   UNL     1      36.891 105.798 261.521  1.00  0.00    -0.000 C 
BRANCH  14  15
ATOM     15  C   UNL     1      37.920 105.931 260.387  1.00  0.00    -0.000 C 
BRANCH  15  16
ATOM     16  C   UNL     1      37.627 104.930 259.260  1.00  0.00    -0.000 C 
BRANCH  16  17
ATOM     17  C   UNL     1      37.191 105.618 257.957  1.00  0.00    -0.003 C 
ATOM     18  C   UNL     1      36.058 106.622 258.170  1.00  0.00     0.004 C 
ENDBRANCH  16  17
ENDBRANCH  15  16
ENDBRANCH  14  15
ENDBRANCH  13  14
ENDBRANCH  12  13
ENDBRANCH  11  12
ENDBRANCH   1  11
TORSDOF 14
ENDMDL
MODEL 3
REMARK VINA RESULT:    -1.152      1.491      2.741
REMARK INTER + INTRA:          -2.136
REMARK INTER:                  -2.284
REMARK INTRA:                   0.148
REMARK UNBOUND:                -0.041
REMARK SMILES CCCCCCCCCCCCCCCC(=O)[O-]
REMARK SMILES IDX 9 1 10 2 11 3 12 4 13 5 14 6 15 7 16 8 17 9 18 10 8 11 7 12
REMARK SMILES IDX 6 13 5 14 4 15 3 16 2 17 1 18
REMARK H PARENT
REMARK Flexibility Score: inf
ROOT
ATOM      1  C   UNL     1      35.305 107.166 264.675  1.00  0.00     0.000 C 
ENDROOT
BRANCH   1   2
ATOM      2  C   UNL     1      34.889 106.764 266.101  1.00  0.00     0.000 C 
BRANCH   2   3
ATOM      3  C   UNL     1      34.882 105.233 266.294  1.00  0.00     0.000 C 
BRANCH   3   4
ATOM      4  C   UNL     1      34.926 104.798 267.770  1.00  0.00     0.000 C 
BRANCH   4   5
ATOM      5  C   UNL     1      35.103 105.981 268.735  1.00  0.00     0.000 C 
BRANCH   5   6
ATOM      6  C   UNL     1      35.814 105.579 270.037  1.00  0.00     0.006 C 
BRANCH   6   7
ATOM      7  C   UNL     1      36.707 106.694 270.595  1.00  0.00     0.053 C 
BRANCH   7   8
ATOM      8  C   UNL     1      38.080 106.172 270.874  1.00  0.00     0.041 C 
ATOM      9  O   UNL     1      39.093 106.857 270.573  1.00  0.00    -0.550 OA
ATOM     10  O   UNL     1      38.245 104.906 271.421  1.00  0.00    -0.550 OA
ENDBRANCH   7   8
ENDBRANCH   6   7
ENDBRANCH   5   6
ENDBRANCH   4   5
ENDBRANCH   3   4
ENDBRANCH   2   3
ENDBRANCH   1   2
BRANCH   1  11
ATOM     11  C   UNL     1      35.101 106.030 263.660  1.00  0.00     0.000 C 
BRANCH  11  12
ATOM     12  C   UNL     1      36.401 105.661 262.928  1.00  0.00    -0.000 C 
BRANCH  12  13
ATOM     13  C   UNL     1      36.133 105.381 261.442  1.00  0.00    -0.000 C 
BRANCH  13  14
ATOM     14  C   UNL     1      37.000 106.243 260.510  1.00  0.00    -0.000 C 
BRANCH  14  15
ATOM     15  C   UNL     1      38.074 105.426 259.776  1.00  0.00    -0.000 C 
BRANCH  15  16
ATOM     16  C   UNL     1      37.637 105.108 258.338  1.00  0.00    -0.000 C 
BRANCH  16  17
ATOM     17  C   UNL     1      36.177 105.501 258.065  1.00  0.00    -0.003 C 
ATOM     18  C   UNL     1      35.987 107.011 257.925  1.00  0.00     0.004 C 
ENDBRANCH  16  17
ENDBRANCH  15  16
ENDBRANCH  14  15
ENDBRANCH  13  14
ENDBRANCH  12  13
ENDBRANCH  11  12
ENDBRANCH   1  11
TORSDOF 14
ENDMDL
MODEL 4
REMARK VINA RESULT:    -0.897      2.332      3.600
REMARK INTER + INTRA:          -1.672
REMARK INTER:                  -0.606
REMARK INTRA:                  -1.066
REMARK UNBOUND:                -0.041
REMARK SMILES CCCCCCCCCCCCCCCC(=O)[O-]
REMARK SMILES IDX 9 1 10 2 11 3 12 4 13 5 14 6 15 7 16 8 17 9 18 10 8 11 7 12
REMARK SMILES IDX 6 13 5 14 4 15 3 16 2 17 1 18
REMARK H PARENT
REMARK Flexibility Score: inf
ROOT
ATOM      1  C   UNL     1      35.825 106.541 264.712  1.00  0.00     0.000 C 
ENDROOT
BRANCH   1   2
ATOM      2  C   UNL     1      34.876 107.202 265.727  1.00  0.00     0.000 C 
BRANCH   2   3
ATOM      3  C   UNL     1      35.643 107.978 266.818  1.00  0.00     0.000 C 
BRANCH   3   4
ATOM      4  C   UNL     1      35.041 107.818 268.226  1.00  0.00     0.000 C 
BRANCH   4   5
ATOM      5  C   UNL     1      34.891 106.348 268.648  1.00  0.00     0.000 C 
BRANCH   5   6
ATOM      6  C   UNL     1      35.789 105.982 269.841  1.00  0.00     0.006 C 
BRANCH   6   7
ATOM      7  C   UNL     1      37.092 106.791 269.873  1.00  0.00     0.053 C 
BRANCH   7   8
ATOM      8  C   UNL     1      38.024 106.237 270.903  1.00  0.00     0.041 C 
ATOM      9  O   UNL     1      38.962 106.945 271.355  1.00  0.00    -0.550 OA
ATOM     10  O   UNL     1      37.888 104.922 271.329  1.00  0.00    -0.550 OA
ENDBRANCH   7   8
ENDBRANCH   6   7
ENDBRANCH   5   6
ENDBRANCH   4   5
ENDBRANCH   3   4
ENDBRANCH   2   3
ENDBRANCH   1   2
BRANCH   1  11
ATOM     11  C   UNL     1      35.077 105.944 263.509  1.00  0.00     0.000 C 
BRANCH  11  12
ATOM     12  C   UNL     1      35.148 104.409 263.481  1.00  0.00    -0.000 C 
BRANCH  12  13
ATOM     13  C   UNL     1      35.420 103.898 262.058  1.00  0.00    -0.000 C 
BRANCH  13  14
ATOM     14  C   UNL     1      35.922 105.003 261.116  1.00  0.00    -0.000 C 
BRANCH  14  15
ATOM     15  C   UNL     1      37.077 104.536 260.216  1.00  0.00    -0.000 C 
BRANCH  15  16
ATOM     16  C   UNL     1      38.354 105.342 260.498  1.00  0.00    -0.000 C 
BRANCH  16  17
ATOM     17  C   UNL     1      38.181 106.337 261.657  1.00  0.00    -0.003 C 
ATOM     18  C   UNL     1      39.420 106.427 262.548  1.00  0.00     0.004 C 
ENDBRANCH  16  17
ENDBRANCH  15  16
ENDBRANCH  14  15
ENDBRANCH  13  14
ENDBRANCH  12  13
ENDBRANCH  11  12
ENDBRANCH   1  11
TORSDOF 14
ENDMDL
MODEL 5
REMARK VINA RESULT:    -0.766      4.268      8.405
REMARK INTER + INTRA:          -1.434
REMARK INTER:                  -1.890
REMARK INTRA:                   0.457
REMARK UNBOUND:                -0.041
REMARK SMILES CCCCCCCCCCCCCCCC(=O)[O-]
REMARK SMILES IDX 9 1 10 2 11 3 12 4 13 5 14 6 15 7 16 8 17 9 18 10 8 11 7 12
REMARK SMILES IDX 6 13 5 14 4 15 3 16 2 17 1 18
REMARK H PARENT
REMARK Flexibility Score: inf
ROOT
ATOM      1  C   UNL     1      37.796 106.513 263.173  1.00  0.00     0.000 C 
ENDROOT
BRANCH   1   2
ATOM      2  C   UNL     1      38.893 105.994 262.226  1.00  0.00     0.000 C 
BRANCH   2   3
ATOM      3  C   UNL     1      38.423 105.962 260.756  1.00  0.00     0.000 C 
BRANCH   3   4
ATOM      4  C   UNL     1      38.350 104.542 260.165  1.00  0.00     0.000 C 
BRANCH   4   5
ATOM      5  C   UNL     1      38.637 104.509 258.655  1.00  0.00     0.000 C 
BRANCH   5   6
ATOM      6  C   UNL     1      37.878 105.602 257.886  1.00  0.00     0.006 C 
BRANCH   6   7
ATOM      7  C   UNL     1      37.096 106.543 258.810  1.00  0.00     0.053 C 
BRANCH   7   8
ATOM      8  C   UNL     1      35.715 106.766 258.280  1.00  0.00     0.041 C 
ATOM      9  O   UNL     1      35.026 105.793 257.875  1.00  0.00    -0.550 OA
ATOM     10  O   UNL     1      35.206 108.055 258.187  1.00  0.00    -0.550 OA
ENDBRANCH   7   8
ENDBRANCH   6   7
ENDBRANCH   5   6
ENDBRANCH   4   5
ENDBRANCH   3   4
ENDBRANCH   2   3
ENDBRANCH   1   2
BRANCH   1  11
ATOM     11  C   UNL     1      36.394 106.436 262.547  1.00  0.00     0.000 C 
BRANCH  11  12
ATOM     12  C   UNL     1      35.307 106.121 263.587  1.00  0.00    -0.000 C 
BRANCH  12  13
ATOM     13  C   UNL     1      35.435 104.677 264.094  1.00  0.00    -0.000 C 
BRANCH  13  14
ATOM     14  C   UNL     1      34.876 104.495 265.514  1.00  0.00    -0.000 C 
BRANCH  14  15
ATOM     15  C   UNL     1      34.875 105.801 266.324  1.00  0.00    -0.000 C 
BRANCH  15  16
ATOM     16  C   UNL     1      35.082 105.521 267.820  1.00  0.00    -0.000 C 
BRANCH  16  17
ATOM     17  C   UNL     1      35.374 106.797 268.625  1.00  0.00    -0.003 C 
ATOM     18  C   UNL     1      34.973 108.070 267.881  1.00  0.00     0.004 C 
ENDBRANCH  16  17
ENDBRANCH  15  16
ENDBRANCH  14  15
ENDBRANCH  13  14
ENDBRANCH  12  13
ENDBRANCH  11  12
ENDBRANCH   1  11
TORSDOF 14
ENDMDL
MODEL 6
REMARK VINA RESULT:    -0.483      1.983      3.152
REMARK INTER + INTRA:          -0.920
REMARK INTER:                  -0.835
REMARK INTRA:                  -0.086
REMARK UNBOUND:                -0.041
REMARK SMILES CCCCCCCCCCCCCCCC(=O)[O-]
REMARK SMILES IDX 9 1 10 2 11 3 12 4 13 5 14 6 15 7 16 8 17 9 18 10 8 11 7 12
REMARK SMILES IDX 6 13 5 14 4 15 3 16 2 17 1 18
REMARK H PARENT
REMARK Flexibility Score: inf
ROOT
ATOM      1  C   UNL     1      35.854 104.778 264.941  1.00  0.00     0.000 C 
ENDROOT
BRANCH   1   2
ATOM      2  C   UNL     1      35.104 103.550 265.484  1.00  0.00     0.000 C 
BRANCH   2   3
ATOM      3  C   UNL     1      35.613 103.130 266.880  1.00  0.00     0.000 C 
BRANCH   3   4
ATOM      4  C   UNL     1      35.275 104.143 267.988  1.00  0.00     0.000 C 
BRANCH   4   5
ATOM      5  C   UNL     1      34.966 105.546 267.441  1.00  0.00     0.000 C 
BRANCH   5   6
ATOM      6  C   UNL     1      35.754 106.649 268.165  1.00  0.00     0.006 C 
BRANCH   6   7
ATOM      7  C   UNL     1      34.875 107.841 268.564  1.00  0.00     0.053 C 
BRANCH   7   8
ATOM      8  C   UNL     1      35.192 109.030 267.714  1.00  0.00     0.041 C 
ATOM      9  O   UNL     1      34.876 110.187 268.099  1.00  0.00    -0.550 OA
ATOM     10  O   UNL     1      35.791 108.858 266.473  1.00  0.00    -0.550 OA
ENDBRANCH   7   8
ENDBRANCH   6   7
ENDBRANCH   5   6
ENDBRANCH   4   5
ENDBRANCH   3   4
ENDBRANCH   2   3
ENDBRANCH   1   2
BRANCH   1  11
ATOM     11  C   UNL     1      34.979 105.643 264.019  1.00  0.00     0.000 C 
BRANCH  11  12
ATOM     12  C   UNL     1      35.786 106.286 262.882  1.00  0.00    -0.000 C 
BRANCH  12  13
ATOM     13  C   UNL     1      37.161 105.616 262.737  1.00  0.00    -0.000 C 
BRANCH  13  14
ATOM     14  C   UNL     1      38.059 106.319 261.706  1.00  0.00    -0.000 C 
BRANCH  14  15
ATOM     15  C   UNL     1      38.424 105.410 260.522  1.00  0.00    -0.000 C 
BRANCH  15  16
ATOM     16  C   UNL     1      37.881 105.981 259.204  1.00  0.00    -0.000 C 
BRANCH  16  17
ATOM     17  C   UNL     1      36.355 105.844 259.085  1.00  0.00    -0.003 C 
ATOM     18  C   UNL     1      35.707 107.036 258.381  1.00  0.00     0.004 C 
ENDBRANCH  16  17
ENDBRANCH  15  16
ENDBRANCH  14  15
ENDBRANCH  13  14
ENDBRANCH  12  13
ENDBRANCH  11  12
ENDBRANCH   1  11
TORSDOF 14
ENDMDL
MODEL 7
REMARK VINA RESULT:    -0.306      2.449      3.808
REMARK INTER + INTRA:          -0.598
REMARK INTER:                  -0.010
REMARK INTRA:                  -0.589
REMARK UNBOUND:                -0.041
REMARK SMILES CCCCCCCCCCCCCCCC(=O)[O-]
REMARK SMILES IDX 9 1 10 2 11 3 12 4 13 5 14 6 15 7 16 8 17 9 18 10 8 11 7 12
REMARK SMILES IDX 6 13 5 14 4 15 3 16 2 17 1 18
REMARK H PARENT
REMARK Flexibility Score: inf
ROOT
ATOM      1  C   UNL     1      35.680 107.180 265.744  1.00  0.00     0.000 C 
ENDROOT
BRANCH   1   2
ATOM      2  C   UNL     1      34.899 108.148 266.649  1.00  0.00     0.000 C 
BRANCH   2   3
ATOM      3  C   UNL     1      35.418 108.130 268.103  1.00  0.00     0.000 C 
BRANCH   3   4
ATOM      4  C   UNL     1      36.208 106.857 268.458  1.00  0.00     0.000 C 
BRANCH   4   5
ATOM      5  C   UNL     1      35.305 105.709 268.936  1.00  0.00     0.000 C 
BRANCH   5   6
ATOM      6  C   UNL     1      34.875 104.780 267.789  1.00  0.00     0.006 C 
BRANCH   6   7
ATOM      7  C   UNL     1      35.817 103.583 267.610  1.00  0.00     0.053 C 
BRANCH   7   8
ATOM      8  C   UNL     1      36.001 103.276 266.158  1.00  0.00     0.041 C 
ATOM      9  O   UNL     1      37.098 102.822 265.739  1.00  0.00    -0.550 OA
ATOM     10  O   UNL     1      34.977 103.538 265.257  1.00  0.00    -0.550 OA
ENDBRANCH   7   8
ENDBRANCH   6   7
ENDBRANCH   5   6
ENDBRANCH   4   5
ENDBRANCH   3   4
ENDBRANCH   2   3
ENDBRANCH   1   2
BRANCH   1  11
ATOM     11  C   UNL     1      35.316 107.338 264.259  1.00  0.00     0.000 C 
BRANCH  11  12
ATOM     12  C   UNL     1      35.647 106.081 263.440  1.00  0.00    -0.000 C 
BRANCH  12  13
ATOM     13  C   UNL     1      36.484 106.437 262.202  1.00  0.00    -0.000 C 
BRANCH  13  14
ATOM     14  C   UNL     1      36.740 105.226 261.291  1.00  0.00    -0.000 C 
BRANCH  14  15
ATOM     15  C   UNL     1      37.983 105.404 260.404  1.00  0.00    -0.000 C 
BRANCH  15  16
ATOM     16  C   UNL     1      37.654 105.112 258.932  1.00  0.00    -0.000 C 
BRANCH  16  17
ATOM     17  C   UNL     1      36.211 105.488 258.563  1.00  0.00    -0.003 C 
ATOM     18  C   UNL     1      36.083 106.928 258.067  1.00  0.00     0.004 C 
ENDBRANCH  16  17
ENDBRANCH  15  16
ENDBRANCH  14  15
ENDBRANCH  13  14
ENDBRANCH  12  13
ENDBRANCH  11  12
ENDBRANCH   1  11
TORSDOF 14
ENDMDL
