MODEL 1
REMARK VINA RESULT:    -5.000      0.000      0.000
REMARK INTER + INTRA:          -6.051
REMARK INTER:                  -5.877
REMARK INTRA:                  -0.174
REMARK UNBOUND:                -0.174
REMARK SMILES COc1ccc(C=CC(=O)[O-])cc1
REMARK SMILES IDX 6 1 5 2 12 3 4 4 13 5 3 6 7 7 8 8 9 9 10 10 11 11 2 12 1 13
REMARK H PARENT
REMARK Flexibility Score: inf
ROOT
ATOM      1  C   UNL     1       9.253 -16.592   7.868  1.00  0.00    -0.025 A 
ATOM      2  C   UNL     1       9.124 -17.765   7.107  1.00  0.00     0.012 A 
ATOM      3  C   UNL     1       8.163 -16.171   8.655  1.00  0.00     0.012 A 
ATOM      4  C   UNL     1       7.927 -18.488   7.107  1.00  0.00     0.047 A 
ATOM      5  C   UNL     1       6.967 -16.896   8.655  1.00  0.00     0.047 A 
ATOM      6  C   UNL     1       6.837 -18.055   7.883  1.00  0.00     0.118 A 
ENDROOT
BRANCH   1   7
ATOM      7  C   UNL     1      10.547 -15.866   7.842  1.00  0.00     0.010 C 
ATOM      8  C   UNL     1      11.742 -16.471   7.889  1.00  0.00     0.025 C 
BRANCH   8   9
ATOM      9  C   UNL     1      13.000 -15.709   7.872  1.00  0.00     0.064 C 
ATOM     10  O   UNL     1      12.986 -14.496   7.535  1.00  0.00    -0.545 OA
ATOM     11  O   UNL     1      14.206 -16.305   8.223  1.00  0.00    -0.545 OA
ENDBRANCH   8   9
ENDBRANCH   1   7
BRANCH   6  12
ATOM     12  O   UNL     1       5.616 -18.745   7.916  1.00  0.00    -0.497 OA
ATOM     13  C   UNL     1       4.817 -18.910   9.084  1.00  0.00     0.278 C 
ENDBRANCH   6  12
TORSDOF 3
ENDMDL
MODEL 2
REMARK VINA RESULT:    -4.954      0.193      1.356
REMARK INTER + INTRA:          -5.997
REMARK INTER:                  -5.834
REMARK INTRA:                  -0.163
REMARK UNBOUND:                -0.174
REMARK SMILES COc1ccc(C=CC(=O)[O-])cc1
REMARK SMILES IDX 6 1 5 2 12 3 4 4 13 5 3 6 7 7 8 8 9 9 10 10 11 11 2 12 1 13
REMARK H PARENT
REMARK Flexibility Score: inf
ROOT
ATOM      1  C   UNL     1       9.446 -16.634   7.826  1.00  0.00    -0.025 A 
ATOM      2  C   UNL     1       8.372 -16.149   8.590  1.00  0.00     0.012 A 
ATOM      3  C   UNL     1       9.261 -17.802   7.060  1.00  0.00     0.012 A 
ATOM      4  C   UNL     1       7.149 -16.826   8.612  1.00  0.00     0.047 A 
ATOM      5  C   UNL     1       8.037 -18.477   7.083  1.00  0.00     0.047 A 
ATOM      6  C   UNL     1       6.974 -18.000   7.857  1.00  0.00     0.118 A 
ENDROOT
BRANCH   1   7
ATOM      7  C   UNL     1      10.720 -15.874   7.828  1.00  0.00     0.010 C 
ATOM      8  C   UNL     1      11.929 -16.444   7.728  1.00  0.00     0.025 C 
BRANCH   8   9
ATOM      9  C   UNL     1      13.168 -15.650   7.747  1.00  0.00     0.064 C 
ATOM     10  O   UNL     1      13.122 -14.423   7.472  1.00  0.00    -0.545 OA
ATOM     11  O   UNL     1      14.390 -16.233   8.066  1.00  0.00    -0.545 OA
ENDBRANCH   8   9
ENDBRANCH   1   7
BRANCH   6  12
ATOM     12  O   UNL     1       5.768 -18.715   7.846  1.00  0.00    -0.497 OA
ATOM     13  C   UNL     1       4.866 -18.790   8.947  1.00  0.00     0.278 C 
ENDBRANCH   6  12
TORSDOF 3
ENDMDL
MODEL 3
REMARK VINA RESULT:    -4.546      1.355      6.358
REMARK INTER + INTRA:          -5.517
REMARK INTER:                  -5.341
REMARK INTRA:                  -0.176
REMARK UNBOUND:                -0.174
REMARK SMILES COc1ccc(C=CC(=O)[O-])cc1
REMARK SMILES IDX 6 1 5 2 12 3 4 4 13 5 3 6 7 7 8 8 9 9 10 10 11 11 2 12 1 13
REMARK H PARENT
REMARK Flexibility Score: inf
ROOT
ATOM      1  C   UNL     1      10.162 -17.737   7.704  1.00  0.00    -0.025 A 
ATOM      2  C   UNL     1      10.334 -16.379   8.017  1.00  0.00     0.012 A 
ATOM      3  C   UNL     1      11.247 -18.450   7.157  1.00  0.00     0.012 A 
ATOM      4  C   UNL     1      11.551 -15.738   7.768  1.00  0.00     0.047 A 
ATOM      5  C   UNL     1      12.463 -17.807   6.909  1.00  0.00     0.047 A 
ATOM      6  C   UNL     1      12.627 -16.450   7.208  1.00  0.00     0.118 A 
ENDROOT
BRANCH   1   7
ATOM      7  C   UNL     1       8.854 -18.374   7.997  1.00  0.00     0.010 C 
ATOM      8  C   UNL     1       7.742 -17.689   8.298  1.00  0.00     0.025 C 
BRANCH   8   9
ATOM      9  C   UNL     1       6.469 -18.365   8.593  1.00  0.00     0.064 C 
ATOM     10  O   UNL     1       5.737 -18.752   7.645  1.00  0.00    -0.545 OA
ATOM     11  O   UNL     1       6.060 -18.584   9.904  1.00  0.00    -0.545 OA
ENDBRANCH   8   9
ENDBRANCH   1   7
BRANCH   6  12
ATOM     12  O   UNL     1      13.866 -15.852   6.938  1.00  0.00    -0.497 OA
ATOM     13  C   UNL     1      14.265 -14.573   7.422  1.00  0.00     0.278 C 
ENDBRANCH   6  12
TORSDOF 3
ENDMDL
MODEL 4
REMARK VINA RESULT:    -4.517      1.204      6.259
REMARK INTER + INTRA:          -5.483
REMARK INTER:                  -5.314
REMARK INTRA:                  -0.170
REMARK UNBOUND:                -0.174
REMARK SMILES COc1ccc(C=CC(=O)[O-])cc1
REMARK SMILES IDX 6 1 5 2 12 3 4 4 13 5 3 6 7 7 8 8 9 9 10 10 11 11 2 12 1 13
REMARK H PARENT
REMARK Flexibility Score: inf
ROOT
ATOM      1  C   UNL     1      10.006 -17.529   7.495  1.00  0.00    -0.025 A 
ATOM      2  C   UNL     1      11.053 -18.340   7.027  1.00  0.00     0.012 A 
ATOM      3  C   UNL     1      10.300 -16.213   7.905  1.00  0.00     0.012 A 
ATOM      4  C   UNL     1      12.366 -17.863   6.993  1.00  0.00     0.047 A 
ATOM      5  C   UNL     1      11.614 -15.737   7.870  1.00  0.00     0.047 A 
ATOM      6  C   UNL     1      12.656 -16.553   7.418  1.00  0.00     0.118 A 
ENDROOT
BRANCH   1   7
ATOM      7  C   UNL     1       8.628 -18.079   7.502  1.00  0.00     0.010 C 
ATOM      8  C   UNL     1       7.618 -17.550   8.206  1.00  0.00     0.025 C 
BRANCH   8   9
ATOM      9  C   UNL     1       6.269 -18.138   8.191  1.00  0.00     0.064 C 
ATOM     10  O   UNL     1       6.030 -19.124   7.447  1.00  0.00    -0.545 OA
ATOM     11  O   UNL     1       5.253 -17.622   8.988  1.00  0.00    -0.545 OA
ENDBRANCH   8   9
ENDBRANCH   1   7
BRANCH   6  12
ATOM     12  O   UNL     1      13.957 -16.028   7.404  1.00  0.00    -0.497 OA
ATOM     13  C   UNL     1      14.265 -14.645   7.255  1.00  0.00     0.278 C 
ENDBRANCH   6  12
TORSDOF 3
ENDMDL
MODEL 5
REMARK VINA RESULT:    -4.471      1.197      1.308
REMARK INTER + INTRA:          -5.430
REMARK INTER:                  -5.255
REMARK INTRA:                  -0.174
REMARK UNBOUND:                -0.174
REMARK SMILES COc1ccc(C=CC(=O)[O-])cc1
REMARK SMILES IDX 6 1 5 2 12 3 4 4 13 5 3 6 7 7 8 8 9 9 10 10 11 11 2 12 1 13
REMARK H PARENT
REMARK Flexibility Score: inf
ROOT
ATOM      1  C   UNL     1       9.773 -17.272   7.658  1.00  0.00    -0.025 A 
ATOM      2  C   UNL     1       9.315 -18.526   7.223  1.00  0.00     0.012 A 
ATOM      3  C   UNL     1       8.855 -16.384   8.254  1.00  0.00     0.012 A 
ATOM      4  C   UNL     1       7.969 -18.880   7.354  1.00  0.00     0.047 A 
ATOM      5  C   UNL     1       7.509 -16.741   8.385  1.00  0.00     0.047 A 
ATOM      6  C   UNL     1       7.054 -17.985   7.937  1.00  0.00     0.118 A 
ENDROOT
BRANCH   1   7
ATOM      7  C   UNL     1      11.213 -16.948   7.505  1.00  0.00     0.010 C 
ATOM      8  C   UNL     1      12.131 -17.821   7.069  1.00  0.00     0.025 C 
BRANCH   8   9
ATOM      9  C   UNL     1      13.551 -17.459   6.944  1.00  0.00     0.064 C 
ATOM     10  O   UNL     1      13.870 -16.256   6.754  1.00  0.00    -0.545 OA
ATOM     11  O   UNL     1      14.549 -18.423   7.034  1.00  0.00    -0.545 OA
ENDBRANCH   8   9
ENDBRANCH   1   7
BRANCH   6  12
ATOM     12  O   UNL     1       5.694 -18.292   8.090  1.00  0.00    -0.497 OA
ATOM     13  C   UNL     1       5.116 -18.816   9.282  1.00  0.00     0.278 C 
ENDBRANCH   6  12
TORSDOF 3
ENDMDL
MODEL 6
REMARK VINA RESULT:    -4.189      1.271      6.255
REMARK INTER + INTRA:          -5.098
REMARK INTER:                  -4.926
REMARK INTRA:                  -0.172
REMARK UNBOUND:                -0.174
REMARK SMILES COc1ccc(C=CC(=O)[O-])cc1
REMARK SMILES IDX 6 1 5 2 12 3 4 4 13 5 3 6 7 7 8 8 9 9 10 10 11 11 2 12 1 13
REMARK H PARENT
REMARK Flexibility Score: inf
ROOT
ATOM      1  C   UNL     1       8.896 -17.371   8.189  1.00  0.00    -0.025 A 
ATOM      2  C   UNL     1       9.728 -18.486   8.385  1.00  0.00     0.012 A 
ATOM      3  C   UNL     1       9.489 -16.123   7.916  1.00  0.00     0.012 A 
ATOM      4  C   UNL     1      11.119 -18.356   8.337  1.00  0.00     0.047 A 
ATOM      5  C   UNL     1      10.880 -15.995   7.868  1.00  0.00     0.047 A 
ATOM      6  C   UNL     1      11.706 -17.104   8.079  1.00  0.00     0.118 A 
ENDROOT
BRANCH   1   7
ATOM      7  C   UNL     1       7.426 -17.564   8.240  1.00  0.00     0.010 C 
ATOM      8  C   UNL     1       6.837 -18.728   8.549  1.00  0.00     0.025 C 
BRANCH   8   9
ATOM      9  C   UNL     1       5.373 -18.876   8.576  1.00  0.00     0.064 C 
ATOM     10  O   UNL     1       4.755 -19.125   7.508  1.00  0.00    -0.545 OA
ATOM     11  O   UNL     1       4.660 -18.746   9.763  1.00  0.00    -0.545 OA
ENDBRANCH   8   9
ENDBRANCH   1   7
BRANCH   6  12
ATOM     12  O   UNL     1      13.095 -16.921   8.022  1.00  0.00    -0.497 OA
ATOM     13  C   UNL     1      13.854 -16.892   6.817  1.00  0.00     0.278 C 
ENDBRANCH   6  12
TORSDOF 3
ENDMDL
MODEL 7
REMARK VINA RESULT:    -4.131      1.891      6.117
REMARK INTER + INTRA:          -5.030
REMARK INTER:                  -4.864
REMARK INTRA:                  -0.166
REMARK UNBOUND:                -0.174
REMARK SMILES COc1ccc(C=CC(=O)[O-])cc1
REMARK SMILES IDX 6 1 5 2 12 3 4 4 13 5 3 6 7 7 8 8 9 9 10 10 11 11 2 12 1 13
REMARK H PARENT
REMARK Flexibility Score: inf
ROOT
ATOM      1  C   UNL     1      10.332 -16.833   8.244  1.00  0.00    -0.025 A 
ATOM      2  C   UNL     1      11.203 -15.850   7.748  1.00  0.00     0.012 A 
ATOM      3  C   UNL     1      10.828 -18.134   8.456  1.00  0.00     0.012 A 
ATOM      4  C   UNL     1      12.532 -16.161   7.444  1.00  0.00     0.047 A 
ATOM      5  C   UNL     1      12.157 -18.443   8.152  1.00  0.00     0.047 A 
ATOM      6  C   UNL     1      13.018 -17.466   7.644  1.00  0.00     0.118 A 
ENDROOT
BRANCH   1   7
ATOM      7  C   UNL     1       8.934 -16.450   8.560  1.00  0.00     0.010 C 
ATOM      8  C   UNL     1       7.886 -17.274   8.424  1.00  0.00     0.025 C 
BRANCH   8   9
ATOM      9  C   UNL     1       6.514 -16.846   8.739  1.00  0.00     0.064 C 
ATOM     10  O   UNL     1       6.246 -15.618   8.800  1.00  0.00    -0.545 OA
ATOM     11  O   UNL     1       5.506 -17.776   8.970  1.00  0.00    -0.545 OA
ENDBRANCH   8   9
ENDBRANCH   1   7
BRANCH   6  12
ATOM     12  O   UNL     1      14.342 -17.828   7.353  1.00  0.00    -0.497 OA
ATOM     13  C   UNL     1      14.740 -19.116   6.891  1.00  0.00     0.278 C 
ENDBRANCH   6  12
TORSDOF 3
ENDMDL
MODEL 8
REMARK VINA RESULT:    -2.140      1.547      2.368
REMARK INTER + INTRA:          -2.689
REMARK INTER:                  -2.534
REMARK INTRA:                  -0.155
REMARK UNBOUND:                -0.174
REMARK SMILES COc1ccc(C=CC(=O)[O-])cc1
REMARK SMILES IDX 6 1 5 2 12 3 4 4 13 5 3 6 7 7 8 8 9 9 10 10 11 11 2 12 1 13
REMARK H PARENT
REMARK Flexibility Score: inf
ROOT
ATOM      1  C   UNL     1       8.745 -18.307   8.092  1.00  0.00    -0.025 A 
ATOM      2  C   UNL     1       8.208 -17.361   8.981  1.00  0.00     0.012 A 
ATOM      3  C   UNL     1       7.863 -19.125   7.358  1.00  0.00     0.012 A 
ATOM      4  C   UNL     1       6.826 -17.251   9.157  1.00  0.00     0.047 A 
ATOM      5  C   UNL     1       6.481 -19.012   7.535  1.00  0.00     0.047 A 
ATOM      6  C   UNL     1       5.950 -18.080   8.433  1.00  0.00     0.118 A 
ENDROOT
BRANCH   1   7
ATOM      7  C   UNL     1      10.219 -18.378   7.934  1.00  0.00     0.010 C 
ATOM      8  C   UNL     1      10.905 -17.674   7.023  1.00  0.00     0.025 C 
BRANCH   8   9
ATOM      9  C   UNL     1      12.367 -17.786   6.895  1.00  0.00     0.064 C 
ATOM     10  O   UNL     1      12.874 -18.868   6.501  1.00  0.00    -0.545 OA
ATOM     11  O   UNL     1      13.198 -16.714   7.202  1.00  0.00    -0.545 OA
ENDBRANCH   8   9
ENDBRANCH   1   7
BRANCH   6  12
ATOM     12  O   UNL     1       4.556 -18.009   8.574  1.00  0.00    -0.497 OA
ATOM     13  C   UNL     1       3.777 -18.927   9.336  1.00  0.00     0.278 C 
ENDBRANCH   6  12
TORSDOF 3
ENDMDL
