MODEL 1
REMARK VINA RESULT:    -3.654      0.000      0.000
REMARK INTER + INTRA:          -5.242
REMARK INTER:                  -4.936
REMARK INTRA:                  -0.306
REMARK UNBOUND:                -0.306
REMARK SMILES CCCCCCCC(=O)[O-]
REMARK SMILES IDX 5 1 6 2 7 3 8 4 9 5 10 6 4 7 3 8 2 9 1 10
REMARK H PARENT
REMARK Flexibility Score: inf
ROOT
ATOM      1  C   UNL     1      29.366  -0.745  46.317  1.00  0.00     0.000 C 
ENDROOT
BRANCH   1   2
ATOM      2  C   UNL     1      30.681  -1.379  45.847  1.00  0.00     0.006 C 
BRANCH   2   3
ATOM      3  C   UNL     1      30.488  -2.133  44.528  1.00  0.00     0.053 C 
BRANCH   3   4
ATOM      4  C   UNL     1      30.937  -1.294  43.375  1.00  0.00     0.041 C 
ATOM      5  O   UNL     1      30.162  -1.083  42.405  1.00  0.00    -0.550 OA
ATOM      6  O   UNL     1      32.229  -0.783  43.347  1.00  0.00    -0.550 OA
ENDBRANCH   3   4
ENDBRANCH   2   3
ENDBRANCH   1   2
BRANCH   1   7
ATOM      7  C   UNL     1      28.178  -1.277  45.507  1.00  0.00     0.000 C 
BRANCH   7   8
ATOM      8  C   UNL     1      27.169  -1.991  46.413  1.00  0.00    -0.000 C 
BRANCH   8   9
ATOM      9  C   UNL     1      27.695  -3.364  46.849  1.00  0.00    -0.003 C 
ATOM     10  C   UNL     1      26.824  -3.964  47.948  1.00  0.00     0.004 C 
ENDBRANCH   8   9
ENDBRANCH   7   8
ENDBRANCH   1   7
TORSDOF 6
ENDMDL
MODEL 2
REMARK VINA RESULT:    -3.589      0.887      1.373
REMARK INTER + INTRA:          -5.153
REMARK INTER:                  -4.915
REMARK INTRA:                  -0.239
REMARK UNBOUND:                -0.306
REMARK SMILES CCCCCCCC(=O)[O-]
REMARK SMILES IDX 5 1 6 2 7 3 8 4 9 5 10 6 4 7 3 8 2 9 1 10
REMARK H PARENT
REMARK Flexibility Score: inf
ROOT
ATOM      1  C   UNL     1      30.067  -2.026  46.231  1.00  0.00     0.000 C 
ENDROOT
BRANCH   1   2
ATOM      2  C   UNL     1      30.654  -2.494  44.894  1.00  0.00     0.006 C 
BRANCH   2   3
ATOM      3  C   UNL     1      31.284  -1.325  44.131  1.00  0.00     0.053 C 
BRANCH   3   4
ATOM      4  C   UNL     1      30.582  -1.112  42.828  1.00  0.00     0.041 C 
ATOM      5  O   UNL     1      31.165  -0.518  41.883  1.00  0.00    -0.550 OA
ATOM      6  O   UNL     1      29.264  -1.525  42.671  1.00  0.00    -0.550 OA
ENDBRANCH   3   4
ENDBRANCH   2   3
ENDBRANCH   1   2
BRANCH   1   7
ATOM      7  C   UNL     1      28.853  -1.114  46.010  1.00  0.00     0.000 C 
BRANCH   7   8
ATOM      8  C   UNL     1      27.547  -1.915  46.054  1.00  0.00    -0.000 C 
BRANCH   8   9
ATOM      9  C   UNL     1      27.766  -3.291  46.694  1.00  0.00    -0.003 C 
ATOM     10  C   UNL     1      26.683  -3.599  47.723  1.00  0.00     0.004 C 
ENDBRANCH   8   9
ENDBRANCH   7   8
ENDBRANCH   1   7
TORSDOF 6
ENDMDL
MODEL 3
REMARK VINA RESULT:    -3.555      1.885      2.264
REMARK INTER + INTRA:          -5.108
REMARK INTER:                  -4.736
REMARK INTRA:                  -0.372
REMARK UNBOUND:                -0.306
REMARK SMILES CCCCCCCC(=O)[O-]
REMARK SMILES IDX 5 1 6 2 7 3 8 4 9 5 10 6 4 7 3 8 2 9 1 10
REMARK H PARENT
REMARK Flexibility Score: inf
ROOT
ATOM      1  C   UNL     1      29.940  -1.167  45.392  1.00  0.00     0.000 C 
ENDROOT
BRANCH   1   2
ATOM      2  C   UNL     1      30.522  -1.839  44.143  1.00  0.00     0.006 C 
BRANCH   2   3
ATOM      3  C   UNL     1      30.060  -1.125  42.869  1.00  0.00     0.053 C 
BRANCH   3   4
ATOM      4  C   UNL     1      28.591  -1.314  42.665  1.00  0.00     0.041 C 
ATOM      5  O   UNL     1      28.076  -2.457  42.790  1.00  0.00    -0.550 OA
ATOM      6  O   UNL     1      27.796  -0.239  42.289  1.00  0.00    -0.550 OA
ENDBRANCH   3   4
ENDBRANCH   2   3
ENDBRANCH   1   2
BRANCH   1   7
ATOM      7  C   UNL     1      29.692  -2.192  46.505  1.00  0.00     0.000 C 
BRANCH   7   8
ATOM      8  C   UNL     1      28.524  -3.119  46.151  1.00  0.00    -0.000 C 
BRANCH   8   9
ATOM      9  C   UNL     1      27.180  -2.463  46.487  1.00  0.00    -0.003 C 
ATOM     10  C   UNL     1      26.409  -3.282  47.517  1.00  0.00     0.004 C 
ENDBRANCH   8   9
ENDBRANCH   7   8
ENDBRANCH   1   7
TORSDOF 6
ENDMDL
MODEL 4
REMARK VINA RESULT:    -3.452      3.196      4.685
REMARK INTER + INTRA:          -4.968
REMARK INTER:                  -4.571
REMARK INTRA:                  -0.398
REMARK UNBOUND:                -0.306
REMARK SMILES CCCCCCCC(=O)[O-]
REMARK SMILES IDX 5 1 6 2 7 3 8 4 9 5 10 6 4 7 3 8 2 9 1 10
REMARK H PARENT
REMARK Flexibility Score: inf
ROOT
ATOM      1  C   UNL     1      29.947  -1.206  45.509  1.00  0.00     0.000 C 
ENDROOT
BRANCH   1   2
ATOM      2  C   UNL     1      29.678  -2.323  46.525  1.00  0.00     0.006 C 
BRANCH   2   3
ATOM      3  C   UNL     1      28.672  -3.337  45.972  1.00  0.00     0.053 C 
BRANCH   3   4
ATOM      4  C   UNL     1      27.410  -3.313  46.774  1.00  0.00     0.041 C 
ATOM      5  O   UNL     1      26.689  -2.281  46.791  1.00  0.00    -0.550 OA
ATOM      6  O   UNL     1      27.052  -4.414  47.542  1.00  0.00    -0.550 OA
ENDBRANCH   3   4
ENDBRANCH   2   3
ENDBRANCH   1   2
BRANCH   1   7
ATOM      7  C   UNL     1      30.781  -1.722  44.330  1.00  0.00     0.000 C 
BRANCH   7   8
ATOM      8  C   UNL     1      30.188  -1.264  42.993  1.00  0.00    -0.000 C 
BRANCH   8   9
ATOM      9  C   UNL     1      28.660  -1.174  43.071  1.00  0.00    -0.003 C 
ATOM     10  C   UNL     1      28.002  -2.000  41.970  1.00  0.00     0.004 C 
ENDBRANCH   8   9
ENDBRANCH   7   8
ENDBRANCH   1   7
TORSDOF 6
ENDMDL
MODEL 5
REMARK VINA RESULT:    -3.428      2.776      4.846
REMARK INTER + INTRA:          -4.936
REMARK INTER:                  -4.509
REMARK INTRA:                  -0.427
REMARK UNBOUND:                -0.306
REMARK SMILES CCCCCCCC(=O)[O-]
REMARK SMILES IDX 5 1 6 2 7 3 8 4 9 5 10 6 4 7 3 8 2 9 1 10
REMARK H PARENT
REMARK Flexibility Score: inf
ROOT
ATOM      1  C   UNL     1      29.333  -0.827  46.314  1.00  0.00     0.000 C 
ENDROOT
BRANCH   1   2
ATOM      2  C   UNL     1      28.173  -1.413  45.499  1.00  0.00     0.006 C 
BRANCH   2   3
ATOM      3  C   UNL     1      27.083  -1.973  46.417  1.00  0.00     0.053 C 
BRANCH   3   4
ATOM      4  C   UNL     1      27.437  -3.355  46.867  1.00  0.00     0.041 C 
ATOM      5  O   UNL     1      27.002  -3.795  47.963  1.00  0.00    -0.550 OA
ATOM      6  O   UNL     1      28.286  -4.140  46.097  1.00  0.00    -0.550 OA
ENDBRANCH   3   4
ENDBRANCH   2   3
ENDBRANCH   1   2
BRANCH   1   7
ATOM      7  C   UNL     1      30.680  -1.376  45.828  1.00  0.00     0.000 C 
BRANCH   7   8
ATOM      8  C   UNL     1      30.535  -2.067  44.468  1.00  0.00    -0.000 C 
BRANCH   8   9
ATOM      9  C   UNL     1      31.077  -1.183  43.340  1.00  0.00    -0.003 C 
ATOM     10  C   UNL     1      30.060  -1.042  42.212  1.00  0.00     0.004 C 
ENDBRANCH   8   9
ENDBRANCH   7   8
ENDBRANCH   1   7
TORSDOF 6
ENDMDL
MODEL 6
REMARK VINA RESULT:    -3.421     12.906     14.393
REMARK INTER + INTRA:          -4.927
REMARK INTER:                  -4.452
REMARK INTRA:                  -0.475
REMARK UNBOUND:                -0.306
REMARK SMILES CCCCCCCC(=O)[O-]
REMARK SMILES IDX 5 1 6 2 7 3 8 4 9 5 10 6 4 7 3 8 2 9 1 10
REMARK H PARENT
REMARK Flexibility Score: inf
ROOT
ATOM      1  C   UNL     1      22.348 -11.522  44.413  1.00  0.00     0.000 C 
ENDROOT
BRANCH   1   2
ATOM      2  C   UNL     1      21.850 -11.543  45.863  1.00  0.00     0.006 C 
BRANCH   2   3
ATOM      3  C   UNL     1      20.371 -11.154  45.942  1.00  0.00     0.053 C 
BRANCH   3   4
ATOM      4  C   UNL     1      19.733 -11.768  47.148  1.00  0.00     0.041 C 
ATOM      5  O   UNL     1      19.344 -11.040  48.098  1.00  0.00    -0.550 OA
ATOM      6  O   UNL     1      19.610 -13.149  47.243  1.00  0.00    -0.550 OA
ENDBRANCH   3   4
ENDBRANCH   2   3
ENDBRANCH   1   2
BRANCH   1   7
ATOM      7  C   UNL     1      22.683 -12.936  43.925  1.00  0.00     0.000 C 
BRANCH   7   8
ATOM      8  C   UNL     1      21.509 -13.546  43.150  1.00  0.00    -0.000 C 
BRANCH   8   9
ATOM      9  C   UNL     1      20.684 -14.478  44.045  1.00  0.00    -0.003 C 
ATOM     10  C   UNL     1      19.198 -14.385  43.717  1.00  0.00     0.004 C 
ENDBRANCH   8   9
ENDBRANCH   7   8
ENDBRANCH   1   7
TORSDOF 6
ENDMDL
MODEL 7
REMARK VINA RESULT:    -3.318     12.476     14.572
REMARK INTER + INTRA:          -4.788
REMARK INTER:                  -4.338
REMARK INTRA:                  -0.450
REMARK UNBOUND:                -0.306
REMARK SMILES CCCCCCCC(=O)[O-]
REMARK SMILES IDX 5 1 6 2 7 3 8 4 9 5 10 6 4 7 3 8 2 9 1 10
REMARK H PARENT
REMARK Flexibility Score: inf
ROOT
ATOM      1  C   UNL     1      22.227 -13.182  43.706  1.00  0.00     0.000 C 
ENDROOT
BRANCH   1   2
ATOM      2  C   UNL     1      20.733 -13.328  44.018  1.00  0.00     0.006 C 
BRANCH   2   3
ATOM      3  C   UNL     1      20.428 -14.707  44.611  1.00  0.00     0.053 C 
BRANCH   3   4
ATOM      4  C   UNL     1      20.011 -14.581  46.042  1.00  0.00     0.041 C 
ATOM      5  O   UNL     1      20.436 -13.627  46.744  1.00  0.00    -0.550 OA
ATOM      6  O   UNL     1      19.190 -15.545  46.614  1.00  0.00    -0.550 OA
ENDBRANCH   3   4
ENDBRANCH   2   3
ENDBRANCH   1   2
BRANCH   1   7
ATOM      7  C   UNL     1      22.840 -12.010  44.482  1.00  0.00     0.000 C 
BRANCH   7   8
ATOM      8  C   UNL     1      21.758 -11.023  44.935  1.00  0.00    -0.000 C 
BRANCH   8   9
ATOM      9  C   UNL     1      21.811  -9.731  44.112  1.00  0.00    -0.003 C 
ATOM     10  C   UNL     1      20.633  -9.644  43.146  1.00  0.00     0.004 C 
ENDBRANCH   8   9
ENDBRANCH   7   8
ENDBRANCH   1   7
TORSDOF 6
ENDMDL
MODEL 8
REMARK VINA RESULT:    -3.236     11.686     13.817
REMARK INTER + INTRA:          -4.677
REMARK INTER:                  -4.123
REMARK INTRA:                  -0.555
REMARK UNBOUND:                -0.306
REMARK SMILES CCCCCCCC(=O)[O-]
REMARK SMILES IDX 5 1 6 2 7 3 8 4 9 5 10 6 4 7 3 8 2 9 1 10
REMARK H PARENT
REMARK Flexibility Score: inf
ROOT
ATOM      1  C   UNL     1      19.796 -12.768  46.462  1.00  0.00     0.000 C 
ENDROOT
BRANCH   1   2
ATOM      2  C   UNL     1      20.447 -11.380  46.422  1.00  0.00     0.006 C 
BRANCH   2   3
ATOM      3  C   UNL     1      20.317 -10.752  45.031  1.00  0.00     0.053 C 
BRANCH   3   4
ATOM      4  C   UNL     1      21.667 -10.434  44.472  1.00  0.00     0.041 C 
ATOM      5  O   UNL     1      21.853  -9.364  43.835  1.00  0.00    -0.550 OA
ATOM      6  O   UNL     1      22.710 -11.342  44.613  1.00  0.00    -0.550 OA
ENDBRANCH   3   4
ENDBRANCH   2   3
ENDBRANCH   1   2
BRANCH   1   7
ATOM      7  C   UNL     1      20.825 -13.868  46.173  1.00  0.00     0.000 C 
BRANCH   7   8
ATOM      8  C   UNL     1      20.237 -14.943  45.252  1.00  0.00    -0.000 C 
BRANCH   8   9
ATOM      9  C   UNL     1      19.942 -14.374  43.860  1.00  0.00    -0.003 C 
ATOM     10  C   UNL     1      21.230 -14.001  43.132  1.00  0.00     0.004 C 
ENDBRANCH   8   9
ENDBRANCH   7   8
ENDBRANCH   1   7
TORSDOF 6
ENDMDL
MODEL 9
REMARK VINA RESULT:    -3.203     11.217     12.942
REMARK INTER + INTRA:          -4.633
REMARK INTER:                  -4.281
REMARK INTRA:                  -0.352
REMARK UNBOUND:                -0.306
REMARK SMILES CCCCCCCC(=O)[O-]
REMARK SMILES IDX 5 1 6 2 7 3 8 4 9 5 10 6 4 7 3 8 2 9 1 10
REMARK H PARENT
REMARK Flexibility Score: inf
ROOT
ATOM      1  C   UNL     1      21.892 -11.981  45.473  1.00  0.00     0.000 C 
ENDROOT
BRANCH   1   2
ATOM      2  C   UNL     1      21.100 -10.740  45.047  1.00  0.00     0.006 C 
BRANCH   2   3
ATOM      3  C   UNL     1      21.950  -9.821  44.165  1.00  0.00     0.053 C 
BRANCH   3   4
ATOM      4  C   UNL     1      21.078  -9.008  43.262  1.00  0.00     0.041 C 
ATOM      5  O   UNL     1      20.751  -9.451  42.129  1.00  0.00    -0.550 OA
ATOM      6  O   UNL     1      20.665  -7.739  43.651  1.00  0.00    -0.550 OA
ENDBRANCH   3   4
ENDBRANCH   2   3
ENDBRANCH   1   2
BRANCH   1   7
ATOM      7  C   UNL     1      22.692 -12.554  44.297  1.00  0.00     0.000 C 
BRANCH   7   8
ATOM      8  C   UNL     1      21.793 -13.377  43.367  1.00  0.00    -0.000 C 
BRANCH   8   9
ATOM      9  C   UNL     1      20.887 -14.318  44.169  1.00  0.00    -0.003 C 
ATOM     10  C   UNL     1      19.500 -14.416  43.541  1.00  0.00     0.004 C 
ENDBRANCH   8   9
ENDBRANCH   7   8
ENDBRANCH   1   7
TORSDOF 6
ENDMDL
