MODEL 1
REMARK VINA RESULT:    -3.232      0.000      0.000
REMARK INTER + INTRA:          -5.089
REMARK INTER:                  -4.555
REMARK INTRA:                  -0.533
REMARK UNBOUND:                -0.533
REMARK SMILES CCCCCCCCC(=O)[O-]
REMARK SMILES IDX 6 1 7 2 8 3 9 4 10 5 11 6 5 7 4 8 3 9 2 10 1 11
REMARK H PARENT
REMARK Flexibility Score: inf
ROOT
ATOM      1  C   UNL     1      25.780 159.384 118.838  1.00  0.00     0.000 C 
ENDROOT
BRANCH   1   2
ATOM      2  C   UNL     1      26.000 158.186 119.776  1.00  0.00     0.006 C 
BRANCH   2   3
ATOM      3  C   UNL     1      25.586 156.854 119.138  1.00  0.00     0.053 C 
BRANCH   3   4
ATOM      4  C   UNL     1      26.165 155.706 119.903  1.00  0.00     0.041 C 
ATOM      5  O   UNL     1      26.335 154.592 119.341  1.00  0.00    -0.550 OA
ATOM      6  O   UNL     1      26.470 155.851 121.249  1.00  0.00    -0.550 OA
ENDBRANCH   3   4
ENDBRANCH   2   3
ENDBRANCH   1   2
BRANCH   1   7
ATOM      7  C   UNL     1      25.793 158.981 117.353  1.00  0.00     0.000 C 
BRANCH   7   8
ATOM      8  C   UNL     1      26.810 159.790 116.533  1.00  0.00    -0.000 C 
BRANCH   8   9
ATOM      9  C   UNL     1      27.686 160.699 117.411  1.00  0.00    -0.000 C 
BRANCH   9  10
ATOM     10  C   UNL     1      29.136 160.201 117.513  1.00  0.00    -0.003 C 
ATOM     11  C   UNL     1      29.642 160.144 118.954  1.00  0.00     0.004 C 
ENDBRANCH   9  10
ENDBRANCH   8   9
ENDBRANCH   7   8
ENDBRANCH   1   7
TORSDOF 7
ENDMDL
MODEL 2
REMARK VINA RESULT:    -3.167      2.874      4.744
REMARK INTER + INTRA:          -4.997
REMARK INTER:                  -4.580
REMARK INTRA:                  -0.417
REMARK UNBOUND:                -0.533
REMARK SMILES CCCCCCCCC(=O)[O-]
REMARK SMILES IDX 6 1 7 2 8 3 9 4 10 5 11 6 5 7 4 8 3 9 2 10 1 11
REMARK H PARENT
REMARK Flexibility Score: inf
ROOT
ATOM      1  C   UNL     1      26.428 159.184 116.858  1.00  0.00     0.000 C 
ENDROOT
BRANCH   1   2
ATOM      2  C   UNL     1      27.362 159.777 117.925  1.00  0.00     0.006 C 
BRANCH   2   3
ATOM      3  C   UNL     1      28.604 160.443 117.317  1.00  0.00     0.053 C 
BRANCH   3   4
ATOM      4  C   UNL     1      29.819 160.122 118.128  1.00  0.00     0.041 C 
ATOM      5  O   UNL     1      30.942 160.009 117.570  1.00  0.00    -0.550 OA
ATOM      6  O   UNL     1      29.704 159.898 119.494  1.00  0.00    -0.550 OA
ENDBRANCH   3   4
ENDBRANCH   2   3
ENDBRANCH   1   2
BRANCH   1   7
ATOM      7  C   UNL     1      25.624 157.980 117.380  1.00  0.00     0.000 C 
BRANCH   7   8
ATOM      8  C   UNL     1      25.732 157.815 118.904  1.00  0.00    -0.000 C 
BRANCH   8   9
ATOM      9  C   UNL     1      25.612 156.347 119.348  1.00  0.00    -0.000 C 
BRANCH   9  10
ATOM     10  C   UNL     1      26.500 156.025 120.560  1.00  0.00    -0.003 C 
ATOM     11  C   UNL     1      27.345 157.217 121.007  1.00  0.00     0.004 C 
ENDBRANCH   9  10
ENDBRANCH   8   9
ENDBRANCH   7   8
ENDBRANCH   1   7
TORSDOF 7
ENDMDL
MODEL 3
REMARK VINA RESULT:    -3.155      3.044      5.184
REMARK INTER + INTRA:          -4.979
REMARK INTER:                  -4.725
REMARK INTRA:                  -0.254
REMARK UNBOUND:                -0.533
REMARK SMILES CCCCCCCCC(=O)[O-]
REMARK SMILES IDX 6 1 7 2 8 3 9 4 10 5 11 6 5 7 4 8 3 9 2 10 1 11
REMARK H PARENT
REMARK Flexibility Score: inf
ROOT
ATOM      1  C   UNL     1      27.852 160.373 116.944  1.00  0.00     0.000 C 
ENDROOT
BRANCH   1   2
ATOM      2  C   UNL     1      28.769 160.200 118.165  1.00  0.00     0.006 C 
BRANCH   2   3
ATOM      3  C   UNL     1      30.256 160.174 117.786  1.00  0.00     0.053 C 
BRANCH   3   4
ATOM      4  C   UNL     1      31.104 160.016 119.008  1.00  0.00     0.041 C 
ATOM      5  O   UNL     1      30.695 160.440 120.121  1.00  0.00    -0.550 OA
ATOM      6  O   UNL     1      32.366 159.448 118.910  1.00  0.00    -0.550 OA
ENDBRANCH   3   4
ENDBRANCH   2   3
ENDBRANCH   1   2
BRANCH   1   7
ATOM      7  C   UNL     1      26.606 159.472 117.009  1.00  0.00     0.000 C 
BRANCH   7   8
ATOM      8  C   UNL     1      26.476 158.743 118.355  1.00  0.00    -0.000 C 
BRANCH   8   9
ATOM      9  C   UNL     1      25.630 157.462 118.253  1.00  0.00    -0.000 C 
BRANCH   9  10
ATOM     10  C   UNL     1      25.575 156.685 119.577  1.00  0.00    -0.003 C 
ATOM     11  C   UNL     1      26.099 155.255 119.444  1.00  0.00     0.004 C 
ENDBRANCH   9  10
ENDBRANCH   8   9
ENDBRANCH   7   8
ENDBRANCH   1   7
TORSDOF 7
ENDMDL
MODEL 4
REMARK VINA RESULT:    -3.099      3.329      5.049
REMARK INTER + INTRA:          -4.901
REMARK INTER:                  -4.385
REMARK INTRA:                  -0.516
REMARK UNBOUND:                -0.533
REMARK SMILES CCCCCCCCC(=O)[O-]
REMARK SMILES IDX 6 1 7 2 8 3 9 4 10 5 11 6 5 7 4 8 3 9 2 10 1 11
REMARK H PARENT
REMARK Flexibility Score: inf
ROOT
ATOM      1  C   UNL     1      25.627 157.890 117.484  1.00  0.00     0.000 C 
ENDROOT
BRANCH   1   2
ATOM      2  C   UNL     1      26.069 159.125 118.286  1.00  0.00     0.006 C 
BRANCH   2   3
ATOM      3  C   UNL     1      27.374 159.735 117.757  1.00  0.00     0.053 C 
BRANCH   3   4
ATOM      4  C   UNL     1      27.126 160.469 116.477  1.00  0.00     0.041 C 
ATOM      5  O   UNL     1      26.179 161.295 116.394  1.00  0.00    -0.550 OA
ATOM      6  O   UNL     1      27.908 160.204 115.361  1.00  0.00    -0.550 OA
ENDBRANCH   3   4
ENDBRANCH   2   3
ENDBRANCH   1   2
BRANCH   1   7
ATOM      7  C   UNL     1      25.616 156.607 118.333  1.00  0.00     0.000 C 
BRANCH   7   8
ATOM      8  C   UNL     1      25.545 156.898 119.840  1.00  0.00    -0.000 C 
BRANCH   8   9
ATOM      9  C   UNL     1      26.341 155.879 120.675  1.00  0.00    -0.000 C 
BRANCH   9  10
ATOM     10  C   UNL     1      27.079 156.533 121.853  1.00  0.00    -0.003 C 
ATOM     11  C   UNL     1      28.231 157.430 121.403  1.00  0.00     0.004 C 
ENDBRANCH   9  10
ENDBRANCH   8   9
ENDBRANCH   7   8
ENDBRANCH   1   7
TORSDOF 7
ENDMDL
MODEL 5
REMARK VINA RESULT:    -3.066      1.354      2.313
REMARK INTER + INTRA:          -4.854
REMARK INTER:                  -4.597
REMARK INTRA:                  -0.257
REMARK UNBOUND:                -0.533
REMARK SMILES CCCCCCCCC(=O)[O-]
REMARK SMILES IDX 6 1 7 2 8 3 9 4 10 5 11 6 5 7 4 8 3 9 2 10 1 11
REMARK H PARENT
REMARK Flexibility Score: inf
ROOT
ATOM      1  C   UNL     1      26.438 159.613 116.565  1.00  0.00     0.000 C 
ENDROOT
BRANCH   1   2
ATOM      2  C   UNL     1      26.143 158.896 117.892  1.00  0.00     0.006 C 
BRANCH   2   3
ATOM      3  C   UNL     1      25.615 157.470 117.686  1.00  0.00     0.053 C 
BRANCH   3   4
ATOM      4  C   UNL     1      25.551 156.744 118.993  1.00  0.00     0.041 C 
ATOM      5  O   UNL     1      25.142 157.335 120.027  1.00  0.00    -0.550 OA
ATOM      6  O   UNL     1      25.991 155.430 119.080  1.00  0.00    -0.550 OA
ENDBRANCH   3   4
ENDBRANCH   2   3
ENDBRANCH   1   2
BRANCH   1   7
ATOM      7  C   UNL     1      27.828 160.272 116.545  1.00  0.00     0.000 C 
BRANCH   7   8
ATOM      8  C   UNL     1      28.524 160.220 117.914  1.00  0.00    -0.000 C 
BRANCH   8   9
ATOM      9  C   UNL     1      30.058 160.206 117.796  1.00  0.00    -0.000 C 
BRANCH   9  10
ATOM     10  C   UNL     1      30.748 159.863 119.126  1.00  0.00    -0.003 C 
ATOM     11  C   UNL     1      32.271 159.828 119.009  1.00  0.00     0.004 C 
ENDBRANCH   9  10
ENDBRANCH   8   9
ENDBRANCH   7   8
ENDBRANCH   1   7
TORSDOF 7
ENDMDL
MODEL 6
REMARK VINA RESULT:    -3.016      3.079      4.342
REMARK INTER + INTRA:          -4.784
REMARK INTER:                  -4.282
REMARK INTRA:                  -0.502
REMARK UNBOUND:                -0.533
REMARK SMILES CCCCCCCCC(=O)[O-]
REMARK SMILES IDX 6 1 7 2 8 3 9 4 10 5 11 6 5 7 4 8 3 9 2 10 1 11
REMARK H PARENT
REMARK Flexibility Score: inf
ROOT
ATOM      1  C   UNL     1      26.354 155.973 120.093  1.00  0.00     0.000 C 
ENDROOT
BRANCH   1   2
ATOM      2  C   UNL     1      25.341 157.007 119.575  1.00  0.00     0.006 C 
BRANCH   2   3
ATOM      3  C   UNL     1      25.554 157.350 118.095  1.00  0.00     0.053 C 
BRANCH   3   4
ATOM      4  C   UNL     1      25.991 158.773 117.946  1.00  0.00     0.041 C 
ATOM      5  O   UNL     1      25.236 159.613 117.390  1.00  0.00    -0.550 OA
ATOM      6  O   UNL     1      27.253 159.161 118.377  1.00  0.00    -0.550 OA
ENDBRANCH   3   4
ENDBRANCH   2   3
ENDBRANCH   1   2
BRANCH   1   7
ATOM      7  C   UNL     1      26.915 156.338 121.478  1.00  0.00     0.000 C 
BRANCH   7   8
ATOM      8  C   UNL     1      27.122 157.852 121.649  1.00  0.00    -0.000 C 
BRANCH   8   9
ATOM      9  C   UNL     1      28.600 158.224 121.860  1.00  0.00    -0.000 C 
BRANCH   9  10
ATOM     10  C   UNL     1      29.521 156.993 121.874  1.00  0.00    -0.003 C 
ATOM     11  C   UNL     1      30.945 157.317 121.424  1.00  0.00     0.004 C 
ENDBRANCH   9  10
ENDBRANCH   8   9
ENDBRANCH   7   8
ENDBRANCH   1   7
TORSDOF 7
ENDMDL
MODEL 7
REMARK VINA RESULT:    -3.013      2.156      3.186
REMARK INTER + INTRA:          -4.779
REMARK INTER:                  -4.422
REMARK INTRA:                  -0.357
REMARK UNBOUND:                -0.533
REMARK SMILES CCCCCCCCC(=O)[O-]
REMARK SMILES IDX 6 1 7 2 8 3 9 4 10 5 11 6 5 7 4 8 3 9 2 10 1 11
REMARK H PARENT
REMARK Flexibility Score: inf
ROOT
ATOM      1  C   UNL     1      26.013 155.802 119.759  1.00  0.00     0.000 C 
ENDROOT
BRANCH   1   2
ATOM      2  C   UNL     1      26.101 156.735 120.977  1.00  0.00     0.006 C 
BRANCH   2   3
ATOM      3  C   UNL     1      27.241 156.353 121.930  1.00  0.00     0.053 C 
BRANCH   3   4
ATOM      4  C   UNL     1      28.434 157.225 121.694  1.00  0.00     0.041 C 
ATOM      5  O   UNL     1      29.566 156.879 122.125  1.00  0.00    -0.550 OA
ATOM      6  O   UNL     1      28.287 158.441 121.042  1.00  0.00    -0.550 OA
ENDBRANCH   3   4
ENDBRANCH   2   3
ENDBRANCH   1   2
BRANCH   1   7
ATOM      7  C   UNL     1      25.622 156.547 118.470  1.00  0.00     0.000 C 
BRANCH   7   8
ATOM      8  C   UNL     1      25.755 158.072 118.609  1.00  0.00    -0.000 C 
BRANCH   8   9
ATOM      9  C   UNL     1      25.996 158.767 117.258  1.00  0.00    -0.000 C 
BRANCH   9  10
ATOM     10  C   UNL     1      27.049 159.884 117.350  1.00  0.00    -0.003 C 
ATOM     11  C   UNL     1      27.641 160.251 115.990  1.00  0.00     0.004 C 
ENDBRANCH   9  10
ENDBRANCH   8   9
ENDBRANCH   7   8
ENDBRANCH   1   7
TORSDOF 7
ENDMDL
MODEL 8
REMARK VINA RESULT:    -3.013      2.916      5.047
REMARK INTER + INTRA:          -4.779
REMARK INTER:                  -4.260
REMARK INTRA:                  -0.519
REMARK UNBOUND:                -0.533
REMARK SMILES CCCCCCCCC(=O)[O-]
REMARK SMILES IDX 6 1 7 2 8 3 9 4 10 5 11 6 5 7 4 8 3 9 2 10 1 11
REMARK H PARENT
REMARK Flexibility Score: inf
ROOT
ATOM      1  C   UNL     1      28.569 159.488 120.194  1.00  0.00     0.000 C 
ENDROOT
BRANCH   1   2
ATOM      2  C   UNL     1      27.925 160.353 119.099  1.00  0.00     0.006 C 
BRANCH   2   3
ATOM      3  C   UNL     1      28.559 160.126 117.720  1.00  0.00     0.053 C 
BRANCH   3   4
ATOM      4  C   UNL     1      27.499 159.969 116.677  1.00  0.00     0.041 C 
ATOM      5  O   UNL     1      26.357 159.542 116.994  1.00  0.00    -0.550 OA
ATOM      6  O   UNL     1      27.785 160.246 115.347  1.00  0.00    -0.550 OA
ENDBRANCH   3   4
ENDBRANCH   2   3
ENDBRANCH   1   2
BRANCH   1   7
ATOM      7  C   UNL     1      27.679 158.304 120.610  1.00  0.00     0.000 C 
BRANCH   7   8
ATOM      8  C   UNL     1      26.186 158.576 120.370  1.00  0.00    -0.000 C 
BRANCH   8   9
ATOM      9  C   UNL     1      25.357 157.282 120.286  1.00  0.00    -0.000 C 
BRANCH   9  10
ATOM     10  C   UNL     1      25.747 156.411 119.081  1.00  0.00    -0.003 C 
ATOM     11  C   UNL     1      26.154 154.994 119.483  1.00  0.00     0.004 C 
ENDBRANCH   9  10
ENDBRANCH   8   9
ENDBRANCH   7   8
ENDBRANCH   1   7
TORSDOF 7
ENDMDL
MODEL 9
REMARK VINA RESULT:    -2.913      1.317      2.572
REMARK INTER + INTRA:          -4.638
REMARK INTER:                  -4.062
REMARK INTRA:                  -0.576
REMARK UNBOUND:                -0.533
REMARK SMILES CCCCCCCCC(=O)[O-]
REMARK SMILES IDX 6 1 7 2 8 3 9 4 10 5 11 6 5 7 4 8 3 9 2 10 1 11
REMARK H PARENT
REMARK Flexibility Score: inf
ROOT
ATOM      1  C   UNL     1      27.519 159.525 120.399  1.00  0.00     0.000 C 
ENDROOT
BRANCH   1   2
ATOM      2  C   UNL     1      27.194 158.024 120.329  1.00  0.00     0.006 C 
BRANCH   2   3
ATOM      3  C   UNL     1      25.759 157.753 119.860  1.00  0.00     0.053 C 
BRANCH   3   4
ATOM      4  C   UNL     1      25.716 156.539 118.986  1.00  0.00     0.041 C 
ATOM      5  O   UNL     1      26.048 155.415 119.446  1.00  0.00    -0.550 OA
ATOM      6  O   UNL     1      25.356 156.657 117.650  1.00  0.00    -0.550 OA
ENDBRANCH   3   4
ENDBRANCH   2   3
ENDBRANCH   1   2
BRANCH   1   7
ATOM      7  C   UNL     1      28.942 159.846 119.909  1.00  0.00     0.000 C 
BRANCH   7   8
ATOM      8  C   UNL     1      28.954 160.877 118.770  1.00  0.00    -0.000 C 
BRANCH   8   9
ATOM      9  C   UNL     1      29.061 160.221 117.383  1.00  0.00    -0.000 C 
BRANCH   9  10
ATOM     10  C   UNL     1      27.867 160.561 116.477  1.00  0.00    -0.003 C 
ATOM     11  C   UNL     1      26.630 159.720 116.790  1.00  0.00     0.004 C 
ENDBRANCH   9  10
ENDBRANCH   8   9
ENDBRANCH   7   8
ENDBRANCH   1   7
TORSDOF 7
ENDMDL
