MODEL 1
REMARK VINA RESULT:    -6.113      0.000      0.000
REMARK INTER + INTRA:          -7.687
REMARK INTER:                  -7.364
REMARK INTRA:                  -0.323
REMARK UNBOUND:                -0.323
REMARK SMILES O=c1c(O)c(-c2ccc(O)c(O)c2)oc2cc(O)cc(O)c12
REMARK SMILES IDX 5 1 3 2 2 3 1 4 22 5 20 6 19 7 17 8 16 9 15 10 14 11 6 12
REMARK SMILES IDX 7 13 8 14 9 15 13 16 11 17 10 18 12 20 4 22 21 24 18 26
REMARK H PARENT 10 19 12 21 4 23 21 25 18 27
REMARK Flexibility Score: inf
ROOT
ATOM      1  C   UNL     1      -3.962 -30.175  -3.266  1.00  0.00     0.180 A 
ATOM      2  C   UNL     1      -3.560 -30.595  -4.546  1.00  0.00     0.208 A 
ATOM      3  C   UNL     1      -4.538 -30.812  -5.529  1.00  0.00     0.238 A 
ATOM      4  O   UNL     1      -4.176 -31.241  -6.656  1.00  0.00    -0.285 OA
ATOM      5  C   UNL     1      -5.903 -30.592  -5.226  1.00  0.00     0.111 A 
ATOM      6  C   UNL     1      -6.975 -30.741  -6.158  1.00  0.00     0.134 A 
ATOM      7  C   UNL     1      -8.297 -30.622  -5.713  1.00  0.00     0.093 A 
ATOM      8  C   UNL     1      -8.585 -30.295  -4.386  1.00  0.00     0.123 A 
ATOM      9  C   UNL     1      -7.544 -30.088  -3.484  1.00  0.00     0.094 A 
ATOM     10  C   UNL     1      -6.215 -30.235  -3.889  1.00  0.00     0.146 A 
ATOM     11  O   UNL     1      -5.254 -30.040  -2.993  1.00  0.00    -0.452 OA
ENDROOT
BRANCH   1  12
ATOM     12  C   UNL     1      -2.988 -29.902  -2.184  1.00  0.00     0.025 A 
ATOM     13  C   UNL     1      -2.568 -30.916  -1.305  1.00  0.00     0.016 A 
ATOM     14  C   UNL     1      -1.628 -30.642  -0.308  1.00  0.00     0.051 A 
ATOM     15  C   UNL     1      -1.085 -29.356  -0.182  1.00  0.00     0.157 A 
ATOM     16  C   UNL     1      -2.424 -28.621  -2.067  1.00  0.00     0.062 A 
ATOM     17  C   UNL     1      -1.484 -28.342  -1.069  1.00  0.00     0.158 A 
BRANCH  15  18
ATOM     18  O   UNL     1      -0.150 -29.085   0.816  1.00  0.00    -0.504 OA
ATOM     19  H   UNL     1       0.704 -29.623   0.902  1.00  0.00     0.293 HD
ENDBRANCH  15  18
BRANCH  17  20
ATOM     20  O   UNL     1      -0.957 -27.055  -0.975  1.00  0.00    -0.504 OA
ATOM     21  H   UNL     1      -0.088 -26.795  -1.424  1.00  0.00     0.293 HD
ENDBRANCH  17  20
ENDBRANCH   1  12
BRANCH   2  22
ATOM     22  O   UNL     1      -2.209 -30.828  -4.817  1.00  0.00    -0.502 OA
ATOM     23  H   UNL     1      -1.736 -31.678  -4.532  1.00  0.00     0.293 HD
ENDBRANCH   2  22
BRANCH   6  24
ATOM     24  O   UNL     1      -6.794 -30.977  -7.524  1.00  0.00    -0.507 OA
ATOM     25  H   UNL     1      -6.146 -30.475  -8.113  1.00  0.00     0.293 HD
ENDBRANCH   6  24
BRANCH   8  26
ATOM     26  O   UNL     1      -9.903 -30.164  -3.956  1.00  0.00    -0.508 OA
ATOM     27  H   UNL     1     -10.424 -29.306  -4.097  1.00  0.00     0.293 HD
ENDBRANCH   8  26
TORSDOF 6
ENDMDL
MODEL 2
REMARK VINA RESULT:    -6.061      3.346      6.206
REMARK INTER + INTRA:          -7.624
REMARK INTER:                  -7.291
REMARK INTRA:                  -0.333
REMARK UNBOUND:                -0.323
REMARK SMILES O=c1c(O)c(-c2ccc(O)c(O)c2)oc2cc(O)cc(O)c12
REMARK SMILES IDX 5 1 3 2 2 3 1 4 22 5 20 6 19 7 17 8 16 9 15 10 14 11 6 12
REMARK SMILES IDX 7 13 8 14 9 15 13 16 11 17 10 18 12 20 4 22 21 24 18 26
REMARK H PARENT 10 19 12 21 4 23 21 25 18 27
REMARK Flexibility Score: inf
ROOT
ATOM      1  C   UNL     1      -0.895 -27.078  -0.039  1.00  0.00     0.180 A 
ATOM      2  C   UNL     1      -1.748 -27.262   1.063  1.00  0.00     0.208 A 
ATOM      3  C   UNL     1      -2.902 -28.046   0.907  1.00  0.00     0.238 A 
ATOM      4  O   UNL     1      -3.689 -28.162   1.883  1.00  0.00    -0.285 OA
ATOM      5  C   UNL     1      -3.181 -28.648  -0.343  1.00  0.00     0.111 A 
ATOM      6  C   UNL     1      -4.301 -29.495  -0.603  1.00  0.00     0.134 A 
ATOM      7  C   UNL     1      -4.549 -29.929  -1.911  1.00  0.00     0.093 A 
ATOM      8  C   UNL     1      -3.681 -29.602  -2.956  1.00  0.00     0.123 A 
ATOM      9  C   UNL     1      -2.553 -28.826  -2.700  1.00  0.00     0.094 A 
ATOM     10  C   UNL     1      -2.299 -28.347  -1.412  1.00  0.00     0.146 A 
ATOM     11  O   UNL     1      -1.218 -27.601  -1.215  1.00  0.00    -0.452 OA
ENDROOT
BRANCH   1  12
ATOM     12  C   UNL     1       0.353 -26.286   0.054  1.00  0.00     0.025 A 
ATOM     13  C   UNL     1       1.563 -26.873   0.464  1.00  0.00     0.016 A 
ATOM     14  C   UNL     1       2.734 -26.112   0.520  1.00  0.00     0.051 A 
ATOM     15  C   UNL     1       2.716 -24.758   0.156  1.00  0.00     0.157 A 
ATOM     16  C   UNL     1       0.346 -24.935  -0.331  1.00  0.00     0.062 A 
ATOM     17  C   UNL     1       1.515 -24.169  -0.275  1.00  0.00     0.158 A 
BRANCH  15  18
ATOM     18  O   UNL     1       3.885 -24.001   0.216  1.00  0.00    -0.504 OA
ATOM     19  H   UNL     1       3.862 -22.988   0.204  1.00  0.00     0.293 HD
ENDBRANCH  15  18
BRANCH  17  20
ATOM     20  O   UNL     1       1.466 -22.828  -0.651  1.00  0.00    -0.504 OA
ATOM     21  H   UNL     1       0.843 -22.166  -0.204  1.00  0.00     0.293 HD
ENDBRANCH  17  20
ENDBRANCH   1  12
BRANCH   2  22
ATOM     22  O   UNL     1      -1.464 -26.641   2.282  1.00  0.00    -0.502 OA
ATOM     23  H   UNL     1      -1.930 -25.793   2.581  1.00  0.00     0.293 HD
ENDBRANCH   2  22
BRANCH   6  24
ATOM     24  O   UNL     1      -5.177 -29.956   0.385  1.00  0.00    -0.507 OA
ATOM     25  H   UNL     1      -5.378 -29.470   1.245  1.00  0.00     0.293 HD
ENDBRANCH   6  24
BRANCH   8  26
ATOM     26  O   UNL     1      -3.927 -30.052  -4.251  1.00  0.00    -0.508 OA
ATOM     27  H   UNL     1      -4.868 -30.120  -4.619  1.00  0.00     0.293 HD
ENDBRANCH   8  26
TORSDOF 6
ENDMDL
MODEL 3
REMARK VINA RESULT:    -5.784      2.055      3.831
REMARK INTER + INTRA:          -7.291
REMARK INTER:                  -7.042
REMARK INTRA:                  -0.249
REMARK UNBOUND:                -0.323
REMARK SMILES O=c1c(O)c(-c2ccc(O)c(O)c2)oc2cc(O)cc(O)c12
REMARK SMILES IDX 5 1 3 2 2 3 1 4 22 5 20 6 19 7 17 8 16 9 15 10 14 11 6 12
REMARK SMILES IDX 7 13 8 14 9 15 13 16 11 17 10 18 12 20 4 22 21 24 18 26
REMARK H PARENT 10 19 12 21 4 23 21 25 18 27
REMARK Flexibility Score: inf
ROOT
ATOM      1  C   UNL     1      -2.605 -28.985  -1.397  1.00  0.00     0.180 A 
ATOM      2  C   UNL     1      -3.894 -29.251  -0.904  1.00  0.00     0.208 A 
ATOM      3  C   UNL     1      -4.868 -29.752  -1.782  1.00  0.00     0.238 A 
ATOM      4  O   UNL     1      -6.035 -29.937  -1.348  1.00  0.00    -0.285 OA
ATOM      5  C   UNL     1      -4.537 -29.995  -3.137  1.00  0.00     0.111 A 
ATOM      6  C   UNL     1      -5.434 -30.540  -4.105  1.00  0.00     0.134 A 
ATOM      7  C   UNL     1      -5.038 -30.615  -5.446  1.00  0.00     0.093 A 
ATOM      8  C   UNL     1      -3.756 -30.228  -5.843  1.00  0.00     0.123 A 
ATOM      9  C   UNL     1      -2.854 -29.751  -4.895  1.00  0.00     0.094 A 
ATOM     10  C   UNL     1      -3.231 -29.630  -3.555  1.00  0.00     0.146 A 
ATOM     11  O   UNL     1      -2.344 -29.160  -2.686  1.00  0.00    -0.452 OA
ENDROOT
BRANCH   1  12
ATOM     12  C   UNL     1      -1.518 -28.478  -0.527  1.00  0.00     0.025 A 
ATOM     13  C   UNL     1      -0.916 -29.298   0.444  1.00  0.00     0.016 A 
ATOM     14  C   UNL     1       0.125 -28.807   1.236  1.00  0.00     0.051 A 
ATOM     15  C   UNL     1       0.588 -27.496   1.063  1.00  0.00     0.157 A 
ATOM     16  C   UNL     1      -1.036 -27.172  -0.711  1.00  0.00     0.062 A 
ATOM     17  C   UNL     1       0.005 -26.676   0.082  1.00  0.00     0.158 A 
BRANCH  15  18
ATOM     18  O   UNL     1       1.624 -27.008   1.857  1.00  0.00    -0.504 OA
ATOM     19  H   UNL     1       1.466 -26.711   2.813  1.00  0.00     0.293 HD
ENDBRANCH  15  18
BRANCH  17  20
ATOM     20  O   UNL     1       0.447 -25.370  -0.121  1.00  0.00    -0.504 OA
ATOM     21  H   UNL     1       1.338 -25.042   0.233  1.00  0.00     0.293 HD
ENDBRANCH  17  20
ENDBRANCH   1  12
BRANCH   2  22
ATOM     22  O   UNL     1      -4.205 -28.983   0.432  1.00  0.00    -0.502 OA
ATOM     23  H   UNL     1      -3.746 -28.251   0.960  1.00  0.00     0.293 HD
ENDBRANCH   2  22
BRANCH   6  24
ATOM     24  O   UNL     1      -6.703 -31.041  -3.799  1.00  0.00    -0.507 OA
ATOM     25  H   UNL     1      -7.320 -31.483  -4.463  1.00  0.00     0.293 HD
ENDBRANCH   6  24
BRANCH   8  26
ATOM     26  O   UNL     1      -3.366 -30.321  -7.176  1.00  0.00    -0.508 OA
ATOM     27  H   UNL     1      -3.913 -30.838  -7.854  1.00  0.00     0.293 HD
ENDBRANCH   8  26
TORSDOF 6
ENDMDL
MODEL 4
REMARK VINA RESULT:    -5.685      2.215      7.547
REMARK INTER + INTRA:          -7.171
REMARK INTER:                  -6.867
REMARK INTRA:                  -0.304
REMARK UNBOUND:                -0.323
REMARK SMILES O=c1c(O)c(-c2ccc(O)c(O)c2)oc2cc(O)cc(O)c12
REMARK SMILES IDX 5 1 3 2 2 3 1 4 22 5 20 6 19 7 17 8 16 9 15 10 14 11 6 12
REMARK SMILES IDX 7 13 8 14 9 15 13 16 11 17 10 18 12 20 4 22 21 24 18 26
REMARK H PARENT 10 19 12 21 4 23 21 25 18 27
REMARK Flexibility Score: inf
ROOT
ATOM      1  C   UNL     1      -2.392 -29.654  -1.902  1.00  0.00     0.180 A 
ATOM      2  C   UNL     1      -2.356 -30.488  -0.770  1.00  0.00     0.208 A 
ATOM      3  C   UNL     1      -1.709 -30.033   0.389  1.00  0.00     0.238 A 
ATOM      4  O   UNL     1      -1.634 -30.805   1.381  1.00  0.00    -0.285 OA
ATOM      5  C   UNL     1      -1.120 -28.746   0.409  1.00  0.00     0.111 A 
ATOM      6  C   UNL     1      -0.474 -28.168   1.543  1.00  0.00     0.134 A 
ATOM      7  C   UNL     1       0.188 -26.941   1.410  1.00  0.00     0.093 A 
ATOM      8  C   UNL     1       0.171 -26.241   0.201  1.00  0.00     0.123 A 
ATOM      9  C   UNL     1      -0.508 -26.769  -0.894  1.00  0.00     0.094 A 
ATOM     10  C   UNL     1      -1.147 -28.008  -0.802  1.00  0.00     0.146 A 
ATOM     11  O   UNL     1      -1.773 -28.481  -1.875  1.00  0.00    -0.452 OA
ENDROOT
BRANCH   1  12
ATOM     12  C   UNL     1      -3.075 -30.053  -3.154  1.00  0.00     0.025 A 
ATOM     13  C   UNL     1      -4.473 -29.971  -3.282  1.00  0.00     0.016 A 
ATOM     14  C   UNL     1      -5.095 -30.330  -4.481  1.00  0.00     0.051 A 
ATOM     15  C   UNL     1      -4.331 -30.763  -5.573  1.00  0.00     0.157 A 
ATOM     16  C   UNL     1      -2.313 -30.467  -4.258  1.00  0.00     0.062 A 
ATOM     17  C   UNL     1      -2.931 -30.828  -5.460  1.00  0.00     0.158 A 
BRANCH  15  18
ATOM     18  O   UNL     1      -4.954 -31.122  -6.766  1.00  0.00    -0.504 OA
ATOM     19  H   UNL     1      -4.767 -32.011  -7.215  1.00  0.00     0.293 HD
ENDBRANCH  15  18
BRANCH  17  20
ATOM     20  O   UNL     1      -2.142 -31.248  -6.529  1.00  0.00    -0.504 OA
ATOM     21  H   UNL     1      -1.228 -31.662  -6.394  1.00  0.00     0.293 HD
ENDBRANCH  17  20
ENDBRANCH   1  12
BRANCH   2  22
ATOM     22  O   UNL     1      -2.926 -31.763  -0.819  1.00  0.00    -0.502 OA
ATOM     23  H   UNL     1      -3.243 -32.248   0.011  1.00  0.00     0.293 HD
ENDBRANCH   2  22
BRANCH   6  24
ATOM     24  O   UNL     1      -0.477 -28.740   2.819  1.00  0.00    -0.507 OA
ATOM     25  H   UNL     1      -0.530 -28.220   3.681  1.00  0.00     0.293 HD
ENDBRANCH   6  24
BRANCH   8  26
ATOM     26  O   UNL     1       0.819 -25.014   0.081  1.00  0.00    -0.508 OA
ATOM     27  H   UNL     1       0.357 -24.145   0.322  1.00  0.00     0.293 HD
ENDBRANCH   8  26
TORSDOF 6
ENDMDL
MODEL 5
REMARK VINA RESULT:    -5.663      2.730      8.504
REMARK INTER + INTRA:          -7.144
REMARK INTER:                  -6.990
REMARK INTRA:                  -0.154
REMARK UNBOUND:                -0.323
REMARK SMILES O=c1c(O)c(-c2ccc(O)c(O)c2)oc2cc(O)cc(O)c12
REMARK SMILES IDX 5 1 3 2 2 3 1 4 22 5 20 6 19 7 17 8 16 9 15 10 14 11 6 12
REMARK SMILES IDX 7 13 8 14 9 15 13 16 11 17 10 18 12 20 4 22 21 24 18 26
REMARK H PARENT 10 19 12 21 4 23 21 25 18 27
REMARK Flexibility Score: inf
ROOT
ATOM      1  C   UNL     1      -1.428 -28.311  -0.463  1.00  0.00     0.180 A 
ATOM      2  C   UNL     1      -0.855 -29.074   0.570  1.00  0.00     0.208 A 
ATOM      3  C   UNL     1       0.145 -28.497   1.368  1.00  0.00     0.238 A 
ATOM      4  O   UNL     1       0.691 -29.203   2.255  1.00  0.00    -0.285 OA
ATOM      5  C   UNL     1       0.550 -27.161   1.133  1.00  0.00     0.111 A 
ATOM      6  C   UNL     1       1.526 -26.462   1.907  1.00  0.00     0.134 A 
ATOM      7  C   UNL     1       1.943 -25.188   1.504  1.00  0.00     0.093 A 
ATOM      8  C   UNL     1       1.371 -24.560   0.394  1.00  0.00     0.123 A 
ATOM      9  C   UNL     1       0.375 -25.209  -0.330  1.00  0.00     0.094 A 
ATOM     10  C   UNL     1      -0.036 -26.497   0.025  1.00  0.00     0.146 A 
ATOM     11  O   UNL     1      -0.981 -27.084  -0.700  1.00  0.00    -0.452 OA
ENDROOT
BRANCH   1  12
ATOM     12  C   UNL     1      -2.504 -28.841  -1.331  1.00  0.00     0.025 A 
ATOM     13  C   UNL     1      -3.744 -29.238  -0.799  1.00  0.00     0.016 A 
ATOM     14  C   UNL     1      -4.754 -29.712  -1.639  1.00  0.00     0.051 A 
ATOM     15  C   UNL     1      -4.547 -29.785  -3.024  1.00  0.00     0.157 A 
ATOM     16  C   UNL     1      -2.310 -28.896  -2.721  1.00  0.00     0.062 A 
ATOM     17  C   UNL     1      -3.319 -29.371  -3.566  1.00  0.00     0.158 A 
BRANCH  15  18
ATOM     18  O   UNL     1      -5.556 -30.261  -3.859  1.00  0.00    -0.504 OA
ATOM     19  H   UNL     1      -6.405 -29.732  -4.020  1.00  0.00     0.293 HD
ENDBRANCH  15  18
BRANCH  17  20
ATOM     20  O   UNL     1      -3.083 -29.425  -4.939  1.00  0.00    -0.504 OA
ATOM     21  H   UNL     1      -3.460 -28.734  -5.577  1.00  0.00     0.293 HD
ENDBRANCH  17  20
ENDBRANCH   1  12
BRANCH   2  22
ATOM     22  O   UNL     1      -1.255 -30.398   0.769  1.00  0.00    -0.502 OA
ATOM     23  H   UNL     1      -0.673 -31.186   0.512  1.00  0.00     0.293 HD
ENDBRANCH   2  22
BRANCH   6  24
ATOM     24  O   UNL     1       2.093 -26.961   3.084  1.00  0.00    -0.507 OA
ATOM     25  H   UNL     1       2.905 -26.574   3.539  1.00  0.00     0.293 HD
ENDBRANCH   6  24
BRANCH   8  26
ATOM     26  O   UNL     1       1.780 -23.285   0.010  1.00  0.00    -0.508 OA
ATOM     27  H   UNL     1       2.225 -23.118  -0.885  1.00  0.00     0.293 HD
ENDBRANCH   8  26
TORSDOF 6
ENDMDL
MODEL 6
REMARK VINA RESULT:    -5.659      2.141      6.924
REMARK INTER + INTRA:          -7.140
REMARK INTER:                  -6.829
REMARK INTRA:                  -0.312
REMARK UNBOUND:                -0.323
REMARK SMILES O=c1c(O)c(-c2ccc(O)c(O)c2)oc2cc(O)cc(O)c12
REMARK SMILES IDX 5 1 3 2 2 3 1 4 22 5 20 6 19 7 17 8 16 9 15 10 14 11 6 12
REMARK SMILES IDX 7 13 8 14 9 15 13 16 11 17 10 18 12 20 4 22 21 24 18 26
REMARK H PARENT 10 19 12 21 4 23 21 25 18 27
REMARK Flexibility Score: inf
ROOT
ATOM      1  C   UNL     1      -5.741 -31.134  -5.509  1.00  0.00     0.180 A 
ATOM      2  C   UNL     1      -4.426 -30.789  -5.870  1.00  0.00     0.208 A 
ATOM      3  C   UNL     1      -3.583 -30.218  -4.903  1.00  0.00     0.238 A 
ATOM      4  O   UNL     1      -2.426 -29.862  -5.246  1.00  0.00    -0.285 OA
ATOM      5  C   UNL     1      -4.058 -30.015  -3.585  1.00  0.00     0.111 A 
ATOM      6  C   UNL     1      -3.277 -29.482  -2.515  1.00  0.00     0.134 A 
ATOM      7  C   UNL     1      -3.889 -29.203  -1.287  1.00  0.00     0.093 A 
ATOM      8  C   UNL     1      -5.237 -29.498  -1.069  1.00  0.00     0.123 A 
ATOM      9  C   UNL     1      -5.991 -30.074  -2.088  1.00  0.00     0.094 A 
ATOM     10  C   UNL     1      -5.419 -30.331  -3.337  1.00  0.00     0.146 A 
ATOM     11  O   UNL     1      -6.178 -30.870  -4.284  1.00  0.00    -0.452 OA
ENDROOT
BRANCH   1  12
ATOM     12  C   UNL     1      -6.681 -31.761  -6.465  1.00  0.00     0.025 A 
ATOM     13  C   UNL     1      -6.879 -33.153  -6.491  1.00  0.00     0.016 A 
ATOM     14  C   UNL     1      -7.790 -33.721  -7.386  1.00  0.00     0.051 A 
ATOM     15  C   UNL     1      -8.527 -32.907  -8.257  1.00  0.00     0.157 A 
ATOM     16  C   UNL     1      -7.438 -30.949  -7.326  1.00  0.00     0.062 A 
ATOM     17  C   UNL     1      -8.351 -31.513  -8.224  1.00  0.00     0.158 A 
BRANCH  15  18
ATOM     18  O   UNL     1      -9.433 -33.477  -9.150  1.00  0.00    -0.504 OA
ATOM     19  H   UNL     1     -10.408 -33.203  -9.163  1.00  0.00     0.293 HD
ENDBRANCH  15  18
BRANCH  17  20
ATOM     20  O   UNL     1      -9.072 -30.676  -9.073  1.00  0.00    -0.504 OA
ATOM     21  H   UNL     1      -9.726 -29.987  -8.722  1.00  0.00     0.293 HD
ENDBRANCH  17  20
ENDBRANCH   1  12
BRANCH   2  22
ATOM     22  O   UNL     1      -3.985 -30.979  -7.182  1.00  0.00    -0.502 OA
ATOM     23  H   UNL     1      -4.131 -31.846  -7.684  1.00  0.00     0.293 HD
ENDBRANCH   2  22
BRANCH   6  24
ATOM     24  O   UNL     1      -1.903 -29.237  -2.599  1.00  0.00    -0.507 OA
ATOM     25  H   UNL     1      -1.200 -29.949  -2.726  1.00  0.00     0.293 HD
ENDBRANCH   6  24
BRANCH   8  26
ATOM     26  O   UNL     1      -5.833 -29.232   0.161  1.00  0.00    -0.508 OA
ATOM     27  H   UNL     1      -5.283 -28.979   0.973  1.00  0.00     0.293 HD
ENDBRANCH   8  26
TORSDOF 6
ENDMDL
MODEL 7
REMARK VINA RESULT:    -5.535      3.829      7.290
REMARK INTER + INTRA:          -6.991
REMARK INTER:                  -6.735
REMARK INTRA:                  -0.256
REMARK UNBOUND:                -0.323
REMARK SMILES O=c1c(O)c(-c2ccc(O)c(O)c2)oc2cc(O)cc(O)c12
REMARK SMILES IDX 5 1 3 2 2 3 1 4 22 5 20 6 19 7 17 8 16 9 15 10 14 11 6 12
REMARK SMILES IDX 7 13 8 14 9 15 13 16 11 17 10 18 12 20 4 22 21 24 18 26
REMARK H PARENT 10 19 12 21 4 23 21 25 18 27
REMARK Flexibility Score: inf
ROOT
ATOM      1  C   UNL     1       0.498 -26.993   0.033  1.00  0.00     0.180 A 
ATOM      2  C   UNL     1       0.519 -27.649   1.277  1.00  0.00     0.208 A 
ATOM      3  C   UNL     1      -0.423 -28.660   1.528  1.00  0.00     0.238 A 
ATOM      4  O   UNL     1      -0.434 -29.205   2.663  1.00  0.00    -0.285 OA
ATOM      5  C   UNL     1      -1.361 -29.013   0.530  1.00  0.00     0.111 A 
ATOM      6  C   UNL     1      -2.333 -30.050   0.662  1.00  0.00     0.134 A 
ATOM      7  C   UNL     1      -3.296 -30.225  -0.340  1.00  0.00     0.093 A 
ATOM      8  C   UNL     1      -3.281 -29.445  -1.499  1.00  0.00     0.123 A 
ATOM      9  C   UNL     1      -2.299 -28.471  -1.663  1.00  0.00     0.094 A 
ATOM     10  C   UNL     1      -1.347 -28.248  -0.665  1.00  0.00     0.146 A 
ATOM     11  O   UNL     1      -0.436 -27.301  -0.858  1.00  0.00    -0.452 OA
ENDROOT
BRANCH   1  12
ATOM     12  C   UNL     1       1.473 -25.934  -0.315  1.00  0.00     0.025 A 
ATOM     13  C   UNL     1       2.819 -26.238  -0.583  1.00  0.00     0.016 A 
ATOM     14  C   UNL     1       3.716 -25.226  -0.934  1.00  0.00     0.051 A 
ATOM     15  C   UNL     1       3.280 -23.898  -1.035  1.00  0.00     0.157 A 
ATOM     16  C   UNL     1       1.037 -24.604  -0.438  1.00  0.00     0.062 A 
ATOM     17  C   UNL     1       1.932 -23.587  -0.788  1.00  0.00     0.158 A 
BRANCH  15  18
ATOM     18  O   UNL     1       4.178 -22.889  -1.383  1.00  0.00    -0.504 OA
ATOM     19  H   UNL     1       4.146 -21.977  -0.944  1.00  0.00     0.293 HD
ENDBRANCH  15  18
BRANCH  17  20
ATOM     20  O   UNL     1       1.465 -22.278  -0.887  1.00  0.00    -0.504 OA
ATOM     21  H   UNL     1       2.045 -21.524  -1.234  1.00  0.00     0.293 HD
ENDBRANCH  17  20
ENDBRANCH   1  12
BRANCH   2  22
ATOM     22  O   UNL     1       1.440 -27.269   2.257  1.00  0.00    -0.502 OA
ATOM     23  H   UNL     1       1.756 -26.312   2.363  1.00  0.00     0.293 HD
ENDBRANCH   2  22
BRANCH   6  24
ATOM     24  O   UNL     1      -2.379 -30.945   1.735  1.00  0.00    -0.507 OA
ATOM     25  H   UNL     1      -1.614 -31.123   2.367  1.00  0.00     0.293 HD
ENDBRANCH   6  24
BRANCH   8  26
ATOM     26  O   UNL     1      -4.232 -29.636  -2.497  1.00  0.00    -0.508 OA
ATOM     27  H   UNL     1      -3.989 -30.052  -3.389  1.00  0.00     0.293 HD
ENDBRANCH   8  26
TORSDOF 6
ENDMDL
MODEL 8
REMARK VINA RESULT:    -5.514      3.422      5.263
REMARK INTER + INTRA:          -6.965
REMARK INTER:                  -6.680
REMARK INTRA:                  -0.285
REMARK UNBOUND:                -0.323
REMARK SMILES O=c1c(O)c(-c2ccc(O)c(O)c2)oc2cc(O)cc(O)c12
REMARK SMILES IDX 5 1 3 2 2 3 1 4 22 5 20 6 19 7 17 8 16 9 15 10 14 11 6 12
REMARK SMILES IDX 7 13 8 14 9 15 13 16 11 17 10 18 12 20 4 22 21 24 18 26
REMARK H PARENT 10 19 12 21 4 23 21 25 18 27
REMARK Flexibility Score: inf
ROOT
ATOM      1  C   UNL     1      -6.156 -30.537  -2.949  1.00  0.00     0.180 A 
ATOM      2  C   UNL     1      -6.548 -31.816  -3.382  1.00  0.00     0.208 A 
ATOM      3  C   UNL     1      -5.872 -32.406  -4.462  1.00  0.00     0.238 A 
ATOM      4  O   UNL     1      -6.263 -33.527  -4.879  1.00  0.00    -0.285 OA
ATOM      5  C   UNL     1      -4.803 -31.717  -5.085  1.00  0.00     0.111 A 
ATOM      6  C   UNL     1      -4.022 -32.237  -6.160  1.00  0.00     0.134 A 
ATOM      7  C   UNL     1      -3.075 -31.416  -6.785  1.00  0.00     0.093 A 
ATOM      8  C   UNL     1      -2.835 -30.117  -6.330  1.00  0.00     0.123 A 
ATOM      9  C   UNL     1      -3.551 -29.623  -5.243  1.00  0.00     0.094 A 
ATOM     10  C   UNL     1      -4.528 -30.405  -4.622  1.00  0.00     0.146 A 
ATOM     11  O   UNL     1      -5.195 -29.890  -3.595  1.00  0.00    -0.452 OA
ENDROOT
BRANCH   1  12
ATOM     12  C   UNL     1      -6.805 -29.861  -1.802  1.00  0.00     0.025 A 
ATOM     13  C   UNL     1      -6.185 -29.801  -0.542  1.00  0.00     0.016 A 
ATOM     14  C   UNL     1      -6.804 -29.136   0.519  1.00  0.00     0.051 A 
ATOM     15  C   UNL     1      -8.044 -28.509   0.335  1.00  0.00     0.157 A 
ATOM     16  C   UNL     1      -8.037 -29.213  -1.987  1.00  0.00     0.062 A 
ATOM     17  C   UNL     1      -8.662 -28.546  -0.927  1.00  0.00     0.158 A 
BRANCH  15  18
ATOM     18  O   UNL     1      -8.661 -27.849   1.396  1.00  0.00    -0.504 OA
ATOM     19  H   UNL     1      -9.522 -28.191   1.806  1.00  0.00     0.293 HD
ENDBRANCH  15  18
BRANCH  17  20
ATOM     20  O   UNL     1      -9.891 -27.928  -1.146  1.00  0.00    -0.504 OA
ATOM     21  H   UNL     1     -10.533 -28.244  -1.862  1.00  0.00     0.293 HD
ENDBRANCH  17  20
ENDBRANCH   1  12
BRANCH   2  22
ATOM     22  O   UNL     1      -7.620 -32.468  -2.767  1.00  0.00    -0.502 OA
ATOM     23  H   UNL     1      -8.263 -31.991  -2.147  1.00  0.00     0.293 HD
ENDBRANCH   2  22
BRANCH   6  24
ATOM     24  O   UNL     1      -4.117 -33.550  -6.631  1.00  0.00    -0.507 OA
ATOM     25  H   UNL     1      -3.462 -33.982  -7.265  1.00  0.00     0.293 HD
ENDBRANCH   6  24
BRANCH   8  26
ATOM     26  O   UNL     1      -1.880 -29.313  -6.947  1.00  0.00    -0.508 OA
ATOM     27  H   UNL     1      -2.127 -28.428  -7.373  1.00  0.00     0.293 HD
ENDBRANCH   8  26
TORSDOF 6
ENDMDL
MODEL 9
REMARK VINA RESULT:    -5.501      2.187      3.950
REMARK INTER + INTRA:          -6.950
REMARK INTER:                  -6.639
REMARK INTRA:                  -0.311
REMARK UNBOUND:                -0.323
REMARK SMILES O=c1c(O)c(-c2ccc(O)c(O)c2)oc2cc(O)cc(O)c12
REMARK SMILES IDX 5 1 3 2 2 3 1 4 22 5 20 6 19 7 17 8 16 9 15 10 14 11 6 12
REMARK SMILES IDX 7 13 8 14 9 15 13 16 11 17 10 18 12 20 4 22 21 24 18 26
REMARK H PARENT 10 19 12 21 4 23 21 25 18 27
REMARK Flexibility Score: inf
ROOT
ATOM      1  C   UNL     1      -3.360 -30.009  -1.923  1.00  0.00     0.180 A 
ATOM      2  C   UNL     1      -4.712 -30.071  -2.304  1.00  0.00     0.208 A 
ATOM      3  C   UNL     1      -5.030 -30.300  -3.652  1.00  0.00     0.238 A 
ATOM      4  O   UNL     1      -6.241 -30.300  -3.995  1.00  0.00    -0.285 OA
ATOM      5  C   UNL     1      -3.994 -30.479  -4.599  1.00  0.00     0.111 A 
ATOM      6  C   UNL     1      -4.201 -30.758  -5.984  1.00  0.00     0.134 A 
ATOM      7  C   UNL     1      -3.104 -30.788  -6.854  1.00  0.00     0.093 A 
ATOM      8  C   UNL     1      -1.802 -30.614  -6.378  1.00  0.00     0.123 A 
ATOM      9  C   UNL     1      -1.585 -30.402  -5.019  1.00  0.00     0.094 A 
ATOM     10  C   UNL     1      -2.662 -30.331  -4.131  1.00  0.00     0.146 A 
ATOM     11  O   UNL     1      -2.412 -30.115  -2.845  1.00  0.00    -0.452 OA
ENDROOT
BRANCH   1  12
ATOM     12  C   UNL     1      -2.947 -29.795  -0.517  1.00  0.00     0.025 A 
ATOM     13  C   UNL     1      -2.585 -30.872   0.311  1.00  0.00     0.016 A 
ATOM     14  C   UNL     1      -2.174 -30.644   1.627  1.00  0.00     0.051 A 
ATOM     15  C   UNL     1      -2.105 -29.338   2.131  1.00  0.00     0.157 A 
ATOM     16  C   UNL     1      -2.855 -28.487  -0.014  1.00  0.00     0.062 A 
ATOM     17  C   UNL     1      -2.444 -28.254   1.304  1.00  0.00     0.158 A 
BRANCH  15  18
ATOM     18  O   UNL     1      -1.697 -29.115   3.445  1.00  0.00    -0.504 OA
ATOM     19  H   UNL     1      -2.138 -28.411   4.025  1.00  0.00     0.293 HD
ENDBRANCH  15  18
BRANCH  17  20
ATOM     20  O   UNL     1      -2.380 -26.943   1.772  1.00  0.00    -0.504 OA
ATOM     21  H   UNL     1      -2.825 -26.658   2.635  1.00  0.00     0.293 HD
ENDBRANCH  17  20
ENDBRANCH   1  12
BRANCH   2  22
ATOM     22  O   UNL     1      -5.719 -29.868  -1.356  1.00  0.00    -0.502 OA
ATOM     23  H   UNL     1      -5.673 -30.259  -0.422  1.00  0.00     0.293 HD
ENDBRANCH   2  22
BRANCH   6  24
ATOM     24  O   UNL     1      -5.451 -31.037  -6.546  1.00  0.00    -0.507 OA
ATOM     25  H   UNL     1      -6.309 -30.571  -6.295  1.00  0.00     0.293 HD
ENDBRANCH   6  24
BRANCH   8  26
ATOM     26  O   UNL     1      -0.715 -30.661  -7.247  1.00  0.00    -0.508 OA
ATOM     27  H   UNL     1      -0.373 -31.538  -7.622  1.00  0.00     0.293 HD
ENDBRANCH   8  26
TORSDOF 6
ENDMDL
