MODEL 1
REMARK VINA RESULT:    -4.666      0.000      0.000
REMARK INTER + INTRA:          -8.965
REMARK INTER:                  -7.257
REMARK INTRA:                  -1.708
REMARK UNBOUND:                -1.708
REMARK SMILES C[C@]12C[C@]3(O)O[C@H](O1)[C@@]1(COC(=O)c4ccccc4)[C@@H]3C[C@]12O[C@@H]1O[C@H](CO)[C@@H](O)[C@H](O)[C@H]1O
REMARK SMILES IDX 1 1 2 2 3 3 4 4 20 5 21 6 22 7 9 8 7 9 8 10 6 11 23 12 24 13
REMARK SMILES IDX 33 14 25 15 31 16 26 17 29 18 34 19 32 21 27 23 28 24 30 26
REMARK SMILES IDX 5 28 10 30 11 31 12 32 13 33 14 34 15 35 19 36 16 37 18 38
REMARK SMILES IDX 17 39
REMARK H PARENT 34 20 32 22 28 25 30 27 5 29
REMARK Flexibility Score: inf
ROOT
ATOM      1  C   UNL     1     122.796 111.182 109.113  1.00  0.00     0.046 C 
ATOM      2  C   UNL     1     123.650 112.385 109.278  1.00  0.00     0.104 C 
ATOM      3  C   UNL     1     124.963 112.323 108.581  1.00  0.00     0.104 C 
ATOM      4  C   UNL     1     125.662 113.643 108.799  1.00  0.00     0.175 C 
ATOM      5  C   UNL     1     124.681 114.753 108.569  1.00  0.00     0.070 C 
ATOM      6  C   UNL     1     123.482 114.257 107.733  1.00  0.00     0.050 C 
ATOM      7  C   UNL     1     122.917 113.710 108.994  1.00  0.00     0.115 C 
ATOM      8  C   UNL     1     123.761 114.652 109.755  1.00  0.00     0.096 C 
ATOM      9  C   UNL     1     124.583 113.776 110.697  1.00  0.00     0.267 C 
ATOM     10  O   UNL     1     123.915 112.565 110.657  1.00  0.00    -0.342 OA
ATOM     11  O   UNL     1     125.850 113.753 110.192  1.00  0.00    -0.320 OA
ENDROOT
BRANCH   7  12
ATOM     12  O   UNL     1     121.627 113.559 109.222  1.00  0.00    -0.339 OA
BRANCH  12  13
ATOM     13  C   UNL     1     120.641 113.922 108.389  1.00  0.00     0.282 C 
ATOM     14  C   UNL     1     119.287 113.093 108.724  1.00  0.00     0.202 C 
ATOM     15  O   UNL     1     120.035 114.937 108.640  1.00  0.00    -0.341 OA
ATOM     16  C   UNL     1     117.957 113.857 108.147  1.00  0.00     0.179 C 
ATOM     17  C   UNL     1     119.445 115.924 108.886  1.00  0.00     0.178 C 
ATOM     18  C   UNL     1     118.115 115.059 109.212  1.00  0.00     0.177 C 
BRANCH  14  19
ATOM     19  O   UNL     1     119.281 111.890 108.163  1.00  0.00    -0.385 OA
ATOM     20  H   UNL     1     118.972 111.129 108.738  1.00  0.00     0.211 HD
ENDBRANCH  14  19
BRANCH  16  21
ATOM     21  O   UNL     1     116.892 113.121 108.354  1.00  0.00    -0.387 OA
ATOM     22  H   UNL     1     116.217 113.635 108.872  1.00  0.00     0.211 HD
ENDBRANCH  16  21
BRANCH  17  23
ATOM     23  C   UNL     1     119.665 116.720 110.131  1.00  0.00     0.191 C 
BRANCH  23  24
ATOM     24  O   UNL     1     119.075 117.988 109.966  1.00  0.00    -0.394 OA
ATOM     25  H   UNL     1     119.485 118.644 110.582  1.00  0.00     0.210 HD
ENDBRANCH  23  24
ENDBRANCH  17  23
BRANCH  18  26
ATOM     26  O   UNL     1     117.049 115.845 109.210  1.00  0.00    -0.387 OA
ATOM     27  H   UNL     1     116.730 115.960 108.255  1.00  0.00     0.211 HD
ENDBRANCH  18  26
ENDBRANCH  12  13
ENDBRANCH   7  12
BRANCH   4  28
ATOM     28  O   UNL     1     126.827 113.784 108.074  1.00  0.00    -0.365 OA
ATOM     29  H   UNL     1     126.650 114.508 107.389  1.00  0.00     0.214 HD
ENDBRANCH   4  28
BRANCH   8  30
ATOM     30  C   UNL     1     123.243 115.883 110.362  1.00  0.00     0.249 C 
BRANCH  30  31
ATOM     31  O   UNL     1     124.072 116.212 111.497  1.00  0.00    -0.461 OA
BRANCH  31  32
ATOM     32  C   UNL     1     124.877 117.324 111.458  1.00  0.00     0.338 C 
ATOM     33  O   UNL     1     124.731 118.127 112.440  1.00  0.00    -0.246 OA
BRANCH  32  34
ATOM     34  C   UNL     1     125.847 117.652 110.439  1.00  0.00     0.060 A 
ATOM     35  C   UNL     1     127.072 117.055 110.308  1.00  0.00     0.015 A 
ATOM     36  C   UNL     1     125.562 118.668 109.524  1.00  0.00     0.015 A 
ATOM     37  C   UNL     1     128.004 117.419 109.328  1.00  0.00     0.001 A 
ATOM     38  C   UNL     1     126.472 119.035 108.554  1.00  0.00     0.001 A 
ATOM     39  C   UNL     1     127.700 118.429 108.433  1.00  0.00     0.000 A 
ENDBRANCH  32  34
ENDBRANCH  31  32
ENDBRANCH  30  31
ENDBRANCH   8  30
TORSDOF 12
ENDMDL
MODEL 2
REMARK VINA RESULT:    -4.661     13.383     15.537
REMARK INTER + INTRA:          -8.957
REMARK INTER:                  -7.342
REMARK INTRA:                  -1.615
REMARK UNBOUND:                -1.708
REMARK SMILES C[C@]12C[C@]3(O)O[C@H](O1)[C@@]1(COC(=O)c4ccccc4)[C@@H]3C[C@]12O[C@@H]1O[C@H](CO)[C@@H](O)[C@H](O)[C@H]1O
REMARK SMILES IDX 1 1 2 2 3 3 4 4 20 5 21 6 22 7 9 8 7 9 8 10 6 11 23 12 24 13
REMARK SMILES IDX 33 14 25 15 31 16 26 17 29 18 34 19 32 21 27 23 28 24 30 26
REMARK SMILES IDX 5 28 10 30 11 31 12 32 13 33 14 34 15 35 19 36 16 37 18 38
REMARK SMILES IDX 17 39
REMARK H PARENT 34 20 32 22 28 25 30 27 5 29
REMARK Flexibility Score: inf
ROOT
ATOM      1  C   UNL     1     119.976 109.184 120.967  1.00  0.00     0.046 C 
ATOM      2  C   UNL     1     121.397 108.868 121.257  1.00  0.00     0.104 C 
ATOM      3  C   UNL     1     122.164 109.965 121.908  1.00  0.00     0.104 C 
ATOM      4  C   UNL     1     123.555 109.450 122.187  1.00  0.00     0.175 C 
ATOM      5  C   UNL     1     123.452 108.078 122.782  1.00  0.00     0.070 C 
ATOM      6  C   UNL     1     122.044 107.840 123.366  1.00  0.00     0.050 C 
ATOM      7  C   UNL     1     121.599 107.524 121.984  1.00  0.00     0.115 C 
ATOM      8  C   UNL     1     123.000 107.232 121.623  1.00  0.00     0.096 C 
ATOM      9  C   UNL     1     123.307 108.152 120.444  1.00  0.00     0.267 C 
ATOM     10  O   UNL     1     122.050 108.566 120.038  1.00  0.00    -0.342 OA
ATOM     11  O   UNL     1     124.111 109.142 120.928  1.00  0.00    -0.320 OA
ENDROOT
BRANCH   7  12
ATOM     12  O   UNL     1     120.601 106.712 121.695  1.00  0.00    -0.339 OA
BRANCH  12  13
ATOM     13  C   UNL     1     120.252 105.626 122.400  1.00  0.00     0.282 C 
ATOM     14  C   UNL     1     118.636 105.495 122.471  1.00  0.00     0.202 C 
ATOM     15  O   UNL     1     120.275 104.557 121.836  1.00  0.00    -0.341 OA
ATOM     16  C   UNL     1     118.172 103.962 122.813  1.00  0.00     0.179 C 
ATOM     17  C   UNL     1     120.296 103.517 121.287  1.00  0.00     0.178 C 
ATOM     18  C   UNL     1     118.680 103.426 121.378  1.00  0.00     0.177 C 
BRANCH  14  19
ATOM     19  O   UNL     1     118.112 106.251 123.429  1.00  0.00    -0.385 OA
ATOM     20  H   UNL     1     117.548 107.024 123.130  1.00  0.00     0.211 HD
ENDBRANCH  14  19
BRANCH  16  21
ATOM     21  O   UNL     1     116.870 103.908 122.952  1.00  0.00    -0.387 OA
ATOM     22  H   UNL     1     116.612 104.204 123.865  1.00  0.00     0.211 HD
ENDBRANCH  16  21
BRANCH  17  23
ATOM     23  C   UNL     1     120.578 103.369 119.827  1.00  0.00     0.191 C 
BRANCH  23  24
ATOM     24  O   UNL     1     121.000 104.613 119.321  1.00  0.00    -0.394 OA
ATOM     25  H   UNL     1     121.582 105.073 119.974  1.00  0.00     0.210 HD
ENDBRANCH  23  24
ENDBRANCH  17  23
BRANCH  18  26
ATOM     26  O   UNL     1     118.282 102.183 121.161  1.00  0.00    -0.387 OA
ATOM     27  H   UNL     1     117.605 102.183 120.408  1.00  0.00     0.211 HD
ENDBRANCH  18  26
ENDBRANCH  12  13
ENDBRANCH   7  12
BRANCH   4  28
ATOM     28  O   UNL     1     124.331 110.313 122.933  1.00  0.00    -0.365 OA
ATOM     29  H   UNL     1     123.748 111.117 123.134  1.00  0.00     0.214 HD
ENDBRANCH   4  28
BRANCH   8  30
ATOM     30  C   UNL     1     123.526 105.869 121.487  1.00  0.00     0.249 C 
BRANCH  30  31
ATOM     31  O   UNL     1     123.630 105.562 120.081  1.00  0.00    -0.461 OA
BRANCH  31  32
ATOM     32  C   UNL     1     124.508 104.595 119.654  1.00  0.00     0.338 C 
ATOM     33  O   UNL     1     123.959 103.559 119.149  1.00  0.00    -0.246 OA
BRANCH  32  34
ATOM     34  C   UNL     1     125.950 104.648 119.718  1.00  0.00     0.060 A 
ATOM     35  C   UNL     1     126.731 103.780 120.431  1.00  0.00     0.015 A 
ATOM     36  C   UNL     1     126.627 105.665 119.040  1.00  0.00     0.015 A 
ATOM     37  C   UNL     1     128.126 103.878 120.498  1.00  0.00     0.001 A 
ATOM     38  C   UNL     1     128.002 105.772 119.099  1.00  0.00     0.001 A 
ATOM     39  C   UNL     1     128.776 104.895 119.820  1.00  0.00     0.000 A 
ENDBRANCH  32  34
ENDBRANCH  31  32
ENDBRANCH  30  31
ENDBRANCH   8  30
TORSDOF 12
ENDMDL
MODEL 3
REMARK VINA RESULT:    -4.542     13.211     15.251
REMARK INTER + INTRA:          -8.773
REMARK INTER:                  -7.012
REMARK INTRA:                  -1.761
REMARK UNBOUND:                -1.708
REMARK SMILES C[C@]12C[C@]3(O)O[C@H](O1)[C@@]1(COC(=O)c4ccccc4)[C@@H]3C[C@]12O[C@@H]1O[C@H](CO)[C@@H](O)[C@H](O)[C@H]1O
REMARK SMILES IDX 1 1 2 2 3 3 4 4 20 5 21 6 22 7 9 8 7 9 8 10 6 11 23 12 24 13
REMARK SMILES IDX 33 14 25 15 31 16 26 17 29 18 34 19 32 21 27 23 28 24 30 26
REMARK SMILES IDX 5 28 10 30 11 31 12 32 13 33 14 34 15 35 19 36 16 37 18 38
REMARK SMILES IDX 17 39
REMARK H PARENT 34 20 32 22 28 25 30 27 5 29
REMARK Flexibility Score: inf
ROOT
ATOM      1  C   UNL     1     120.613 109.870 120.333  1.00  0.00     0.046 C 
ATOM      2  C   UNL     1     121.857 109.338 120.943  1.00  0.00     0.104 C 
ATOM      3  C   UNL     1     122.700 110.351 121.635  1.00  0.00     0.104 C 
ATOM      4  C   UNL     1     123.876 109.629 122.246  1.00  0.00     0.175 C 
ATOM      5  C   UNL     1     123.380 108.391 122.932  1.00  0.00     0.070 C 
ATOM      6  C   UNL     1     121.869 108.498 123.227  1.00  0.00     0.050 C 
ATOM      7  C   UNL     1     121.635 108.089 121.818  1.00  0.00     0.115 C 
ATOM      8  C   UNL     1     122.987 107.497 121.788  1.00  0.00     0.096 C 
ATOM      9  C   UNL     1     123.693 108.178 120.619  1.00  0.00     0.267 C 
ATOM     10  O   UNL     1     122.648 108.760 119.922  1.00  0.00    -0.342 OA
ATOM     11  O   UNL     1     124.581 109.058 121.167  1.00  0.00    -0.320 OA
ENDROOT
BRANCH   7  12
ATOM     12  O   UNL     1     120.562 107.445 121.404  1.00  0.00    -0.339 OA
BRANCH  12  13
ATOM     13  C   UNL     1     119.569 107.000 122.188  1.00  0.00     0.282 C 
ATOM     14  C   UNL     1     118.153 107.071 121.399  1.00  0.00     0.202 C 
ATOM     15  O   UNL     1     119.414 105.805 122.278  1.00  0.00    -0.341 OA
ATOM     16  C   UNL     1     117.045 106.063 122.063  1.00  0.00     0.179 C 
ATOM     17  C   UNL     1     119.264 104.641 122.364  1.00  0.00     0.178 C 
ATOM     18  C   UNL     1     117.854 104.756 121.572  1.00  0.00     0.177 C 
BRANCH  14  19
ATOM     19  O   UNL     1     117.610 108.282 121.447  1.00  0.00    -0.385 OA
ATOM     20  H   UNL     1     118.240 109.057 121.362  1.00  0.00     0.211 HD
ENDBRANCH  14  19
BRANCH  16  21
ATOM     21  O   UNL     1     115.889 106.209 121.462  1.00  0.00    -0.387 OA
ATOM     22  H   UNL     1     115.701 107.174 121.313  1.00  0.00     0.211 HD
ENDBRANCH  16  21
BRANCH  17  23
ATOM     23  C   UNL     1     120.044 103.653 121.560  1.00  0.00     0.191 C 
BRANCH  23  24
ATOM     24  O   UNL     1     120.555 104.303 120.420  1.00  0.00    -0.394 OA
ATOM     25  H   UNL     1     121.320 103.799 120.048  1.00  0.00     0.210 HD
ENDBRANCH  23  24
ENDBRANCH  17  23
BRANCH  18  26
ATOM     26  O   UNL     1     117.142 103.655 121.751  1.00  0.00    -0.387 OA
ATOM     27  H   UNL     1     117.771 102.862 121.797  1.00  0.00     0.211 HD
ENDBRANCH  18  26
ENDBRANCH  12  13
ENDBRANCH   7  12
BRANCH   4  28
ATOM     28  O   UNL     1     124.660 110.425 123.055  1.00  0.00    -0.365 OA
ATOM     29  H   UNL     1     124.565 111.370 122.703  1.00  0.00     0.214 HD
ENDBRANCH   4  28
BRANCH   8  30
ATOM     30  C   UNL     1     123.233 106.055 121.894  1.00  0.00     0.249 C 
BRANCH  30  31
ATOM     31  O   UNL     1     123.201 105.491 120.565  1.00  0.00    -0.461 OA
BRANCH  31  32
ATOM     32  C   UNL     1     124.043 104.456 120.239  1.00  0.00     0.338 C 
ATOM     33  O   UNL     1     123.470 103.325 120.093  1.00  0.00    -0.246 OA
BRANCH  32  34
ATOM     34  C   UNL     1     125.473 104.535 120.046  1.00  0.00     0.060 A 
ATOM     35  C   UNL     1     126.388 103.729 120.668  1.00  0.00     0.015 A 
ATOM     36  C   UNL     1     125.995 105.511 119.195  1.00  0.00     0.015 A 
ATOM     37  C   UNL     1     127.771 103.853 120.483  1.00  0.00     0.001 A 
ATOM     38  C   UNL     1     127.356 105.641 119.005  1.00  0.00     0.001 A 
ATOM     39  C   UNL     1     128.267 104.828 119.637  1.00  0.00     0.000 A 
ENDBRANCH  32  34
ENDBRANCH  31  32
ENDBRANCH  30  31
ENDBRANCH   8  30
TORSDOF 12
ENDMDL
MODEL 4
REMARK VINA RESULT:    -4.502      2.250      6.088
REMARK INTER + INTRA:          -8.711
REMARK INTER:                  -7.233
REMARK INTRA:                  -1.477
REMARK UNBOUND:                -1.708
REMARK SMILES C[C@]12C[C@]3(O)O[C@H](O1)[C@@]1(COC(=O)c4ccccc4)[C@@H]3C[C@]12O[C@@H]1O[C@H](CO)[C@@H](O)[C@H](O)[C@H]1O
REMARK SMILES IDX 1 1 2 2 3 3 4 4 20 5 21 6 22 7 9 8 7 9 8 10 6 11 23 12 24 13
REMARK SMILES IDX 33 14 25 15 31 16 26 17 29 18 34 19 32 21 27 23 28 24 30 26
REMARK SMILES IDX 5 28 10 30 11 31 12 32 13 33 14 34 15 35 19 36 16 37 18 38
REMARK SMILES IDX 17 39
REMARK H PARENT 34 20 32 22 28 25 30 27 5 29
REMARK Flexibility Score: inf
ROOT
ATOM      1  C   UNL     1     126.147 113.249 111.277  1.00  0.00     0.046 C 
ATOM      2  C   UNL     1     125.387 114.175 110.400  1.00  0.00     0.104 C 
ATOM      3  C   UNL     1     126.108 115.423 110.030  1.00  0.00     0.104 C 
ATOM      4  C   UNL     1     125.220 116.205 109.092  1.00  0.00     0.175 C 
ATOM      5  C   UNL     1     124.656 115.267 108.067  1.00  0.00     0.070 C 
ATOM      6  C   UNL     1     125.503 113.981 107.978  1.00  0.00     0.050 C 
ATOM      7  C   UNL     1     124.761 113.492 109.169  1.00  0.00     0.115 C 
ATOM      8  C   UNL     1     123.676 114.442 108.856  1.00  0.00     0.096 C 
ATOM      9  C   UNL     1     123.517 115.291 110.115  1.00  0.00     0.267 C 
ATOM     10  O   UNL     1     124.200 114.559 111.071  1.00  0.00    -0.342 OA
ATOM     11  O   UNL     1     124.057 116.510 109.828  1.00  0.00    -0.320 OA
ENDROOT
BRANCH   7  12
ATOM     12  O   UNL     1     124.544 112.218 109.433  1.00  0.00    -0.339 OA
BRANCH  12  13
ATOM     13  C   UNL     1     124.491 111.233 108.526  1.00  0.00     0.282 C 
ATOM     14  C   UNL     1     125.290 109.927 109.065  1.00  0.00     0.202 C 
ATOM     15  O   UNL     1     123.491 110.556 108.487  1.00  0.00    -0.341 OA
ATOM     16  C   UNL     1     124.807 108.566 108.292  1.00  0.00     0.179 C 
ATOM     17  C   UNL     1     122.518 109.896 108.450  1.00  0.00     0.178 C 
ATOM     18  C   UNL     1     123.352 108.617 108.990  1.00  0.00     0.177 C 
BRANCH  14  19
ATOM     19  O   UNL     1     126.598 110.015 108.852  1.00  0.00    -0.385 OA
ATOM     20  H   UNL     1     127.139 110.455 109.572  1.00  0.00     0.211 HD
ENDBRANCH  14  19
BRANCH  16  21
ATOM     21  O   UNL     1     125.531 107.546 108.684  1.00  0.00    -0.387 OA
ATOM     22  H   UNL     1     126.136 107.822 109.424  1.00  0.00     0.211 HD
ENDBRANCH  16  21
BRANCH  17  23
ATOM     23  C   UNL     1     121.400 110.032 109.432  1.00  0.00     0.191 C 
BRANCH  23  24
ATOM     24  O   UNL     1     120.548 111.068 109.005  1.00  0.00    -0.394 OA
ATOM     25  H   UNL     1     119.601 110.792 109.085  1.00  0.00     0.210 HD
ENDBRANCH  23  24
ENDBRANCH  17  23
BRANCH  18  26
ATOM     26  O   UNL     1     122.673 107.503 108.766  1.00  0.00    -0.387 OA
ATOM     27  H   UNL     1     121.935 107.427 109.455  1.00  0.00     0.211 HD
ENDBRANCH  18  26
ENDBRANCH  12  13
ENDBRANCH   7  12
BRANCH   4  28
ATOM     28  O   UNL     1     125.830 117.314 108.542  1.00  0.00    -0.365 OA
ATOM     29  H   UNL     1     126.386 117.728 109.280  1.00  0.00     0.214 HD
ENDBRANCH   4  28
BRANCH   8  30
ATOM     30  C   UNL     1     122.414 114.040 108.227  1.00  0.00     0.249 C 
BRANCH  30  31
ATOM     31  O   UNL     1     121.380 114.060 109.234  1.00  0.00    -0.461 OA
BRANCH  31  32
ATOM     32  C   UNL     1     120.134 114.553 108.927  1.00  0.00     0.338 C 
ATOM     33  O   UNL     1     119.371 113.735 108.312  1.00  0.00    -0.246 OA
BRANCH  32  34
ATOM     34  C   UNL     1     119.627 115.870 109.236  1.00  0.00     0.060 A 
ATOM     35  C   UNL     1     120.085 116.663 110.254  1.00  0.00     0.015 A 
ATOM     36  C   UNL     1     118.575 116.392 108.481  1.00  0.00     0.015 A 
ATOM     37  C   UNL     1     119.550 117.923 110.546  1.00  0.00     0.001 A 
ATOM     38  C   UNL     1     118.039 117.633 108.759  1.00  0.00     0.001 A 
ATOM     39  C   UNL     1     118.506 118.419 109.786  1.00  0.00     0.000 A 
ENDBRANCH  32  34
ENDBRANCH  31  32
ENDBRANCH  30  31
ENDBRANCH   8  30
TORSDOF 12
ENDMDL
MODEL 5
REMARK VINA RESULT:    -4.249      4.080      6.480
REMARK INTER + INTRA:          -8.317
REMARK INTER:                  -7.020
REMARK INTRA:                  -1.297
REMARK UNBOUND:                -1.708
REMARK SMILES C[C@]12C[C@]3(O)O[C@H](O1)[C@@]1(COC(=O)c4ccccc4)[C@@H]3C[C@]12O[C@@H]1O[C@H](CO)[C@@H](O)[C@H](O)[C@H]1O
REMARK SMILES IDX 1 1 2 2 3 3 4 4 20 5 21 6 22 7 9 8 7 9 8 10 6 11 23 12 24 13
REMARK SMILES IDX 33 14 25 15 31 16 26 17 29 18 34 19 32 21 27 23 28 24 30 26
REMARK SMILES IDX 5 28 10 30 11 31 12 32 13 33 14 34 15 35 19 36 16 37 18 38
REMARK SMILES IDX 17 39
REMARK H PARENT 34 20 32 22 28 25 30 27 5 29
REMARK Flexibility Score: inf
ROOT
ATOM      1  C   UNL     1     122.728 110.117 112.042  1.00  0.00     0.046 C 
ATOM      2  C   UNL     1     124.025 109.407 111.903  1.00  0.00     0.104 C 
ATOM      3  C   UNL     1     123.952 107.930 112.064  1.00  0.00     0.104 C 
ATOM      4  C   UNL     1     125.336 107.374 111.827  1.00  0.00     0.175 C 
ATOM      5  C   UNL     1     125.914 108.023 110.605  1.00  0.00     0.070 C 
ATOM      6  C   UNL     1     124.798 108.632 109.730  1.00  0.00     0.050 C 
ATOM      7  C   UNL     1     124.818 109.805 110.643  1.00  0.00     0.115 C 
ATOM      8  C   UNL     1     126.185 109.431 111.057  1.00  0.00     0.096 C 
ATOM      9  C   UNL     1     126.112 109.277 112.574  1.00  0.00     0.267 C 
ATOM     10  O   UNL     1     124.914 109.894 112.892  1.00  0.00    -0.342 OA
ATOM     11  O   UNL     1     126.154 107.937 112.827  1.00  0.00    -0.320 OA
ENDROOT
BRANCH   7  12
ATOM     12  O   UNL     1     124.489 111.029 110.282  1.00  0.00    -0.339 OA
BRANCH  12  13
ATOM     13  C   UNL     1     124.392 111.469 109.019  1.00  0.00     0.282 C 
ATOM     14  C   UNL     1     123.121 112.467 108.866  1.00  0.00     0.202 C 
ATOM     15  O   UNL     1     125.103 112.387 108.686  1.00  0.00    -0.341 OA
ATOM     16  C   UNL     1     123.273 113.436 107.553  1.00  0.00     0.179 C 
ATOM     17  C   UNL     1     125.795 113.282 108.362  1.00  0.00     0.178 C 
ATOM     18  C   UNL     1     124.500 114.245 108.221  1.00  0.00     0.177 C 
BRANCH  14  19
ATOM     19  O   UNL     1     121.981 111.807 108.694  1.00  0.00    -0.385 OA
ATOM     20  H   UNL     1     121.509 111.950 107.822  1.00  0.00     0.211 HD
ENDBRANCH  14  19
BRANCH  16  21
ATOM     21  O   UNL     1     122.194 114.164 107.407  1.00  0.00    -0.387 OA
ATOM     22  H   UNL     1     121.454 113.609 107.041  1.00  0.00     0.211 HD
ENDBRANCH  16  21
BRANCH  17  23
ATOM     23  C   UNL     1     126.682 114.016 109.314  1.00  0.00     0.191 C 
BRANCH  23  24
ATOM     24  O   UNL     1     127.701 114.652 108.581  1.00  0.00    -0.394 OA
ATOM     25  H   UNL     1     127.648 114.404 107.625  1.00  0.00     0.210 HD
ENDBRANCH  23  24
ENDBRANCH  17  23
BRANCH  18  26
ATOM     26  O   UNL     1     124.807 115.320 107.514  1.00  0.00    -0.387 OA
ATOM     27  H   UNL     1     124.887 115.058 106.539  1.00  0.00     0.211 HD
ENDBRANCH  18  26
ENDBRANCH  12  13
ENDBRANCH   7  12
BRANCH   4  28
ATOM     28  O   UNL     1     125.384 105.995 111.789  1.00  0.00    -0.365 OA
ATOM     29  H   UNL     1     125.082 105.675 112.700  1.00  0.00     0.214 HD
ENDBRANCH   4  28
BRANCH   8  30
ATOM     30  C   UNL     1     127.386 110.118 110.571  1.00  0.00     0.249 C 
BRANCH  30  31
ATOM     31  O   UNL     1     127.983 110.826 111.678  1.00  0.00    -0.461 OA
BRANCH  31  32
ATOM     32  C   UNL     1     129.351 110.894 111.791  1.00  0.00     0.338 C 
ATOM     33  O   UNL     1     129.853 110.135 112.686  1.00  0.00    -0.246 OA
BRANCH  32  34
ATOM     34  C   UNL     1     130.241 111.718 111.007  1.00  0.00     0.060 A 
ATOM     35  C   UNL     1     130.057 113.052 110.763  1.00  0.00     0.015 A 
ATOM     36  C   UNL     1     131.365 111.138 110.415  1.00  0.00     0.015 A 
ATOM     37  C   UNL     1     130.923 113.816 109.971  1.00  0.00     0.001 A 
ATOM     38  C   UNL     1     132.226 111.880 109.633  1.00  0.00     0.001 A 
ATOM     39  C   UNL     1     132.030 113.220 109.393  1.00  0.00     0.000 A 
ENDBRANCH  32  34
ENDBRANCH  31  32
ENDBRANCH  30  31
ENDBRANCH   8  30
TORSDOF 12
ENDMDL
MODEL 6
REMARK VINA RESULT:    -4.212     13.266     15.133
REMARK INTER + INTRA:          -8.259
REMARK INTER:                  -7.624
REMARK INTRA:                  -0.635
REMARK UNBOUND:                -1.708
REMARK SMILES C[C@]12C[C@]3(O)O[C@H](O1)[C@@]1(COC(=O)c4ccccc4)[C@@H]3C[C@]12O[C@@H]1O[C@H](CO)[C@@H](O)[C@H](O)[C@H]1O
REMARK SMILES IDX 1 1 2 2 3 3 4 4 20 5 21 6 22 7 9 8 7 9 8 10 6 11 23 12 24 13
REMARK SMILES IDX 33 14 25 15 31 16 26 17 29 18 34 19 32 21 27 23 28 24 30 26
REMARK SMILES IDX 5 28 10 30 11 31 12 32 13 33 14 34 15 35 19 36 16 37 18 38
REMARK SMILES IDX 17 39
REMARK H PARENT 34 20 32 22 28 25 30 27 5 29
REMARK Flexibility Score: inf
ROOT
ATOM      1  C   UNL     1     120.512 110.458 120.972  1.00  0.00     0.046 C 
ATOM      2  C   UNL     1     121.618 109.509 121.257  1.00  0.00     0.104 C 
ATOM      3  C   UNL     1     122.809 110.112 121.913  1.00  0.00     0.104 C 
ATOM      4  C   UNL     1     123.795 109.001 122.185  1.00  0.00     0.175 C 
ATOM      5  C   UNL     1     123.058 107.834 122.771  1.00  0.00     0.070 C 
ATOM      6  C   UNL     1     121.702 108.283 123.357  1.00  0.00     0.050 C 
ATOM      7  C   UNL     1     121.163 108.222 121.973  1.00  0.00     0.115 C 
ATOM      8  C   UNL     1     122.262 107.309 121.608  1.00  0.00     0.096 C 
ATOM      9  C   UNL     1     122.967 107.984 120.434  1.00  0.00     0.267 C 
ATOM     10  O   UNL     1     122.053 108.944 120.034  1.00  0.00    -0.342 OA
ATOM     11  O   UNL     1     124.142 108.477 120.923  1.00  0.00    -0.320 OA
ENDROOT
BRANCH   7  12
ATOM     12  O   UNL     1     119.901 107.977 121.682  1.00  0.00    -0.339 OA
BRANCH  12  13
ATOM     13  C   UNL     1     119.382 106.768 121.421  1.00  0.00     0.282 C 
ATOM     14  C   UNL     1     118.606 106.195 122.725  1.00  0.00     0.202 C 
ATOM     15  O   UNL     1     118.332 106.723 120.825  1.00  0.00    -0.341 OA
ATOM     16  C   UNL     1     117.522 105.036 122.317  1.00  0.00     0.179 C 
ATOM     17  C   UNL     1     117.309 106.678 120.245  1.00  0.00     0.178 C 
ATOM     18  C   UNL     1     116.572 106.107 121.571  1.00  0.00     0.177 C 
BRANCH  14  19
ATOM     19  O   UNL     1     119.434 105.622 123.591  1.00  0.00    -0.385 OA
ATOM     20  H   UNL     1     119.137 104.748 123.982  1.00  0.00     0.211 HD
ENDBRANCH  14  19
BRANCH  16  21
ATOM     21  O   UNL     1     116.978 104.531 123.398  1.00  0.00    -0.387 OA
ATOM     22  H   UNL     1     116.691 103.594 123.229  1.00  0.00     0.211 HD
ENDBRANCH  16  21
BRANCH  17  23
ATOM     23  C   UNL     1     116.515 107.894 119.894  1.00  0.00     0.191 C 
BRANCH  23  24
ATOM     24  O   UNL     1     116.019 108.467 121.080  1.00  0.00    -0.394 OA
ATOM     25  H   UNL     1     115.506 109.288 120.880  1.00  0.00     0.210 HD
ENDBRANCH  23  24
ENDBRANCH  17  23
BRANCH  18  26
ATOM     26  O   UNL     1     115.406 105.571 121.247  1.00  0.00    -0.387 OA
ATOM     27  H   UNL     1     115.310 105.582 120.239  1.00  0.00     0.211 HD
ENDBRANCH  18  26
ENDBRANCH  12  13
ENDBRANCH   7  12
BRANCH   4  28
ATOM     28  O   UNL     1     124.884 109.393 122.936  1.00  0.00    -0.365 OA
ATOM     29  H   UNL     1     124.569 110.164 123.512  1.00  0.00     0.214 HD
ENDBRANCH   4  28
BRANCH   8  30
ATOM     30  C   UNL     1     122.086 105.859 121.461  1.00  0.00     0.249 C 
BRANCH  30  31
ATOM     31  O   UNL     1     122.886 105.416 120.345  1.00  0.00    -0.461 OA
BRANCH  31  32
ATOM     32  C   UNL     1     123.838 104.442 120.528  1.00  0.00     0.338 C 
ATOM     33  O   UNL     1     123.403 103.359 121.044  1.00  0.00    -0.246 OA
BRANCH  32  34
ATOM     34  C   UNL     1     125.240 104.531 120.192  1.00  0.00     0.060 A 
ATOM     35  C   UNL     1     126.222 103.742 120.728  1.00  0.00     0.015 A 
ATOM     36  C   UNL     1     125.665 105.502 119.282  1.00  0.00     0.015 A 
ATOM     37  C   UNL     1     127.578 103.875 120.404  1.00  0.00     0.001 A 
ATOM     38  C   UNL     1     126.998 105.643 118.955  1.00  0.00     0.001 A 
ATOM     39  C   UNL     1     127.976 104.845 119.502  1.00  0.00     0.000 A 
ENDBRANCH  32  34
ENDBRANCH  31  32
ENDBRANCH  30  31
ENDBRANCH   8  30
TORSDOF 12
ENDMDL
MODEL 7
REMARK VINA RESULT:    -4.141      2.756      8.066
REMARK INTER + INTRA:          -8.148
REMARK INTER:                  -6.740
REMARK INTRA:                  -1.408
REMARK UNBOUND:                -1.708
REMARK SMILES C[C@]12C[C@]3(O)O[C@H](O1)[C@@]1(COC(=O)c4ccccc4)[C@@H]3C[C@]12O[C@@H]1O[C@H](CO)[C@@H](O)[C@H](O)[C@H]1O
REMARK SMILES IDX 1 1 2 2 3 3 4 4 20 5 21 6 22 7 9 8 7 9 8 10 6 11 23 12 24 13
REMARK SMILES IDX 33 14 25 15 31 16 26 17 29 18 34 19 32 21 27 23 28 24 30 26
REMARK SMILES IDX 5 28 10 30 11 31 12 32 13 33 14 34 15 35 19 36 16 37 18 38
REMARK SMILES IDX 17 39
REMARK H PARENT 34 20 32 22 28 25 30 27 5 29
REMARK Flexibility Score: inf
ROOT
ATOM      1  C   UNL     1     123.790 115.960 111.240  1.00  0.00     0.046 C 
ATOM      2  C   UNL     1     123.552 114.786 110.364  1.00  0.00     0.104 C 
ATOM      3  C   UNL     1     122.231 114.769 109.681  1.00  0.00     0.104 C 
ATOM      4  C   UNL     1     122.189 113.552 108.789  1.00  0.00     0.175 C 
ATOM      5  C   UNL     1     123.484 113.459 108.038  1.00  0.00     0.070 C 
ATOM      6  C   UNL     1     124.203 114.824 108.019  1.00  0.00     0.050 C 
ATOM      7  C   UNL     1     124.705 114.501 109.381  1.00  0.00     0.115 C 
ATOM      8  C   UNL     1     124.473 113.070 109.103  1.00  0.00     0.096 C 
ATOM      9  C   UNL     1     123.543 112.595 110.216  1.00  0.00     0.267 C 
ATOM     10  O   UNL     1     123.633 113.612 111.151  1.00  0.00    -0.342 OA
ATOM     11  O   UNL     1     122.312 112.441 109.648  1.00  0.00    -0.320 OA
ENDROOT
BRANCH   7  12
ATOM     12  O   UNL     1     125.835 114.960 109.881  1.00  0.00    -0.339 OA
BRANCH  12  13
ATOM     13  C   UNL     1     126.757 115.663 109.206  1.00  0.00     0.282 C 
ATOM     14  C   UNL     1     127.122 117.027 110.006  1.00  0.00     0.202 C 
ATOM     15  O   UNL     1     127.913 115.332 109.321  1.00  0.00    -0.341 OA
ATOM     16  C   UNL     1     128.578 117.620 109.547  1.00  0.00     0.179 C 
ATOM     17  C   UNL     1     129.039 115.010 109.435  1.00  0.00     0.178 C 
ATOM     18  C   UNL     1     129.361 116.385 110.230  1.00  0.00     0.177 C 
BRANCH  14  19
ATOM     19  O   UNL     1     126.248 117.998 109.769  1.00  0.00    -0.385 OA
ATOM     20  H   UNL     1     125.298 117.818 110.032  1.00  0.00     0.211 HD
ENDBRANCH  14  19
BRANCH  16  21
ATOM     21  O   UNL     1     128.803 118.766 110.143  1.00  0.00    -0.387 OA
ATOM     22  H   UNL     1     129.780 118.949 110.172  1.00  0.00     0.211 HD
ENDBRANCH  16  21
BRANCH  17  23
ATOM     23  C   UNL     1     129.494 113.942 110.374  1.00  0.00     0.191 C 
BRANCH  23  24
ATOM     24  O   UNL     1     128.439 113.028 110.563  1.00  0.00    -0.394 OA
ATOM     25  H   UNL     1     128.495 112.294 109.903  1.00  0.00     0.210 HD
ENDBRANCH  23  24
ENDBRANCH  17  23
BRANCH  18  26
ATOM     26  O   UNL     1     130.667 116.600 110.256  1.00  0.00    -0.387 OA
ATOM     27  H   UNL     1     131.124 115.790 110.658  1.00  0.00     0.211 HD
ENDBRANCH  18  26
ENDBRANCH  12  13
ENDBRANCH   7  12
BRANCH   4  28
ATOM     28  O   UNL     1     121.078 113.496 107.973  1.00  0.00    -0.365 OA
ATOM     29  H   UNL     1     121.240 112.736 107.324  1.00  0.00     0.214 HD
ENDBRANCH   4  28
BRANCH   8  30
ATOM     30  C   UNL     1     125.551 112.134 108.766  1.00  0.00     0.249 C 
BRANCH  30  31
ATOM     31  O   UNL     1     125.985 111.487 109.981  1.00  0.00    -0.461 OA
BRANCH  31  32
ATOM     32  C   UNL     1     126.515 110.221 109.932  1.00  0.00     0.338 C 
ATOM     33  O   UNL     1     127.746 110.142 110.261  1.00  0.00    -0.246 OA
BRANCH  32  34
ATOM     34  C   UNL     1     125.823 109.009 109.559  1.00  0.00     0.060 A 
ATOM     35  C   UNL     1     125.307 108.758 108.316  1.00  0.00     0.015 A 
ATOM     36  C   UNL     1     125.622 108.014 110.517  1.00  0.00     0.015 A 
ATOM     37  C   UNL     1     124.613 107.584 107.995  1.00  0.00     0.001 A 
ATOM     38  C   UNL     1     124.940 106.853 110.212  1.00  0.00     0.001 A 
ATOM     39  C   UNL     1     124.423 106.612 108.961  1.00  0.00     0.000 A 
ENDBRANCH  32  34
ENDBRANCH  31  32
ENDBRANCH  30  31
ENDBRANCH   8  30
TORSDOF 12
ENDMDL
MODEL 8
REMARK VINA RESULT:    -4.118     14.729     16.793
REMARK INTER + INTRA:          -8.112
REMARK INTER:                  -6.714
REMARK INTRA:                  -1.399
REMARK UNBOUND:                -1.708
REMARK SMILES C[C@]12C[C@]3(O)O[C@H](O1)[C@@]1(COC(=O)c4ccccc4)[C@@H]3C[C@]12O[C@@H]1O[C@H](CO)[C@@H](O)[C@H](O)[C@H]1O
REMARK SMILES IDX 1 1 2 2 3 3 4 4 20 5 21 6 22 7 9 8 7 9 8 10 6 11 23 12 24 13
REMARK SMILES IDX 33 14 25 15 31 16 26 17 29 18 34 19 32 21 27 23 28 24 30 26
REMARK SMILES IDX 5 28 10 30 11 31 12 32 13 33 14 34 15 35 19 36 16 37 18 38
REMARK SMILES IDX 17 39
REMARK H PARENT 34 20 32 22 28 25 30 27 5 29
REMARK Flexibility Score: inf
ROOT
ATOM      1  C   UNL     1     117.630 108.117 120.120  1.00  0.00     0.046 C 
ATOM      2  C   UNL     1     118.868 107.333 120.359  1.00  0.00     0.104 C 
ATOM      3  C   UNL     1     120.113 108.142 120.456  1.00  0.00     0.104 C 
ATOM      4  C   UNL     1     121.251 107.198 120.764  1.00  0.00     0.175 C 
ATOM      5  C   UNL     1     120.816 106.257 121.847  1.00  0.00     0.070 C 
ATOM      6  C   UNL     1     119.612 106.832 122.621  1.00  0.00     0.050 C 
ATOM      7  C   UNL     1     118.751 106.326 121.520  1.00  0.00     0.115 C 
ATOM      8  C   UNL     1     119.816 105.372 121.155  1.00  0.00     0.096 C 
ATOM      9  C   UNL     1     120.124 105.662 119.689  1.00  0.00     0.267 C 
ATOM     10  O   UNL     1     119.040 106.423 119.288  1.00  0.00    -0.342 OA
ATOM     11  O   UNL     1     121.323 106.313 119.669  1.00  0.00    -0.320 OA
ENDROOT
BRANCH   7  12
ATOM     12  O   UNL     1     117.491 105.970 121.671  1.00  0.00    -0.339 OA
BRANCH  12  13
ATOM     13  C   UNL     1     116.812 105.978 122.827  1.00  0.00     0.282 C 
ATOM     14  C   UNL     1     115.266 106.397 122.570  1.00  0.00     0.202 C 
ATOM     15  O   UNL     1     116.413 104.920 123.254  1.00  0.00    -0.341 OA
ATOM     16  C   UNL     1     114.297 105.899 123.794  1.00  0.00     0.179 C 
ATOM     17  C   UNL     1     116.024 103.890 123.668  1.00  0.00     0.178 C 
ATOM     18  C   UNL     1     114.494 104.347 123.395  1.00  0.00     0.177 C 
BRANCH  14  19
ATOM     19  O   UNL     1     115.106 107.714 122.500  1.00  0.00    -0.385 OA
ATOM     20  H   UNL     1     114.588 108.141 123.244  1.00  0.00     0.211 HD
ENDBRANCH  14  19
BRANCH  16  21
ATOM     21  O   UNL     1     113.074 106.329 123.601  1.00  0.00    -0.387 OA
ATOM     22  H   UNL     1     112.891 107.112 124.188  1.00  0.00     0.211 HD
ENDBRANCH  16  21
BRANCH  17  23
ATOM     23  C   UNL     1     116.150 102.606 122.916  1.00  0.00     0.191 C 
BRANCH  23  24
ATOM     24  O   UNL     1     116.503 102.896 121.584  1.00  0.00    -0.394 OA
ATOM     25  H   UNL     1     117.435 102.618 121.405  1.00  0.00     0.210 HD
ENDBRANCH  23  24
ENDBRANCH  17  23
BRANCH  18  26
ATOM     26  O   UNL     1     113.660 103.570 124.068  1.00  0.00    -0.387 OA
ATOM     27  H   UNL     1     113.780 102.614 123.754  1.00  0.00     0.211 HD
ENDBRANCH  18  26
ENDBRANCH  12  13
ENDBRANCH   7  12
BRANCH   4  28
ATOM     28  O   UNL     1     122.444 107.834 121.037  1.00  0.00    -0.365 OA
ATOM     29  H   UNL     1     122.272 108.429 121.838  1.00  0.00     0.214 HD
ENDBRANCH   4  28
BRANCH   8  30
ATOM     30  C   UNL     1     119.767 103.946 121.498  1.00  0.00     0.249 C 
BRANCH  30  31
ATOM     31  O   UNL     1     120.417 103.205 120.444  1.00  0.00    -0.461 OA
BRANCH  31  32
ATOM     32  C   UNL     1     121.477 102.381 120.739  1.00  0.00     0.338 C 
ATOM     33  O   UNL     1     121.153 101.214 121.143  1.00  0.00    -0.246 OA
BRANCH  32  34
ATOM     34  C   UNL     1     122.880 102.707 120.629  1.00  0.00     0.060 A 
ATOM     35  C   UNL     1     123.445 103.875 121.066  1.00  0.00     0.015 A 
ATOM     36  C   UNL     1     123.746 101.802 120.011  1.00  0.00     0.015 A 
ATOM     37  C   UNL     1     124.805 104.173 120.916  1.00  0.00     0.001 A 
ATOM     38  C   UNL     1     125.088 102.086 119.857  1.00  0.00     0.001 A 
ATOM     39  C   UNL     1     125.644 103.263 120.298  1.00  0.00     0.000 A 
ENDBRANCH  32  34
ENDBRANCH  31  32
ENDBRANCH  30  31
ENDBRANCH   8  30
TORSDOF 12
ENDMDL
MODEL 9
REMARK VINA RESULT:    -4.089      2.173      6.754
REMARK INTER + INTRA:          -8.068
REMARK INTER:                  -6.893
REMARK INTRA:                  -1.175
REMARK UNBOUND:                -1.708
REMARK SMILES C[C@]12C[C@]3(O)O[C@H](O1)[C@@]1(COC(=O)c4ccccc4)[C@@H]3C[C@]12O[C@@H]1O[C@H](CO)[C@@H](O)[C@H](O)[C@H]1O
REMARK SMILES IDX 1 1 2 2 3 3 4 4 20 5 21 6 22 7 9 8 7 9 8 10 6 11 23 12 24 13
REMARK SMILES IDX 33 14 25 15 31 16 26 17 29 18 34 19 32 21 27 23 28 24 30 26
REMARK SMILES IDX 5 28 10 30 11 31 12 32 13 33 14 34 15 35 19 36 16 37 18 38
REMARK SMILES IDX 17 39
REMARK H PARENT 34 20 32 22 28 25 30 27 5 29
REMARK Flexibility Score: inf
ROOT
ATOM      1  C   UNL     1     123.688 112.889 107.705  1.00  0.00     0.046 C 
ATOM      2  C   UNL     1     122.686 113.157 108.767  1.00  0.00     0.104 C 
ATOM      3  C   UNL     1     121.911 111.968 109.213  1.00  0.00     0.104 C 
ATOM      4  C   UNL     1     120.998 112.408 110.331  1.00  0.00     0.175 C 
ATOM      5  C   UNL     1     121.778 113.263 111.284  1.00  0.00     0.070 C 
ATOM      6  C   UNL     1     123.293 113.021 111.119  1.00  0.00     0.050 C 
ATOM      7  C   UNL     1     123.246 113.952 109.963  1.00  0.00     0.115 C 
ATOM      8  C   UNL     1     122.003 114.531 110.507  1.00  0.00     0.096 C 
ATOM      9  C   UNL     1     120.973 114.382 109.389  1.00  0.00     0.267 C 
ATOM     10  O   UNL     1     121.756 114.107 108.281  1.00  0.00    -0.342 OA
ATOM     11  O   UNL     1     120.137 113.373 109.769  1.00  0.00    -0.320 OA
ENDROOT
BRANCH   7  12
ATOM     12  O   UNL     1     124.265 114.689 109.564  1.00  0.00    -0.339 OA
BRANCH  12  13
ATOM     13  C   UNL     1     125.424 114.836 110.223  1.00  0.00     0.282 C 
ATOM     14  C   UNL     1     126.654 114.266 109.331  1.00  0.00     0.202 C 
ATOM     15  O   UNL     1     125.956 115.921 110.192  1.00  0.00    -0.341 OA
ATOM     16  C   UNL     1     128.087 114.901 109.809  1.00  0.00     0.179 C 
ATOM     17  C   UNL     1     126.473 116.977 110.161  1.00  0.00     0.178 C 
ATOM     18  C   UNL     1     127.683 116.368 109.271  1.00  0.00     0.177 C 
BRANCH  14  19
ATOM     19  O   UNL     1     126.790 112.950 109.443  1.00  0.00    -0.385 OA
ATOM     20  H   UNL     1     125.953 112.406 109.351  1.00  0.00     0.211 HD
ENDBRANCH  14  19
BRANCH  16  21
ATOM     21  O   UNL     1     129.068 114.355 109.132  1.00  0.00    -0.387 OA
ATOM     22  H   UNL     1     129.278 114.907 108.332  1.00  0.00     0.211 HD
ENDBRANCH  16  21
BRANCH  17  23
ATOM     23  C   UNL     1     125.964 118.114 109.337  1.00  0.00     0.191 C 
BRANCH  23  24
ATOM     24  O   UNL     1     126.381 117.928 108.005  1.00  0.00    -0.394 OA
ATOM     25  H   UNL     1     127.285 118.305 107.870  1.00  0.00     0.210 HD
ENDBRANCH  23  24
ENDBRANCH  17  23
BRANCH  18  26
ATOM     26  O   UNL     1     128.721 117.189 109.291  1.00  0.00    -0.387 OA
ATOM     27  H   UNL     1     128.450 118.046 109.760  1.00  0.00     0.211 HD
ENDBRANCH  18  26
ENDBRANCH  12  13
ENDBRANCH   7  12
BRANCH   4  28
ATOM     28  O   UNL     1     120.331 111.370 110.948  1.00  0.00    -0.365 OA
ATOM     29  H   UNL     1     119.458 111.755 111.289  1.00  0.00     0.214 HD
ENDBRANCH   4  28
BRANCH   8  30
ATOM     30  C   UNL     1     121.957 115.817 111.211  1.00  0.00     0.249 C 
BRANCH  30  31
ATOM     31  O   UNL     1     121.553 116.834 110.271  1.00  0.00    -0.461 OA
BRANCH  31  32
ATOM     32  C   UNL     1     120.617 117.772 110.635  1.00  0.00     0.338 C 
ATOM     33  O   UNL     1     120.969 118.535 111.596  1.00  0.00    -0.246 OA
BRANCH  32  34
ATOM     34  C   UNL     1     119.315 117.966 110.041  1.00  0.00     0.060 A 
ATOM     35  C   UNL     1     118.868 117.329 108.915  1.00  0.00     0.015 A 
ATOM     36  C   UNL     1     118.433 118.885 110.614  1.00  0.00     0.015 A 
ATOM     37  C   UNL     1     117.610 117.564 108.346  1.00  0.00     0.001 A 
ATOM     38  C   UNL     1     117.190 119.125 110.062  1.00  0.00     0.001 A 
ATOM     39  C   UNL     1     116.754 118.481 108.929  1.00  0.00     0.000 A 
ENDBRANCH  32  34
ENDBRANCH  31  32
ENDBRANCH  30  31
ENDBRANCH   8  30
TORSDOF 12
ENDMDL
