MODEL 1
REMARK VINA RESULT:    -3.434      0.000      0.000
REMARK INTER + INTRA:          -9.299
REMARK INTER:                  -6.646
REMARK INTRA:                  -2.653
REMARK UNBOUND:                -2.653
REMARK SMILES CCCCCCCCCCCCCCCCCC(=O)[O-]
REMARK SMILES IDX 10 1 11 2 12 3 13 4 14 5 15 6 16 7 17 8 18 9 19 10 20 11
REMARK SMILES IDX 9 12 8 13 7 14 6 15 5 16 4 17 3 18 2 19 1 20
REMARK H PARENT
REMARK Flexibility Score: inf
ROOT
ATOM      1  C   UNL     1     169.314 169.517 150.069  1.00  0.00     0.000 C 
ENDROOT
BRANCH   1   2
ATOM      2  C   UNL     1     168.589 170.297 151.173  1.00  0.00     0.000 C 
BRANCH   2   3
ATOM      3  C   UNL     1     168.490 169.464 152.459  1.00  0.00     0.000 C 
BRANCH   3   4
ATOM      4  C   UNL     1     167.639 170.155 153.547  1.00  0.00     0.000 C 
BRANCH   4   5
ATOM      5  C   UNL     1     166.566 171.104 152.984  1.00  0.00     0.000 C 
BRANCH   5   6
ATOM      6  C   UNL     1     165.144 170.515 152.922  1.00  0.00     0.000 C 
BRANCH   6   7
ATOM      7  C   UNL     1     164.781 169.828 151.591  1.00  0.00     0.006 C 
BRANCH   7   8
ATOM      8  C   UNL     1     164.956 170.748 150.375  1.00  0.00     0.053 C 
BRANCH   8   9
ATOM      9  C   UNL     1     163.627 171.086 149.778  1.00  0.00     0.041 C 
ATOM     10  O   UNL     1     162.647 170.311 149.931  1.00  0.00    -0.550 OA
ATOM     11  O   UNL     1     163.459 172.280 149.086  1.00  0.00    -0.550 OA
ENDBRANCH   8   9
ENDBRANCH   7   8
ENDBRANCH   6   7
ENDBRANCH   5   6
ENDBRANCH   4   5
ENDBRANCH   3   4
ENDBRANCH   2   3
ENDBRANCH   1   2
BRANCH   1  12
ATOM     12  C   UNL     1     170.524 170.299 149.544  1.00  0.00     0.000 C 
BRANCH  12  13
ATOM     13  C   UNL     1     170.690 171.627 150.302  1.00  0.00    -0.000 C 
BRANCH  13  14
ATOM     14  C   UNL     1     172.073 171.766 150.957  1.00  0.00    -0.000 C 
BRANCH  14  15
ATOM     15  C   UNL     1     172.425 170.564 151.851  1.00  0.00    -0.000 C 
BRANCH  15  16
ATOM     16  C   UNL     1     171.728 170.618 153.221  1.00  0.00    -0.000 C 
BRANCH  16  17
ATOM     17  C   UNL     1     171.727 172.030 153.834  1.00  0.00    -0.000 C 
BRANCH  17  18
ATOM     18  C   UNL     1     170.307 172.545 154.124  1.00  0.00    -0.000 C 
BRANCH  18  19
ATOM     19  C   UNL     1     169.973 173.831 153.352  1.00  0.00    -0.003 C 
ATOM     20  C   UNL     1     168.483 174.149 153.437  1.00  0.00     0.004 C 
ENDBRANCH  18  19
ENDBRANCH  17  18
ENDBRANCH  16  17
ENDBRANCH  15  16
ENDBRANCH  14  15
ENDBRANCH  13  14
ENDBRANCH  12  13
ENDBRANCH   1  12
TORSDOF 16
ENDMDL
MODEL 2
REMARK VINA RESULT:    -3.364      2.759      4.766
REMARK INTER + INTRA:          -9.164
REMARK INTER:                  -6.132
REMARK INTRA:                  -3.032
REMARK UNBOUND:                -2.653
REMARK SMILES CCCCCCCCCCCCCCCCCC(=O)[O-]
REMARK SMILES IDX 10 1 11 2 12 3 13 4 14 5 15 6 16 7 17 8 18 9 19 10 20 11
REMARK SMILES IDX 9 12 8 13 7 14 6 15 5 16 4 17 3 18 2 19 1 20
REMARK H PARENT
REMARK Flexibility Score: inf
ROOT
ATOM      1  C   UNL     1     170.747 171.588 150.367  1.00  0.00     0.000 C 
ENDROOT
BRANCH   1   2
ATOM      2  C   UNL     1     170.415 170.149 150.780  1.00  0.00     0.000 C 
BRANCH   2   3
ATOM      3  C   UNL     1     171.685 169.286 150.832  1.00  0.00     0.000 C 
BRANCH   3   4
ATOM      4  C   UNL     1     171.878 168.601 152.203  1.00  0.00     0.000 C 
BRANCH   4   5
ATOM      5  C   UNL     1     170.624 168.635 153.095  1.00  0.00     0.000 C 
BRANCH   5   6
ATOM      6  C   UNL     1     170.903 168.663 154.609  1.00  0.00     0.000 C 
BRANCH   6   7
ATOM      7  C   UNL     1     169.695 169.043 155.487  1.00  0.00     0.006 C 
BRANCH   7   8
ATOM      8  C   UNL     1     168.697 167.890 155.666  1.00  0.00     0.053 C 
BRANCH   8   9
ATOM      9  C   UNL     1     167.328 168.308 155.230  1.00  0.00     0.041 C 
ATOM     10  O   UNL     1     166.882 167.949 154.109  1.00  0.00    -0.550 OA
ATOM     11  O   UNL     1     166.529 169.063 156.080  1.00  0.00    -0.550 OA
ENDBRANCH   8   9
ENDBRANCH   7   8
ENDBRANCH   6   7
ENDBRANCH   5   6
ENDBRANCH   4   5
ENDBRANCH   3   4
ENDBRANCH   2   3
ENDBRANCH   1   2
BRANCH   1  12
ATOM     12  C   UNL     1     172.106 172.024 150.928  1.00  0.00     0.000 C 
BRANCH  12  13
ATOM     13  C   UNL     1     171.927 172.925 152.161  1.00  0.00    -0.000 C 
BRANCH  13  14
ATOM     14  C   UNL     1     171.986 172.140 153.481  1.00  0.00    -0.000 C 
BRANCH  14  15
ATOM     15  C   UNL     1     170.766 172.407 154.381  1.00  0.00    -0.000 C 
BRANCH  15  16
ATOM     16  C   UNL     1     169.929 173.607 153.905  1.00  0.00    -0.000 C 
BRANCH  16  17
ATOM     17  C   UNL     1     168.599 173.185 153.254  1.00  0.00    -0.000 C 
BRANCH  17  18
ATOM     18  C   UNL     1     168.371 171.666 153.316  1.00  0.00    -0.000 C 
BRANCH  18  19
ATOM     19  C   UNL     1     166.918 171.272 153.010  1.00  0.00    -0.003 C 
ATOM     20  C   UNL     1     166.787 170.722 151.592  1.00  0.00     0.004 C 
ENDBRANCH  18  19
ENDBRANCH  17  18
ENDBRANCH  16  17
ENDBRANCH  15  16
ENDBRANCH  14  15
ENDBRANCH  13  14
ENDBRANCH  12  13
ENDBRANCH   1  12
TORSDOF 16
ENDMDL
MODEL 3
REMARK VINA RESULT:    -3.346      2.899      4.421
REMARK INTER + INTRA:          -9.128
REMARK INTER:                  -6.064
REMARK INTRA:                  -3.065
REMARK UNBOUND:                -2.653
REMARK SMILES CCCCCCCCCCCCCCCCCC(=O)[O-]
REMARK SMILES IDX 10 1 11 2 12 3 13 4 14 5 15 6 16 7 17 8 18 9 19 10 20 11
REMARK SMILES IDX 9 12 8 13 7 14 6 15 5 16 4 17 3 18 2 19 1 20
REMARK H PARENT
REMARK Flexibility Score: inf
ROOT
ATOM      1  C   UNL     1     171.199 173.218 152.832  1.00  0.00     0.000 C 
ENDROOT
BRANCH   1   2
ATOM      2  C   UNL     1     170.089 173.448 153.865  1.00  0.00     0.000 C 
BRANCH   2   3
ATOM      3  C   UNL     1     168.706 173.180 153.253  1.00  0.00     0.000 C 
BRANCH   3   4
ATOM      4  C   UNL     1     168.270 171.706 153.400  1.00  0.00     0.000 C 
BRANCH   4   5
ATOM      5  C   UNL     1     167.189 171.276 152.391  1.00  0.00     0.000 C 
BRANCH   5   6
ATOM      6  C   UNL     1     165.893 170.731 153.019  1.00  0.00     0.000 C 
BRANCH   6   7
ATOM      7  C   UNL     1     165.785 169.194 153.060  1.00  0.00     0.006 C 
BRANCH   7   8
ATOM      8  C   UNL     1     164.984 168.681 154.264  1.00  0.00     0.053 C 
BRANCH   8   9
ATOM      9  C   UNL     1     165.905 168.265 155.368  1.00  0.00     0.041 C 
ATOM     10  O   UNL     1     165.971 167.058 155.718  1.00  0.00    -0.550 OA
ATOM     11  O   UNL     1     166.720 169.207 155.984  1.00  0.00    -0.550 OA
ENDBRANCH   8   9
ENDBRANCH   7   8
ENDBRANCH   6   7
ENDBRANCH   5   6
ENDBRANCH   4   5
ENDBRANCH   3   4
ENDBRANCH   2   3
ENDBRANCH   1   2
BRANCH   1  12
ATOM     12  C   UNL     1     171.998 171.948 153.155  1.00  0.00     0.000 C 
BRANCH  12  13
ATOM     13  C   UNL     1     172.164 171.072 151.904  1.00  0.00    -0.000 C 
BRANCH  13  14
ATOM     14  C   UNL     1     171.047 171.294 150.872  1.00  0.00    -0.000 C 
BRANCH  14  15
ATOM     15  C   UNL     1     170.180 170.040 150.663  1.00  0.00    -0.000 C 
BRANCH  15  16
ATOM     16  C   UNL     1     170.509 168.917 151.662  1.00  0.00    -0.000 C 
BRANCH  16  17
ATOM     17  C   UNL     1     169.250 168.248 152.243  1.00  0.00    -0.000 C 
BRANCH  17  18
ATOM     18  C   UNL     1     169.330 168.068 153.768  1.00  0.00    -0.000 C 
BRANCH  18  19
ATOM     19  C   UNL     1     170.602 168.683 154.371  1.00  0.00    -0.003 C 
ATOM     20  C   UNL     1     170.261 169.634 155.514  1.00  0.00     0.004 C 
ENDBRANCH  18  19
ENDBRANCH  17  18
ENDBRANCH  16  17
ENDBRANCH  15  16
ENDBRANCH  14  15
ENDBRANCH  13  14
ENDBRANCH  12  13
ENDBRANCH   1  12
TORSDOF 16
ENDMDL
MODEL 4
REMARK VINA RESULT:    -3.322      1.634      3.409
REMARK INTER + INTRA:          -9.082
REMARK INTER:                  -6.032
REMARK INTRA:                  -3.050
REMARK UNBOUND:                -2.653
REMARK SMILES CCCCCCCCCCCCCCCCCC(=O)[O-]
REMARK SMILES IDX 10 1 11 2 12 3 13 4 14 5 15 6 16 7 17 8 18 9 19 10 20 11
REMARK SMILES IDX 9 12 8 13 7 14 6 15 5 16 4 17 3 18 2 19 1 20
REMARK H PARENT
REMARK Flexibility Score: inf
ROOT
ATOM      1  C   UNL     1     171.653 171.969 150.732  1.00  0.00     0.000 C 
ENDROOT
BRANCH   1   2
ATOM      2  C   UNL     1     171.460 170.474 150.446  1.00  0.00     0.000 C 
BRANCH   2   3
ATOM      3  C   UNL     1     171.162 169.701 151.740  1.00  0.00     0.000 C 
BRANCH   3   4
ATOM      4  C   UNL     1     169.780 169.013 151.713  1.00  0.00     0.000 C 
BRANCH   4   5
ATOM      5  C   UNL     1     168.670 169.878 151.088  1.00  0.00     0.000 C 
BRANCH   5   6
ATOM      6  C   UNL     1     168.110 170.981 152.006  1.00  0.00     0.000 C 
BRANCH   6   7
ATOM      7  C   UNL     1     166.573 171.019 152.114  1.00  0.00     0.006 C 
BRANCH   7   8
ATOM      8  C   UNL     1     165.882 169.999 151.198  1.00  0.00     0.053 C 
BRANCH   8   9
ATOM      9  C   UNL     1     164.490 170.444 150.875  1.00  0.00     0.041 C 
ATOM     10  O   UNL     1     163.530 170.114 151.620  1.00  0.00    -0.550 OA
ATOM     11  O   UNL     1     164.259 171.258 149.773  1.00  0.00    -0.550 OA
ENDBRANCH   8   9
ENDBRANCH   7   8
ENDBRANCH   6   7
ENDBRANCH   5   6
ENDBRANCH   4   5
ENDBRANCH   3   4
ENDBRANCH   2   3
ENDBRANCH   1   2
BRANCH   1  12
ATOM     12  C   UNL     1     171.935 172.213 152.220  1.00  0.00     0.000 C 
BRANCH  12  13
ATOM     13  C   UNL     1     171.146 173.427 152.736  1.00  0.00    -0.000 C 
BRANCH  13  14
ATOM     14  C   UNL     1     170.333 173.111 154.002  1.00  0.00    -0.000 C 
BRANCH  14  15
ATOM     15  C   UNL     1     170.875 171.885 154.758  1.00  0.00    -0.000 C 
BRANCH  15  16
ATOM     16  C   UNL     1     169.788 170.834 155.042  1.00  0.00    -0.000 C 
BRANCH  16  17
ATOM     17  C   UNL     1     170.372 169.455 155.398  1.00  0.00    -0.000 C 
BRANCH  17  18
ATOM     18  C   UNL     1     169.297 168.356 155.445  1.00  0.00    -0.000 C 
BRANCH  18  19
ATOM     19  C   UNL     1     167.895 168.883 155.107  1.00  0.00    -0.003 C 
ATOM     20  C   UNL     1     167.162 167.926 154.170  1.00  0.00     0.004 C 
ENDBRANCH  18  19
ENDBRANCH  17  18
ENDBRANCH  16  17
ENDBRANCH  15  16
ENDBRANCH  14  15
ENDBRANCH  13  14
ENDBRANCH  12  13
ENDBRANCH   1  12
TORSDOF 16
ENDMDL
MODEL 5
REMARK VINA RESULT:    -3.305      1.506      3.362
REMARK INTER + INTRA:          -9.050
REMARK INTER:                  -6.029
REMARK INTRA:                  -3.021
REMARK UNBOUND:                -2.653
REMARK SMILES CCCCCCCCCCCCCCCCCC(=O)[O-]
REMARK SMILES IDX 10 1 11 2 12 3 13 4 14 5 15 6 16 7 17 8 18 9 19 10 20 11
REMARK SMILES IDX 9 12 8 13 7 14 6 15 5 16 4 17 3 18 2 19 1 20
REMARK H PARENT
REMARK Flexibility Score: inf
ROOT
ATOM      1  C   UNL     1     172.068 171.964 153.165  1.00  0.00     0.000 C 
ENDROOT
BRANCH   1   2
ATOM      2  C   UNL     1     170.981 172.400 154.155  1.00  0.00     0.000 C 
BRANCH   2   3
ATOM      3  C   UNL     1     170.168 173.577 153.596  1.00  0.00     0.000 C 
BRANCH   3   4
ATOM      4  C   UNL     1     168.653 173.279 153.550  1.00  0.00     0.000 C 
BRANCH   4   5
ATOM      5  C   UNL     1     168.305 171.941 152.873  1.00  0.00     0.000 C 
BRANCH   5   6
ATOM      6  C   UNL     1     166.948 171.338 153.282  1.00  0.00     0.000 C 
BRANCH   6   7
ATOM      7  C   UNL     1     166.497 170.125 152.446  1.00  0.00     0.006 C 
BRANCH   7   8
ATOM      8  C   UNL     1     166.223 170.477 150.977  1.00  0.00     0.053 C 
BRANCH   8   9
ATOM      9  C   UNL     1     164.750 170.554 150.723  1.00  0.00     0.041 C 
ATOM     10  O   UNL     1     164.309 170.546 149.543  1.00  0.00    -0.550 OA
ATOM     11  O   UNL     1     163.862 170.593 151.790  1.00  0.00    -0.550 OA
ENDBRANCH   8   9
ENDBRANCH   7   8
ENDBRANCH   6   7
ENDBRANCH   5   6
ENDBRANCH   4   5
ENDBRANCH   3   4
ENDBRANCH   2   3
ENDBRANCH   1   2
BRANCH   1  12
ATOM     12  C   UNL     1     172.020 172.810 151.886  1.00  0.00     0.000 C 
BRANCH  12  13
ATOM     13  C   UNL     1     172.006 171.915 150.636  1.00  0.00    -0.000 C 
BRANCH  13  14
ATOM     14  C   UNL     1     170.597 171.414 150.282  1.00  0.00    -0.000 C 
BRANCH  14  15
ATOM     15  C   UNL     1     170.537 169.884 150.127  1.00  0.00    -0.000 C 
BRANCH  15  16
ATOM     16  C   UNL     1     170.120 169.171 151.425  1.00  0.00    -0.000 C 
BRANCH  16  17
ATOM     17  C   UNL     1     171.316 168.564 152.182  1.00  0.00    -0.000 C 
BRANCH  17  18
ATOM     18  C   UNL     1     171.021 168.356 153.677  1.00  0.00    -0.000 C 
BRANCH  18  19
ATOM     19  C   UNL     1     169.544 168.589 154.028  1.00  0.00    -0.003 C 
ATOM     20  C   UNL     1     169.407 169.330 155.355  1.00  0.00     0.004 C 
ENDBRANCH  18  19
ENDBRANCH  17  18
ENDBRANCH  16  17
ENDBRANCH  15  16
ENDBRANCH  14  15
ENDBRANCH  13  14
ENDBRANCH  12  13
ENDBRANCH   1  12
TORSDOF 16
ENDMDL
MODEL 6
REMARK VINA RESULT:    -3.286      3.920      6.243
REMARK INTER + INTRA:          -9.013
REMARK INTER:                  -6.241
REMARK INTRA:                  -2.772
REMARK UNBOUND:                -2.653
REMARK SMILES CCCCCCCCCCCCCCCCCC(=O)[O-]
REMARK SMILES IDX 10 1 11 2 12 3 13 4 14 5 15 6 16 7 17 8 18 9 19 10 20 11
REMARK SMILES IDX 9 12 8 13 7 14 6 15 5 16 4 17 3 18 2 19 1 20
REMARK H PARENT
REMARK Flexibility Score: inf
ROOT
ATOM      1  C   UNL     1     171.760 170.586 151.310  1.00  0.00     0.000 C 
ENDROOT
BRANCH   1   2
ATOM      2  C   UNL     1     172.380 171.594 152.287  1.00  0.00     0.000 C 
BRANCH   2   3
ATOM      3  C   UNL     1     171.614 172.925 152.263  1.00  0.00     0.000 C 
BRANCH   3   4
ATOM      4  C   UNL     1     170.663 173.082 153.469  1.00  0.00     0.000 C 
BRANCH   4   5
ATOM      5  C   UNL     1     170.909 172.055 154.590  1.00  0.00     0.000 C 
BRANCH   5   6
ATOM      6  C   UNL     1     169.744 171.082 154.849  1.00  0.00     0.000 C 
BRANCH   6   7
ATOM      7  C   UNL     1     170.156 169.705 155.403  1.00  0.00     0.006 C 
BRANCH   7   8
ATOM      8  C   UNL     1     170.768 168.787 154.336  1.00  0.00     0.053 C 
BRANCH   8   9
ATOM      9  C   UNL     1     171.643 167.754 154.972  1.00  0.00     0.041 C 
ATOM     10  O   UNL     1     172.750 167.453 154.453  1.00  0.00    -0.550 OA
ATOM     11  O   UNL     1     171.255 167.152 156.163  1.00  0.00    -0.550 OA
ENDBRANCH   8   9
ENDBRANCH   7   8
ENDBRANCH   6   7
ENDBRANCH   5   6
ENDBRANCH   4   5
ENDBRANCH   3   4
ENDBRANCH   2   3
ENDBRANCH   1   2
BRANCH   1  12
ATOM     12  C   UNL     1     170.955 171.301 150.218  1.00  0.00     0.000 C 
BRANCH  12  13
ATOM     13  C   UNL     1     169.509 170.781 150.174  1.00  0.00    -0.000 C 
BRANCH  13  14
ATOM     14  C   UNL     1     169.336 169.445 150.915  1.00  0.00    -0.000 C 
BRANCH  14  15
ATOM     15  C   UNL     1     168.111 169.442 151.846  1.00  0.00    -0.000 C 
BRANCH  15  16
ATOM     16  C   UNL     1     167.505 170.843 152.035  1.00  0.00    -0.000 C 
BRANCH  16  17
ATOM     17  C   UNL     1     166.406 170.876 153.114  1.00  0.00    -0.000 C 
BRANCH  17  18
ATOM     18  C   UNL     1     166.440 169.638 154.025  1.00  0.00    -0.000 C 
BRANCH  18  19
ATOM     19  C   UNL     1     165.074 168.943 154.133  1.00  0.00    -0.003 C 
ATOM     20  C   UNL     1     164.140 169.397 153.015  1.00  0.00     0.004 C 
ENDBRANCH  18  19
ENDBRANCH  17  18
ENDBRANCH  16  17
ENDBRANCH  15  16
ENDBRANCH  14  15
ENDBRANCH  13  14
ENDBRANCH  12  13
ENDBRANCH   1  12
TORSDOF 16
ENDMDL
MODEL 7
REMARK VINA RESULT:    -3.277      2.711      4.951
REMARK INTER + INTRA:          -8.995
REMARK INTER:                  -5.743
REMARK INTRA:                  -3.251
REMARK UNBOUND:                -2.653
REMARK SMILES CCCCCCCCCCCCCCCCCC(=O)[O-]
REMARK SMILES IDX 10 1 11 2 12 3 13 4 14 5 15 6 16 7 17 8 18 9 19 10 20 11
REMARK SMILES IDX 9 12 8 13 7 14 6 15 5 16 4 17 3 18 2 19 1 20
REMARK H PARENT
REMARK Flexibility Score: inf
ROOT
ATOM      1  C   UNL     1     171.387 173.111 152.765  1.00  0.00     0.000 C 
ENDROOT
BRANCH   1   2
ATOM      2  C   UNL     1     170.320 173.084 153.866  1.00  0.00     0.000 C 
BRANCH   2   3
ATOM      3  C   UNL     1     169.043 172.385 153.376  1.00  0.00     0.000 C 
BRANCH   3   4
ATOM      4  C   UNL     1     168.633 171.202 154.281  1.00  0.00     0.000 C 
BRANCH   4   5
ATOM      5  C   UNL     1     169.824 170.489 154.946  1.00  0.00     0.000 C 
BRANCH   5   6
ATOM      6  C   UNL     1     170.134 169.085 154.393  1.00  0.00     0.000 C 
BRANCH   6   7
ATOM      7  C   UNL     1     168.896 168.225 154.071  1.00  0.00     0.006 C 
BRANCH   7   8
ATOM      8  C   UNL     1     168.231 167.638 155.323  1.00  0.00     0.053 C 
BRANCH   8   9
ATOM      9  C   UNL     1     166.805 168.083 155.417  1.00  0.00     0.041 C 
ATOM     10  O   UNL     1     166.505 169.114 156.074  1.00  0.00    -0.550 OA
ATOM     11  O   UNL     1     165.812 167.381 154.746  1.00  0.00    -0.550 OA
ENDBRANCH   8   9
ENDBRANCH   7   8
ENDBRANCH   6   7
ENDBRANCH   5   6
ENDBRANCH   4   5
ENDBRANCH   3   4
ENDBRANCH   2   3
ENDBRANCH   1   2
BRANCH   1  12
ATOM     12  C   UNL     1     172.236 171.833 152.788  1.00  0.00     0.000 C 
BRANCH  12  13
ATOM     13  C   UNL     1     171.922 170.944 151.575  1.00  0.00    -0.000 C 
BRANCH  13  14
ATOM     14  C   UNL     1     171.276 171.725 150.419  1.00  0.00    -0.000 C 
BRANCH  14  15
ATOM     15  C   UNL     1     169.975 171.071 149.921  1.00  0.00    -0.000 C 
BRANCH  15  16
ATOM     16  C   UNL     1     169.596 169.815 150.724  1.00  0.00    -0.000 C 
BRANCH  16  17
ATOM     17  C   UNL     1     168.152 169.351 150.458  1.00  0.00    -0.000 C 
BRANCH  17  18
ATOM     18  C   UNL     1     167.108 170.326 151.025  1.00  0.00    -0.000 C 
BRANCH  18  19
ATOM     19  C   UNL     1     166.107 169.640 151.968  1.00  0.00    -0.003 C 
ATOM     20  C   UNL     1     165.372 170.666 152.826  1.00  0.00     0.004 C 
ENDBRANCH  18  19
ENDBRANCH  17  18
ENDBRANCH  16  17
ENDBRANCH  15  16
ENDBRANCH  14  15
ENDBRANCH  13  14
ENDBRANCH  12  13
ENDBRANCH   1  12
TORSDOF 16
ENDMDL
MODEL 8
REMARK VINA RESULT:    -3.266      4.144      6.168
REMARK INTER + INTRA:          -8.974
REMARK INTER:                  -5.833
REMARK INTRA:                  -3.140
REMARK UNBOUND:                -2.653
REMARK SMILES CCCCCCCCCCCCCCCCCC(=O)[O-]
REMARK SMILES IDX 10 1 11 2 12 3 13 4 14 5 15 6 16 7 17 8 18 9 19 10 20 11
REMARK SMILES IDX 9 12 8 13 7 14 6 15 5 16 4 17 3 18 2 19 1 20
REMARK H PARENT
REMARK Flexibility Score: inf
ROOT
ATOM      1  C   UNL     1     171.632 172.802 152.593  1.00  0.00     0.000 C 
ENDROOT
BRANCH   1   2
ATOM      2  C   UNL     1     170.311 173.398 153.096  1.00  0.00     0.000 C 
BRANCH   2   3
ATOM      3  C   UNL     1     169.680 172.504 154.173  1.00  0.00     0.000 C 
BRANCH   3   4
ATOM      4  C   UNL     1     170.714 171.586 154.861  1.00  0.00     0.000 C 
BRANCH   4   5
ATOM      5  C   UNL     1     170.133 170.239 155.329  1.00  0.00     0.000 C 
BRANCH   5   6
ATOM      6  C   UNL     1     170.856 168.994 154.783  1.00  0.00     0.000 C 
BRANCH   6   7
ATOM      7  C   UNL     1     169.940 167.794 154.471  1.00  0.00     0.006 C 
BRANCH   7   8
ATOM      8  C   UNL     1     169.276 167.205 155.723  1.00  0.00     0.053 C 
BRANCH   8   9
ATOM      9  C   UNL     1     170.117 166.108 156.296  1.00  0.00     0.041 C 
ATOM     10  O   UNL     1     169.868 164.906 156.015  1.00  0.00    -0.550 OA
ATOM     11  O   UNL     1     171.202 166.416 157.107  1.00  0.00    -0.550 OA
ENDBRANCH   8   9
ENDBRANCH   7   8
ENDBRANCH   6   7
ENDBRANCH   5   6
ENDBRANCH   4   5
ENDBRANCH   3   4
ENDBRANCH   2   3
ENDBRANCH   1   2
BRANCH   1  12
ATOM     12  C   UNL     1     171.423 172.019 151.291  1.00  0.00     0.000 C 
BRANCH  12  13
ATOM     13  C   UNL     1     171.812 170.542 151.471  1.00  0.00    -0.000 C 
BRANCH  13  14
ATOM     14  C   UNL     1     170.647 169.583 151.178  1.00  0.00    -0.000 C 
BRANCH  14  15
ATOM     15  C   UNL     1     169.321 170.324 150.934  1.00  0.00    -0.000 C 
BRANCH  15  16
ATOM     16  C   UNL     1     168.245 169.976 151.976  1.00  0.00    -0.000 C 
BRANCH  16  17
ATOM     17  C   UNL     1     167.084 170.988 151.994  1.00  0.00    -0.000 C 
BRANCH  17  18
ATOM     18  C   UNL     1     166.224 170.873 153.264  1.00  0.00    -0.000 C 
BRANCH  18  19
ATOM     19  C   UNL     1     166.790 169.864 154.274  1.00  0.00    -0.003 C 
ATOM     20  C   UNL     1     165.773 168.768 154.581  1.00  0.00     0.004 C 
ENDBRANCH  18  19
ENDBRANCH  17  18
ENDBRANCH  16  17
ENDBRANCH  15  16
ENDBRANCH  14  15
ENDBRANCH  13  14
ENDBRANCH  12  13
ENDBRANCH   1  12
TORSDOF 16
ENDMDL
MODEL 9
REMARK VINA RESULT:    -3.254      2.192      3.972
REMARK INTER + INTRA:          -8.951
REMARK INTER:                  -5.988
REMARK INTRA:                  -2.963
REMARK UNBOUND:                -2.653
REMARK SMILES CCCCCCCCCCCCCCCCCC(=O)[O-]
REMARK SMILES IDX 10 1 11 2 12 3 13 4 14 5 15 6 16 7 17 8 18 9 19 10 20 11
REMARK SMILES IDX 9 12 8 13 7 14 6 15 5 16 4 17 3 18 2 19 1 20
REMARK H PARENT
REMARK Flexibility Score: inf
ROOT
ATOM      1  C   UNL     1     170.158 170.873 155.015  1.00  0.00     0.000 C 
ENDROOT
BRANCH   1   2
ATOM      2  C   UNL     1     170.546 169.408 154.780  1.00  0.00     0.000 C 
BRANCH   2   3
ATOM      3  C   UNL     1     169.773 168.818 153.591  1.00  0.00     0.000 C 
BRANCH   3   4
ATOM      4  C   UNL     1     168.911 167.601 153.992  1.00  0.00     0.000 C 
BRANCH   4   5
ATOM      5  C   UNL     1     168.554 167.561 155.489  1.00  0.00     0.000 C 
BRANCH   5   6
ATOM      6  C   UNL     1     167.055 167.724 155.804  1.00  0.00     0.000 C 
BRANCH   6   7
ATOM      7  C   UNL     1     166.410 169.012 155.256  1.00  0.00     0.006 C 
BRANCH   7   8
ATOM      8  C   UNL     1     165.223 168.738 154.322  1.00  0.00     0.053 C 
BRANCH   8   9
ATOM      9  C   UNL     1     165.318 169.584 153.092  1.00  0.00     0.041 C 
ATOM     10  O   UNL     1     164.953 169.127 151.977  1.00  0.00    -0.550 OA
ATOM     11  O   UNL     1     165.772 170.894 153.183  1.00  0.00    -0.550 OA
ENDBRANCH   8   9
ENDBRANCH   7   8
ENDBRANCH   6   7
ENDBRANCH   5   6
ENDBRANCH   4   5
ENDBRANCH   3   4
ENDBRANCH   2   3
ENDBRANCH   1   2
BRANCH   1  12
ATOM     12  C   UNL     1     169.081 171.325 154.020  1.00  0.00     0.000 C 
BRANCH  12  13
ATOM     13  C   UNL     1     169.366 172.747 153.511  1.00  0.00    -0.000 C 
BRANCH  13  14
ATOM     14  C   UNL     1     170.853 173.125 153.611  1.00  0.00    -0.000 C 
BRANCH  14  15
ATOM     15  C   UNL     1     171.595 172.958 152.273  1.00  0.00    -0.000 C 
BRANCH  15  16
ATOM     16  C   UNL     1     172.365 171.630 152.183  1.00  0.00    -0.000 C 
BRANCH  16  17
ATOM     17  C   UNL     1     171.809 170.691 151.096  1.00  0.00    -0.000 C 
BRANCH  17  18
ATOM     18  C   UNL     1     170.533 171.244 150.439  1.00  0.00    -0.000 C 
BRANCH  18  19
ATOM     19  C   UNL     1     169.589 170.135 149.952  1.00  0.00    -0.003 C 
ATOM     20  C   UNL     1     168.231 170.230 150.643  1.00  0.00     0.004 C 
ENDBRANCH  18  19
ENDBRANCH  17  18
ENDBRANCH  16  17
ENDBRANCH  15  16
ENDBRANCH  14  15
ENDBRANCH  13  14
ENDBRANCH  12  13
ENDBRANCH   1  12
TORSDOF 16
ENDMDL
