MODEL 1
REMARK VINA RESULT:    -2.922      0.000      0.000
REMARK INTER + INTRA:          -3.648
REMARK INTER:                  -3.605
REMARK INTRA:                  -0.042
REMARK UNBOUND:                -0.042
REMARK SMILES CCCCCC(=O)[O-]
REMARK SMILES IDX 4 1 5 2 6 3 7 4 8 5 3 6 2 7 1 8
REMARK H PARENT
REMARK Flexibility Score: inf
ROOT
ATOM      1  C   UNL     1       8.205  21.293  55.806  1.00  0.00     0.006 C 
ENDROOT
BRANCH   1   2
ATOM      2  C   UNL     1       9.297  20.263  56.125  1.00  0.00     0.053 C 
BRANCH   2   3
ATOM      3  C   UNL     1      10.668  20.803  55.847  1.00  0.00     0.041 C 
ATOM      4  O   UNL     1      10.945  22.000  56.120  1.00  0.00    -0.550 OA
ATOM      5  O   UNL     1      11.630  19.990  55.260  1.00  0.00    -0.550 OA
ENDBRANCH   2   3
ENDBRANCH   1   2
BRANCH   1   6
ATOM      6  C   UNL     1       6.876  20.625  55.410  1.00  0.00     0.000 C 
BRANCH   6   7
ATOM      7  C   UNL     1       5.730  21.636  55.260  1.00  0.00    -0.003 C 
ATOM      8  C   UNL     1       4.481  21.027  54.623  1.00  0.00     0.004 C 
ENDBRANCH   6   7
ENDBRANCH   1   6
TORSDOF 4
ENDMDL
MODEL 2
REMARK VINA RESULT:    -2.795      2.462      3.781
REMARK INTER + INTRA:          -3.491
REMARK INTER:                  -3.405
REMARK INTRA:                  -0.085
REMARK UNBOUND:                -0.042
REMARK SMILES CCCCCC(=O)[O-]
REMARK SMILES IDX 4 1 5 2 6 3 7 4 8 5 3 6 2 7 1 8
REMARK H PARENT
REMARK Flexibility Score: inf
ROOT
ATOM      1  C   UNL     1      11.636  20.403  55.022  1.00  0.00     0.006 C 
ENDROOT
BRANCH   1   2
ATOM      2  C   UNL     1      12.783  21.307  55.493  1.00  0.00     0.053 C 
BRANCH   2   3
ATOM      3  C   UNL     1      14.063  20.543  55.653  1.00  0.00     0.041 C 
ATOM      4  O   UNL     1      14.039  19.305  55.874  1.00  0.00    -0.550 OA
ATOM      5  O   UNL     1      15.282  21.207  55.586  1.00  0.00    -0.550 OA
ENDBRANCH   2   3
ENDBRANCH   1   2
BRANCH   1   6
ATOM      6  C   UNL     1      10.588  20.173  56.125  1.00  0.00     0.000 C 
BRANCH   6   7
ATOM      7  C   UNL     1       9.484  21.240  56.122  1.00  0.00    -0.003 C 
ATOM      8  C   UNL     1       8.111  20.672  55.760  1.00  0.00     0.004 C 
ENDBRANCH   6   7
ENDBRANCH   1   6
TORSDOF 4
ENDMDL
MODEL 3
REMARK VINA RESULT:    -2.568     13.125     13.867
REMARK INTER + INTRA:          -3.211
REMARK INTER:                  -3.491
REMARK INTRA:                   0.280
REMARK UNBOUND:                -0.042
REMARK SMILES CCCCCC(=O)[O-]
REMARK SMILES IDX 4 1 5 2 6 3 7 4 8 5 3 6 2 7 1 8
REMARK H PARENT
REMARK Flexibility Score: inf
ROOT
ATOM      1  C   UNL     1       4.075   8.584  53.219  1.00  0.00     0.006 C 
ENDROOT
BRANCH   1   2
ATOM      2  C   UNL     1       3.372   7.296  53.669  1.00  0.00     0.053 C 
BRANCH   2   3
ATOM      3  C   UNL     1       3.789   6.888  55.049  1.00  0.00     0.041 C 
ATOM      4  O   UNL     1       4.133   7.758  55.891  1.00  0.00    -0.550 OA
ATOM      5  O   UNL     1       3.825   5.543  55.396  1.00  0.00    -0.550 OA
ENDBRANCH   2   3
ENDBRANCH   1   2
BRANCH   1   6
ATOM      6  C   UNL     1       3.087   9.747  53.022  1.00  0.00     0.000 C 
BRANCH   6   7
ATOM      7  C   UNL     1       2.755  10.468  54.336  1.00  0.00    -0.003 C 
ATOM      8  C   UNL     1       3.952  10.556  55.283  1.00  0.00     0.004 C 
ENDBRANCH   6   7
ENDBRANCH   1   6
TORSDOF 4
ENDMDL
MODEL 4
REMARK VINA RESULT:    -2.207      1.416      2.140
REMARK INTER + INTRA:          -2.766
REMARK INTER:                  -2.722
REMARK INTRA:                  -0.044
REMARK UNBOUND:                -0.042
REMARK SMILES CCCCCC(=O)[O-]
REMARK SMILES IDX 4 1 5 2 6 3 7 4 8 5 3 6 2 7 1 8
REMARK H PARENT
REMARK Flexibility Score: inf
ROOT
ATOM      1  C   UNL     1      10.151  20.514  55.995  1.00  0.00     0.006 C 
ENDROOT
BRANCH   1   2
ATOM      2  C   UNL     1      11.315  21.509  56.105  1.00  0.00     0.053 C 
BRANCH   2   3
ATOM      3  C   UNL     1      12.619  20.885  55.711  1.00  0.00     0.041 C 
ATOM      4  O   UNL     1      13.657  21.591  55.618  1.00  0.00    -0.550 OA
ATOM      5  O   UNL     1      12.681  19.528  55.418  1.00  0.00    -0.550 OA
ENDBRANCH   2   3
ENDBRANCH   1   2
BRANCH   1   6
ATOM      6  C   UNL     1       8.782  21.204  56.124  1.00  0.00     0.000 C 
BRANCH   6   7
ATOM      7  C   UNL     1       7.771  20.708  55.080  1.00  0.00    -0.003 C 
ATOM      8  C   UNL     1       6.325  21.037  55.451  1.00  0.00     0.004 C 
ENDBRANCH   6   7
ENDBRANCH   1   6
TORSDOF 4
ENDMDL
MODEL 5
REMARK VINA RESULT:    -1.773     13.209     13.940
REMARK INTER + INTRA:          -2.230
REMARK INTER:                  -2.293
REMARK INTRA:                   0.063
REMARK UNBOUND:                -0.042
REMARK SMILES CCCCCC(=O)[O-]
REMARK SMILES IDX 4 1 5 2 6 3 7 4 8 5 3 6 2 7 1 8
REMARK H PARENT
REMARK Flexibility Score: inf
ROOT
ATOM      1  C   UNL     1       4.072   9.048  55.762  1.00  0.00     0.006 C 
ENDROOT
BRANCH   1   2
ATOM      2  C   UNL     1       3.033   7.953  55.484  1.00  0.00     0.053 C 
BRANCH   2   3
ATOM      3  C   UNL     1       3.645   6.767  54.800  1.00  0.00     0.041 C 
ATOM      4  O   UNL     1       3.803   6.768  53.551  1.00  0.00    -0.550 OA
ATOM      5  O   UNL     1       4.013   5.651  55.540  1.00  0.00    -0.550 OA
ENDBRANCH   2   3
ENDBRANCH   1   2
BRANCH   1   6
ATOM      6  C   UNL     1       3.897  10.263  54.835  1.00  0.00     0.000 C 
BRANCH   6   7
ATOM      7  C   UNL     1       2.695  10.117  53.891  1.00  0.00    -0.003 C 
ATOM      8  C   UNL     1       3.097   9.677  52.483  1.00  0.00     0.004 C 
ENDBRANCH   6   7
ENDBRANCH   1   6
TORSDOF 4
ENDMDL
MODEL 6
REMARK VINA RESULT:    -1.559     12.456     13.132
REMARK INTER + INTRA:          -1.965
REMARK INTER:                  -2.210
REMARK INTRA:                   0.245
REMARK UNBOUND:                -0.042
REMARK SMILES CCCCCC(=O)[O-]
REMARK SMILES IDX 4 1 5 2 6 3 7 4 8 5 3 6 2 7 1 8
REMARK H PARENT
REMARK Flexibility Score: inf
ROOT
ATOM      1  C   UNL     1       2.989   7.853  54.902  1.00  0.00     0.006 C 
ENDROOT
BRANCH   1   2
ATOM      2  C   UNL     1       3.863   8.635  55.891  1.00  0.00     0.053 C 
BRANCH   2   3
ATOM      3  C   UNL     1       3.739  10.116  55.693  1.00  0.00     0.041 C 
ATOM      4  O   UNL     1       4.632  10.890  56.125  1.00  0.00    -0.550 OA
ATOM      5  O   UNL     1       2.622  10.641  55.055  1.00  0.00    -0.550 OA
ENDBRANCH   2   3
ENDBRANCH   1   2
BRANCH   1   6
ATOM      6  C   UNL     1       3.782   7.385  53.670  1.00  0.00     0.000 C 
BRANCH   6   7
ATOM      7  C   UNL     1       4.148   8.542  52.729  1.00  0.00    -0.003 C 
ATOM      8  C   UNL     1       2.933   9.366  52.302  1.00  0.00     0.004 C 
ENDBRANCH   6   7
ENDBRANCH   1   6
TORSDOF 4
ENDMDL
MODEL 7
REMARK VINA RESULT:    -1.543     12.485     13.278
REMARK INTER + INTRA:          -1.946
REMARK INTER:                  -2.618
REMARK INTRA:                   0.672
REMARK UNBOUND:                -0.042
REMARK SMILES CCCCCC(=O)[O-]
REMARK SMILES IDX 4 1 5 2 6 3 7 4 8 5 3 6 2 7 1 8
REMARK H PARENT
REMARK Flexibility Score: inf
ROOT
ATOM      1  C   UNL     1       3.002   9.751  53.045  1.00  0.00     0.006 C 
ENDROOT
BRANCH   1   2
ATOM      2  C   UNL     1       2.626  10.317  54.421  1.00  0.00     0.053 C 
BRANCH   2   3
ATOM      3  C   UNL     1       3.704  10.077  55.434  1.00  0.00     0.041 C 
ATOM      4  O   UNL     1       4.573  10.960  55.656  1.00  0.00    -0.550 OA
ATOM      5  O   UNL     1       3.764   8.866  56.112  1.00  0.00    -0.550 OA
ENDBRANCH   2   3
ENDBRANCH   1   2
BRANCH   1   6
ATOM      6  C   UNL     1       4.084   8.661  53.141  1.00  0.00     0.000 C 
BRANCH   6   7
ATOM      7  C   UNL     1       3.494   7.244  53.152  1.00  0.00    -0.003 C 
ATOM      8  C   UNL     1       3.682   6.533  54.493  1.00  0.00     0.004 C 
ENDBRANCH   6   7
ENDBRANCH   1   6
TORSDOF 4
ENDMDL
MODEL 8
REMARK VINA RESULT:    -1.390     12.782     13.577
REMARK INTER + INTRA:          -1.757
REMARK INTER:                  -2.073
REMARK INTRA:                   0.316
REMARK UNBOUND:                -0.042
REMARK SMILES CCCCCC(=O)[O-]
REMARK SMILES IDX 4 1 5 2 6 3 7 4 8 5 3 6 2 7 1 8
REMARK H PARENT
REMARK Flexibility Score: inf
ROOT
ATOM      1  C   UNL     1       3.949  10.009  55.344  1.00  0.00     0.006 C 
ENDROOT
BRANCH   1   2
ATOM      2  C   UNL     1       2.849  10.027  54.274  1.00  0.00     0.053 C 
BRANCH   2   3
ATOM      3  C   UNL     1       3.355   9.542  52.949  1.00  0.00     0.041 C 
ATOM      4  O   UNL     1       2.634   9.637  51.921  1.00  0.00    -0.550 OA
ATOM      5  O   UNL     1       4.612   8.957  52.856  1.00  0.00    -0.550 OA
ENDBRANCH   2   3
ENDBRANCH   1   2
BRANCH   1   6
ATOM      6  C   UNL     1       4.042   8.649  56.058  1.00  0.00     0.000 C 
BRANCH   6   7
ATOM      7  C   UNL     1       3.130   7.588  55.426  1.00  0.00    -0.003 C 
ATOM      8  C   UNL     1       3.860   6.276  55.134  1.00  0.00     0.004 C 
ENDBRANCH   6   7
ENDBRANCH   1   6
TORSDOF 4
ENDMDL
MODEL 9
REMARK VINA RESULT:    -0.774      3.416      5.257
REMARK INTER + INTRA:          -0.997
REMARK INTER:                  -0.948
REMARK INTRA:                  -0.048
REMARK UNBOUND:                -0.042
REMARK SMILES CCCCCC(=O)[O-]
REMARK SMILES IDX 4 1 5 2 6 3 7 4 8 5 3 6 2 7 1 8
REMARK H PARENT
REMARK Flexibility Score: inf
ROOT
ATOM      1  C   UNL     1       7.345  20.699  55.645  1.00  0.00     0.006 C 
ENDROOT
BRANCH   1   2
ATOM      2  C   UNL     1       6.204  21.704  55.847  1.00  0.00     0.053 C 
BRANCH   2   3
ATOM      3  C   UNL     1       5.059  21.441  54.915  1.00  0.00     0.041 C 
ATOM      4  O   UNL     1       5.188  20.621  53.969  1.00  0.00    -0.550 OA
ATOM      5  O   UNL     1       3.861  22.125  55.075  1.00  0.00    -0.550 OA
ENDBRANCH   2   3
ENDBRANCH   1   2
BRANCH   1   6
ATOM      6  C   UNL     1       8.699  21.253  56.125  1.00  0.00     0.000 C 
BRANCH   6   7
ATOM      7  C   UNL     1       9.805  20.188  56.124  1.00  0.00    -0.003 C 
ATOM      8  C   UNL     1      11.206  20.789  56.001  1.00  0.00     0.004 C 
ENDBRANCH   6   7
ENDBRANCH   1   6
TORSDOF 4
ENDMDL
