MODEL 1
REMARK VINA RESULT:    -2.777      0.000      0.000
REMARK INTER + INTRA:          -4.258
REMARK INTER:                  -3.914
REMARK INTRA:                  -0.344
REMARK UNBOUND:                -0.344
REMARK SMILES C=CCCCCCCC(=O)[O-]
REMARK SMILES IDX 6 1 7 2 8 3 9 4 10 5 11 6 5 7 4 8 3 9 2 10 1 11
REMARK H PARENT
REMARK Flexibility Score: inf
ROOT
ATOM      1  C   UNL     1       5.647  39.687  14.990  1.00  0.00     0.000 C 
ENDROOT
BRANCH   1   2
ATOM      2  C   UNL     1       4.415  39.401  15.862  1.00  0.00     0.006 C 
BRANCH   2   3
ATOM      3  C   UNL     1       3.963  37.945  15.710  1.00  0.00     0.053 C 
BRANCH   3   4
ATOM      4  C   UNL     1       2.535  37.882  15.271  1.00  0.00     0.041 C 
ATOM      5  O   UNL     1       1.609  37.878  16.125  1.00  0.00    -0.550 OA
ATOM      6  O   UNL     1       2.223  37.877  13.917  1.00  0.00    -0.550 OA
ENDBRANCH   3   4
ENDBRANCH   2   3
ENDBRANCH   1   2
BRANCH   1   7
ATOM      7  C   UNL     1       6.543  40.788  15.578  1.00  0.00     0.000 C 
BRANCH   7   8
ATOM      8  C   UNL     1       7.894  40.247  16.078  1.00  0.00     0.004 C 
BRANCH   8   9
ATOM      9  C   UNL     1       8.141  38.800  15.624  1.00  0.00     0.027 C 
BRANCH   9  10
ATOM     10  C   UNL     1       9.502  38.617  15.007  1.00  0.00    -0.035 C 
ATOM     11  C   UNL     1      10.617  38.642  15.742  1.00  0.00     0.004 C 
ENDBRANCH   9  10
ENDBRANCH   8   9
ENDBRANCH   7   8
ENDBRANCH   1   7
TORSDOF 7
ENDMDL
MODEL 2
REMARK VINA RESULT:    -1.277      1.315      2.063
REMARK INTER + INTRA:          -2.143
REMARK INTER:                  -1.875
REMARK INTRA:                  -0.268
REMARK UNBOUND:                -0.344
REMARK SMILES C=CCCCCCCC(=O)[O-]
REMARK SMILES IDX 6 1 7 2 8 3 9 4 10 5 11 6 5 7 4 8 3 9 2 10 1 11
REMARK H PARENT
REMARK Flexibility Score: inf
ROOT
ATOM      1  C   UNL     1       6.841  39.796  14.668  1.00  0.00     0.000 C 
ENDROOT
BRANCH   1   2
ATOM      2  C   UNL     1       5.763  40.415  15.570  1.00  0.00     0.006 C 
BRANCH   2   3
ATOM      3  C   UNL     1       4.741  39.360  16.004  1.00  0.00     0.053 C 
BRANCH   3   4
ATOM      4  C   UNL     1       3.497  39.466  15.181  1.00  0.00     0.041 C 
ATOM      5  O   UNL     1       3.261  40.513  14.522  1.00  0.00    -0.550 OA
ATOM      6  O   UNL     1       2.620  38.392  15.102  1.00  0.00    -0.550 OA
ENDBRANCH   3   4
ENDBRANCH   2   3
ENDBRANCH   1   2
BRANCH   1   7
ATOM      7  C   UNL     1       8.053  39.282  15.460  1.00  0.00     0.000 C 
BRANCH   7   8
ATOM      8  C   UNL     1       8.538  37.906  14.974  1.00  0.00     0.004 C 
BRANCH   8   9
ATOM      9  C   UNL     1      10.055  37.880  14.734  1.00  0.00     0.027 C 
BRANCH   9  10
ATOM     10  C   UNL     1      10.840  37.958  16.017  1.00  0.00    -0.035 C 
ATOM     11  C   UNL     1      11.940  38.707  16.124  1.00  0.00     0.004 C 
ENDBRANCH   9  10
ENDBRANCH   8   9
ENDBRANCH   7   8
ENDBRANCH   1   7
TORSDOF 7
ENDMDL
