MODEL 1
REMARK VINA RESULT:    -5.000      0.000      0.000
REMARK INTER + INTRA:          -8.846
REMARK INTER:                  -7.631
REMARK INTRA:                  -1.214
REMARK UNBOUND:                -1.214
REMARK SMILES CCCCCCCCCCC(=O)[O-]
REMARK SMILES IDX 7 1 8 2 9 3 10 4 11 5 12 6 13 7 6 8 5 9 4 10 3 11 2 12 1 13
REMARK H PARENT
REMARK Flexibility Score: inf
ROOT
ATOM      1  C   UNL     1      23.329  12.516   0.629  1.00  0.00     0.000 C 
ENDROOT
BRANCH   1   2
ATOM      2  C   UNL     1      22.079  11.662   0.892  1.00  0.00     0.000 C 
BRANCH   2   3
ATOM      3  C   UNL     1      20.791  12.498   0.956  1.00  0.00     0.006 C 
BRANCH   3   4
ATOM      4  C   UNL     1      19.847  12.136  -0.195  1.00  0.00     0.053 C 
BRANCH   4   5
ATOM      5  C   UNL     1      19.139  13.356  -0.695  1.00  0.00     0.041 C 
ATOM      6  O   UNL     1      19.245  14.448  -0.078  1.00  0.00    -0.550 OA
ATOM      7  O   UNL     1      18.401  13.298  -1.870  1.00  0.00    -0.550 OA
ENDBRANCH   4   5
ENDBRANCH   3   4
ENDBRANCH   2   3
ENDBRANCH   1   2
BRANCH   1   8
ATOM      8  C   UNL     1      22.983  13.951   0.196  1.00  0.00     0.000 C 
BRANCH   8   9
ATOM      9  C   UNL     1      23.527  15.009   1.171  1.00  0.00    -0.000 C 
BRANCH   9  10
ATOM     10  C   UNL     1      22.417  15.886   1.776  1.00  0.00    -0.000 C 
BRANCH  10  11
ATOM     11  C   UNL     1      21.892  15.336   3.111  1.00  0.00    -0.000 C 
BRANCH  11  12
ATOM     12  C   UNL     1      22.982  14.623   3.925  1.00  0.00    -0.003 C 
ATOM     13  C   UNL     1      22.538  13.219   4.326  1.00  0.00     0.004 C 
ENDBRANCH  11  12
ENDBRANCH  10  11
ENDBRANCH   9  10
ENDBRANCH   8   9
ENDBRANCH   1   8
TORSDOF 9
ENDMDL
MODEL 2
REMARK VINA RESULT:    -4.862      1.227      3.083
REMARK INTER + INTRA:          -8.634
REMARK INTER:                  -7.332
REMARK INTRA:                  -1.302
REMARK UNBOUND:                -1.214
REMARK SMILES CCCCCCCCCCC(=O)[O-]
REMARK SMILES IDX 7 1 8 2 9 3 10 4 11 5 12 6 13 7 6 8 5 9 4 10 3 11 2 12 1 13
REMARK H PARENT
REMARK Flexibility Score: inf
ROOT
ATOM      1  C   UNL     1      22.530  15.862   1.851  1.00  0.00     0.000 C 
ENDROOT
BRANCH   1   2
ATOM      2  C   UNL     1      21.460  16.167   0.791  1.00  0.00     0.000 C 
BRANCH   2   3
ATOM      3  C   UNL     1      20.325  15.130   0.780  1.00  0.00     0.006 C 
BRANCH   3   4
ATOM      4  C   UNL     1      20.249  14.418  -0.575  1.00  0.00     0.053 C 
BRANCH   4   5
ATOM      5  C   UNL     1      19.152  13.400  -0.571  1.00  0.00     0.041 C 
ATOM      6  O   UNL     1      18.861  12.786   0.489  1.00  0.00    -0.550 OA
ATOM      7  O   UNL     1      18.419  13.165  -1.727  1.00  0.00    -0.550 OA
ENDBRANCH   4   5
ENDBRANCH   3   4
ENDBRANCH   2   3
ENDBRANCH   1   2
BRANCH   1   8
ATOM      8  C   UNL     1      21.923  15.435   3.198  1.00  0.00     0.000 C 
BRANCH   8   9
ATOM      9  C   UNL     1      22.752  14.346   3.900  1.00  0.00    -0.000 C 
BRANCH   9  10
ATOM     10  C   UNL     1      23.168  13.211   2.948  1.00  0.00    -0.000 C 
BRANCH  10  11
ATOM     11  C   UNL     1      21.996  12.284   2.588  1.00  0.00    -0.000 C 
BRANCH  11  12
ATOM     12  C   UNL     1      22.206  11.562   1.248  1.00  0.00    -0.003 C 
ATOM     13  C   UNL     1      23.204  12.312   0.372  1.00  0.00     0.004 C 
ENDBRANCH  11  12
ENDBRANCH  10  11
ENDBRANCH   9  10
ENDBRANCH   8   9
ENDBRANCH   1   8
TORSDOF 9
ENDMDL
MODEL 3
REMARK VINA RESULT:    -4.849      2.932      4.334
REMARK INTER + INTRA:          -8.614
REMARK INTER:                  -7.394
REMARK INTRA:                  -1.220
REMARK UNBOUND:                -1.214
REMARK SMILES CCCCCCCCCCC(=O)[O-]
REMARK SMILES IDX 7 1 8 2 9 3 10 4 11 5 12 6 13 7 6 8 5 9 4 10 3 11 2 12 1 13
REMARK H PARENT
REMARK Flexibility Score: inf
ROOT
ATOM      1  C   UNL     1      21.074  11.878  -0.813  1.00  0.00     0.000 C 
ENDROOT
BRANCH   1   2
ATOM      2  C   UNL     1      21.969  11.080   0.148  1.00  0.00     0.000 C 
BRANCH   2   3
ATOM      3  C   UNL     1      22.791  11.984   1.081  1.00  0.00     0.006 C 
BRANCH   3   4
ATOM      4  C   UNL     1      22.073  12.187   2.419  1.00  0.00     0.053 C 
BRANCH   4   5
ATOM      5  C   UNL     1      23.019  12.727   3.445  1.00  0.00     0.041 C 
ATOM      6  O   UNL     1      22.828  12.495   4.667  1.00  0.00    -0.550 OA
ATOM      7  O   UNL     1      24.138  13.447   3.047  1.00  0.00    -0.550 OA
ENDBRANCH   4   5
ENDBRANCH   3   4
ENDBRANCH   2   3
ENDBRANCH   1   2
BRANCH   1   8
ATOM      8  C   UNL     1      19.601  11.901  -0.366  1.00  0.00     0.000 C 
BRANCH   8   9
ATOM      9  C   UNL     1      19.133  13.306   0.050  1.00  0.00    -0.000 C 
BRANCH   9  10
ATOM     10  C   UNL     1      20.094  14.414  -0.414  1.00  0.00    -0.000 C 
BRANCH  10  11
ATOM     11  C   UNL     1      20.076  15.639   0.514  1.00  0.00    -0.000 C 
BRANCH  11  12
ATOM     12  C   UNL     1      21.262  15.658   1.488  1.00  0.00    -0.003 C 
ATOM     13  C   UNL     1      22.590  15.666   0.737  1.00  0.00     0.004 C 
ENDBRANCH  11  12
ENDBRANCH  10  11
ENDBRANCH   9  10
ENDBRANCH   8   9
ENDBRANCH   1   8
TORSDOF 9
ENDMDL
MODEL 4
REMARK VINA RESULT:    -4.812      2.656      4.895
REMARK INTER + INTRA:          -8.559
REMARK INTER:                  -7.375
REMARK INTRA:                  -1.184
REMARK UNBOUND:                -1.214
REMARK SMILES CCCCCCCCCCC(=O)[O-]
REMARK SMILES IDX 7 1 8 2 9 3 10 4 11 5 12 6 13 7 6 8 5 9 4 10 3 11 2 12 1 13
REMARK H PARENT
REMARK Flexibility Score: inf
ROOT
ATOM      1  C   UNL     1      23.101  12.460  -0.867  1.00  0.00     0.000 C 
ENDROOT
BRANCH   1   2
ATOM      2  C   UNL     1      23.292  13.419   0.318  1.00  0.00     0.000 C 
BRANCH   2   3
ATOM      3  C   UNL     1      22.451  14.699   0.187  1.00  0.00     0.006 C 
BRANCH   3   4
ATOM      4  C   UNL     1      21.503  14.855   1.381  1.00  0.00     0.053 C 
BRANCH   4   5
ATOM      5  C   UNL     1      22.162  15.636   2.475  1.00  0.00     0.041 C 
ATOM      6  O   UNL     1      21.878  16.850   2.646  1.00  0.00    -0.550 OA
ATOM      7  O   UNL     1      23.053  15.009   3.336  1.00  0.00    -0.550 OA
ENDBRANCH   4   5
ENDBRANCH   3   4
ENDBRANCH   2   3
ENDBRANCH   1   2
BRANCH   1   8
ATOM      8  C   UNL     1      23.165  13.180  -2.225  1.00  0.00     0.000 C 
BRANCH   8   9
ATOM      9  C   UNL     1      22.179  12.595  -3.250  1.00  0.00    -0.000 C 
BRANCH   9  10
ATOM     10  C   UNL     1      20.883  12.080  -2.600  1.00  0.00    -0.000 C 
BRANCH  10  11
ATOM     11  C   UNL     1      19.772  13.142  -2.575  1.00  0.00    -0.000 C 
BRANCH  11  12
ATOM     12  C   UNL     1      19.021  13.177  -1.237  1.00  0.00    -0.003 C 
ATOM     13  C   UNL     1      19.531  12.094  -0.292  1.00  0.00     0.004 C 
ENDBRANCH  11  12
ENDBRANCH  10  11
ENDBRANCH   9  10
ENDBRANCH   8   9
ENDBRANCH   1   8
TORSDOF 9
ENDMDL
MODEL 5
REMARK VINA RESULT:    -4.734      2.583      4.955
REMARK INTER + INTRA:          -8.439
REMARK INTER:                  -7.063
REMARK INTRA:                  -1.377
REMARK UNBOUND:                -1.214
REMARK SMILES CCCCCCCCCCC(=O)[O-]
REMARK SMILES IDX 7 1 8 2 9 3 10 4 11 5 12 6 13 7 6 8 5 9 4 10 3 11 2 12 1 13
REMARK H PARENT
REMARK Flexibility Score: inf
ROOT
ATOM      1  C   UNL     1      20.413  15.262   1.121  1.00  0.00     0.000 C 
ENDROOT
BRANCH   1   2
ATOM      2  C   UNL     1      21.818  15.769   0.760  1.00  0.00     0.000 C 
BRANCH   2   3
ATOM      3  C   UNL     1      22.854  15.475   1.857  1.00  0.00     0.006 C 
BRANCH   3   4
ATOM      4  C   UNL     1      22.195  14.804   3.066  1.00  0.00     0.053 C 
BRANCH   4   5
ATOM      5  C   UNL     1      22.840  13.483   3.348  1.00  0.00     0.041 C 
ATOM      6  O   UNL     1      22.167  12.542   3.845  1.00  0.00    -0.550 OA
ATOM      7  O   UNL     1      24.173  13.276   3.017  1.00  0.00    -0.550 OA
ENDBRANCH   4   5
ENDBRANCH   3   4
ENDBRANCH   2   3
ENDBRANCH   1   2
BRANCH   1   8
ATOM      8  C   UNL     1      19.666  14.678  -0.091  1.00  0.00     0.000 C 
BRANCH   8   9
ATOM      9  C   UNL     1      19.268  13.207   0.114  1.00  0.00    -0.000 C 
BRANCH   9  10
ATOM     10  C   UNL     1      20.249  12.228  -0.556  1.00  0.00    -0.000 C 
BRANCH  10  11
ATOM     11  C   UNL     1      21.370  11.774   0.392  1.00  0.00    -0.000 C 
BRANCH  11  12
ATOM     12  C   UNL     1      22.767  12.151  -0.124  1.00  0.00    -0.003 C 
ATOM     13  C   UNL     1      22.678  12.910  -1.444  1.00  0.00     0.004 C 
ENDBRANCH  11  12
ENDBRANCH  10  11
ENDBRANCH   9  10
ENDBRANCH   8   9
ENDBRANCH   1   8
TORSDOF 9
ENDMDL
MODEL 6
REMARK VINA RESULT:    -4.723      2.489      5.106
REMARK INTER + INTRA:          -8.423
REMARK INTER:                  -7.445
REMARK INTRA:                  -0.978
REMARK UNBOUND:                -1.214
REMARK SMILES CCCCCCCCCCC(=O)[O-]
REMARK SMILES IDX 7 1 8 2 9 3 10 4 11 5 12 6 13 7 6 8 5 9 4 10 3 11 2 12 1 13
REMARK H PARENT
REMARK Flexibility Score: inf
ROOT
ATOM      1  C   UNL     1      22.743  11.835   0.390  1.00  0.00     0.000 C 
ENDROOT
BRANCH   1   2
ATOM      2  C   UNL     1      23.529  13.091  -0.017  1.00  0.00     0.000 C 
BRANCH   2   3
ATOM      3  C   UNL     1      23.915  13.965   1.187  1.00  0.00     0.006 C 
BRANCH   3   4
ATOM      4  C   UNL     1      23.159  15.298   1.158  1.00  0.00     0.053 C 
BRANCH   4   5
ATOM      5  C   UNL     1      22.434  15.517   2.449  1.00  0.00     0.041 C 
ATOM      6  O   UNL     1      21.928  16.639   2.709  1.00  0.00    -0.550 OA
ATOM      7  O   UNL     1      22.273  14.465   3.342  1.00  0.00    -0.550 OA
ENDBRANCH   4   5
ENDBRANCH   3   4
ENDBRANCH   2   3
ENDBRANCH   1   2
BRANCH   1   8
ATOM      8  C   UNL     1      21.299  12.154   0.815  1.00  0.00     0.000 C 
BRANCH   8   9
ATOM      9  C   UNL     1      20.266  11.740  -0.248  1.00  0.00    -0.000 C 
BRANCH   9  10
ATOM     10  C   UNL     1      19.444  12.929  -0.773  1.00  0.00    -0.000 C 
BRANCH  10  11
ATOM     11  C   UNL     1      19.830  13.326  -2.207  1.00  0.00    -0.000 C 
BRANCH  11  12
ATOM     12  C   UNL     1      20.578  12.207  -2.947  1.00  0.00    -0.003 C 
ATOM     13  C   UNL     1      21.957  12.675  -3.400  1.00  0.00     0.004 C 
ENDBRANCH  11  12
ENDBRANCH  10  11
ENDBRANCH   9  10
ENDBRANCH   8   9
ENDBRANCH   1   8
TORSDOF 9
ENDMDL
MODEL 7
REMARK VINA RESULT:    -4.711      2.528      4.778
REMARK INTER + INTRA:          -8.404
REMARK INTER:                  -7.268
REMARK INTRA:                  -1.137
REMARK UNBOUND:                -1.214
REMARK SMILES CCCCCCCCCCC(=O)[O-]
REMARK SMILES IDX 7 1 8 2 9 3 10 4 11 5 12 6 13 7 6 8 5 9 4 10 3 11 2 12 1 13
REMARK H PARENT
REMARK Flexibility Score: inf
ROOT
ATOM      1  C   UNL     1      24.067  13.833   0.810  1.00  0.00     0.000 C 
ENDROOT
BRANCH   1   2
ATOM      2  C   UNL     1      23.060  14.950   1.126  1.00  0.00     0.000 C 
BRANCH   2   3
ATOM      3  C   UNL     1      22.025  14.533   2.183  1.00  0.00     0.006 C 
BRANCH   3   4
ATOM      4  C   UNL     1      22.706  14.217   3.519  1.00  0.00     0.053 C 
BRANCH   4   5
ATOM      5  C   UNL     1      22.608  12.755   3.824  1.00  0.00     0.041 C 
ATOM      6  O   UNL     1      21.846  12.016   3.147  1.00  0.00    -0.550 OA
ATOM      7  O   UNL     1      23.396  12.200   4.824  1.00  0.00    -0.550 OA
ENDBRANCH   4   5
ENDBRANCH   3   4
ENDBRANCH   2   3
ENDBRANCH   1   2
BRANCH   1   8
ATOM      8  C   UNL     1      23.481  12.753  -0.116  1.00  0.00     0.000 C 
BRANCH   8   9
ATOM      9  C   UNL     1      22.693  13.351  -1.294  1.00  0.00    -0.000 C 
BRANCH   9  10
ATOM     10  C   UNL     1      21.350  12.639  -1.532  1.00  0.00    -0.000 C 
BRANCH  10  11
ATOM     11  C   UNL     1      20.798  11.978  -0.258  1.00  0.00    -0.000 C 
BRANCH  11  12
ATOM     12  C   UNL     1      19.470  12.599   0.199  1.00  0.00    -0.003 C 
ATOM     13  C   UNL     1      19.244  13.957  -0.458  1.00  0.00     0.004 C 
ENDBRANCH  11  12
ENDBRANCH  10  11
ENDBRANCH   9  10
ENDBRANCH   8   9
ENDBRANCH   1   8
TORSDOF 9
ENDMDL
MODEL 8
REMARK VINA RESULT:    -4.700      2.674      4.444
REMARK INTER + INTRA:          -8.387
REMARK INTER:                  -7.195
REMARK INTRA:                  -1.192
REMARK UNBOUND:                -1.214
REMARK SMILES CCCCCCCCCCC(=O)[O-]
REMARK SMILES IDX 7 1 8 2 9 3 10 4 11 5 12 6 13 7 6 8 5 9 4 10 3 11 2 12 1 13
REMARK H PARENT
REMARK Flexibility Score: inf
ROOT
ATOM      1  C   UNL     1      19.737  12.443  -1.547  1.00  0.00     0.000 C 
ENDROOT
BRANCH   1   2
ATOM      2  C   UNL     1      19.129  13.596  -0.733  1.00  0.00     0.000 C 
BRANCH   2   3
ATOM      3  C   UNL     1      20.015  14.017   0.451  1.00  0.00     0.006 C 
BRANCH   3   4
ATOM      4  C   UNL     1      20.249  15.531   0.448  1.00  0.00     0.053 C 
BRANCH   4   5
ATOM      5  C   UNL     1      21.478  15.873   1.230  1.00  0.00     0.041 C 
ATOM      6  O   UNL     1      22.534  16.214   0.635  1.00  0.00    -0.550 OA
ATOM      7  O   UNL     1      21.443  15.864   2.618  1.00  0.00    -0.550 OA
ENDBRANCH   4   5
ENDBRANCH   3   4
ENDBRANCH   2   3
ENDBRANCH   1   2
BRANCH   1   8
ATOM      8  C   UNL     1      20.088  12.857  -2.986  1.00  0.00     0.000 C 
BRANCH   8   9
ATOM      9  C   UNL     1      21.578  12.655  -3.311  1.00  0.00    -0.000 C 
BRANCH   9  10
ATOM     10  C   UNL     1      22.374  12.094  -2.120  1.00  0.00    -0.000 C 
BRANCH  10  11
ATOM     11  C   UNL     1      23.273  13.153  -1.461  1.00  0.00    -0.000 C 
BRANCH  11  12
ATOM     12  C   UNL     1      23.566  12.841   0.014  1.00  0.00    -0.003 C 
ATOM     13  C   UNL     1      22.841  11.575   0.462  1.00  0.00     0.004 C 
ENDBRANCH  11  12
ENDBRANCH  10  11
ENDBRANCH   9  10
ENDBRANCH   8   9
ENDBRANCH   1   8
TORSDOF 9
ENDMDL
MODEL 9
REMARK VINA RESULT:    -4.693      2.586      4.610
REMARK INTER + INTRA:          -8.377
REMARK INTER:                  -7.009
REMARK INTRA:                  -1.368
REMARK UNBOUND:                -1.214
REMARK SMILES CCCCCCCCCCC(=O)[O-]
REMARK SMILES IDX 7 1 8 2 9 3 10 4 11 5 12 6 13 7 6 8 5 9 4 10 3 11 2 12 1 13
REMARK H PARENT
REMARK Flexibility Score: inf
ROOT
ATOM      1  C   UNL     1      22.882  13.236  -1.432  1.00  0.00     0.000 C 
ENDROOT
BRANCH   1   2
ATOM      2  C   UNL     1      23.246  13.264   0.061  1.00  0.00     0.000 C 
BRANCH   2   3
ATOM      3  C   UNL     1      22.861  11.967   0.789  1.00  0.00     0.006 C 
BRANCH   3   4
ATOM      4  C   UNL     1      21.909  12.256   1.954  1.00  0.00     0.053 C 
BRANCH   4   5
ATOM      5  C   UNL     1      22.548  13.187   2.935  1.00  0.00     0.041 C 
ATOM      6  O   UNL     1      23.564  12.825   3.584  1.00  0.00    -0.550 OA
ATOM      7  O   UNL     1      22.050  14.474   3.096  1.00  0.00    -0.550 OA
ENDBRANCH   4   5
ENDBRANCH   3   4
ENDBRANCH   2   3
ENDBRANCH   1   2
BRANCH   1   8
ATOM      8  C   UNL     1      22.123  11.959  -1.831  1.00  0.00     0.000 C 
BRANCH   8   9
ATOM      9  C   UNL     1      20.869  12.256  -2.671  1.00  0.00    -0.000 C 
BRANCH   9  10
ATOM     10  C   UNL     1      20.023  13.402  -2.089  1.00  0.00    -0.000 C 
BRANCH  10  11
ATOM     11  C   UNL     1      19.037  12.921  -1.013  1.00  0.00    -0.000 C 
BRANCH  11  12
ATOM     12  C   UNL     1      19.031  13.825   0.228  1.00  0.00    -0.003 C 
ATOM     13  C   UNL     1      19.947  15.030   0.034  1.00  0.00     0.004 C 
ENDBRANCH  11  12
ENDBRANCH  10  11
ENDBRANCH   9  10
ENDBRANCH   8   9
ENDBRANCH   1   8
TORSDOF 9
ENDMDL
