MODEL 1
REMARK VINA RESULT:    -4.660      0.000      0.000
REMARK INTER + INTRA:          -5.156
REMARK INTER:                  -5.068
REMARK INTRA:                  -0.087
REMARK UNBOUND:                -0.087
REMARK SMILES C=C(C)[C@H]1CC=C(C)[C@@H](O)C1
REMARK SMILES IDX 8 1 7 2 6 3 5 4 4 5 11 6 9 7 10 8 2 10 1 11 3 12
REMARK H PARENT 10 9
REMARK Flexibility Score: inf
ROOT
ATOM      1  C   UNL     1      47.179   8.228 116.195  1.00  0.00     0.042 C 
ATOM      2  C   UNL     1      47.683   7.593 114.925  1.00  0.00    -0.049 C 
ATOM      3  C   UNL     1      46.899   7.638 113.825  1.00  0.00    -0.025 C 
ATOM      4  C   UNL     1      47.299   7.033 112.504  1.00  0.00     0.035 C 
ATOM      5  C   UNL     1      48.827   6.918 112.365  1.00  0.00     0.021 C 
ATOM      6  C   UNL     1      49.406   6.229 113.609  1.00  0.00     0.044 C 
ATOM      7  C   UNL     1      49.112   7.060 114.872  1.00  0.00     0.140 C 
ENDROOT
BRANCH   7   8
ATOM      8  O   UNL     1      49.411   6.307 116.020  1.00  0.00    -0.389 OA
ATOM      9  H   UNL     1      50.293   6.616 116.358  1.00  0.00     0.211 HD
ENDBRANCH   7   8
BRANCH   5  10
ATOM     10  C   UNL     1      49.220   6.195 111.083  1.00  0.00    -0.077 C 
ATOM     11  C   UNL     1      49.309   6.846 109.910  1.00  0.00     0.008 C 
ATOM     12  C   UNL     1      49.516   4.716 111.110  1.00  0.00     0.039 C 
ENDBRANCH   5  10
TORSDOF 2
ENDMDL
MODEL 2
REMARK VINA RESULT:    -4.585      4.492      6.463
REMARK INTER + INTRA:          -5.074
REMARK INTER:                  -4.986
REMARK INTRA:                  -0.088
REMARK UNBOUND:                -0.087
REMARK SMILES C=C(C)[C@H]1CC=C(C)[C@@H](O)C1
REMARK SMILES IDX 8 1 7 2 6 3 5 4 4 5 11 6 9 7 10 8 2 10 1 11 3 12
REMARK H PARENT 10 9
REMARK Flexibility Score: inf
ROOT
ATOM      1  C   UNL     1      41.561  11.586 113.343  1.00  0.00     0.042 C 
ATOM      2  C   UNL     1      42.644  10.704 113.909  1.00  0.00    -0.049 C 
ATOM      3  C   UNL     1      43.035  10.900 115.187  1.00  0.00    -0.025 C 
ATOM      4  C   UNL     1      44.111  10.082 115.853  1.00  0.00     0.035 C 
ATOM      5  C   UNL     1      44.271   8.700 115.196  1.00  0.00     0.021 C 
ATOM      6  C   UNL     1      44.415   8.867 113.676  1.00  0.00     0.044 C 
ATOM      7  C   UNL     1      43.154   9.525 113.084  1.00  0.00     0.140 C 
ENDROOT
BRANCH   7   8
ATOM      8  O   UNL     1      43.394   9.908 111.753  1.00  0.00    -0.389 OA
ATOM      9  H   UNL     1      42.563   9.732 111.238  1.00  0.00     0.211 HD
ENDBRANCH   7   8
BRANCH   5  10
ATOM     10  C   UNL     1      45.439   7.927 115.793  1.00  0.00    -0.077 C 
ATOM     11  C   UNL     1      45.353   7.352 117.005  1.00  0.00     0.008 C 
ATOM     12  C   UNL     1      46.730   7.796 115.024  1.00  0.00     0.039 C 
ENDBRANCH   5  10
TORSDOF 2
ENDMDL
MODEL 3
REMARK VINA RESULT:    -4.581      3.546      5.211
REMARK INTER + INTRA:          -5.070
REMARK INTER:                  -4.983
REMARK INTRA:                  -0.087
REMARK UNBOUND:                -0.087
REMARK SMILES C=C(C)[C@H]1CC=C(C)[C@@H](O)C1
REMARK SMILES IDX 8 1 7 2 6 3 5 4 4 5 11 6 9 7 10 8 2 10 1 11 3 12
REMARK H PARENT 10 9
REMARK Flexibility Score: inf
ROOT
ATOM      1  C   UNL     1      43.769  10.212 119.110  1.00  0.00     0.042 C 
ATOM      2  C   UNL     1      44.084   9.390 117.887  1.00  0.00    -0.049 C 
ATOM      3  C   UNL     1      43.720   9.868 116.677  1.00  0.00    -0.025 C 
ATOM      4  C   UNL     1      43.980   9.130 115.389  1.00  0.00     0.035 C 
ATOM      5  C   UNL     1      45.163   8.154 115.515  1.00  0.00     0.021 C 
ATOM      6  C   UNL     1      44.969   7.269 116.754  1.00  0.00     0.044 C 
ATOM      7  C   UNL     1      44.934   8.131 118.031  1.00  0.00     0.140 C 
ENDROOT
BRANCH   7   8
ATOM      8  O   UNL     1      44.502   7.354 119.120  1.00  0.00    -0.389 OA
ATOM      9  H   UNL     1      43.519   7.471 119.199  1.00  0.00     0.211 HD
ENDBRANCH   7   8
BRANCH   5  10
ATOM     10  C   UNL     1      45.342   7.324 114.250  1.00  0.00    -0.077 C 
ATOM     11  C   UNL     1      46.278   7.633 113.336  1.00  0.00     0.008 C 
ATOM     12  C   UNL     1      44.457   6.129 113.999  1.00  0.00     0.039 C 
ENDBRANCH   5  10
TORSDOF 2
ENDMDL
MODEL 4
REMARK VINA RESULT:    -4.571      1.632      2.436
REMARK INTER + INTRA:          -5.060
REMARK INTER:                  -4.972
REMARK INTRA:                  -0.087
REMARK UNBOUND:                -0.087
REMARK SMILES C=C(C)[C@H]1CC=C(C)[C@@H](O)C1
REMARK SMILES IDX 8 1 7 2 6 3 5 4 4 5 11 6 9 7 10 8 2 10 1 11 3 12
REMARK H PARENT 10 9
REMARK Flexibility Score: inf
ROOT
ATOM      1  C   UNL     1      46.887   8.512 116.018  1.00  0.00     0.042 C 
ATOM      2  C   UNL     1      47.478   7.947 114.752  1.00  0.00    -0.049 C 
ATOM      3  C   UNL     1      48.808   7.717 114.707  1.00  0.00    -0.025 C 
ATOM      4  C   UNL     1      49.507   7.159 113.494  1.00  0.00     0.035 C 
ATOM      5  C   UNL     1      48.548   6.351 112.601  1.00  0.00     0.021 C 
ATOM      6  C   UNL     1      47.290   7.182 112.314  1.00  0.00     0.044 C 
ATOM      7  C   UNL     1      46.548   7.507 113.625  1.00  0.00     0.140 C 
ENDROOT
BRANCH   7   8
ATOM      8  O   UNL     1      45.555   8.473 113.385  1.00  0.00    -0.389 OA
ATOM      9  H   UNL     1      45.818   8.976 112.570  1.00  0.00     0.211 HD
ENDBRANCH   7   8
BRANCH   5  10
ATOM     10  C   UNL     1      49.229   5.894 111.318  1.00  0.00    -0.077 C 
ATOM     11  C   UNL     1      49.738   4.655 111.197  1.00  0.00     0.008 C 
ATOM     12  C   UNL     1      49.349   6.839 110.149  1.00  0.00     0.039 C 
ENDBRANCH   5  10
TORSDOF 2
ENDMDL
MODEL 5
REMARK VINA RESULT:    -4.514     10.240     12.313
REMARK INTER + INTRA:          -4.998
REMARK INTER:                  -4.905
REMARK INTRA:                  -0.092
REMARK UNBOUND:                -0.087
REMARK SMILES C=C(C)[C@H]1CC=C(C)[C@@H](O)C1
REMARK SMILES IDX 8 1 7 2 6 3 5 4 4 5 11 6 9 7 10 8 2 10 1 11 3 12
REMARK H PARENT 10 9
REMARK Flexibility Score: inf
ROOT
ATOM      1  C   UNL     1      42.641  13.354 110.948  1.00  0.00     0.042 C 
ATOM      2  C   UNL     1      42.006  14.215 112.010  1.00  0.00    -0.049 C 
ATOM      3  C   UNL     1      42.276  13.946 113.306  1.00  0.00    -0.025 C 
ATOM      4  C   UNL     1      41.693  14.736 114.449  1.00  0.00     0.035 C 
ATOM      5  C   UNL     1      41.292  16.158 114.018  1.00  0.00     0.021 C 
ATOM      6  C   UNL     1      40.423  16.086 112.755  1.00  0.00     0.044 C 
ATOM      7  C   UNL     1      41.210  15.449 111.594  1.00  0.00     0.140 C 
ENDROOT
BRANCH   7   8
ATOM      8  O   UNL     1      40.339  15.152 110.532  1.00  0.00    -0.389 OA
ATOM      9  H   UNL     1      40.794  15.418 109.689  1.00  0.00     0.211 HD
ENDBRANCH   7   8
BRANCH   5  10
ATOM     10  C   UNL     1      40.593  16.909 115.144  1.00  0.00    -0.077 C 
ATOM     11  C   UNL     1      39.254  17.020 115.187  1.00  0.00     0.008 C 
ATOM     12  C   UNL     1      41.405  17.552 116.240  1.00  0.00     0.039 C 
ENDBRANCH   5  10
TORSDOF 2
ENDMDL
MODEL 6
REMARK VINA RESULT:    -4.411      4.482      7.532
REMARK INTER + INTRA:          -4.885
REMARK INTER:                  -4.798
REMARK INTRA:                  -0.087
REMARK UNBOUND:                -0.087
REMARK SMILES C=C(C)[C@H]1CC=C(C)[C@@H](O)C1
REMARK SMILES IDX 8 1 7 2 6 3 5 4 4 5 11 6 9 7 10 8 2 10 1 11 3 12
REMARK H PARENT 10 9
REMARK Flexibility Score: inf
ROOT
ATOM      1  C   UNL     1      44.771   8.252 113.790  1.00  0.00     0.042 C 
ATOM      2  C   UNL     1      44.543   8.590 115.241  1.00  0.00    -0.049 C 
ATOM      3  C   UNL     1      44.003   9.790 115.547  1.00  0.00    -0.025 C 
ATOM      4  C   UNL     1      43.735  10.235 116.961  1.00  0.00     0.035 C 
ATOM      5  C   UNL     1      43.565   9.041 117.916  1.00  0.00     0.021 C 
ATOM      6  C   UNL     1      44.743   8.071 117.742  1.00  0.00     0.044 C 
ATOM      7  C   UNL     1      44.778   7.520 116.303  1.00  0.00     0.140 C 
ENDROOT
BRANCH   7   8
ATOM      8  O   UNL     1      45.991   6.846 116.079  1.00  0.00    -0.389 OA
ATOM      9  H   UNL     1      46.716   7.394 116.482  1.00  0.00     0.211 HD
ENDBRANCH   7   8
BRANCH   5  10
ATOM     10  C   UNL     1      43.417   9.496 119.362  1.00  0.00    -0.077 C 
ATOM     11  C   UNL     1      42.217   9.528 119.968  1.00  0.00     0.008 C 
ATOM     12  C   UNL     1      44.631   9.927 120.146  1.00  0.00     0.039 C 
ENDBRANCH   5  10
TORSDOF 2
ENDMDL
MODEL 7
REMARK VINA RESULT:    -4.407      5.515      9.297
REMARK INTER + INTRA:          -4.881
REMARK INTER:                  -4.788
REMARK INTRA:                  -0.093
REMARK UNBOUND:                -0.087
REMARK SMILES C=C(C)[C@H]1CC=C(C)[C@@H](O)C1
REMARK SMILES IDX 8 1 7 2 6 3 5 4 4 5 11 6 9 7 10 8 2 10 1 11 3 12
REMARK H PARENT 10 9
REMARK Flexibility Score: inf
ROOT
ATOM      1  C   UNL     1      46.526   8.780 117.177  1.00  0.00     0.042 C 
ATOM      2  C   UNL     1      45.433   9.231 118.111  1.00  0.00    -0.049 C 
ATOM      3  C   UNL     1      45.768   9.983 119.182  1.00  0.00    -0.025 C 
ATOM      4  C   UNL     1      44.760  10.485 120.184  1.00  0.00     0.035 C 
ATOM      5  C   UNL     1      43.349  10.583 119.577  1.00  0.00     0.021 C 
ATOM      6  C   UNL     1      42.992   9.258 118.890  1.00  0.00     0.044 C 
ATOM      7  C   UNL     1      43.976   8.964 117.741  1.00  0.00     0.140 C 
ENDROOT
BRANCH   7   8
ATOM      8  O   UNL     1      43.805   7.643 117.291  1.00  0.00    -0.389 OA
ATOM      9  H   UNL     1      43.181   7.670 116.519  1.00  0.00     0.211 HD
ENDBRANCH   7   8
BRANCH   5  10
ATOM     10  C   UNL     1      42.315  10.973 120.625  1.00  0.00    -0.077 C 
ATOM     11  C   UNL     1      41.457  10.071 121.133  1.00  0.00     0.008 C 
ATOM     12  C   UNL     1      42.234  12.398 121.112  1.00  0.00     0.039 C 
ENDBRANCH   5  10
TORSDOF 2
ENDMDL
MODEL 8
REMARK VINA RESULT:    -4.332      8.374      9.177
REMARK INTER + INTRA:          -4.799
REMARK INTER:                  -4.703
REMARK INTRA:                  -0.096
REMARK UNBOUND:                -0.087
REMARK SMILES C=C(C)[C@H]1CC=C(C)[C@@H](O)C1
REMARK SMILES IDX 8 1 7 2 6 3 5 4 4 5 11 6 9 7 10 8 2 10 1 11 3 12
REMARK H PARENT 10 9
REMARK Flexibility Score: inf
ROOT
ATOM      1  C   UNL     1      40.409   4.042 113.268  1.00  0.00     0.042 C 
ATOM      2  C   UNL     1      41.187   2.806 112.898  1.00  0.00    -0.049 C 
ATOM      3  C   UNL     1      42.498   2.747 113.222  1.00  0.00    -0.025 C 
ATOM      4  C   UNL     1      43.373   1.564 112.898  1.00  0.00     0.035 C 
ATOM      5  C   UNL     1      42.554   0.271 112.737  1.00  0.00     0.021 C 
ATOM      6  C   UNL     1      41.391   0.517 111.765  1.00  0.00     0.044 C 
ATOM      7  C   UNL     1      40.448   1.603 112.317  1.00  0.00     0.140 C 
ENDROOT
BRANCH   7   8
ATOM      8  O   UNL     1      39.543   2.003 111.319  1.00  0.00    -0.389 OA
ATOM      9  H   UNL     1      39.712   2.964 111.130  1.00  0.00     0.211 HD
ENDBRANCH   7   8
BRANCH   5  10
ATOM     10  C   UNL     1      43.428  -0.894 112.290  1.00  0.00    -0.077 C 
ATOM     11  C   UNL     1      42.918  -2.125 112.113  1.00  0.00     0.008 C 
ATOM     12  C   UNL     1      44.900  -0.681 112.040  1.00  0.00     0.039 C 
ENDBRANCH   5  10
TORSDOF 2
ENDMDL
MODEL 9
REMARK VINA RESULT:    -4.327      8.968     10.205
REMARK INTER + INTRA:          -4.794
REMARK INTER:                  -4.698
REMARK INTRA:                  -0.096
REMARK UNBOUND:                -0.087
REMARK SMILES C=C(C)[C@H]1CC=C(C)[C@@H](O)C1
REMARK SMILES IDX 8 1 7 2 6 3 5 4 4 5 11 6 9 7 10 8 2 10 1 11 3 12
REMARK H PARENT 10 9
REMARK Flexibility Score: inf
ROOT
ATOM      1  C   UNL     1      44.502  -0.626 111.867  1.00  0.00     0.042 C 
ATOM      2  C   UNL     1      43.221  -0.151 112.503  1.00  0.00    -0.049 C 
ATOM      3  C   UNL     1      42.157  -0.984 112.512  1.00  0.00    -0.025 C 
ATOM      4  C   UNL     1      40.827  -0.614 113.116  1.00  0.00     0.035 C 
ATOM      5  C   UNL     1      40.970   0.475 114.194  1.00  0.00     0.021 C 
ATOM      6  C   UNL     1      41.790   1.647 113.636  1.00  0.00     0.044 C 
ATOM      7  C   UNL     1      43.207   1.179 113.252  1.00  0.00     0.140 C 
ENDROOT
BRANCH   7   8
ATOM      8  O   UNL     1      43.857   2.180 112.511  1.00  0.00    -0.389 OA
ATOM      9  H   UNL     1      43.183   2.591 111.909  1.00  0.00     0.211 HD
ENDBRANCH   7   8
BRANCH   5  10
ATOM     10  C   UNL     1      39.612   0.931 114.713  1.00  0.00    -0.077 C 
ATOM     11  C   UNL     1      39.407   2.195 115.123  1.00  0.00     0.008 C 
ATOM     12  C   UNL     1      38.463  -0.043 114.779  1.00  0.00     0.039 C 
ENDBRANCH   5  10
TORSDOF 2
ENDMDL
