MODEL 1
REMARK VINA RESULT:    -5.406      0.000      0.000
REMARK INTER + INTRA:         -10.602
REMARK INTER:                  -9.514
REMARK INTRA:                  -1.088
REMARK UNBOUND:                -1.088
REMARK SMILES CCCCCCC=CCCCCCCCC(=O)[O-]
REMARK SMILES IDX 10 1 11 2 12 3 13 4 14 5 15 6 16 7 17 8 18 9 9 10 8 11 7 12
REMARK SMILES IDX 6 13 5 14 4 15 3 16 2 17 1 18
REMARK H PARENT
REMARK Flexibility Score: inf
ROOT
ATOM      1  C   UNL     1       1.202  -3.366   9.531  1.00  0.00     0.004 C 
ENDROOT
BRANCH   1   2
ATOM      2  C   UNL     1       0.961  -4.759   8.923  1.00  0.00     0.000 C 
BRANCH   2   3
ATOM      3  C   UNL     1      -0.333  -4.826   8.095  1.00  0.00     0.000 C 
BRANCH   3   4
ATOM      4  C   UNL     1      -0.168  -5.648   6.808  1.00  0.00     0.000 C 
BRANCH   4   5
ATOM      5  C   UNL     1      -0.667  -7.085   7.008  1.00  0.00     0.006 C 
BRANCH   5   6
ATOM      6  C   UNL     1      -1.828  -7.130   8.005  1.00  0.00     0.053 C 
BRANCH   6   7
ATOM      7  C   UNL     1      -2.478  -8.478   7.993  1.00  0.00     0.041 C 
ATOM      8  O   UNL     1      -1.791  -9.510   7.774  1.00  0.00    -0.550 OA
ATOM      9  O   UNL     1      -3.832  -8.599   8.275  1.00  0.00    -0.550 OA
ENDBRANCH   6   7
ENDBRANCH   5   6
ENDBRANCH   4   5
ENDBRANCH   3   4
ENDBRANCH   2   3
ENDBRANCH   1   2
BRANCH   1  10
ATOM     10  C   UNL     1      -0.008  -2.437   9.338  1.00  0.00     0.027 C 
BRANCH  10  11
ATOM     11  C   UNL     1       0.337  -0.991   9.598  1.00  0.00    -0.031 C 
ATOM     12  C   UNL     1      -0.325   0.063   9.084  1.00  0.00    -0.031 C 
BRANCH  12  13
ATOM     13  C   UNL     1      -1.557  -0.023   8.213  1.00  0.00     0.027 C 
BRANCH  13  14
ATOM     14  C   UNL     1      -1.185  -0.046   6.725  1.00  0.00     0.004 C 
BRANCH  14  15
ATOM     15  C   UNL     1      -1.183  -1.474   6.153  1.00  0.00     0.000 C 
BRANCH  15  16
ATOM     16  C   UNL     1      -1.592  -1.518   4.672  1.00  0.00    -0.000 C 
BRANCH  16  17
ATOM     17  C   UNL     1      -1.604  -2.945   4.106  1.00  0.00    -0.003 C 
ATOM     18  C   UNL     1      -1.214  -2.954   2.631  1.00  0.00     0.004 C 
ENDBRANCH  16  17
ENDBRANCH  15  16
ENDBRANCH  14  15
ENDBRANCH  13  14
ENDBRANCH  12  13
ENDBRANCH  10  11
ENDBRANCH   1  10
TORSDOF 13
ENDMDL
MODEL 2
REMARK VINA RESULT:    -5.205      2.544      5.948
REMARK INTER + INTRA:         -10.248
REMARK INTER:                  -9.234
REMARK INTRA:                  -1.015
REMARK UNBOUND:                -1.088
REMARK SMILES CCCCCCC=CCCCCCCCC(=O)[O-]
REMARK SMILES IDX 10 1 11 2 12 3 13 4 14 5 15 6 16 7 17 8 18 9 9 10 8 11 7 12
REMARK SMILES IDX 6 13 5 14 4 15 3 16 2 17 1 18
REMARK H PARENT
REMARK Flexibility Score: inf
ROOT
ATOM      1  C   UNL     1      -0.667  -1.602   9.659  1.00  0.00     0.004 C 
ENDROOT
BRANCH   1   2
ATOM      2  C   UNL     1      -0.298  -0.291   8.943  1.00  0.00     0.000 C 
BRANCH   2   3
ATOM      3  C   UNL     1      -1.459   0.272   8.106  1.00  0.00     0.000 C 
BRANCH   3   4
ATOM      4  C   UNL     1      -1.188   0.199   6.596  1.00  0.00     0.000 C 
BRANCH   4   5
ATOM      5  C   UNL     1      -1.320  -1.240   6.083  1.00  0.00     0.006 C 
BRANCH   5   6
ATOM      6  C   UNL     1      -1.525  -1.266   4.566  1.00  0.00     0.053 C 
BRANCH   6   7
ATOM      7  C   UNL     1      -1.582  -2.676   4.069  1.00  0.00     0.041 C 
ATOM      8  O   UNL     1      -1.294  -2.937   2.871  1.00  0.00    -0.550 OA
ATOM      9  O   UNL     1      -1.903  -3.709   4.940  1.00  0.00    -0.550 OA
ENDBRANCH   6   7
ENDBRANCH   5   6
ENDBRANCH   4   5
ENDBRANCH   3   4
ENDBRANCH   2   3
ENDBRANCH   1   2
BRANCH   1  10
ATOM     10  C   UNL     1       0.518  -2.580   9.715  1.00  0.00     0.027 C 
BRANCH  10  11
ATOM     11  C   UNL     1       0.080  -3.989  10.027  1.00  0.00    -0.031 C 
ATOM     12  C   UNL     1       0.009  -4.991   9.130  1.00  0.00    -0.031 C 
BRANCH  12  13
ATOM     13  C   UNL     1       0.413  -4.888   7.677  1.00  0.00     0.027 C 
BRANCH  13  14
ATOM     14  C   UNL     1      -0.141  -6.063   6.862  1.00  0.00     0.004 C 
BRANCH  14  15
ATOM     15  C   UNL     1      -1.148  -6.901   7.668  1.00  0.00     0.000 C 
BRANCH  15  16
ATOM     16  C   UNL     1      -1.113  -8.390   7.292  1.00  0.00    -0.000 C 
BRANCH  16  17
ATOM     17  C   UNL     1      -2.293  -9.176   7.882  1.00  0.00    -0.003 C 
ATOM     18  C   UNL     1      -3.253  -8.250   8.624  1.00  0.00     0.004 C 
ENDBRANCH  16  17
ENDBRANCH  15  16
ENDBRANCH  14  15
ENDBRANCH  13  14
ENDBRANCH  12  13
ENDBRANCH  10  11
ENDBRANCH   1  10
TORSDOF 13
ENDMDL
MODEL 3
REMARK VINA RESULT:    -4.907      3.486      7.155
REMARK INTER + INTRA:          -9.724
REMARK INTER:                  -8.929
REMARK INTRA:                  -0.795
REMARK UNBOUND:                -1.088
REMARK SMILES CCCCCCC=CCCCCCCCC(=O)[O-]
REMARK SMILES IDX 10 1 11 2 12 3 13 4 14 5 15 6 16 7 17 8 18 9 9 10 8 11 7 12
REMARK SMILES IDX 6 13 5 14 4 15 3 16 2 17 1 18
REMARK H PARENT
REMARK Flexibility Score: inf
ROOT
ATOM      1  C   UNL     1      -0.281  -3.823   8.986  1.00  0.00     0.004 C 
ENDROOT
BRANCH   1   2
ATOM      2  C   UNL     1       0.498  -2.605   9.512  1.00  0.00     0.000 C 
BRANCH   2   3
ATOM      3  C   UNL     1      -0.420  -1.423   9.861  1.00  0.00     0.000 C 
BRANCH   3   4
ATOM      4  C   UNL     1      -0.149  -0.186   8.990  1.00  0.00     0.000 C 
BRANCH   4   5
ATOM      5  C   UNL     1      -1.281   0.031   7.978  1.00  0.00     0.006 C 
BRANCH   5   6
ATOM      6  C   UNL     1      -1.127  -0.901   6.773  1.00  0.00     0.053 C 
BRANCH   6   7
ATOM      7  C   UNL     1      -1.316  -0.143   5.497  1.00  0.00     0.041 C 
ATOM      8  O   UNL     1      -1.057   1.088   5.446  1.00  0.00    -0.550 OA
ATOM      9  O   UNL     1      -1.731  -0.806   4.350  1.00  0.00    -0.550 OA
ENDBRANCH   6   7
ENDBRANCH   5   6
ENDBRANCH   4   5
ENDBRANCH   3   4
ENDBRANCH   2   3
ENDBRANCH   1   2
BRANCH   1  10
ATOM     10  C   UNL     1       0.648  -5.004   8.661  1.00  0.00     0.027 C 
BRANCH  10  11
ATOM     11  C   UNL     1       0.388  -5.572   7.288  1.00  0.00    -0.031 C 
ATOM     12  C   UNL     1      -0.528  -6.517   7.006  1.00  0.00    -0.031 C 
BRANCH  12  13
ATOM     13  C   UNL     1      -1.491  -7.121   8.003  1.00  0.00     0.027 C 
BRANCH  13  14
ATOM     14  C   UNL     1      -1.644  -8.631   7.782  1.00  0.00     0.004 C 
BRANCH  14  15
ATOM     15  C   UNL     1      -2.844  -9.208   8.553  1.00  0.00     0.000 C 
BRANCH  15  16
ATOM     16  C   UNL     1      -3.804  -9.997   7.649  1.00  0.00    -0.000 C 
BRANCH  16  17
ATOM     17  C   UNL     1      -5.213  -9.389   7.613  1.00  0.00    -0.003 C 
ATOM     18  C   UNL     1      -5.174  -7.893   7.910  1.00  0.00     0.004 C 
ENDBRANCH  16  17
ENDBRANCH  15  16
ENDBRANCH  14  15
ENDBRANCH  13  14
ENDBRANCH  12  13
ENDBRANCH  10  11
ENDBRANCH   1  10
TORSDOF 13
ENDMDL
MODEL 4
REMARK VINA RESULT:    -4.794      1.330      2.630
REMARK INTER + INTRA:          -9.526
REMARK INTER:                  -8.532
REMARK INTRA:                  -0.994
REMARK UNBOUND:                -1.088
REMARK SMILES CCCCCCC=CCCCCCCCC(=O)[O-]
REMARK SMILES IDX 10 1 11 2 12 3 13 4 14 5 15 6 16 7 17 8 18 9 9 10 8 11 7 12
REMARK SMILES IDX 6 13 5 14 4 15 3 16 2 17 1 18
REMARK H PARENT
REMARK Flexibility Score: inf
ROOT
ATOM      1  C   UNL     1      -0.283  -4.702   7.559  1.00  0.00     0.004 C 
ENDROOT
BRANCH   1   2
ATOM      2  C   UNL     1       0.272  -5.968   6.884  1.00  0.00     0.000 C 
BRANCH   2   3
ATOM      3  C   UNL     1      -0.727  -7.136   6.906  1.00  0.00     0.000 C 
BRANCH   3   4
ATOM      4  C   UNL     1      -1.531  -7.202   8.213  1.00  0.00     0.000 C 
BRANCH   4   5
ATOM      5  C   UNL     1      -2.422  -8.450   8.247  1.00  0.00     0.006 C 
BRANCH   5   6
ATOM      6  C   UNL     1      -3.769  -8.146   8.909  1.00  0.00     0.053 C 
BRANCH   6   7
ATOM      7  C   UNL     1      -4.857  -8.094   7.883  1.00  0.00     0.041 C 
ATOM      8  O   UNL     1      -5.306  -6.986   7.491  1.00  0.00    -0.550 OA
ATOM      9  O   UNL     1      -5.341  -9.269   7.323  1.00  0.00    -0.550 OA
ENDBRANCH   6   7
ENDBRANCH   5   6
ENDBRANCH   4   5
ENDBRANCH   3   4
ENDBRANCH   2   3
ENDBRANCH   1   2
BRANCH   1  10
ATOM     10  C   UNL     1       0.590  -4.251   8.742  1.00  0.00     0.027 C 
BRANCH  10  11
ATOM     11  C   UNL     1      -0.232  -3.684   9.873  1.00  0.00    -0.031 C 
ATOM     12  C   UNL     1      -0.456  -2.373  10.081  1.00  0.00    -0.031 C 
BRANCH  12  13
ATOM     13  C   UNL     1       0.025  -1.255   9.184  1.00  0.00     0.027 C 
BRANCH  13  14
ATOM     14  C   UNL     1      -0.914  -0.044   9.254  1.00  0.00     0.004 C 
BRANCH  14  15
ATOM     15  C   UNL     1      -1.585   0.244   7.900  1.00  0.00     0.000 C 
BRANCH  15  16
ATOM     16  C   UNL     1      -1.187  -0.768   6.815  1.00  0.00    -0.000 C 
BRANCH  16  17
ATOM     17  C   UNL     1      -1.245  -0.172   5.402  1.00  0.00    -0.003 C 
ATOM     18  C   UNL     1      -1.562  -1.245   4.365  1.00  0.00     0.004 C 
ENDBRANCH  16  17
ENDBRANCH  15  16
ENDBRANCH  14  15
ENDBRANCH  13  14
ENDBRANCH  12  13
ENDBRANCH  10  11
ENDBRANCH   1  10
TORSDOF 13
ENDMDL
MODEL 5
REMARK VINA RESULT:    -4.698      3.492      6.782
REMARK INTER + INTRA:          -9.357
REMARK INTER:                  -7.695
REMARK INTRA:                  -1.662
REMARK UNBOUND:                -1.088
REMARK SMILES CCCCCCC=CCCCCCCCC(=O)[O-]
REMARK SMILES IDX 10 1 11 2 12 3 13 4 14 5 15 6 16 7 17 8 18 9 9 10 8 11 7 12
REMARK SMILES IDX 6 13 5 14 4 15 3 16 2 17 1 18
REMARK H PARENT
REMARK Flexibility Score: inf
ROOT
ATOM      1  C   UNL     1      -1.418  -3.722   4.872  1.00  0.00     0.004 C 
ENDROOT
BRANCH   1   2
ATOM      2  C   UNL     1      -1.350  -2.185   4.907  1.00  0.00     0.000 C 
BRANCH   2   3
ATOM      3  C   UNL     1      -1.251  -1.630   6.337  1.00  0.00     0.000 C 
BRANCH   3   4
ATOM      4  C   UNL     1      -1.213  -0.095   6.375  1.00  0.00     0.000 C 
BRANCH   4   5
ATOM      5  C   UNL     1      -1.226   0.419   7.820  1.00  0.00     0.006 C 
BRANCH   5   6
ATOM      6  C   UNL     1      -0.745  -0.663   8.792  1.00  0.00     0.053 C 
BRANCH   6   7
ATOM      7  C   UNL     1       0.585  -0.294   9.369  1.00  0.00     0.041 C 
ATOM      8  O   UNL     1       1.045   0.867   9.212  1.00  0.00    -0.550 OA
ATOM      9  O   UNL     1       1.295  -1.218  10.124  1.00  0.00    -0.550 OA
ENDBRANCH   6   7
ENDBRANCH   5   6
ENDBRANCH   4   5
ENDBRANCH   3   4
ENDBRANCH   2   3
ENDBRANCH   1   2
BRANCH   1  10
ATOM     10  C   UNL     1      -1.278  -4.336   6.274  1.00  0.00     0.027 C 
BRANCH  10  11
ATOM     11  C   UNL     1      -0.201  -5.391   6.330  1.00  0.00    -0.031 C 
ATOM     12  C   UNL     1       0.611  -5.608   7.381  1.00  0.00    -0.031 C 
BRANCH  12  13
ATOM     13  C   UNL     1       0.541  -4.875   8.702  1.00  0.00     0.027 C 
BRANCH  13  14
ATOM     14  C   UNL     1       0.089  -5.808   9.832  1.00  0.00     0.004 C 
BRANCH  14  15
ATOM     15  C   UNL     1      -1.439  -5.807  10.005  1.00  0.00     0.000 C 
BRANCH  15  16
ATOM     16  C   UNL     1      -2.059  -7.196   9.789  1.00  0.00    -0.000 C 
BRANCH  16  17
ATOM     17  C   UNL     1      -2.495  -7.427   8.335  1.00  0.00    -0.003 C 
ATOM     18  C   UNL     1      -1.820  -8.664   7.749  1.00  0.00     0.004 C 
ENDBRANCH  16  17
ENDBRANCH  15  16
ENDBRANCH  14  15
ENDBRANCH  13  14
ENDBRANCH  12  13
ENDBRANCH  10  11
ENDBRANCH   1  10
TORSDOF 13
ENDMDL
MODEL 6
REMARK VINA RESULT:    -4.570      3.283      5.052
REMARK INTER + INTRA:          -9.131
REMARK INTER:                  -8.378
REMARK INTRA:                  -0.754
REMARK UNBOUND:                -1.088
REMARK SMILES CCCCCCC=CCCCCCCCC(=O)[O-]
REMARK SMILES IDX 10 1 11 2 12 3 13 4 14 5 15 6 16 7 17 8 18 9 9 10 8 11 7 12
REMARK SMILES IDX 6 13 5 14 4 15 3 16 2 17 1 18
REMARK H PARENT
REMARK Flexibility Score: inf
ROOT
ATOM      1  C   UNL     1       0.046  -4.643   8.190  1.00  0.00     0.004 C 
ENDROOT
BRANCH   1   2
ATOM      2  C   UNL     1       0.395  -5.714   7.141  1.00  0.00     0.000 C 
BRANCH   2   3
ATOM      3  C   UNL     1      -0.766  -6.687   6.881  1.00  0.00     0.000 C 
BRANCH   3   4
ATOM      4  C   UNL     1      -1.454  -7.146   8.176  1.00  0.00     0.000 C 
BRANCH   4   5
ATOM      5  C   UNL     1      -2.104  -8.523   7.993  1.00  0.00     0.006 C 
BRANCH   5   6
ATOM      6  C   UNL     1      -3.386  -8.640   8.823  1.00  0.00     0.053 C 
BRANCH   6   7
ATOM      7  C   UNL     1      -4.591  -8.534   7.943  1.00  0.00     0.041 C 
ATOM      8  O   UNL     1      -5.260  -9.562   7.658  1.00  0.00    -0.550 OA
ATOM      9  O   UNL     1      -5.007  -7.293   7.480  1.00  0.00    -0.550 OA
ENDBRANCH   6   7
ENDBRANCH   5   6
ENDBRANCH   4   5
ENDBRANCH   3   4
ENDBRANCH   2   3
ENDBRANCH   1   2
BRANCH   1  10
ATOM     10  C   UNL     1       0.877  -4.801   9.473  1.00  0.00     0.027 C 
BRANCH  10  11
ATOM     11  C   UNL     1       2.349  -4.963   9.183  1.00  0.00    -0.031 C 
ATOM     12  C   UNL     1       3.279  -4.007   9.364  1.00  0.00    -0.031 C 
BRANCH  12  13
ATOM     13  C   UNL     1       3.018  -2.636   9.945  1.00  0.00     0.027 C 
BRANCH  13  14
ATOM     14  C   UNL     1       4.254  -1.736   9.823  1.00  0.00     0.004 C 
BRANCH  14  15
ATOM     15  C   UNL     1       3.877  -0.246   9.749  1.00  0.00     0.000 C 
BRANCH  15  16
ATOM     16  C   UNL     1       4.870   0.574   8.912  1.00  0.00    -0.000 C 
BRANCH  16  17
ATOM     17  C   UNL     1       5.539  -0.258   7.809  1.00  0.00    -0.003 C 
ATOM     18  C   UNL     1       7.055  -0.084   7.833  1.00  0.00     0.004 C 
ENDBRANCH  16  17
ENDBRANCH  15  16
ENDBRANCH  14  15
ENDBRANCH  13  14
ENDBRANCH  12  13
ENDBRANCH  10  11
ENDBRANCH   1  10
TORSDOF 13
ENDMDL
MODEL 7
REMARK VINA RESULT:    -4.496      3.443      7.478
REMARK INTER + INTRA:          -9.001
REMARK INTER:                  -8.367
REMARK INTRA:                  -0.634
REMARK UNBOUND:                -1.088
REMARK SMILES CCCCCCC=CCCCCCCCC(=O)[O-]
REMARK SMILES IDX 10 1 11 2 12 3 13 4 14 5 15 6 16 7 17 8 18 9 9 10 8 11 7 12
REMARK SMILES IDX 6 13 5 14 4 15 3 16 2 17 1 18
REMARK H PARENT
REMARK Flexibility Score: inf
ROOT
ATOM      1  C   UNL     1      -1.152  -3.722   4.915  1.00  0.00     0.004 C 
ENDROOT
BRANCH   1   2
ATOM      2  C   UNL     1      -2.092  -2.505   4.873  1.00  0.00     0.000 C 
BRANCH   2   3
ATOM      3  C   UNL     1      -1.405  -1.247   4.319  1.00  0.00     0.000 C 
BRANCH   3   4
ATOM      4  C   UNL     1      -1.173  -0.177   5.396  1.00  0.00     0.000 C 
BRANCH   4   5
ATOM      5  C   UNL     1      -1.170  -0.801   6.797  1.00  0.00     0.006 C 
BRANCH   5   6
ATOM      6  C   UNL     1      -1.157   0.282   7.880  1.00  0.00     0.053 C 
BRANCH   6   7
ATOM      7  C   UNL     1      -0.232  -0.100   8.992  1.00  0.00     0.041 C 
ATOM      8  O   UNL     1      -0.367  -1.206   9.579  1.00  0.00    -0.550 OA
ATOM      9  O   UNL     1       0.813   0.743   9.348  1.00  0.00    -0.550 OA
ENDBRANCH   6   7
ENDBRANCH   5   6
ENDBRANCH   4   5
ENDBRANCH   3   4
ENDBRANCH   2   3
ENDBRANCH   1   2
BRANCH   1  10
ATOM     10  C   UNL     1      -1.098  -4.360   6.313  1.00  0.00     0.027 C 
BRANCH  10  11
ATOM     11  C   UNL     1      -0.067  -5.458   6.399  1.00  0.00    -0.031 C 
ATOM     12  C   UNL     1      -0.247  -6.637   7.025  1.00  0.00    -0.031 C 
BRANCH  12  13
ATOM     13  C   UNL     1      -1.529  -7.082   7.691  1.00  0.00     0.027 C 
BRANCH  13  14
ATOM     14  C   UNL     1      -1.726  -8.597   7.560  1.00  0.00     0.004 C 
BRANCH  14  15
ATOM     15  C   UNL     1      -2.438  -9.195   8.786  1.00  0.00     0.000 C 
BRANCH  15  16
ATOM     16  C   UNL     1      -3.598 -10.125   8.401  1.00  0.00    -0.000 C 
BRANCH  16  17
ATOM     17  C   UNL     1      -4.863  -9.354   7.996  1.00  0.00    -0.003 C 
ATOM     18  C   UNL     1      -5.584 -10.049   6.845  1.00  0.00     0.004 C 
ENDBRANCH  16  17
ENDBRANCH  15  16
ENDBRANCH  14  15
ENDBRANCH  13  14
ENDBRANCH  12  13
ENDBRANCH  10  11
ENDBRANCH   1  10
TORSDOF 13
ENDMDL
MODEL 8
REMARK VINA RESULT:    -4.409      5.577      7.608
REMARK INTER + INTRA:          -8.847
REMARK INTER:                  -8.057
REMARK INTRA:                  -0.790
REMARK UNBOUND:                -1.088
REMARK SMILES CCCCCCC=CCCCCCCCC(=O)[O-]
REMARK SMILES IDX 10 1 11 2 12 3 13 4 14 5 15 6 16 7 17 8 18 9 9 10 8 11 7 12
REMARK SMILES IDX 6 13 5 14 4 15 3 16 2 17 1 18
REMARK H PARENT
REMARK Flexibility Score: inf
ROOT
ATOM      1  C   UNL     1       3.525  -3.684   8.981  1.00  0.00     0.004 C 
ENDROOT
BRANCH   1   2
ATOM      2  C   UNL     1       3.049  -2.570   9.930  1.00  0.00     0.000 C 
BRANCH   2   3
ATOM      3  C   UNL     1       4.103  -1.468  10.123  1.00  0.00     0.000 C 
BRANCH   3   4
ATOM      4  C   UNL     1       4.921  -1.202   8.850  1.00  0.00     0.000 C 
BRANCH   4   5
ATOM      5  C   UNL     1       5.711   0.107   8.968  1.00  0.00     0.006 C 
BRANCH   5   6
ATOM      6  C   UNL     1       7.109  -0.146   9.540  1.00  0.00     0.053 C 
BRANCH   6   7
ATOM      7  C   UNL     1       8.085  -0.416   8.438  1.00  0.00     0.041 C 
ATOM      8  O   UNL     1       9.198  -0.947   8.693  1.00  0.00    -0.550 OA
ATOM      9  O   UNL     1       7.746  -0.128   7.123  1.00  0.00    -0.550 OA
ENDBRANCH   6   7
ENDBRANCH   5   6
ENDBRANCH   4   5
ENDBRANCH   3   4
ENDBRANCH   2   3
ENDBRANCH   1   2
BRANCH   1  10
ATOM     10  C   UNL     1       2.558  -4.878   8.965  1.00  0.00     0.027 C 
BRANCH  10  11
ATOM     11  C   UNL     1       1.156  -4.482   9.357  1.00  0.00    -0.031 C 
ATOM     12  C   UNL     1       0.033  -4.961   8.789  1.00  0.00    -0.031 C 
BRANCH  12  13
ATOM     13  C   UNL     1      -0.014  -6.017   7.709  1.00  0.00     0.027 C 
BRANCH  13  14
ATOM     14  C   UNL     1      -0.336  -5.401   6.341  1.00  0.00     0.004 C 
BRANCH  14  15
ATOM     15  C   UNL     1      -0.934  -3.989   6.471  1.00  0.00     0.000 C 
BRANCH  15  16
ATOM     16  C   UNL     1      -1.480  -3.454   5.139  1.00  0.00    -0.000 C 
BRANCH  16  17
ATOM     17  C   UNL     1      -1.476  -1.920   5.074  1.00  0.00    -0.003 C 
ATOM     18  C   UNL     1      -1.487  -1.431   3.628  1.00  0.00     0.004 C 
ENDBRANCH  16  17
ENDBRANCH  15  16
ENDBRANCH  14  15
ENDBRANCH  13  14
ENDBRANCH  12  13
ENDBRANCH  10  11
ENDBRANCH   1  10
TORSDOF 13
ENDMDL
MODEL 9
REMARK VINA RESULT:    -4.238      5.171      7.966
REMARK INTER + INTRA:          -8.547
REMARK INTER:                  -7.750
REMARK INTRA:                  -0.797
REMARK UNBOUND:                -1.088
REMARK SMILES CCCCCCC=CCCCCCCCC(=O)[O-]
REMARK SMILES IDX 10 1 11 2 12 3 13 4 14 5 15 6 16 7 17 8 18 9 9 10 8 11 7 12
REMARK SMILES IDX 6 13 5 14 4 15 3 16 2 17 1 18
REMARK H PARENT
REMARK Flexibility Score: inf
ROOT
ATOM      1  C   UNL     1       2.969  -4.292   8.684  1.00  0.00     0.004 C 
ENDROOT
BRANCH   1   2
ATOM      2  C   UNL     1       3.119  -3.633  10.066  1.00  0.00     0.000 C 
BRANCH   2   3
ATOM      3  C   UNL     1       2.932  -2.108  10.016  1.00  0.00     0.000 C 
BRANCH   3   4
ATOM      4  C   UNL     1       4.262  -1.346  10.125  1.00  0.00     0.000 C 
BRANCH   4   5
ATOM      5  C   UNL     1       4.086   0.124   9.723  1.00  0.00     0.006 C 
BRANCH   5   6
ATOM      6  C   UNL     1       5.439   0.779   9.431  1.00  0.00     0.053 C 
BRANCH   6   7
ATOM      7  C   UNL     1       6.158   0.037   8.349  1.00  0.00     0.041 C 
ATOM      8  O   UNL     1       7.315  -0.416   8.554  1.00  0.00    -0.550 OA
ATOM      9  O   UNL     1       5.532  -0.197   7.132  1.00  0.00    -0.550 OA
ENDBRANCH   6   7
ENDBRANCH   5   6
ENDBRANCH   4   5
ENDBRANCH   3   4
ENDBRANCH   2   3
ENDBRANCH   1   2
BRANCH   1  10
ATOM     10  C   UNL     1       1.907  -5.404   8.689  1.00  0.00     0.027 C 
BRANCH  10  11
ATOM     11  C   UNL     1       0.503  -4.852   8.721  1.00  0.00    -0.031 C 
ATOM     12  C   UNL     1      -0.473  -5.180   7.854  1.00  0.00    -0.031 C 
BRANCH  12  13
ATOM     13  C   UNL     1      -0.347  -6.199   6.745  1.00  0.00     0.027 C 
BRANCH  13  14
ATOM     14  C   UNL     1      -0.828  -7.581   7.202  1.00  0.00     0.004 C 
BRANCH  14  15
ATOM     15  C   UNL     1      -2.028  -7.487   8.160  1.00  0.00     0.000 C 
BRANCH  15  16
ATOM     16  C   UNL     1      -2.669  -8.854   8.441  1.00  0.00    -0.000 C 
BRANCH  16  17
ATOM     17  C   UNL     1      -4.139  -8.918   8.002  1.00  0.00    -0.003 C 
ATOM     18  C   UNL     1      -4.785  -7.537   8.044  1.00  0.00     0.004 C 
ENDBRANCH  16  17
ENDBRANCH  15  16
ENDBRANCH  14  15
ENDBRANCH  13  14
ENDBRANCH  12  13
ENDBRANCH  10  11
ENDBRANCH   1  10
TORSDOF 13
ENDMDL
