MODEL 1
REMARK VINA RESULT:    -6.584      0.000      0.000
REMARK INTER + INTRA:          -8.232
REMARK INTER:                  -7.932
REMARK INTRA:                  -0.300
REMARK UNBOUND:                -0.300
REMARK SMILES O=c1c(O)c(-c2ccc(O)cc2O)oc2cc(O)cc(O)c12
REMARK SMILES IDX 5 1 3 2 2 3 1 4 22 5 20 6 19 7 17 8 16 9 15 10 14 11 6 12
REMARK SMILES IDX 8 13 7 14 9 15 11 16 12 17 10 18 13 20 4 22 21 24 18 26
REMARK H PARENT 10 19 13 21 4 23 21 25 18 27
REMARK Flexibility Score: inf
ROOT
ATOM      1  C   UNL     1      14.577 -23.244  21.607  1.00  0.00     0.184 A 
ATOM      2  C   UNL     1      14.922 -24.574  21.323  1.00  0.00     0.208 A 
ATOM      3  C   UNL     1      15.398 -25.390  22.361  1.00  0.00     0.238 A 
ATOM      4  O   UNL     1      15.756 -26.565  22.091  1.00  0.00    -0.285 OA
ATOM      5  C   UNL     1      15.507 -24.866  23.673  1.00  0.00     0.111 A 
ATOM      6  C   UNL     1      15.938 -25.614  24.809  1.00  0.00     0.134 A 
ATOM      7  C   UNL     1      16.132 -24.961  26.033  1.00  0.00     0.093 A 
ATOM      8  C   UNL     1      15.847 -23.601  26.176  1.00  0.00     0.123 A 
ATOM      9  C   UNL     1      15.369 -22.876  25.087  1.00  0.00     0.094 A 
ATOM     10  C   UNL     1      15.199 -23.491  23.845  1.00  0.00     0.146 A 
ATOM     11  O   UNL     1      14.752 -22.761  22.831  1.00  0.00    -0.451 OA
ENDROOT
BRANCH   1  12
ATOM     12  C   UNL     1      14.054 -22.337  20.563  1.00  0.00     0.063 A 
ATOM     13  C   UNL     1      12.387 -21.878  18.855  1.00  0.00     0.047 A 
ATOM     14  C   UNL     1      12.904 -22.710  19.850  1.00  0.00     0.020 A 
ATOM     15  C   UNL     1      13.017 -20.670  18.549  1.00  0.00     0.119 A 
ATOM     16  C   UNL     1      14.179 -20.299  19.239  1.00  0.00     0.093 A 
ATOM     17  C   UNL     1      14.709 -21.130  20.236  1.00  0.00     0.130 A 
BRANCH  15  18
ATOM     18  O   UNL     1      12.487 -19.848  17.556  1.00  0.00    -0.508 OA
ATOM     19  H   UNL     1      12.591 -18.842  17.591  1.00  0.00     0.293 HD
ENDBRANCH  15  18
BRANCH  17  20
ATOM     20  O   UNL     1      15.892 -20.773  20.882  1.00  0.00    -0.507 OA
ATOM     21  H   UNL     1      16.548 -21.471  21.212  1.00  0.00     0.293 HD
ENDBRANCH  17  20
ENDBRANCH   1  12
BRANCH   2  22
ATOM     22  O   UNL     1      14.822 -25.058  20.016  1.00  0.00    -0.502 OA
ATOM     23  H   UNL     1      14.586 -24.462  19.232  1.00  0.00     0.293 HD
ENDBRANCH   2  22
BRANCH   6  24
ATOM     24  O   UNL     1      16.163 -26.994  24.797  1.00  0.00    -0.507 OA
ATOM     25  H   UNL     1      15.439 -27.694  24.857  1.00  0.00     0.293 HD
ENDBRANCH   6  24
BRANCH   8  26
ATOM     26  O   UNL     1      16.027 -22.962  27.401  1.00  0.00    -0.508 OA
ATOM     27  H   UNL     1      16.893 -23.047  27.921  1.00  0.00     0.293 HD
ENDBRANCH   8  26
TORSDOF 6
ENDMDL
MODEL 2
REMARK VINA RESULT:    -6.459      1.526      6.554
REMARK INTER + INTRA:          -8.080
REMARK INTER:                  -7.829
REMARK INTRA:                  -0.252
REMARK UNBOUND:                -0.300
REMARK SMILES O=c1c(O)c(-c2ccc(O)cc2O)oc2cc(O)cc(O)c12
REMARK SMILES IDX 5 1 3 2 2 3 1 4 22 5 20 6 19 7 17 8 16 9 15 10 14 11 6 12
REMARK SMILES IDX 8 13 7 14 9 15 11 16 12 17 10 18 13 20 4 22 21 24 18 26
REMARK H PARENT 10 19 13 21 4 23 21 25 18 27
REMARK Flexibility Score: inf
ROOT
ATOM      1  C   UNL     1      14.938 -23.167  22.142  1.00  0.00     0.184 A 
ATOM      2  C   UNL     1      14.636 -24.115  21.154  1.00  0.00     0.208 A 
ATOM      3  C   UNL     1      14.138 -23.674  19.917  1.00  0.00     0.238 A 
ATOM      4  O   UNL     1      13.818 -24.532  19.054  1.00  0.00    -0.285 OA
ATOM      5  C   UNL     1      13.965 -22.288  19.683  1.00  0.00     0.111 A 
ATOM      6  C   UNL     1      13.505 -21.726  18.454  1.00  0.00     0.134 A 
ATOM      7  C   UNL     1      13.248 -20.352  18.377  1.00  0.00     0.093 A 
ATOM      8  C   UNL     1      13.495 -19.510  19.464  1.00  0.00     0.123 A 
ATOM      9  C   UNL     1      14.000 -20.042  20.649  1.00  0.00     0.094 A 
ATOM     10  C   UNL     1      14.233 -21.413  20.768  1.00  0.00     0.146 A 
ATOM     11  O   UNL     1      14.703 -21.879  21.919  1.00  0.00    -0.451 OA
ENDROOT
BRANCH   1  12
ATOM     12  C   UNL     1      15.481 -23.562  23.459  1.00  0.00     0.063 A 
ATOM     13  C   UNL     1      17.336 -23.547  25.031  1.00  0.00     0.047 A 
ATOM     14  C   UNL     1      16.791 -23.186  23.796  1.00  0.00     0.020 A 
ATOM     15  C   UNL     1      16.586 -24.300  25.938  1.00  0.00     0.119 A 
ATOM     16  C   UNL     1      15.287 -24.701  25.601  1.00  0.00     0.093 A 
ATOM     17  C   UNL     1      14.733 -24.347  24.362  1.00  0.00     0.130 A 
BRANCH  15  18
ATOM     18  O   UNL     1      17.142 -24.649  27.167  1.00  0.00    -0.508 OA
ATOM     19  H   UNL     1      17.938 -24.152  27.548  1.00  0.00     0.293 HD
ENDBRANCH  15  18
BRANCH  17  20
ATOM     20  O   UNL     1      13.457 -24.793  24.019  1.00  0.00    -0.507 OA
ATOM     21  H   UNL     1      12.623 -24.347  24.382  1.00  0.00     0.293 HD
ENDBRANCH  17  20
ENDBRANCH   1  12
BRANCH   2  22
ATOM     22  O   UNL     1      14.799 -25.477  21.419  1.00  0.00    -0.502 OA
ATOM     23  H   UNL     1      15.021 -25.828  22.343  1.00  0.00     0.293 HD
ENDBRANCH   2  22
BRANCH   6  24
ATOM     24  O   UNL     1      13.314 -22.463  17.282  1.00  0.00    -0.507 OA
ATOM     25  H   UNL     1      13.286 -22.069  16.353  1.00  0.00     0.293 HD
ENDBRANCH   6  24
BRANCH   8  26
ATOM     26  O   UNL     1      13.252 -18.141  19.374  1.00  0.00    -0.508 OA
ATOM     27  H   UNL     1      13.999 -17.463  19.475  1.00  0.00     0.293 HD
ENDBRANCH   8  26
TORSDOF 6
ENDMDL
MODEL 3
REMARK VINA RESULT:    -6.447      2.528      3.388
REMARK INTER + INTRA:          -8.066
REMARK INTER:                  -7.719
REMARK INTRA:                  -0.347
REMARK UNBOUND:                -0.300
REMARK SMILES O=c1c(O)c(-c2ccc(O)cc2O)oc2cc(O)cc(O)c12
REMARK SMILES IDX 5 1 3 2 2 3 1 4 22 5 20 6 19 7 17 8 16 9 15 10 14 11 6 12
REMARK SMILES IDX 8 13 7 14 9 15 11 16 12 17 10 18 13 20 4 22 21 24 18 26
REMARK H PARENT 10 19 13 21 4 23 21 25 18 27
REMARK Flexibility Score: inf
ROOT
ATOM      1  C   UNL     1      15.055 -21.803  20.210  1.00  0.00     0.184 A 
ATOM      2  C   UNL     1      16.437 -22.031  20.284  1.00  0.00     0.208 A 
ATOM      3  C   UNL     1      16.903 -23.172  20.957  1.00  0.00     0.238 A 
ATOM      4  O   UNL     1      18.145 -23.344  21.066  1.00  0.00    -0.285 OA
ATOM      5  C   UNL     1      15.977 -24.075  21.533  1.00  0.00     0.111 A 
ATOM      6  C   UNL     1      16.335 -25.283  22.204  1.00  0.00     0.134 A 
ATOM      7  C   UNL     1      15.345 -26.035  22.849  1.00  0.00     0.093 A 
ATOM      8  C   UNL     1      14.002 -25.657  22.792  1.00  0.00     0.123 A 
ATOM      9  C   UNL     1      13.635 -24.511  22.089  1.00  0.00     0.094 A 
ATOM     10  C   UNL     1      14.604 -23.721  21.466  1.00  0.00     0.146 A 
ATOM     11  O   UNL     1      14.213 -22.631  20.817  1.00  0.00    -0.451 OA
ENDROOT
BRANCH   1  12
ATOM     12  C   UNL     1      14.497 -20.631  19.502  1.00  0.00     0.063 A 
ATOM     13  C   UNL     1      14.276 -18.216  19.336  1.00  0.00     0.047 A 
ATOM     14  C   UNL     1      14.791 -19.344  19.980  1.00  0.00     0.020 A 
ATOM     15  C   UNL     1      13.451 -18.358  18.218  1.00  0.00     0.119 A 
ATOM     16  C   UNL     1      13.133 -19.639  17.748  1.00  0.00     0.093 A 
ATOM     17  C   UNL     1      13.641 -20.777  18.390  1.00  0.00     0.130 A 
BRANCH  15  18
ATOM     18  O   UNL     1      12.949 -17.223  17.585  1.00  0.00    -0.508 OA
ATOM     19  H   UNL     1      12.873 -17.170  16.576  1.00  0.00     0.293 HD
ENDBRANCH  15  18
BRANCH  17  20
ATOM     20  O   UNL     1      13.278 -22.047  17.943  1.00  0.00    -0.507 OA
ATOM     21  H   UNL     1      12.527 -22.181  17.276  1.00  0.00     0.293 HD
ENDBRANCH  17  20
ENDBRANCH   1  12
BRANCH   2  22
ATOM     22  O   UNL     1      17.328 -21.114  19.722  1.00  0.00    -0.502 OA
ATOM     23  H   UNL     1      18.085 -21.395  19.111  1.00  0.00     0.293 HD
ENDBRANCH   2  22
BRANCH   6  24
ATOM     24  O   UNL     1      17.634 -25.799  22.243  1.00  0.00    -0.507 OA
ATOM     25  H   UNL     1      18.464 -25.253  22.419  1.00  0.00     0.293 HD
ENDBRANCH   6  24
BRANCH   8  26
ATOM     26  O   UNL     1      13.020 -26.419  23.422  1.00  0.00    -0.508 OA
ATOM     27  H   UNL     1      12.036 -26.199  23.324  1.00  0.00     0.293 HD
ENDBRANCH   8  26
TORSDOF 6
ENDMDL
MODEL 4
REMARK VINA RESULT:    -6.407      5.017      7.324
REMARK INTER + INTRA:          -8.018
REMARK INTER:                  -7.654
REMARK INTRA:                  -0.364
REMARK UNBOUND:                -0.300
REMARK SMILES O=c1c(O)c(-c2ccc(O)cc2O)oc2cc(O)cc(O)c12
REMARK SMILES IDX 5 1 3 2 2 3 1 4 22 5 20 6 19 7 17 8 16 9 15 10 14 11 6 12
REMARK SMILES IDX 8 13 7 14 9 15 11 16 12 17 10 18 13 20 4 22 21 24 18 26
REMARK H PARENT 10 19 13 21 4 23 21 25 18 27
REMARK Flexibility Score: inf
ROOT
ATOM      1  C   UNL     1      15.263 -18.072  20.739  1.00  0.00     0.184 A 
ATOM      2  C   UNL     1      16.609 -17.680  20.684  1.00  0.00     0.208 A 
ATOM      3  C   UNL     1      17.050 -16.641  21.519  1.00  0.00     0.238 A 
ATOM      4  O   UNL     1      18.245 -16.258  21.428  1.00  0.00    -0.285 OA
ATOM      5  C   UNL     1      16.139 -16.020  22.408  1.00  0.00     0.111 A 
ATOM      6  C   UNL     1      16.485 -14.984  23.328  1.00  0.00     0.134 A 
ATOM      7  C   UNL     1      15.477 -14.353  24.067  1.00  0.00     0.093 A 
ATOM      8  C   UNL     1      14.146 -14.763  23.968  1.00  0.00     0.123 A 
ATOM      9  C   UNL     1      13.808 -15.813  23.117  1.00  0.00     0.094 A 
ATOM     10  C   UNL     1      14.785 -16.438  22.340  1.00  0.00     0.146 A 
ATOM     11  O   UNL     1      14.417 -17.427  21.533  1.00  0.00    -0.451 OA
ENDROOT
BRANCH   1  12
ATOM     12  C   UNL     1      14.738 -19.169  19.899  1.00  0.00     0.063 A 
ATOM     13  C   UNL     1      14.779 -21.523  19.294  1.00  0.00     0.047 A 
ATOM     14  C   UNL     1      15.250 -20.464  20.074  1.00  0.00     0.020 A 
ATOM     15  C   UNL     1      13.801 -21.301  18.321  1.00  0.00     0.119 A 
ATOM     16  C   UNL     1      13.301 -20.007  18.123  1.00  0.00     0.093 A 
ATOM     17  C   UNL     1      13.771 -18.937  18.898  1.00  0.00     0.130 A 
BRANCH  15  18
ATOM     18  O   UNL     1      13.339 -22.368  17.554  1.00  0.00    -0.508 OA
ATOM     19  H   UNL     1      13.802 -23.268  17.566  1.00  0.00     0.293 HD
ENDBRANCH  15  18
BRANCH  17  20
ATOM     20  O   UNL     1      13.301 -17.647  18.658  1.00  0.00    -0.507 OA
ATOM     21  H   UNL     1      13.220 -17.277  17.719  1.00  0.00     0.293 HD
ENDBRANCH  17  20
ENDBRANCH   1  12
BRANCH   2  22
ATOM     22  O   UNL     1      17.481 -18.299  19.785  1.00  0.00    -0.502 OA
ATOM     23  H   UNL     1      17.942 -19.177  19.991  1.00  0.00     0.293 HD
ENDBRANCH   2  22
BRANCH   6  24
ATOM     24  O   UNL     1      17.795 -14.561  23.571  1.00  0.00    -0.507 OA
ATOM     25  H   UNL     1      18.337 -13.982  22.947  1.00  0.00     0.293 HD
ENDBRANCH   6  24
BRANCH   8  26
ATOM     26  O   UNL     1      13.152 -14.140  24.719  1.00  0.00    -0.508 OA
ATOM     27  H   UNL     1      12.385 -13.647  24.277  1.00  0.00     0.293 HD
ENDBRANCH   8  26
TORSDOF 6
ENDMDL
MODEL 5
REMARK VINA RESULT:    -6.368      2.327      6.885
REMARK INTER + INTRA:          -7.971
REMARK INTER:                  -7.630
REMARK INTRA:                  -0.341
REMARK UNBOUND:                -0.300
REMARK SMILES O=c1c(O)c(-c2ccc(O)cc2O)oc2cc(O)cc(O)c12
REMARK SMILES IDX 5 1 3 2 2 3 1 4 22 5 20 6 19 7 17 8 16 9 15 10 14 11 6 12
REMARK SMILES IDX 8 13 7 14 9 15 11 16 12 17 10 18 13 20 4 22 21 24 18 26
REMARK H PARENT 10 19 13 21 4 23 21 25 18 27
REMARK Flexibility Score: inf
ROOT
ATOM      1  C   UNL     1      14.868 -22.184  21.336  1.00  0.00     0.184 A 
ATOM      2  C   UNL     1      15.574 -21.186  22.024  1.00  0.00     0.208 A 
ATOM      3  C   UNL     1      15.455 -19.853  21.598  1.00  0.00     0.238 A 
ATOM      4  O   UNL     1      16.132 -18.969  22.185  1.00  0.00    -0.285 OA
ATOM      5  C   UNL     1      14.618 -19.538  20.500  1.00  0.00     0.111 A 
ATOM      6  C   UNL     1      14.391 -18.217  20.009  1.00  0.00     0.134 A 
ATOM      7  C   UNL     1      13.648 -18.035  18.836  1.00  0.00     0.093 A 
ATOM      8  C   UNL     1      13.068 -19.120  18.175  1.00  0.00     0.123 A 
ATOM      9  C   UNL     1      13.235 -20.408  18.681  1.00  0.00     0.094 A 
ATOM     10  C   UNL     1      14.001 -20.625  19.828  1.00  0.00     0.146 A 
ATOM     11  O   UNL     1      14.144 -21.869  20.270  1.00  0.00    -0.451 OA
ENDROOT
BRANCH   1  12
ATOM     12  C   UNL     1      14.936 -23.604  21.743  1.00  0.00     0.063 A 
ATOM     13  C   UNL     1      13.872 -25.513  22.808  1.00  0.00     0.047 A 
ATOM     14  C   UNL     1      13.839 -24.175  22.407  1.00  0.00     0.020 A 
ATOM     15  C   UNL     1      15.005 -26.293  22.564  1.00  0.00     0.119 A 
ATOM     16  C   UNL     1      16.114 -25.726  21.923  1.00  0.00     0.093 A 
ATOM     17  C   UNL     1      16.092 -24.382  21.522  1.00  0.00     0.130 A 
BRANCH  15  18
ATOM     18  O   UNL     1      15.022 -27.627  22.968  1.00  0.00    -0.508 OA
ATOM     19  H   UNL     1      14.434 -27.959  23.723  1.00  0.00     0.293 HD
ENDBRANCH  15  18
BRANCH  17  20
ATOM     20  O   UNL     1      17.220 -23.816  20.928  1.00  0.00    -0.507 OA
ATOM     21  H   UNL     1      17.669 -24.243  20.127  1.00  0.00     0.293 HD
ENDBRANCH  17  20
ENDBRANCH   1  12
BRANCH   2  22
ATOM     22  O   UNL     1      16.406 -21.528  23.092  1.00  0.00    -0.502 OA
ATOM     23  H   UNL     1      17.392 -21.726  22.972  1.00  0.00     0.293 HD
ENDBRANCH   2  22
BRANCH   6  24
ATOM     24  O   UNL     1      14.848 -17.058  20.644  1.00  0.00    -0.507 OA
ATOM     25  H   UNL     1      15.355 -17.043  21.516  1.00  0.00     0.293 HD
ENDBRANCH   6  24
BRANCH   8  26
ATOM     26  O   UNL     1      12.315 -18.929  17.018  1.00  0.00    -0.508 OA
ATOM     27  H   UNL     1      11.391 -18.514  17.051  1.00  0.00     0.293 HD
ENDBRANCH   8  26
TORSDOF 6
ENDMDL
MODEL 6
REMARK VINA RESULT:    -6.268      3.379      6.246
REMARK INTER + INTRA:          -7.851
REMARK INTER:                  -7.456
REMARK INTRA:                  -0.395
REMARK UNBOUND:                -0.300
REMARK SMILES O=c1c(O)c(-c2ccc(O)cc2O)oc2cc(O)cc(O)c12
REMARK SMILES IDX 5 1 3 2 2 3 1 4 22 5 20 6 19 7 17 8 16 9 15 10 14 11 6 12
REMARK SMILES IDX 8 13 7 14 9 15 11 16 12 17 10 18 13 20 4 22 21 24 18 26
REMARK H PARENT 10 19 13 21 4 23 21 25 18 27
REMARK Flexibility Score: inf
ROOT
ATOM      1  C   UNL     1      14.608 -18.871  20.684  1.00  0.00     0.184 A 
ATOM      2  C   UNL     1      13.724 -18.859  19.594  1.00  0.00     0.208 A 
ATOM      3  C   UNL     1      13.292 -20.081  19.055  1.00  0.00     0.238 A 
ATOM      4  O   UNL     1      12.542 -20.065  18.045  1.00  0.00    -0.285 OA
ATOM      5  C   UNL     1      13.739 -21.298  19.626  1.00  0.00     0.111 A 
ATOM      6  C   UNL     1      13.334 -22.594  19.186  1.00  0.00     0.134 A 
ATOM      7  C   UNL     1      13.940 -23.730  19.738  1.00  0.00     0.093 A 
ATOM      8  C   UNL     1      14.887 -23.618  20.758  1.00  0.00     0.123 A 
ATOM      9  C   UNL     1      15.245 -22.359  21.234  1.00  0.00     0.094 A 
ATOM     10  C   UNL     1      14.685 -21.206  20.680  1.00  0.00     0.146 A 
ATOM     11  O   UNL     1      15.063 -20.025  21.155  1.00  0.00    -0.451 OA
ENDROOT
BRANCH   1  12
ATOM     12  C   UNL     1      15.088 -17.620  21.309  1.00  0.00     0.063 A 
ATOM     13  C   UNL     1      14.591 -15.612  22.585  1.00  0.00     0.047 A 
ATOM     14  C   UNL     1      14.171 -16.802  21.986  1.00  0.00     0.020 A 
ATOM     15  C   UNL     1      15.928 -15.216  22.502  1.00  0.00     0.119 A 
ATOM     16  C   UNL     1      16.847 -16.014  21.808  1.00  0.00     0.093 A 
ATOM     17  C   UNL     1      16.433 -17.208  21.200  1.00  0.00     0.130 A 
BRANCH  15  18
ATOM     18  O   UNL     1      16.333 -14.027  23.107  1.00  0.00    -0.508 OA
ATOM     19  H   UNL     1      17.306 -13.747  23.124  1.00  0.00     0.293 HD
ENDBRANCH  15  18
BRANCH  17  20
ATOM     20  O   UNL     1      17.347 -17.969  20.470  1.00  0.00    -0.507 OA
ATOM     21  H   UNL     1      17.055 -18.546  19.691  1.00  0.00     0.293 HD
ENDBRANCH  17  20
ENDBRANCH   1  12
BRANCH   2  22
ATOM     22  O   UNL     1      13.314 -17.644  19.041  1.00  0.00    -0.502 OA
ATOM     23  H   UNL     1      13.624 -16.749  19.401  1.00  0.00     0.293 HD
ENDBRANCH   2  22
BRANCH   6  24
ATOM     24  O   UNL     1      12.331 -22.820  18.239  1.00  0.00    -0.507 OA
ATOM     25  H   UNL     1      11.365 -22.554  18.351  1.00  0.00     0.293 HD
ENDBRANCH   6  24
BRANCH   8  26
ATOM     26  O   UNL     1      15.473 -24.754  21.313  1.00  0.00    -0.508 OA
ATOM     27  H   UNL     1      15.069 -25.675  21.184  1.00  0.00     0.293 HD
ENDBRANCH   8  26
TORSDOF 6
ENDMDL
MODEL 7
REMARK VINA RESULT:    -6.249      2.020      6.466
REMARK INTER + INTRA:          -7.828
REMARK INTER:                  -7.408
REMARK INTRA:                  -0.420
REMARK UNBOUND:                -0.300
REMARK SMILES O=c1c(O)c(-c2ccc(O)cc2O)oc2cc(O)cc(O)c12
REMARK SMILES IDX 5 1 3 2 2 3 1 4 22 5 20 6 19 7 17 8 16 9 15 10 14 11 6 12
REMARK SMILES IDX 8 13 7 14 9 15 11 16 12 17 10 18 13 20 4 22 21 24 18 26
REMARK H PARENT 10 19 13 21 4 23 21 25 18 27
REMARK Flexibility Score: inf
ROOT
ATOM      1  C   UNL     1      14.472 -22.854  20.948  1.00  0.00     0.184 A 
ATOM      2  C   UNL     1      13.738 -23.083  19.774  1.00  0.00     0.208 A 
ATOM      3  C   UNL     1      13.319 -21.983  19.008  1.00  0.00     0.238 A 
ATOM      4  O   UNL     1      12.617 -22.192  17.986  1.00  0.00    -0.285 OA
ATOM      5  C   UNL     1      13.656 -20.671  19.421  1.00  0.00     0.111 A 
ATOM      6  C   UNL     1      13.319 -19.485  18.701  1.00  0.00     0.134 A 
ATOM      7  C   UNL     1      13.589 -18.233  19.268  1.00  0.00     0.093 A 
ATOM      8  C   UNL     1      14.242 -18.125  20.498  1.00  0.00     0.123 A 
ATOM      9  C   UNL     1      14.627 -19.277  21.180  1.00  0.00     0.094 A 
ATOM     10  C   UNL     1      14.340 -20.539  20.657  1.00  0.00     0.146 A 
ATOM     11  O   UNL     1      14.715 -21.611  21.346  1.00  0.00    -0.451 OA
ENDROOT
BRANCH   1  12
ATOM     12  C   UNL     1      14.957 -23.967  21.791  1.00  0.00     0.063 A 
ATOM     13  C   UNL     1      14.476 -25.686  23.442  1.00  0.00     0.047 A 
ATOM     14  C   UNL     1      14.049 -24.633  22.630  1.00  0.00     0.020 A 
ATOM     15  C   UNL     1      15.816 -26.079  23.438  1.00  0.00     0.119 A 
ATOM     16  C   UNL     1      16.735 -25.406  22.623  1.00  0.00     0.093 A 
ATOM     17  C   UNL     1      16.317 -24.344  21.808  1.00  0.00     0.130 A 
BRANCH  15  18
ATOM     18  O   UNL     1      16.226 -27.134  24.252  1.00  0.00    -0.508 OA
ATOM     19  H   UNL     1      17.197 -27.253  24.513  1.00  0.00     0.293 HD
ENDBRANCH  15  18
BRANCH  17  20
ATOM     20  O   UNL     1      17.250 -23.651  21.037  1.00  0.00    -0.507 OA
ATOM     21  H   UNL     1      17.568 -22.724  21.295  1.00  0.00     0.293 HD
ENDBRANCH  17  20
ENDBRANCH   1  12
BRANCH   2  22
ATOM     22  O   UNL     1      13.405 -24.387  19.401  1.00  0.00    -0.502 OA
ATOM     23  H   UNL     1      12.811 -24.591  18.607  1.00  0.00     0.293 HD
ENDBRANCH   2  22
BRANCH   6  24
ATOM     24  O   UNL     1      12.748 -19.482  17.425  1.00  0.00    -0.507 OA
ATOM     25  H   UNL     1      13.035 -20.082  16.666  1.00  0.00     0.293 HD
ENDBRANCH   6  24
BRANCH   8  26
ATOM     26  O   UNL     1      14.522 -16.875  21.047  1.00  0.00    -0.508 OA
ATOM     27  H   UNL     1      13.785 -16.211  21.253  1.00  0.00     0.293 HD
ENDBRANCH   8  26
TORSDOF 6
ENDMDL
MODEL 8
REMARK VINA RESULT:    -6.087      1.650      6.943
REMARK INTER + INTRA:          -7.632
REMARK INTER:                  -7.230
REMARK INTRA:                  -0.402
REMARK UNBOUND:                -0.300
REMARK SMILES O=c1c(O)c(-c2ccc(O)cc2O)oc2cc(O)cc(O)c12
REMARK SMILES IDX 5 1 3 2 2 3 1 4 22 5 20 6 19 7 17 8 16 9 15 10 14 11 6 12
REMARK SMILES IDX 8 13 7 14 9 15 11 16 12 17 10 18 13 20 4 22 21 24 18 26
REMARK H PARENT 10 19 13 21 4 23 21 25 18 27
REMARK Flexibility Score: inf
ROOT
ATOM      1  C   UNL     1      15.348 -22.784  22.629  1.00  0.00     0.184 A 
ATOM      2  C   UNL     1      15.498 -21.410  22.386  1.00  0.00     0.208 A 
ATOM      3  C   UNL     1      14.928 -20.857  21.228  1.00  0.00     0.238 A 
ATOM      4  O   UNL     1      15.111 -19.636  20.988  1.00  0.00    -0.285 OA
ATOM      5  C   UNL     1      14.202 -21.686  20.338  1.00  0.00     0.111 A 
ATOM      6  C   UNL     1      13.548 -21.226  19.156  1.00  0.00     0.134 A 
ATOM      7  C   UNL     1      12.970 -22.154  18.281  1.00  0.00     0.093 A 
ATOM      8  C   UNL     1      12.964 -23.519  18.579  1.00  0.00     0.123 A 
ATOM      9  C   UNL     1      13.548 -23.971  19.760  1.00  0.00     0.094 A 
ATOM     10  C   UNL     1      14.164 -23.073  20.635  1.00  0.00     0.146 A 
ATOM     11  O   UNL     1      14.719 -23.548  21.744  1.00  0.00    -0.451 OA
ENDROOT
BRANCH   1  12
ATOM     12  C   UNL     1      15.908 -23.425  23.837  1.00  0.00     0.063 A 
ATOM     13  C   UNL     1      15.882 -23.684  26.254  1.00  0.00     0.047 A 
ATOM     14  C   UNL     1      15.372 -23.098  25.092  1.00  0.00     0.020 A 
ATOM     15  C   UNL     1      16.941 -24.591  26.179  1.00  0.00     0.119 A 
ATOM     16  C   UNL     1      17.498 -24.906  24.933  1.00  0.00     0.093 A 
ATOM     17  C   UNL     1      16.997 -24.320  23.762  1.00  0.00     0.130 A 
BRANCH  15  18
ATOM     18  O   UNL     1      17.436 -25.169  27.346  1.00  0.00    -0.508 OA
ATOM     19  H   UNL     1      16.944 -25.921  27.814  1.00  0.00     0.293 HD
ENDBRANCH  15  18
BRANCH  17  20
ATOM     20  O   UNL     1      17.592 -24.604  22.533  1.00  0.00    -0.507 OA
ATOM     21  H   UNL     1      17.288 -25.385  21.964  1.00  0.00     0.293 HD
ENDBRANCH  17  20
ENDBRANCH   1  12
BRANCH   2  22
ATOM     22  O   UNL     1      16.235 -20.620  23.272  1.00  0.00    -0.502 OA
ATOM     23  H   UNL     1      16.680 -21.001  24.099  1.00  0.00     0.293 HD
ENDBRANCH   2  22
BRANCH   6  24
ATOM     24  O   UNL     1      13.416 -19.877  18.810  1.00  0.00    -0.507 OA
ATOM     25  H   UNL     1      13.271 -19.127  19.469  1.00  0.00     0.293 HD
ENDBRANCH   6  24
BRANCH   8  26
ATOM     26  O   UNL     1      12.372 -24.434  17.712  1.00  0.00    -0.508 OA
ATOM     27  H   UNL     1      11.388 -24.376  17.473  1.00  0.00     0.293 HD
ENDBRANCH   8  26
TORSDOF 6
ENDMDL
MODEL 9
REMARK VINA RESULT:    -6.076      1.330      1.997
REMARK INTER + INTRA:          -7.620
REMARK INTER:                  -7.372
REMARK INTRA:                  -0.248
REMARK UNBOUND:                -0.300
REMARK SMILES O=c1c(O)c(-c2ccc(O)cc2O)oc2cc(O)cc(O)c12
REMARK SMILES IDX 5 1 3 2 2 3 1 4 22 5 20 6 19 7 17 8 16 9 15 10 14 11 6 12
REMARK SMILES IDX 8 13 7 14 9 15 11 16 12 17 10 18 13 20 4 22 21 24 18 26
REMARK H PARENT 10 19 13 21 4 23 21 25 18 27
REMARK Flexibility Score: inf
ROOT
ATOM      1  C   UNL     1      14.380 -22.075  20.909  1.00  0.00     0.184 A 
ATOM      2  C   UNL     1      14.320 -23.448  20.627  1.00  0.00     0.208 A 
ATOM      3  C   UNL     1      14.635 -24.365  21.642  1.00  0.00     0.238 A 
ATOM      4  O   UNL     1      14.632 -25.593  21.369  1.00  0.00    -0.285 OA
ATOM      5  C   UNL     1      14.988 -23.894  22.930  1.00  0.00     0.111 A 
ATOM      6  C   UNL     1      15.287 -24.733  24.045  1.00  0.00     0.134 A 
ATOM      7  C   UNL     1      15.751 -24.161  25.236  1.00  0.00     0.093 A 
ATOM      8  C   UNL     1      15.864 -22.776  25.373  1.00  0.00     0.123 A 
ATOM      9  C   UNL     1      15.518 -21.945  24.309  1.00  0.00     0.094 A 
ATOM     10  C   UNL     1      15.087 -22.488  23.098  1.00  0.00     0.146 A 
ATOM     11  O   UNL     1      14.778 -21.661  22.106  1.00  0.00    -0.451 OA
ENDROOT
BRANCH   1  12
ATOM     12  C   UNL     1      14.045 -21.057  19.891  1.00  0.00     0.063 A 
ATOM     13  C   UNL     1      14.739 -19.148  18.555  1.00  0.00     0.047 A 
ATOM     14  C   UNL     1      15.024 -20.125  19.512  1.00  0.00     0.020 A 
ATOM     15  C   UNL     1      13.470 -19.078  17.976  1.00  0.00     0.119 A 
ATOM     16  C   UNL     1      12.478 -19.988  18.365  1.00  0.00     0.093 A 
ATOM     17  C   UNL     1      12.754 -20.970  19.328  1.00  0.00     0.130 A 
BRANCH  15  18
ATOM     18  O   UNL     1      13.202 -18.100  17.021  1.00  0.00    -0.508 OA
ATOM     19  H   UNL     1      13.515 -17.144  17.141  1.00  0.00     0.293 HD
ENDBRANCH  15  18
BRANCH  17  20
ATOM     20  O   UNL     1      11.745 -21.839  19.742  1.00  0.00    -0.507 OA
ATOM     21  H   UNL     1      11.445 -22.617  19.167  1.00  0.00     0.293 HD
ENDBRANCH  17  20
ENDBRANCH   1  12
BRANCH   2  22
ATOM     22  O   UNL     1      13.986 -23.883  19.342  1.00  0.00    -0.502 OA
ATOM     23  H   UNL     1      13.075 -23.718  18.932  1.00  0.00     0.293 HD
ENDBRANCH   2  22
BRANCH   6  24
ATOM     24  O   UNL     1      15.120 -26.122  24.044  1.00  0.00    -0.507 OA
ATOM     25  H   UNL     1      15.639 -26.762  23.463  1.00  0.00     0.293 HD
ENDBRANCH   6  24
BRANCH   8  26
ATOM     26  O   UNL     1      16.311 -22.213  26.567  1.00  0.00    -0.508 OA
ATOM     27  H   UNL     1      16.217 -22.701  27.450  1.00  0.00     0.293 HD
ENDBRANCH   8  26
TORSDOF 6
ENDMDL
