MODEL 1
REMARK VINA RESULT:    -3.290      0.000      0.000
REMARK INTER + INTRA:          -3.725
REMARK INTER:                  -3.674
REMARK INTRA:                  -0.051
REMARK UNBOUND:                -0.051
REMARK SMILES O=C([O-])c1ccccc1C(=O)[O-]
REMARK SMILES IDX 4 1 9 2 5 3 8 4 6 5 7 6 2 7 1 8 3 9 10 10 11 11 12 12
REMARK H PARENT
REMARK Flexibility Score: inf
ROOT
ATOM      1  C   UNL     1       3.138 -37.077  18.784  1.00  0.00     0.006 A 
ATOM      2  C   UNL     1       2.427 -37.191  17.557  1.00  0.00     0.006 A 
ATOM      3  C   UNL     1       2.500 -37.452  19.982  1.00  0.00     0.010 A 
ATOM      4  C   UNL     1       1.086 -37.616  17.581  1.00  0.00     0.010 A 
ATOM      5  C   UNL     1       1.176 -37.890  19.979  1.00  0.00     0.001 A 
ATOM      6  C   UNL     1       0.466 -37.962  18.782  1.00  0.00     0.001 A 
ENDROOT
BRANCH   1   7
ATOM      7  C   UNL     1       4.502 -36.507  18.866  1.00  0.00     0.072 C 
ATOM      8  O   UNL     1       5.424 -37.148  19.436  1.00  0.00    -0.545 OA
ATOM      9  O   UNL     1       4.770 -35.234  18.375  1.00  0.00    -0.545 OA
ENDBRANCH   1   7
BRANCH   2  10
ATOM     10  C   UNL     1       3.063 -36.953  16.241  1.00  0.00     0.072 C 
ATOM     11  O   UNL     1       3.018 -35.810  15.712  1.00  0.00    -0.545 OA
ATOM     12  O   UNL     1       3.658 -37.997  15.542  1.00  0.00    -0.545 OA
ENDBRANCH   2  10
TORSDOF 2
ENDMDL
MODEL 2
REMARK VINA RESULT:    -3.272      2.117      3.324
REMARK INTER + INTRA:          -3.706
REMARK INTER:                  -3.774
REMARK INTRA:                   0.068
REMARK UNBOUND:                -0.051
REMARK SMILES O=C([O-])c1ccccc1C(=O)[O-]
REMARK SMILES IDX 4 1 9 2 5 3 8 4 6 5 7 6 2 7 1 8 3 9 10 10 11 11 12 12
REMARK H PARENT
REMARK Flexibility Score: inf
ROOT
ATOM      1  C   UNL     1       2.741 -36.981  19.323  1.00  0.00     0.006 A 
ATOM      2  C   UNL     1       3.380 -36.673  18.090  1.00  0.00     0.006 A 
ATOM      3  C   UNL     1       3.348 -36.576  20.527  1.00  0.00     0.010 A 
ATOM      4  C   UNL     1       4.630 -36.027  18.109  1.00  0.00     0.010 A 
ATOM      5  C   UNL     1       4.578 -35.918  20.521  1.00  0.00     0.001 A 
ATOM      6  C   UNL     1       5.223 -35.654  19.315  1.00  0.00     0.001 A 
ENDROOT
BRANCH   1   7
ATOM      7  C   UNL     1       1.497 -37.780  19.400  1.00  0.00     0.072 C 
ATOM      8  O   UNL     1       1.387 -38.848  18.742  1.00  0.00    -0.545 OA
ATOM      9  O   UNL     1       0.412 -37.332  20.144  1.00  0.00    -0.545 OA
ENDBRANCH   1   7
BRANCH   2  10
ATOM     10  C   UNL     1       2.748 -36.936  16.776  1.00  0.00     0.072 C 
ATOM     11  O   UNL     1       3.237 -37.797  15.998  1.00  0.00    -0.545 OA
ATOM     12  O   UNL     1       1.650 -36.194  16.357  1.00  0.00    -0.545 OA
ENDBRANCH   2  10
TORSDOF 2
ENDMDL
MODEL 3
REMARK VINA RESULT:    -3.245      2.106      3.556
REMARK INTER + INTRA:          -3.675
REMARK INTER:                  -3.814
REMARK INTRA:                   0.139
REMARK UNBOUND:                -0.051
REMARK SMILES O=C([O-])c1ccccc1C(=O)[O-]
REMARK SMILES IDX 4 1 9 2 5 3 8 4 6 5 7 6 2 7 1 8 3 9 10 10 11 11 12 12
REMARK H PARENT
REMARK Flexibility Score: inf
ROOT
ATOM      1  C   UNL     1       3.977 -35.995  18.668  1.00  0.00     0.006 A 
ATOM      2  C   UNL     1       3.458 -36.488  19.897  1.00  0.00     0.006 A 
ATOM      3  C   UNL     1       3.466 -36.501  17.457  1.00  0.00     0.010 A 
ATOM      4  C   UNL     1       2.494 -37.513  19.871  1.00  0.00     0.010 A 
ATOM      5  C   UNL     1       2.494 -37.501  17.456  1.00  0.00     0.001 A 
ATOM      6  C   UNL     1       2.017 -38.015  18.659  1.00  0.00     0.001 A 
ENDROOT
BRANCH   1   7
ATOM      7  C   UNL     1       5.091 -35.021  18.605  1.00  0.00     0.072 C 
ATOM      8  O   UNL     1       6.125 -35.194  19.302  1.00  0.00    -0.545 OA
ATOM      9  O   UNL     1       4.984 -33.872  17.830  1.00  0.00    -0.545 OA
ENDBRANCH   1   7
BRANCH   2  10
ATOM     10  C   UNL     1       3.835 -35.916  21.210  1.00  0.00     0.072 C 
ATOM     11  O   UNL     1       3.183 -34.951  21.692  1.00  0.00    -0.545 OA
ATOM     12  O   UNL     1       4.948 -36.388  21.896  1.00  0.00    -0.545 OA
ENDBRANCH   2  10
TORSDOF 2
ENDMDL
MODEL 4
REMARK VINA RESULT:    -3.243      2.107      3.849
REMARK INTER + INTRA:          -3.673
REMARK INTER:                  -3.760
REMARK INTRA:                   0.087
REMARK UNBOUND:                -0.051
REMARK SMILES O=C([O-])c1ccccc1C(=O)[O-]
REMARK SMILES IDX 4 1 9 2 5 3 8 4 6 5 7 6 2 7 1 8 3 9 10 10 11 11 12 12
REMARK H PARENT
REMARK Flexibility Score: inf
ROOT
ATOM      1  C   UNL     1       3.416 -36.687  18.113  1.00  0.00     0.006 A 
ATOM      2  C   UNL     1       2.736 -36.990  19.325  1.00  0.00     0.006 A 
ATOM      3  C   UNL     1       4.680 -36.069  18.173  1.00  0.00     0.010 A 
ATOM      4  C   UNL     1       3.315 -36.606  20.548  1.00  0.00     0.010 A 
ATOM      5  C   UNL     1       5.244 -35.717  19.400  1.00  0.00     0.001 A 
ATOM      6  C   UNL     1       4.558 -35.974  20.584  1.00  0.00     0.001 A 
ENDROOT
BRANCH   1   7
ATOM      7  C   UNL     1       2.818 -36.928  16.779  1.00  0.00     0.072 C 
ATOM      8  O   UNL     1       3.323 -37.781  16.003  1.00  0.00    -0.545 OA
ATOM      9  O   UNL     1       1.737 -36.173  16.341  1.00  0.00    -0.545 OA
ENDBRANCH   1   7
BRANCH   2  10
ATOM     10  C   UNL     1       1.473 -37.762  19.359  1.00  0.00     0.072 C 
ATOM     11  O   UNL     1       1.352 -38.811  18.672  1.00  0.00    -0.545 OA
ATOM     12  O   UNL     1       0.384 -37.308  20.095  1.00  0.00    -0.545 OA
ENDBRANCH   2  10
TORSDOF 2
ENDMDL
MODEL 5
REMARK VINA RESULT:    -3.239      2.081      3.158
REMARK INTER + INTRA:          -3.669
REMARK INTER:                  -3.866
REMARK INTRA:                   0.197
REMARK UNBOUND:                -0.051
REMARK SMILES O=C([O-])c1ccccc1C(=O)[O-]
REMARK SMILES IDX 4 1 9 2 5 3 8 4 6 5 7 6 2 7 1 8 3 9 10 10 11 11 12 12
REMARK H PARENT
REMARK Flexibility Score: inf
ROOT
ATOM      1  C   UNL     1       3.353 -36.400  20.008  1.00  0.00     0.006 A 
ATOM      2  C   UNL     1       3.949 -36.028  18.771  1.00  0.00     0.006 A 
ATOM      3  C   UNL     1       2.358 -37.396  20.016  1.00  0.00     0.010 A 
ATOM      4  C   UNL     1       3.484 -36.620  17.582  1.00  0.00     0.010 A 
ATOM      5  C   UNL     1       1.927 -37.984  18.827  1.00  0.00     0.001 A 
ATOM      6  C   UNL     1       2.481 -37.590  17.611  1.00  0.00     0.001 A 
ENDROOT
BRANCH   1   7
ATOM      7  C   UNL     1       3.682 -35.729  21.287  1.00  0.00     0.072 C 
ATOM      8  O   UNL     1       2.939 -34.816  21.734  1.00  0.00    -0.545 OA
ATOM      9  O   UNL     1       4.845 -36.050  21.976  1.00  0.00    -0.545 OA
ENDBRANCH   1   7
BRANCH   2  10
ATOM     10  C   UNL     1       5.096 -35.095  18.687  1.00  0.00     0.072 C 
ATOM     11  O   UNL     1       6.122 -35.286  19.393  1.00  0.00    -0.545 OA
ATOM     12  O   UNL     1       5.032 -33.965  17.880  1.00  0.00    -0.545 OA
ENDBRANCH   2  10
TORSDOF 2
ENDMDL
MODEL 6
REMARK VINA RESULT:    -3.237      2.209      3.889
REMARK INTER + INTRA:          -3.666
REMARK INTER:                  -3.734
REMARK INTRA:                   0.068
REMARK UNBOUND:                -0.051
REMARK SMILES O=C([O-])c1ccccc1C(=O)[O-]
REMARK SMILES IDX 4 1 9 2 5 3 8 4 6 5 7 6 2 7 1 8 3 9 10 10 11 11 12 12
REMARK H PARENT
REMARK Flexibility Score: inf
ROOT
ATOM      1  C   UNL     1       5.160 -36.597  19.870  1.00  0.00     0.006 A 
ATOM      2  C   UNL     1       4.116 -36.492  18.908  1.00  0.00     0.006 A 
ATOM      3  C   UNL     1       6.125 -35.574  19.946  1.00  0.00     0.010 A 
ATOM      4  C   UNL     1       4.113 -35.403  18.018  1.00  0.00     0.010 A 
ATOM      5  C   UNL     1       6.089 -34.492  19.066  1.00  0.00     0.001 A 
ATOM      6  C   UNL     1       5.093 -34.412  18.097  1.00  0.00     0.001 A 
ENDROOT
BRANCH   1   7
ATOM      7  C   UNL     1       5.319 -37.777  20.750  1.00  0.00     0.072 C 
ATOM      8  O   UNL     1       5.387 -37.632  21.999  1.00  0.00    -0.545 OA
ATOM      9  O   UNL     1       5.463 -39.049  20.210  1.00  0.00    -0.545 OA
ENDBRANCH   1   7
BRANCH   2  10
ATOM     10  C   UNL     1       2.985 -37.446  18.852  1.00  0.00     0.072 C 
ATOM     11  O   UNL     1       2.639 -37.955  17.753  1.00  0.00    -0.545 OA
ATOM     12  O   UNL     1       2.249 -37.741  19.993  1.00  0.00    -0.545 OA
ENDBRANCH   2  10
TORSDOF 2
ENDMDL
MODEL 7
REMARK VINA RESULT:    -3.223      0.117      3.142
REMARK INTER + INTRA:          -3.650
REMARK INTER:                  -3.617
REMARK INTRA:                  -0.033
REMARK UNBOUND:                -0.051
REMARK SMILES O=C([O-])c1ccccc1C(=O)[O-]
REMARK SMILES IDX 4 1 9 2 5 3 8 4 6 5 7 6 2 7 1 8 3 9 10 10 11 11 12 12
REMARK H PARENT
REMARK Flexibility Score: inf
ROOT
ATOM      1  C   UNL     1       2.445 -37.121  17.518  1.00  0.00     0.006 A 
ATOM      2  C   UNL     1       3.125 -37.079  18.767  1.00  0.00     0.006 A 
ATOM      3  C   UNL     1       1.090 -37.502  17.489  1.00  0.00     0.010 A 
ATOM      4  C   UNL     1       2.443 -37.480  19.931  1.00  0.00     0.010 A 
ATOM      5  C   UNL     1       0.428 -37.875  18.659  1.00  0.00     0.001 A 
ATOM      6  C   UNL     1       1.106 -37.875  19.876  1.00  0.00     0.001 A 
ENDROOT
BRANCH   1   7
ATOM      7  C   UNL     1       3.125 -36.852  16.230  1.00  0.00     0.072 C 
ATOM      8  O   UNL     1       3.125 -35.690  15.744  1.00  0.00    -0.545 OA
ATOM      9  O   UNL     1       3.712 -37.884  15.509  1.00  0.00    -0.545 OA
ENDBRANCH   1   7
BRANCH   2  10
ATOM     10  C   UNL     1       4.504 -36.557  18.908  1.00  0.00     0.072 C 
ATOM     11  O   UNL     1       5.382 -37.240  19.500  1.00  0.00    -0.545 OA
ATOM     12  O   UNL     1       4.831 -35.287  18.451  1.00  0.00    -0.545 OA
ENDBRANCH   2  10
TORSDOF 2
ENDMDL
MODEL 8
REMARK VINA RESULT:    -3.140      2.163      3.970
REMARK INTER + INTRA:          -3.558
REMARK INTER:                  -3.462
REMARK INTRA:                  -0.097
REMARK UNBOUND:                -0.051
REMARK SMILES O=C([O-])c1ccccc1C(=O)[O-]
REMARK SMILES IDX 4 1 9 2 5 3 8 4 6 5 7 6 2 7 1 8 3 9 10 10 11 11 12 12
REMARK H PARENT
REMARK Flexibility Score: inf
ROOT
ATOM      1  C   UNL     1       1.950 -37.334  17.947  1.00  0.00     0.006 A 
ATOM      2  C   UNL     1       3.249 -36.781  18.123  1.00  0.00     0.006 A 
ATOM      3  C   UNL     1       1.325 -37.225  16.690  1.00  0.00     0.010 A 
ATOM      4  C   UNL     1       3.847 -36.086  17.056  1.00  0.00     0.010 A 
ATOM      5  C   UNL     1       1.947 -36.550  15.640  1.00  0.00     0.001 A 
ATOM      6  C   UNL     1       3.201 -35.971  15.825  1.00  0.00     0.001 A 
ENDROOT
BRANCH   1   7
ATOM      7  C   UNL     1       1.191 -37.958  19.055  1.00  0.00     0.072 C 
ATOM      8  O   UNL     1       0.760 -39.136  18.943  1.00  0.00    -0.545 OA
ATOM      9  O   UNL     1       0.887 -37.234  20.201  1.00  0.00    -0.545 OA
ENDBRANCH   1   7
BRANCH   2  10
ATOM     10  C   UNL     1       4.035 -36.970  19.364  1.00  0.00     0.072 C 
ATOM     11  O   UNL     1       4.761 -37.991  19.505  1.00  0.00    -0.545 OA
ATOM     12  O   UNL     1       3.934 -36.064  20.413  1.00  0.00    -0.545 OA
ENDBRANCH   2  10
TORSDOF 2
ENDMDL
MODEL 9
REMARK VINA RESULT:    -3.121      2.184      3.294
REMARK INTER + INTRA:          -3.537
REMARK INTER:                  -3.404
REMARK INTRA:                  -0.133
REMARK UNBOUND:                -0.051
REMARK SMILES O=C([O-])c1ccccc1C(=O)[O-]
REMARK SMILES IDX 4 1 9 2 5 3 8 4 6 5 7 6 2 7 1 8 3 9 10 10 11 11 12 12
REMARK H PARENT
REMARK Flexibility Score: inf
ROOT
ATOM      1  C   UNL     1       3.258 -36.792  18.181  1.00  0.00     0.006 A 
ATOM      2  C   UNL     1       1.961 -37.345  17.988  1.00  0.00     0.006 A 
ATOM      3  C   UNL     1       3.876 -36.110  17.116  1.00  0.00     0.010 A 
ATOM      4  C   UNL     1       1.359 -37.249  16.721  1.00  0.00     0.010 A 
ATOM      5  C   UNL     1       3.250 -36.009  15.874  1.00  0.00     0.001 A 
ATOM      6  C   UNL     1       1.999 -36.587  15.672  1.00  0.00     0.001 A 
ENDROOT
BRANCH   1   7
ATOM      7  C   UNL     1       4.022 -36.969  19.438  1.00  0.00     0.072 C 
ATOM      8  O   UNL     1       4.750 -37.983  19.600  1.00  0.00    -0.545 OA
ATOM      9  O   UNL     1       3.896 -36.055  20.478  1.00  0.00    -0.545 OA
ENDBRANCH   1   7
BRANCH   2  10
ATOM     10  C   UNL     1       1.181 -37.954  19.090  1.00  0.00     0.072 C 
ATOM     11  O   UNL     1       0.801 -39.153  19.011  1.00  0.00    -0.545 OA
ATOM     12  O   UNL     1       0.802 -37.198  20.193  1.00  0.00    -0.545 OA
ENDBRANCH   2  10
TORSDOF 2
ENDMDL
