MODEL 1
REMARK VINA RESULT:    -5.594      0.000      0.000
REMARK INTER + INTRA:          -6.234
REMARK INTER:                  -6.084
REMARK INTRA:                  -0.150
REMARK UNBOUND:                -0.150
REMARK SMILES Cc1ccc(C(C)C)c(O)c1
REMARK SMILES IDX 1 1 2 2 11 3 9 4 5 5 4 6 3 7 10 8 6 10 7 11 8 12
REMARK H PARENT 10 9
REMARK Flexibility Score: inf
ROOT
ATOM      1  C   UNL     1       2.537   5.155 -29.351  1.00  0.00     0.044 C 
ATOM      2  C   UNL     1       3.798   5.131 -30.163  1.00  0.00    -0.047 A 
ATOM      3  C   UNL     1       4.313   3.915 -30.634  1.00  0.00     0.049 A 
ATOM      4  C   UNL     1       5.511   3.880 -31.362  1.00  0.00     0.119 A 
ATOM      5  C   UNL     1       6.219   5.076 -31.616  1.00  0.00    -0.004 A 
ATOM      6  C   UNL     1       5.702   6.289 -31.121  1.00  0.00     0.008 A 
ATOM      7  C   UNL     1       4.509   6.315 -30.397  1.00  0.00     0.004 A 
ENDROOT
BRANCH   4   8
ATOM      8  O   UNL     1       5.996   2.657 -31.825  1.00  0.00    -0.508 OA
ATOM      9  H   UNL     1       6.580   2.594 -32.650  1.00  0.00     0.293 HD
ENDBRANCH   4   8
BRANCH   5  10
ATOM     10  C   UNL     1       7.521   5.064 -32.404  1.00  0.00     0.017 C 
ATOM     11  C   UNL     1       8.389   6.278 -32.053  1.00  0.00     0.012 C 
ATOM     12  C   UNL     1       7.255   4.994 -33.912  1.00  0.00     0.012 C 
ENDBRANCH   5  10
TORSDOF 2
ENDMDL
MODEL 2
REMARK VINA RESULT:    -5.418      1.129      4.336
REMARK INTER + INTRA:          -6.043
REMARK INTER:                  -5.853
REMARK INTRA:                  -0.189
REMARK UNBOUND:                -0.150
REMARK SMILES Cc1ccc(C(C)C)c(O)c1
REMARK SMILES IDX 1 1 2 2 11 3 9 4 5 5 4 6 3 7 10 8 6 10 7 11 8 12
REMARK H PARENT 10 9
REMARK Flexibility Score: inf
ROOT
ATOM      1  C   UNL     1       7.573   4.954 -32.483  1.00  0.00     0.044 C 
ATOM      2  C   UNL     1       6.233   4.900 -31.810  1.00  0.00    -0.047 A 
ATOM      3  C   UNL     1       5.435   3.752 -31.916  1.00  0.00     0.049 A 
ATOM      4  C   UNL     1       4.166   3.706 -31.321  1.00  0.00     0.119 A 
ATOM      5  C   UNL     1       3.675   4.828 -30.616  1.00  0.00    -0.004 A 
ATOM      6  C   UNL     1       4.478   5.982 -30.532  1.00  0.00     0.008 A 
ATOM      7  C   UNL     1       5.740   6.019 -31.128  1.00  0.00     0.004 A 
ENDROOT
BRANCH   4   8
ATOM      8  O   UNL     1       3.396   2.549 -31.435  1.00  0.00    -0.508 OA
ATOM      9  H   UNL     1       3.735   1.650 -31.117  1.00  0.00     0.293 HD
ENDBRANCH   4   8
BRANCH   5  10
ATOM     10  C   UNL     1       2.301   4.803 -29.961  1.00  0.00     0.017 C 
ATOM     11  C   UNL     1       1.213   5.244 -30.946  1.00  0.00     0.012 C 
ATOM     12  C   UNL     1       2.278   5.664 -28.692  1.00  0.00     0.012 C 
ENDBRANCH   5  10
TORSDOF 2
ENDMDL
MODEL 3
REMARK VINA RESULT:    -5.297      0.985      4.088
REMARK INTER + INTRA:          -5.912
REMARK INTER:                  -5.722
REMARK INTRA:                  -0.189
REMARK UNBOUND:                -0.150
REMARK SMILES Cc1ccc(C(C)C)c(O)c1
REMARK SMILES IDX 1 1 2 2 11 3 9 4 5 5 4 6 3 7 10 8 6 10 7 11 8 12
REMARK H PARENT 10 9
REMARK Flexibility Score: inf
ROOT
ATOM      1  C   UNL     1       8.486   6.123 -32.202  1.00  0.00     0.044 C 
ATOM      2  C   UNL     1       7.128   5.722 -31.706  1.00  0.00    -0.047 A 
ATOM      3  C   UNL     1       6.635   4.435 -31.961  1.00  0.00     0.049 A 
ATOM      4  C   UNL     1       5.352   4.063 -31.533  1.00  0.00     0.119 A 
ATOM      5  C   UNL     1       4.538   4.994 -30.848  1.00  0.00    -0.004 A 
ATOM      6  C   UNL     1       5.037   6.290 -30.615  1.00  0.00     0.008 A 
ATOM      7  C   UNL     1       6.315   6.651 -31.045  1.00  0.00     0.004 A 
ENDROOT
BRANCH   4   8
ATOM      8  O   UNL     1       4.889   2.774 -31.792  1.00  0.00    -0.508 OA
ATOM      9  H   UNL     1       4.670   2.465 -32.731  1.00  0.00     0.293 HD
ENDBRANCH   4   8
BRANCH   5  10
ATOM     10  C   UNL     1       3.142   4.615 -30.373  1.00  0.00     0.017 C 
ATOM     11  C   UNL     1       2.100   4.866 -31.469  1.00  0.00     0.012 C 
ATOM     12  C   UNL     1       2.776   5.358 -29.083  1.00  0.00     0.012 C 
ENDBRANCH   5  10
TORSDOF 2
ENDMDL
MODEL 4
REMARK VINA RESULT:    -5.237      1.843      2.240
REMARK INTER + INTRA:          -5.846
REMARK INTER:                  -5.721
REMARK INTRA:                  -0.125
REMARK UNBOUND:                -0.150
REMARK SMILES Cc1ccc(C(C)C)c(O)c1
REMARK SMILES IDX 1 1 2 2 11 3 9 4 5 5 4 6 3 7 10 8 6 10 7 11 8 12
REMARK H PARENT 10 9
REMARK Flexibility Score: inf
ROOT
ATOM      1  C   UNL     1       1.416   5.175 -29.958  1.00  0.00     0.044 C 
ATOM      2  C   UNL     1       2.841   5.269 -30.420  1.00  0.00    -0.047 A 
ATOM      3  C   UNL     1       3.766   6.040 -29.702  1.00  0.00     0.049 A 
ATOM      4  C   UNL     1       5.090   6.163 -30.147  1.00  0.00     0.119 A 
ATOM      5  C   UNL     1       5.500   5.518 -31.335  1.00  0.00    -0.004 A 
ATOM      6  C   UNL     1       4.556   4.763 -32.058  1.00  0.00     0.008 A 
ATOM      7  C   UNL     1       3.240   4.645 -31.608  1.00  0.00     0.004 A 
ENDROOT
BRANCH   4   8
ATOM      8  O   UNL     1       5.993   6.930 -29.410  1.00  0.00    -0.508 OA
ATOM      9  H   UNL     1       5.778   7.876 -29.122  1.00  0.00     0.293 HD
ENDBRANCH   4   8
BRANCH   5  10
ATOM     10  C   UNL     1       6.932   5.637 -31.839  1.00  0.00     0.017 C 
ATOM     11  C   UNL     1       7.166   6.990 -32.520  1.00  0.00     0.012 C 
ATOM     12  C   UNL     1       7.286   4.478 -32.778  1.00  0.00     0.012 C 
ENDBRANCH   5  10
TORSDOF 2
ENDMDL
MODEL 5
REMARK VINA RESULT:    -4.876      1.699      2.060
REMARK INTER + INTRA:          -5.453
REMARK INTER:                  -5.271
REMARK INTRA:                  -0.182
REMARK UNBOUND:                -0.150
REMARK SMILES Cc1ccc(C(C)C)c(O)c1
REMARK SMILES IDX 1 1 2 2 11 3 9 4 5 5 4 6 3 7 10 8 6 10 7 11 8 12
REMARK H PARENT 10 9
REMARK Flexibility Score: inf
ROOT
ATOM      1  C   UNL     1       1.121   5.155 -29.913  1.00  0.00     0.044 C 
ATOM      2  C   UNL     1       2.449   5.336 -30.587  1.00  0.00    -0.047 A 
ATOM      3  C   UNL     1       2.628   4.927 -31.916  1.00  0.00     0.049 A 
ATOM      4  C   UNL     1       3.877   5.059 -32.542  1.00  0.00     0.119 A 
ATOM      5  C   UNL     1       4.972   5.597 -31.829  1.00  0.00    -0.004 A 
ATOM      6  C   UNL     1       4.784   5.986 -30.489  1.00  0.00     0.008 A 
ATOM      7  C   UNL     1       3.538   5.851 -29.873  1.00  0.00     0.004 A 
ENDROOT
BRANCH   4   8
ATOM      8  O   UNL     1       4.025   4.652 -33.868  1.00  0.00    -0.508 OA
ATOM      9  H   UNL     1       3.245   4.297 -34.407  1.00  0.00     0.293 HD
ENDBRANCH   4   8
BRANCH   5  10
ATOM     10  C   UNL     1       6.336   5.750 -32.487  1.00  0.00     0.017 C 
ATOM     11  C   UNL     1       7.151   4.456 -32.375  1.00  0.00     0.012 C 
ATOM     12  C   UNL     1       7.104   6.939 -31.896  1.00  0.00     0.012 C 
ENDBRANCH   5  10
TORSDOF 2
ENDMDL
MODEL 6
REMARK VINA RESULT:    -4.753      2.020      4.397
REMARK INTER + INTRA:          -5.320
REMARK INTER:                  -5.120
REMARK INTRA:                  -0.200
REMARK UNBOUND:                -0.150
REMARK SMILES Cc1ccc(C(C)C)c(O)c1
REMARK SMILES IDX 1 1 2 2 11 3 9 4 5 5 4 6 3 7 10 8 6 10 7 11 8 12
REMARK H PARENT 10 9
REMARK Flexibility Score: inf
ROOT
ATOM      1  C   UNL     1       8.743   6.242 -32.336  1.00  0.00     0.044 C 
ATOM      2  C   UNL     1       7.293   5.919 -32.121  1.00  0.00    -0.047 A 
ATOM      3  C   UNL     1       6.558   6.591 -31.135  1.00  0.00     0.049 A 
ATOM      4  C   UNL     1       5.213   6.269 -30.902  1.00  0.00     0.119 A 
ATOM      5  C   UNL     1       4.589   5.251 -31.657  1.00  0.00    -0.004 A 
ATOM      6  C   UNL     1       5.344   4.569 -32.632  1.00  0.00     0.008 A 
ATOM      7  C   UNL     1       6.682   4.896 -32.856  1.00  0.00     0.004 A 
ENDROOT
BRANCH   4   8
ATOM      8  O   UNL     1       4.503   6.959 -29.920  1.00  0.00    -0.508 OA
ATOM      9  H   UNL     1       4.297   7.947 -30.005  1.00  0.00     0.293 HD
ENDBRANCH   4   8
BRANCH   5  10
ATOM     10  C   UNL     1       3.131   4.883 -31.424  1.00  0.00     0.017 C 
ATOM     11  C   UNL     1       3.011   3.599 -30.594  1.00  0.00     0.012 C 
ATOM     12  C   UNL     1       2.374   4.755 -32.751  1.00  0.00     0.012 C 
ENDBRANCH   5  10
TORSDOF 2
ENDMDL
MODEL 7
REMARK VINA RESULT:    -4.624      1.867      4.530
REMARK INTER + INTRA:          -5.179
REMARK INTER:                  -4.989
REMARK INTRA:                  -0.189
REMARK UNBOUND:                -0.150
REMARK SMILES Cc1ccc(C(C)C)c(O)c1
REMARK SMILES IDX 1 1 2 2 11 3 9 4 5 5 4 6 3 7 10 8 6 10 7 11 8 12
REMARK H PARENT 10 9
REMARK Flexibility Score: inf
ROOT
ATOM      1  C   UNL     1       7.113   3.317 -33.428  1.00  0.00     0.044 C 
ATOM      2  C   UNL     1       6.011   3.930 -32.615  1.00  0.00    -0.047 A 
ATOM      3  C   UNL     1       6.193   5.180 -32.008  1.00  0.00     0.049 A 
ATOM      4  C   UNL     1       5.182   5.744 -31.216  1.00  0.00     0.119 A 
ATOM      5  C   UNL     1       3.970   5.045 -31.014  1.00  0.00    -0.004 A 
ATOM      6  C   UNL     1       3.807   3.782 -31.613  1.00  0.00     0.008 A 
ATOM      7  C   UNL     1       4.819   3.228 -32.400  1.00  0.00     0.004 A 
ENDROOT
BRANCH   4   8
ATOM      8  O   UNL     1       5.386   6.993 -30.630  1.00  0.00    -0.508 OA
ATOM      9  H   UNL     1       5.140   7.176 -29.665  1.00  0.00     0.293 HD
ENDBRANCH   4   8
BRANCH   5  10
ATOM     10  C   UNL     1       2.858   5.636 -30.159  1.00  0.00     0.017 C 
ATOM     11  C   UNL     1       3.043   5.269 -28.682  1.00  0.00     0.012 C 
ATOM     12  C   UNL     1       1.478   5.200 -30.668  1.00  0.00     0.012 C 
ENDBRANCH   5  10
TORSDOF 2
ENDMDL
MODEL 8
REMARK VINA RESULT:    -4.615      2.111      2.734
REMARK INTER + INTRA:          -5.169
REMARK INTER:                  -4.987
REMARK INTRA:                  -0.182
REMARK UNBOUND:                -0.150
REMARK SMILES Cc1ccc(C(C)C)c(O)c1
REMARK SMILES IDX 1 1 2 2 11 3 9 4 5 5 4 6 3 7 10 8 6 10 7 11 8 12
REMARK H PARENT 10 9
REMARK Flexibility Score: inf
ROOT
ATOM      1  C   UNL     1       2.350   5.305 -29.209  1.00  0.00     0.044 C 
ATOM      2  C   UNL     1       2.964   4.737 -30.455  1.00  0.00    -0.047 A 
ATOM      3  C   UNL     1       4.197   4.075 -30.397  1.00  0.00     0.049 A 
ATOM      4  C   UNL     1       4.795   3.574 -31.562  1.00  0.00     0.119 A 
ATOM      5  C   UNL     1       4.160   3.745 -32.813  1.00  0.00    -0.004 A 
ATOM      6  C   UNL     1       2.930   4.430 -32.861  1.00  0.00     0.008 A 
ATOM      7  C   UNL     1       2.342   4.925 -31.695  1.00  0.00     0.004 A 
ENDROOT
BRANCH   4   8
ATOM      8  O   UNL     1       6.020   2.912 -31.475  1.00  0.00    -0.508 OA
ATOM      9  H   UNL     1       6.079   1.928 -31.242  1.00  0.00     0.293 HD
ENDBRANCH   4   8
BRANCH   5  10
ATOM     10  C   UNL     1       4.788   3.211 -34.092  1.00  0.00     0.017 C 
ATOM     11  C   UNL     1       5.781   4.219 -34.681  1.00  0.00     0.012 C 
ATOM     12  C   UNL     1       3.715   2.829 -35.118  1.00  0.00     0.012 C 
ENDBRANCH   5  10
TORSDOF 2
ENDMDL
MODEL 9
REMARK VINA RESULT:    -4.429      2.325      4.491
REMARK INTER + INTRA:          -4.967
REMARK INTER:                  -4.767
REMARK INTRA:                  -0.200
REMARK UNBOUND:                -0.150
REMARK SMILES Cc1ccc(C(C)C)c(O)c1
REMARK SMILES IDX 1 1 2 2 11 3 9 4 5 5 4 6 3 7 10 8 6 10 7 11 8 12
REMARK H PARENT 10 9
REMARK Flexibility Score: inf
ROOT
ATOM      1  C   UNL     1       6.428   2.592 -34.620  1.00  0.00     0.044 C 
ATOM      2  C   UNL     1       5.577   3.252 -33.574  1.00  0.00    -0.047 A 
ATOM      3  C   UNL     1       4.395   3.910 -33.938  1.00  0.00     0.049 A 
ATOM      4  C   UNL     1       3.613   4.561 -32.973  1.00  0.00     0.119 A 
ATOM      5  C   UNL     1       4.021   4.568 -31.620  1.00  0.00    -0.004 A 
ATOM      6  C   UNL     1       5.221   3.920 -31.270  1.00  0.00     0.008 A 
ATOM      7  C   UNL     1       5.994   3.274 -32.238  1.00  0.00     0.004 A 
ENDROOT
BRANCH   4   8
ATOM      8  O   UNL     1       2.436   5.202 -33.361  1.00  0.00    -0.508 OA
ATOM      9  H   UNL     1       1.563   5.055 -32.870  1.00  0.00     0.293 HD
ENDBRANCH   4   8
BRANCH   5  10
ATOM     10  C   UNL     1       3.190   5.267 -30.553  1.00  0.00     0.017 C 
ATOM     11  C   UNL     1       4.087   5.992 -29.543  1.00  0.00     0.012 C 
ATOM     12  C   UNL     1       2.251   4.280 -29.849  1.00  0.00     0.012 C 
ENDBRANCH   5  10
TORSDOF 2
ENDMDL
