MODEL 1
REMARK VINA RESULT:    -3.676      0.000      0.000
REMARK INTER + INTRA:          -3.911
REMARK INTER:                  -3.891
REMARK INTRA:                  -0.019
REMARK UNBOUND:                -0.019
REMARK SMILES O=C([O-])c1cccnc1
REMARK SMILES IDX 4 1 5 2 9 3 6 4 8 5 7 6 2 7 1 8 3 9
REMARK H PARENT
REMARK Flexibility Score: inf
ROOT
ATOM      1  C   UNL     1      -1.258   2.635  -3.523  1.00  0.00     0.016 A 
ATOM      2  C   UNL     1      -0.003   2.970  -2.986  1.00  0.00     0.013 A 
ATOM      3  C   UNL     1      -1.481   2.863  -4.891  1.00  0.00     0.120 A 
ATOM      4  C   UNL     1       0.987   3.513  -3.806  1.00  0.00     0.021 A 
ATOM      5  N   UNL     1      -0.499   3.394  -5.668  1.00  0.00    -0.264 NA
ATOM      6  C   UNL     1       0.718   3.720  -5.159  1.00  0.00     0.111 A 
ENDROOT
BRANCH   1   7
ATOM      7  C   UNL     1      -2.320   2.058  -2.671  1.00  0.00     0.073 C 
ATOM      8  O   UNL     1      -2.609   2.583  -1.563  1.00  0.00    -0.545 OA
ATOM      9  O   UNL     1      -3.016   0.926  -3.083  1.00  0.00    -0.545 OA
ENDBRANCH   1   7
TORSDOF 1
ENDMDL
MODEL 2
REMARK VINA RESULT:    -3.671      0.912      1.600
REMARK INTER + INTRA:          -3.905
REMARK INTER:                  -3.886
REMARK INTRA:                  -0.019
REMARK UNBOUND:                -0.019
REMARK SMILES O=C([O-])c1cccnc1
REMARK SMILES IDX 4 1 5 2 9 3 6 4 8 5 7 6 2 7 1 8 3 9
REMARK H PARENT
REMARK Flexibility Score: inf
ROOT
ATOM      1  C   UNL     1      -1.278   2.635  -3.525  1.00  0.00     0.016 A 
ATOM      2  C   UNL     1      -1.503   2.855  -4.895  1.00  0.00     0.013 A 
ATOM      3  C   UNL     1      -0.024   2.977  -2.991  1.00  0.00     0.120 A 
ATOM      4  C   UNL     1      -0.496   3.403  -5.691  1.00  0.00     0.021 A 
ATOM      5  N   UNL     1       0.940   3.509  -3.788  1.00  0.00    -0.264 NA
ATOM      6  C   UNL     1       0.733   3.728  -5.114  1.00  0.00     0.111 A 
ENDROOT
BRANCH   1   7
ATOM      7  C   UNL     1      -2.332   2.056  -2.664  1.00  0.00     0.073 C 
ATOM      8  O   UNL     1      -2.610   2.579  -1.553  1.00  0.00    -0.545 OA
ATOM      9  O   UNL     1      -3.031   0.925  -3.072  1.00  0.00    -0.545 OA
ENDBRANCH   1   7
TORSDOF 1
ENDMDL
MODEL 3
REMARK VINA RESULT:    -3.478      1.477      1.984
REMARK INTER + INTRA:          -3.701
REMARK INTER:                  -3.685
REMARK INTRA:                  -0.016
REMARK UNBOUND:                -0.019
REMARK SMILES O=C([O-])c1cccnc1
REMARK SMILES IDX 4 1 5 2 9 3 6 4 8 5 7 6 2 7 1 8 3 9
REMARK H PARENT
REMARK Flexibility Score: inf
ROOT
ATOM      1  C   UNL     1      -2.680   1.817  -3.639  1.00  0.00     0.016 A 
ATOM      2  C   UNL     1      -1.757   2.211  -2.655  1.00  0.00     0.013 A 
ATOM      3  C   UNL     1      -2.441   2.198  -4.970  1.00  0.00     0.120 A 
ATOM      4  C   UNL     1      -0.634   2.960  -3.009  1.00  0.00     0.021 A 
ATOM      5  N   UNL     1      -1.339   2.928  -5.288  1.00  0.00    -0.264 NA
ATOM      6  C   UNL     1      -0.439   3.313  -4.345  1.00  0.00     0.111 A 
ENDROOT
BRANCH   1   7
ATOM      7  C   UNL     1      -3.877   1.023  -3.285  1.00  0.00     0.073 C 
ATOM      8  O   UNL     1      -3.813  -0.233  -3.211  1.00  0.00    -0.545 OA
ATOM      9  O   UNL     1      -5.090   1.653  -3.028  1.00  0.00    -0.545 OA
ENDBRANCH   1   7
TORSDOF 1
ENDMDL
MODEL 4
REMARK VINA RESULT:    -3.447      2.437      3.341
REMARK INTER + INTRA:          -3.668
REMARK INTER:                  -3.652
REMARK INTRA:                  -0.016
REMARK UNBOUND:                -0.019
REMARK SMILES O=C([O-])c1cccnc1
REMARK SMILES IDX 4 1 5 2 9 3 6 4 8 5 7 6 2 7 1 8 3 9
REMARK H PARENT
REMARK Flexibility Score: inf
ROOT
ATOM      1  C   UNL     1      -0.781   2.938  -3.580  1.00  0.00     0.016 A 
ATOM      2  C   UNL     1      -1.617   2.441  -2.566  1.00  0.00     0.013 A 
ATOM      3  C   UNL     1      -1.230   2.867  -4.910  1.00  0.00     0.120 A 
ATOM      4  C   UNL     1      -2.860   1.894  -2.887  1.00  0.00     0.021 A 
ATOM      5  N   UNL     1      -2.445   2.329  -5.196  1.00  0.00    -0.264 NA
ATOM      6  C   UNL     1      -3.262   1.846  -4.223  1.00  0.00     0.111 A 
ENDROOT
BRANCH   1   7
ATOM      7  C   UNL     1       0.540   3.522  -3.260  1.00  0.00     0.073 C 
ATOM      8  O   UNL     1       0.655   4.753  -3.022  1.00  0.00    -0.545 OA
ATOM      9  O   UNL     1       1.673   2.717  -3.218  1.00  0.00    -0.545 OA
ENDBRANCH   1   7
TORSDOF 1
ENDMDL
MODEL 5
REMARK VINA RESULT:    -3.375      1.777      2.442
REMARK INTER + INTRA:          -3.592
REMARK INTER:                  -3.576
REMARK INTRA:                  -0.016
REMARK UNBOUND:                -0.019
REMARK SMILES O=C([O-])c1cccnc1
REMARK SMILES IDX 4 1 5 2 9 3 6 4 8 5 7 6 2 7 1 8 3 9
REMARK H PARENT
REMARK Flexibility Score: inf
ROOT
ATOM      1  C   UNL     1      -2.755   1.803  -3.583  1.00  0.00     0.016 A 
ATOM      2  C   UNL     1      -2.472   2.180  -4.907  1.00  0.00     0.013 A 
ATOM      3  C   UNL     1      -1.869   2.207  -2.570  1.00  0.00     0.120 A 
ATOM      4  C   UNL     1      -1.335   2.937  -5.192  1.00  0.00     0.021 A 
ATOM      5  N   UNL     1      -0.768   2.943  -2.875  1.00  0.00    -0.264 NA
ATOM      6  C   UNL     1      -0.485   3.314  -4.152  1.00  0.00     0.111 A 
ENDROOT
BRANCH   1   7
ATOM      7  C   UNL     1      -3.955   1.001  -3.260  1.00  0.00     0.073 C 
ATOM      8  O   UNL     1      -5.071   1.559  -3.088  1.00  0.00    -0.545 OA
ATOM      9  O   UNL     1      -3.867  -0.382  -3.142  1.00  0.00    -0.545 OA
ENDBRANCH   1   7
TORSDOF 1
ENDMDL
MODEL 6
REMARK VINA RESULT:    -3.356      2.609      3.519
REMARK INTER + INTRA:          -3.572
REMARK INTER:                  -3.556
REMARK INTRA:                  -0.016
REMARK UNBOUND:                -0.019
REMARK SMILES O=C([O-])c1cccnc1
REMARK SMILES IDX 4 1 5 2 9 3 6 4 8 5 7 6 2 7 1 8 3 9
REMARK H PARENT
REMARK Flexibility Score: inf
ROOT
ATOM      1  C   UNL     1      -0.769   2.894  -3.740  1.00  0.00     0.016 A 
ATOM      2  C   UNL     1      -1.171   2.988  -5.084  1.00  0.00     0.013 A 
ATOM      3  C   UNL     1      -1.620   2.241  -2.833  1.00  0.00     0.120 A 
ATOM      4  C   UNL     1      -2.388   2.440  -5.491  1.00  0.00     0.021 A 
ATOM      5  N   UNL     1      -2.801   1.715  -3.256  1.00  0.00    -0.264 NA
ATOM      6  C   UNL     1      -3.199   1.800  -4.553  1.00  0.00     0.111 A 
ENDROOT
BRANCH   1   7
ATOM      7  C   UNL     1       0.517   3.468  -3.288  1.00  0.00     0.073 C 
ATOM      8  O   UNL     1       0.600   4.686  -2.977  1.00  0.00    -0.545 OA
ATOM      9  O   UNL     1       1.652   2.670  -3.200  1.00  0.00    -0.545 OA
ENDBRANCH   1   7
TORSDOF 1
ENDMDL
MODEL 7
REMARK VINA RESULT:    -3.343      2.593      3.863
REMARK INTER + INTRA:          -3.558
REMARK INTER:                  -3.540
REMARK INTRA:                  -0.017
REMARK UNBOUND:                -0.019
REMARK SMILES O=C([O-])c1cccnc1
REMARK SMILES IDX 4 1 5 2 9 3 6 4 8 5 7 6 2 7 1 8 3 9
REMARK H PARENT
REMARK Flexibility Score: inf
ROOT
ATOM      1  C   UNL     1      -2.926   1.525  -3.626  1.00  0.00     0.016 A 
ATOM      2  C   UNL     1      -3.461   0.260  -3.326  1.00  0.00     0.013 A 
ATOM      3  C   UNL     1      -3.229   2.099  -4.872  1.00  0.00     0.120 A 
ATOM      4  C   UNL     1      -4.271  -0.396  -4.254  1.00  0.00     0.021 A 
ATOM      5  N   UNL     1      -4.020   1.439  -5.758  1.00  0.00    -0.264 NA
ATOM      6  C   UNL     1      -4.543   0.216  -5.479  1.00  0.00     0.111 A 
ENDROOT
BRANCH   1   7
ATOM      7  C   UNL     1      -2.066   2.236  -2.656  1.00  0.00     0.073 C 
ATOM      8  O   UNL     1      -2.526   2.608  -1.544  1.00  0.00    -0.545 OA
ATOM      9  O   UNL     1      -0.735   2.504  -2.959  1.00  0.00    -0.545 OA
ENDBRANCH   1   7
TORSDOF 1
ENDMDL
MODEL 8
REMARK VINA RESULT:    -3.271      3.510      4.272
REMARK INTER + INTRA:          -3.482
REMARK INTER:                  -3.463
REMARK INTRA:                  -0.018
REMARK UNBOUND:                -0.019
REMARK SMILES O=C([O-])c1cccnc1
REMARK SMILES IDX 4 1 5 2 9 3 6 4 8 5 7 6 2 7 1 8 3 9
REMARK H PARENT
REMARK Flexibility Score: inf
ROOT
ATOM      1  C   UNL     1       2.024   2.897  -3.725  1.00  0.00     0.016 A 
ATOM      2  C   UNL     1       0.842   2.650  -3.005  1.00  0.00     0.013 A 
ATOM      3  C   UNL     1       2.046   3.981  -4.619  1.00  0.00     0.120 A 
ATOM      4  C   UNL     1      -0.272   3.472  -3.184  1.00  0.00     0.021 A 
ATOM      5  N   UNL     1       0.947   4.766  -4.774  1.00  0.00    -0.264 NA
ATOM      6  C   UNL     1      -0.200   4.537  -4.083  1.00  0.00     0.111 A 
ENDROOT
BRANCH   1   7
ATOM      7  C   UNL     1       3.215   2.039  -3.550  1.00  0.00     0.073 C 
ATOM      8  O   UNL     1       3.745   1.469  -4.540  1.00  0.00    -0.545 OA
ATOM      9  O   UNL     1       3.767   1.850  -2.287  1.00  0.00    -0.545 OA
ENDBRANCH   1   7
TORSDOF 1
ENDMDL
MODEL 9
REMARK VINA RESULT:    -3.171      4.926      5.825
REMARK INTER + INTRA:          -3.375
REMARK INTER:                  -3.358
REMARK INTRA:                  -0.017
REMARK UNBOUND:                -0.019
REMARK SMILES O=C([O-])c1cccnc1
REMARK SMILES IDX 4 1 5 2 9 3 6 4 8 5 7 6 2 7 1 8 3 9
REMARK H PARENT
REMARK Flexibility Score: inf
ROOT
ATOM      1  C   UNL     1       3.518   2.632  -5.493  1.00  0.00     0.016 A 
ATOM      2  C   UNL     1       3.731   1.810  -4.373  1.00  0.00     0.013 A 
ATOM      3  C   UNL     1       2.421   3.509  -5.479  1.00  0.00     0.120 A 
ATOM      4  C   UNL     1       2.865   1.877  -3.281  1.00  0.00     0.021 A 
ATOM      5  N   UNL     1       1.592   3.553  -4.402  1.00  0.00    -0.264 NA
ATOM      6  C   UNL     1       1.788   2.764  -3.313  1.00  0.00     0.111 A 
ENDROOT
BRANCH   1   7
ATOM      7  C   UNL     1       4.425   2.577  -6.660  1.00  0.00     0.073 C 
ATOM      8  O   UNL     1       5.181   3.547  -6.931  1.00  0.00    -0.545 OA
ATOM      9  O   UNL     1       4.455   1.450  -7.476  1.00  0.00    -0.545 OA
ENDBRANCH   1   7
TORSDOF 1
ENDMDL
