MODEL 1
REMARK VINA RESULT:    -3.291      0.000      0.000
REMARK INTER + INTRA:          -7.891
REMARK INTER:                  -5.984
REMARK INTRA:                  -1.907
REMARK UNBOUND:                -1.907
REMARK SMILES CCCCCCCCCCCCCCCC(=O)[O-]
REMARK SMILES IDX 9 1 10 2 11 3 12 4 13 5 14 6 15 7 16 8 17 9 18 10 8 11 7 12
REMARK SMILES IDX 6 13 5 14 4 15 3 16 2 17 1 18
REMARK H PARENT
REMARK Flexibility Score: inf
ROOT
ATOM      1  C   UNL     1       4.322  68.605  23.391  1.00  0.00     0.000 C 
ENDROOT
BRANCH   1   2
ATOM      2  C   UNL     1       3.232  68.874  22.343  1.00  0.00     0.000 C 
BRANCH   2   3
ATOM      3  C   UNL     1       3.776  69.609  21.100  1.00  0.00     0.000 C 
BRANCH   3   4
ATOM      4  C   UNL     1       3.192  69.095  19.769  1.00  0.00     0.000 C 
BRANCH   4   5
ATOM      5  C   UNL     1       1.709  69.437  19.532  1.00  0.00     0.000 C 
BRANCH   5   6
ATOM      6  C   UNL     1       1.447  70.434  18.388  1.00  0.00     0.006 C 
BRANCH   6   7
ATOM      7  C   UNL     1       2.588  71.443  18.203  1.00  0.00     0.053 C 
BRANCH   7   8
ATOM      8  C   UNL     1       2.157  72.807  18.642  1.00  0.00     0.041 C 
ATOM      9  O   UNL     1       1.286  72.937  19.544  1.00  0.00    -0.550 OA
ATOM     10  O   UNL     1       2.755  73.935  18.095  1.00  0.00    -0.550 OA
ENDBRANCH   7   8
ENDBRANCH   6   7
ENDBRANCH   5   6
ENDBRANCH   4   5
ENDBRANCH   3   4
ENDBRANCH   2   3
ENDBRANCH   1   2
BRANCH   1  11
ATOM     11  C   UNL     1       5.357  69.737  23.412  1.00  0.00     0.000 C 
BRANCH  11  12
ATOM     12  C   UNL     1       6.783  69.180  23.290  1.00  0.00    -0.000 C 
BRANCH  12  13
ATOM     13  C   UNL     1       6.812  67.649  23.143  1.00  0.00    -0.000 C 
BRANCH  13  14
ATOM     14  C   UNL     1       7.685  67.132  21.984  1.00  0.00    -0.000 C 
BRANCH  14  15
ATOM     15  C   UNL     1       6.972  66.094  21.088  1.00  0.00    -0.000 C 
BRANCH  15  16
ATOM     16  C   UNL     1       5.616  66.581  20.543  1.00  0.00    -0.000 C 
BRANCH  16  17
ATOM     17  C   UNL     1       4.478  65.553  20.691  1.00  0.00    -0.003 C 
ATOM     18  C   UNL     1       4.186  65.198  22.149  1.00  0.00     0.004 C 
ENDBRANCH  16  17
ENDBRANCH  15  16
ENDBRANCH  14  15
ENDBRANCH  13  14
ENDBRANCH  12  13
ENDBRANCH  11  12
ENDBRANCH   1  11
TORSDOF 14
ENDMDL
MODEL 2
REMARK VINA RESULT:    -3.184      3.179      6.878
REMARK INTER + INTRA:          -7.696
REMARK INTER:                  -6.283
REMARK INTRA:                  -1.413
REMARK UNBOUND:                -1.907
REMARK SMILES CCCCCCCCCCCCCCCC(=O)[O-]
REMARK SMILES IDX 9 1 10 2 11 3 12 4 13 5 14 6 15 7 16 8 17 9 18 10 8 11 7 12
REMARK SMILES IDX 6 13 5 14 4 15 3 16 2 17 1 18
REMARK H PARENT
REMARK Flexibility Score: inf
ROOT
ATOM      1  C   UNL     1       4.669  69.321  21.399  1.00  0.00     0.000 C 
ENDROOT
BRANCH   1   2
ATOM      2  C   UNL     1       4.381  69.020  22.877  1.00  0.00     0.000 C 
BRANCH   2   3
ATOM      3  C   UNL     1       5.422  69.656  23.823  1.00  0.00     0.000 C 
BRANCH   3   4
ATOM      4  C   UNL     1       6.882  69.389  23.409  1.00  0.00     0.000 C 
BRANCH   4   5
ATOM      5  C   UNL     1       7.364  67.941  23.616  1.00  0.00     0.000 C 
BRANCH   5   6
ATOM      6  C   UNL     1       8.298  67.404  22.515  1.00  0.00     0.006 C 
BRANCH   6   7
ATOM      7  C   UNL     1       7.959  65.969  22.093  1.00  0.00     0.053 C 
BRANCH   7   8
ATOM      8  C   UNL     1       7.392  65.951  20.709  1.00  0.00     0.041 C 
ATOM      9  O   UNL     1       6.179  66.234  20.517  1.00  0.00    -0.550 OA
ATOM     10  O   UNL     1       8.214  65.675  19.624  1.00  0.00    -0.550 OA
ENDBRANCH   7   8
ENDBRANCH   6   7
ENDBRANCH   5   6
ENDBRANCH   4   5
ENDBRANCH   3   4
ENDBRANCH   2   3
ENDBRANCH   1   2
BRANCH   1  11
ATOM     11  C   UNL     1       3.621  68.668  20.488  1.00  0.00     0.000 C 
BRANCH  11  12
ATOM     12  C   UNL     1       2.219  68.771  21.104  1.00  0.00    -0.000 C 
BRANCH  12  13
ATOM     13  C   UNL     1       1.175  69.323  20.118  1.00  0.00    -0.000 C 
BRANCH  13  14
ATOM     14  C   UNL     1       1.557  69.178  18.633  1.00  0.00    -0.000 C 
BRANCH  14  15
ATOM     15  C   UNL     1       1.583  70.521  17.867  1.00  0.00    -0.000 C 
BRANCH  15  16
ATOM     16  C   UNL     1       2.910  71.290  18.019  1.00  0.00    -0.000 C 
BRANCH  16  17
ATOM     17  C   UNL     1       2.768  72.642  18.744  1.00  0.00    -0.003 C 
ATOM     18  C   UNL     1       1.373  72.855  19.334  1.00  0.00     0.004 C 
ENDBRANCH  16  17
ENDBRANCH  15  16
ENDBRANCH  14  15
ENDBRANCH  13  14
ENDBRANCH  12  13
ENDBRANCH  11  12
ENDBRANCH   1  11
TORSDOF 14
ENDMDL
MODEL 3
REMARK VINA RESULT:    -3.015     13.736     15.643
REMARK INTER + INTRA:          -7.390
REMARK INTER:                  -6.174
REMARK INTRA:                  -1.216
REMARK UNBOUND:                -1.907
REMARK SMILES CCCCCCCCCCCCCCCC(=O)[O-]
REMARK SMILES IDX 9 1 10 2 11 3 12 4 13 5 14 6 15 7 16 8 17 9 18 10 8 11 7 12
REMARK SMILES IDX 6 13 5 14 4 15 3 16 2 17 1 18
REMARK H PARENT
REMARK Flexibility Score: inf
ROOT
ATOM      1  C   UNL     1       6.362  67.857   4.506  1.00  0.00     0.000 C 
ENDROOT
BRANCH   1   2
ATOM      2  C   UNL     1       5.770  66.490   4.133  1.00  0.00     0.000 C 
BRANCH   2   3
ATOM      3  C   UNL     1       4.508  66.149   4.953  1.00  0.00     0.000 C 
BRANCH   3   4
ATOM      4  C   UNL     1       4.190  67.175   6.058  1.00  0.00     0.000 C 
BRANCH   4   5
ATOM      5  C   UNL     1       3.398  66.620   7.256  1.00  0.00     0.000 C 
BRANCH   5   6
ATOM      6  C   UNL     1       3.268  65.086   7.294  1.00  0.00     0.006 C 
BRANCH   6   7
ATOM      7  C   UNL     1       2.501  64.581   8.522  1.00  0.00     0.053 C 
BRANCH   7   8
ATOM      8  C   UNL     1       2.063  63.165   8.321  1.00  0.00     0.041 C 
ATOM      9  O   UNL     1       1.129  62.898   7.519  1.00  0.00    -0.550 OA
ATOM     10  O   UNL     1       2.722  62.133   8.978  1.00  0.00    -0.550 OA
ENDBRANCH   7   8
ENDBRANCH   6   7
ENDBRANCH   5   6
ENDBRANCH   4   5
ENDBRANCH   3   4
ENDBRANCH   2   3
ENDBRANCH   1   2
BRANCH   1  11
ATOM     11  C   UNL     1       7.861  67.914   4.185  1.00  0.00     0.000 C 
BRANCH  11  12
ATOM     12  C   UNL     1       8.508  69.161   4.805  1.00  0.00    -0.000 C 
BRANCH  12  13
ATOM     13  C   UNL     1       9.595  68.817   5.837  1.00  0.00    -0.000 C 
BRANCH  13  14
ATOM     14  C   UNL     1       9.927  69.953   6.823  1.00  0.00    -0.000 C 
BRANCH  14  15
ATOM     15  C   UNL     1       8.960  70.029   8.028  1.00  0.00    -0.000 C 
BRANCH  15  16
ATOM     16  C   UNL     1       8.074  71.289   8.026  1.00  0.00    -0.000 C 
BRANCH  16  17
ATOM     17  C   UNL     1       6.800  71.155   7.172  1.00  0.00    -0.003 C 
ATOM     18  C   UNL     1       5.970  69.923   7.535  1.00  0.00     0.004 C 
ENDBRANCH  16  17
ENDBRANCH  15  16
ENDBRANCH  14  15
ENDBRANCH  13  14
ENDBRANCH  12  13
ENDBRANCH  11  12
ENDBRANCH   1  11
TORSDOF 14
ENDMDL
MODEL 4
REMARK VINA RESULT:    -2.975      3.864      6.083
REMARK INTER + INTRA:          -7.317
REMARK INTER:                  -5.383
REMARK INTRA:                  -1.934
REMARK UNBOUND:                -1.907
REMARK SMILES CCCCCCCCCCCCCCCC(=O)[O-]
REMARK SMILES IDX 9 1 10 2 11 3 12 4 13 5 14 6 15 7 16 8 17 9 18 10 8 11 7 12
REMARK SMILES IDX 6 13 5 14 4 15 3 16 2 17 1 18
REMARK H PARENT
REMARK Flexibility Score: inf
ROOT
ATOM      1  C   UNL     1       2.435  69.713  14.487  1.00  0.00     0.000 C 
ENDROOT
BRANCH   1   2
ATOM      2  C   UNL     1       2.484  70.063  15.982  1.00  0.00     0.000 C 
BRANCH   2   3
ATOM      3  C   UNL     1       1.220  69.602  16.738  1.00  0.00     0.000 C 
BRANCH   3   4
ATOM      4  C   UNL     1       1.520  68.828  18.036  1.00  0.00     0.000 C 
BRANCH   4   5
ATOM      5  C   UNL     1       2.904  69.103  18.654  1.00  0.00     0.000 C 
BRANCH   5   6
ATOM      6  C   UNL     1       2.938  70.239  19.693  1.00  0.00     0.006 C 
BRANCH   6   7
ATOM      7  C   UNL     1       3.689  71.480  19.196  1.00  0.00     0.053 C 
BRANCH   7   8
ATOM      8  C   UNL     1       2.724  72.539  18.765  1.00  0.00     0.041 C 
ATOM      9  O   UNL     1       3.040  73.354  17.858  1.00  0.00    -0.550 OA
ATOM     10  O   UNL     1       1.454  72.593  19.327  1.00  0.00    -0.550 OA
ENDBRANCH   7   8
ENDBRANCH   6   7
ENDBRANCH   5   6
ENDBRANCH   4   5
ENDBRANCH   3   4
ENDBRANCH   2   3
ENDBRANCH   1   2
BRANCH   1  11
ATOM     11  C   UNL     1       3.579  68.765  14.105  1.00  0.00     0.000 C 
BRANCH  11  12
ATOM     12  C   UNL     1       4.204  68.129  15.354  1.00  0.00    -0.000 C 
BRANCH  12  13
ATOM     13  C   UNL     1       3.971  66.610  15.428  1.00  0.00    -0.000 C 
BRANCH  13  14
ATOM     14  C   UNL     1       2.568  66.154  14.983  1.00  0.00    -0.000 C 
BRANCH  14  15
ATOM     15  C   UNL     1       1.679  65.661  16.148  1.00  0.00    -0.000 C 
BRANCH  15  16
ATOM     16  C   UNL     1       1.940  64.194  16.541  1.00  0.00    -0.000 C 
BRANCH  16  17
ATOM     17  C   UNL     1       2.098  63.244  15.338  1.00  0.00    -0.003 C 
ATOM     18  C   UNL     1       3.448  62.526  15.323  1.00  0.00     0.004 C 
ENDBRANCH  16  17
ENDBRANCH  15  16
ENDBRANCH  14  15
ENDBRANCH  13  14
ENDBRANCH  12  13
ENDBRANCH  11  12
ENDBRANCH   1  11
TORSDOF 14
ENDMDL
MODEL 5
REMARK VINA RESULT:    -2.971      8.897     10.393
REMARK INTER + INTRA:          -7.310
REMARK INTER:                  -5.785
REMARK INTRA:                  -1.525
REMARK UNBOUND:                -1.907
REMARK SMILES CCCCCCCCCCCCCCCC(=O)[O-]
REMARK SMILES IDX 9 1 10 2 11 3 12 4 13 5 14 6 15 7 16 8 17 9 18 10 8 11 7 12
REMARK SMILES IDX 6 13 5 14 4 15 3 16 2 17 1 18
REMARK H PARENT
REMARK Flexibility Score: inf
ROOT
ATOM      1  C   UNL     1       3.076  67.719  14.007  1.00  0.00     0.000 C 
ENDROOT
BRANCH   1   2
ATOM      2  C   UNL     1       3.993  67.131  12.924  1.00  0.00     0.000 C 
BRANCH   2   3
ATOM      3  C   UNL     1       3.340  67.143  11.526  1.00  0.00     0.000 C 
BRANCH   3   4
ATOM      4  C   UNL     1       2.697  65.800  11.129  1.00  0.00     0.000 C 
BRANCH   4   5
ATOM      5  C   UNL     1       1.300  65.910  10.490  1.00  0.00     0.000 C 
BRANCH   5   6
ATOM      6  C   UNL     1       1.190  65.336   9.066  1.00  0.00     0.006 C 
BRANCH   6   7
ATOM      7  C   UNL     1       2.450  64.580   8.628  1.00  0.00     0.053 C 
BRANCH   7   8
ATOM      8  C   UNL     1       2.152  63.124   8.450  1.00  0.00     0.041 C 
ATOM      9  O   UNL     1       2.830  62.258   9.066  1.00  0.00    -0.550 OA
ATOM     10  O   UNL     1       1.091  62.725   7.648  1.00  0.00    -0.550 OA
ENDBRANCH   7   8
ENDBRANCH   6   7
ENDBRANCH   5   6
ENDBRANCH   4   5
ENDBRANCH   3   4
ENDBRANCH   2   3
ENDBRANCH   1   2
BRANCH   1  11
ATOM     11  C   UNL     1       2.627  66.637  14.997  1.00  0.00     0.000 C 
BRANCH  11  12
ATOM     12  C   UNL     1       1.278  66.035  14.577  1.00  0.00    -0.000 C 
BRANCH  12  13
ATOM     13  C   UNL     1       1.337  64.507  14.406  1.00  0.00    -0.000 C 
BRANCH  13  14
ATOM     14  C   UNL     1       2.760  63.921  14.358  1.00  0.00    -0.000 C 
BRANCH  14  15
ATOM     15  C   UNL     1       2.922  62.620  15.177  1.00  0.00    -0.000 C 
BRANCH  15  16
ATOM     16  C   UNL     1       1.989  62.546  16.401  1.00  0.00    -0.000 C 
BRANCH  16  17
ATOM     17  C   UNL     1       2.731  62.415  17.745  1.00  0.00    -0.003 C 
ATOM     18  C   UNL     1       1.796  62.088  18.909  1.00  0.00     0.004 C 
ENDBRANCH  16  17
ENDBRANCH  15  16
ENDBRANCH  14  15
ENDBRANCH  13  14
ENDBRANCH  12  13
ENDBRANCH  11  12
ENDBRANCH   1  11
TORSDOF 14
ENDMDL
MODEL 6
REMARK VINA RESULT:    -2.946      9.367     11.386
REMARK INTER + INTRA:          -7.263
REMARK INTER:                  -5.187
REMARK INTRA:                  -2.076
REMARK UNBOUND:                -1.907
REMARK SMILES CCCCCCCCCCCCCCCC(=O)[O-]
REMARK SMILES IDX 9 1 10 2 11 3 12 4 13 5 14 6 15 7 16 8 17 9 18 10 8 11 7 12
REMARK SMILES IDX 6 13 5 14 4 15 3 16 2 17 1 18
REMARK H PARENT
REMARK Flexibility Score: inf
ROOT
ATOM      1  C   UNL     1       1.771  66.269  12.961  1.00  0.00     0.000 C 
ENDROOT
BRANCH   1   2
ATOM      2  C   UNL     1       2.699  65.639  11.911  1.00  0.00     0.000 C 
BRANCH   2   3
ATOM      3  C   UNL     1       2.397  66.137  10.482  1.00  0.00     0.000 C 
BRANCH   3   4
ATOM      4  C   UNL     1       0.901  66.393  10.217  1.00  0.00     0.000 C 
BRANCH   4   5
ATOM      5  C   UNL     1       0.349  65.756   8.928  1.00  0.00     0.000 C 
BRANCH   5   6
ATOM      6  C   UNL     1       1.413  65.142   7.999  1.00  0.00     0.006 C 
BRANCH   6   7
ATOM      7  C   UNL     1       1.347  63.610   7.946  1.00  0.00     0.053 C 
BRANCH   7   8
ATOM      8  C   UNL     1       2.614  63.013   8.472  1.00  0.00     0.041 C 
ATOM      9  O   UNL     1       3.696  63.653   8.394  1.00  0.00    -0.550 OA
ATOM     10  O   UNL     1       2.591  61.773   9.097  1.00  0.00    -0.550 OA
ENDBRANCH   7   8
ENDBRANCH   6   7
ENDBRANCH   5   6
ENDBRANCH   4   5
ENDBRANCH   3   4
ENDBRANCH   2   3
ENDBRANCH   1   2
BRANCH   1  11
ATOM     11  C   UNL     1       2.561  66.718  14.197  1.00  0.00     0.000 C 
BRANCH  11  12
ATOM     12  C   UNL     1       2.276  68.190  14.525  1.00  0.00    -0.000 C 
BRANCH  12  13
ATOM     13  C   UNL     1       3.560  69.010  14.742  1.00  0.00    -0.000 C 
BRANCH  13  14
ATOM     14  C   UNL     1       4.807  68.449  14.033  1.00  0.00    -0.000 C 
BRANCH  14  15
ATOM     15  C   UNL     1       5.285  69.313  12.843  1.00  0.00    -0.000 C 
BRANCH  15  16
ATOM     16  C   UNL     1       4.766  68.820  11.479  1.00  0.00    -0.000 C 
BRANCH  16  17
ATOM     17  C   UNL     1       3.855  69.830  10.756  1.00  0.00    -0.003 C 
ATOM     18  C   UNL     1       2.401  69.759  11.227  1.00  0.00     0.004 C 
ENDBRANCH  16  17
ENDBRANCH  15  16
ENDBRANCH  14  15
ENDBRANCH  13  14
ENDBRANCH  12  13
ENDBRANCH  11  12
ENDBRANCH   1  11
TORSDOF 14
ENDMDL
MODEL 7
REMARK VINA RESULT:    -2.933      4.099      5.794
REMARK INTER + INTRA:          -7.241
REMARK INTER:                  -5.733
REMARK INTRA:                  -1.507
REMARK UNBOUND:                -1.907
REMARK SMILES CCCCCCCCCCCCCCCC(=O)[O-]
REMARK SMILES IDX 9 1 10 2 11 3 12 4 13 5 14 6 15 7 16 8 17 9 18 10 8 11 7 12
REMARK SMILES IDX 6 13 5 14 4 15 3 16 2 17 1 18
REMARK H PARENT
REMARK Flexibility Score: inf
ROOT
ATOM      1  C   UNL     1       3.579  64.742  18.289  1.00  0.00     0.000 C 
ENDROOT
BRANCH   1   2
ATOM      2  C   UNL     1       2.790  65.981  17.842  1.00  0.00     0.000 C 
BRANCH   2   3
ATOM      3  C   UNL     1       3.701  67.201  17.587  1.00  0.00     0.000 C 
BRANCH   3   4
ATOM      4  C   UNL     1       3.118  68.531  18.103  1.00  0.00     0.000 C 
BRANCH   4   5
ATOM      5  C   UNL     1       1.889  69.047  17.332  1.00  0.00     0.000 C 
BRANCH   5   6
ATOM      6  C   UNL     1       1.066  70.121  18.066  1.00  0.00     0.006 C 
BRANCH   6   7
ATOM      7  C   UNL     1       1.813  70.738  19.255  1.00  0.00     0.053 C 
BRANCH   7   8
ATOM      8  C   UNL     1       2.016  72.205  19.042  1.00  0.00     0.041 C 
ATOM      9  O   UNL     1       1.139  73.027  19.419  1.00  0.00    -0.550 OA
ATOM     10  O   UNL     1       3.196  72.668  18.475  1.00  0.00    -0.550 OA
ENDBRANCH   7   8
ENDBRANCH   6   7
ENDBRANCH   5   6
ENDBRANCH   4   5
ENDBRANCH   3   4
ENDBRANCH   2   3
ENDBRANCH   1   2
BRANCH   1  11
ATOM     11  C   UNL     1       5.059  64.863  17.906  1.00  0.00     0.000 C 
BRANCH  11  12
ATOM     12  C   UNL     1       5.447  63.797  16.871  1.00  0.00    -0.000 C 
BRANCH  12  13
ATOM     13  C   UNL     1       4.651  62.491  17.034  1.00  0.00    -0.000 C 
BRANCH  13  14
ATOM     14  C   UNL     1       3.998  61.972  15.739  1.00  0.00    -0.000 C 
BRANCH  14  15
ATOM     15  C   UNL     1       2.728  62.752  15.330  1.00  0.00    -0.000 C 
BRANCH  15  16
ATOM     16  C   UNL     1       2.981  63.808  14.237  1.00  0.00    -0.000 C 
BRANCH  16  17
ATOM     17  C   UNL     1       2.054  65.035  14.327  1.00  0.00    -0.003 C 
ATOM     18  C   UNL     1       0.674  64.695  14.891  1.00  0.00     0.004 C 
ENDBRANCH  16  17
ENDBRANCH  15  16
ENDBRANCH  14  15
ENDBRANCH  13  14
ENDBRANCH  12  13
ENDBRANCH  11  12
ENDBRANCH   1  11
TORSDOF 14
ENDMDL
MODEL 8
REMARK VINA RESULT:    -2.864      6.602      9.156
REMARK INTER + INTRA:          -7.115
REMARK INTER:                  -4.379
REMARK INTRA:                  -2.736
REMARK UNBOUND:                -1.907
REMARK SMILES CCCCCCCCCCCCCCCC(=O)[O-]
REMARK SMILES IDX 9 1 10 2 11 3 12 4 13 5 14 6 15 7 16 8 17 9 18 10 8 11 7 12
REMARK SMILES IDX 6 13 5 14 4 15 3 16 2 17 1 18
REMARK H PARENT
REMARK Flexibility Score: inf
ROOT
ATOM      1  C   UNL     1       2.395  65.979  12.276  1.00  0.00     0.000 C 
ENDROOT
BRANCH   1   2
ATOM      2  C   UNL     1       1.162  66.443  13.066  1.00  0.00     0.000 C 
BRANCH   2   3
ATOM      3  C   UNL     1       0.631  65.355  14.024  1.00  0.00     0.000 C 
BRANCH   3   4
ATOM      4  C   UNL     1       0.812  65.698  15.515  1.00  0.00     0.000 C 
BRANCH   4   5
ATOM      5  C   UNL     1       1.860  64.848  16.257  1.00  0.00     0.000 C 
BRANCH   5   6
ATOM      6  C   UNL     1       1.994  63.398  15.756  1.00  0.00     0.006 C 
BRANCH   6   7
ATOM      7  C   UNL     1       3.388  63.087  15.195  1.00  0.00     0.053 C 
BRANCH   7   8
ATOM      8  C   UNL     1       4.408  63.104  16.289  1.00  0.00     0.041 C 
ATOM      9  O   UNL     1       5.304  63.989  16.306  1.00  0.00    -0.550 OA
ATOM     10  O   UNL     1       4.338  62.175  17.319  1.00  0.00    -0.550 OA
ENDBRANCH   7   8
ENDBRANCH   6   7
ENDBRANCH   5   6
ENDBRANCH   4   5
ENDBRANCH   3   4
ENDBRANCH   2   3
ENDBRANCH   1   2
BRANCH   1  11
ATOM     11  C   UNL     1       3.612  66.859  12.587  1.00  0.00     0.000 C 
BRANCH  11  12
ATOM     12  C   UNL     1       4.276  66.433  13.905  1.00  0.00    -0.000 C 
BRANCH  12  13
ATOM     13  C   UNL     1       4.751  67.631  14.745  1.00  0.00    -0.000 C 
BRANCH  13  14
ATOM     14  C   UNL     1       3.831  67.989  15.928  1.00  0.00    -0.000 C 
BRANCH  14  15
ATOM     15  C   UNL     1       3.172  69.382  15.800  1.00  0.00    -0.000 C 
BRANCH  15  16
ATOM     16  C   UNL     1       1.733  69.333  15.253  1.00  0.00    -0.000 C 
BRANCH  16  17
ATOM     17  C   UNL     1       1.555  70.050  13.901  1.00  0.00    -0.003 C 
ATOM     18  C   UNL     1       2.880  70.516  13.299  1.00  0.00     0.004 C 
ENDBRANCH  16  17
ENDBRANCH  15  16
ENDBRANCH  14  15
ENDBRANCH  13  14
ENDBRANCH  12  13
ENDBRANCH  11  12
ENDBRANCH   1  11
TORSDOF 14
ENDMDL
