MODEL 1
REMARK VINA RESULT:    -3.988      0.000      0.000
REMARK INTER + INTRA:          -5.676
REMARK INTER:                  -5.387
REMARK INTRA:                  -0.289
REMARK UNBOUND:                -0.289
REMARK SMILES CCCCCCCC(=O)[O-]
REMARK SMILES IDX 5 1 6 2 7 3 8 4 9 5 10 6 4 7 3 8 2 9 1 10
REMARK H PARENT
REMARK Flexibility Score: inf
ROOT
ATOM      1  C   UNL     1      12.855 -30.631  22.675  1.00  0.00     0.000 C 
ENDROOT
BRANCH   1   2
ATOM      2  C   UNL     1      13.952 -30.892  21.631  1.00  0.00     0.006 C 
BRANCH   2   3
ATOM      3  C   UNL     1      13.584 -32.015  20.652  1.00  0.00     0.053 C 
BRANCH   3   4
ATOM      4  C   UNL     1      14.488 -33.191  20.844  1.00  0.00     0.041 C 
ATOM      5  O   UNL     1      14.782 -33.930  19.869  1.00  0.00    -0.550 OA
ATOM      6  O   UNL     1      14.967 -33.500  22.111  1.00  0.00    -0.550 OA
ENDBRANCH   3   4
ENDBRANCH   2   3
ENDBRANCH   1   2
BRANCH   1   7
ATOM      7  C   UNL     1      11.637 -29.902  22.082  1.00  0.00     0.000 C 
BRANCH   7   8
ATOM      8  C   UNL     1      11.302 -28.604  22.835  1.00  0.00    -0.000 C 
BRANCH   8   9
ATOM      9  C   UNL     1      12.268 -28.326  23.997  1.00  0.00    -0.003 C 
ATOM     10  C   UNL     1      12.814 -26.902  23.928  1.00  0.00     0.004 C 
ENDBRANCH   8   9
ENDBRANCH   7   8
ENDBRANCH   1   7
TORSDOF 6
ENDMDL
MODEL 2
REMARK VINA RESULT:    -3.975      1.074      1.410
REMARK INTER + INTRA:          -5.659
REMARK INTER:                  -5.339
REMARK INTRA:                  -0.319
REMARK UNBOUND:                -0.289
REMARK SMILES CCCCCCCC(=O)[O-]
REMARK SMILES IDX 5 1 6 2 7 3 8 4 9 5 10 6 4 7 3 8 2 9 1 10
REMARK H PARENT
REMARK Flexibility Score: inf
ROOT
ATOM      1  C   UNL     1      12.534 -31.014  21.006  1.00  0.00     0.000 C 
ENDROOT
BRANCH   1   2
ATOM      2  C   UNL     1      13.996 -31.467  21.139  1.00  0.00     0.006 C 
BRANCH   2   3
ATOM      3  C   UNL     1      14.226 -32.891  20.618  1.00  0.00     0.053 C 
BRANCH   3   4
ATOM      4  C   UNL     1      15.009 -33.690  21.611  1.00  0.00     0.041 C 
ATOM      5  O   UNL     1      15.650 -34.708  21.242  1.00  0.00    -0.550 OA
ATOM      6  O   UNL     1      14.993 -33.337  22.955  1.00  0.00    -0.550 OA
ENDBRANCH   3   4
ENDBRANCH   2   3
ENDBRANCH   1   2
BRANCH   1   7
ATOM      7  C   UNL     1      11.972 -30.440  22.319  1.00  0.00     0.000 C 
BRANCH   7   8
ATOM      8  C   UNL     1      13.078 -30.053  23.315  1.00  0.00    -0.000 C 
BRANCH   8   9
ATOM      9  C   UNL     1      12.752 -28.771  24.095  1.00  0.00    -0.003 C 
ATOM     10  C   UNL     1      11.429 -28.168  23.631  1.00  0.00     0.004 C 
ENDBRANCH   8   9
ENDBRANCH   7   8
ENDBRANCH   1   7
TORSDOF 6
ENDMDL
MODEL 3
REMARK VINA RESULT:    -3.973      1.721      2.049
REMARK INTER + INTRA:          -5.656
REMARK INTER:                  -5.353
REMARK INTRA:                  -0.304
REMARK UNBOUND:                -0.289
REMARK SMILES CCCCCCCC(=O)[O-]
REMARK SMILES IDX 5 1 6 2 7 3 8 4 9 5 10 6 4 7 3 8 2 9 1 10
REMARK H PARENT
REMARK Flexibility Score: inf
ROOT
ATOM      1  C   UNL     1      11.990 -30.586  21.861  1.00  0.00     0.000 C 
ENDROOT
BRANCH   1   2
ATOM      2  C   UNL     1      13.241 -31.124  21.150  1.00  0.00     0.006 C 
BRANCH   2   3
ATOM      3  C   UNL     1      14.475 -30.238  21.368  1.00  0.00     0.053 C 
BRANCH   3   4
ATOM      4  C   UNL     1      15.647 -31.070  21.782  1.00  0.00     0.041 C 
ATOM      5  O   UNL     1      15.568 -31.818  22.792  1.00  0.00    -0.550 OA
ATOM      6  O   UNL     1      16.844 -30.984  21.082  1.00  0.00    -0.550 OA
ENDBRANCH   3   4
ENDBRANCH   2   3
ENDBRANCH   1   2
BRANCH   1   7
ATOM      7  C   UNL     1      12.312 -29.439  22.836  1.00  0.00     0.000 C 
BRANCH   7   8
ATOM      8  C   UNL     1      11.166 -28.421  22.947  1.00  0.00    -0.000 C 
BRANCH   8   9
ATOM      9  C   UNL     1      11.462 -27.304  23.959  1.00  0.00    -0.003 C 
ATOM     10  C   UNL     1      12.766 -27.571  24.707  1.00  0.00     0.004 C 
ENDBRANCH   8   9
ENDBRANCH   7   8
ENDBRANCH   1   7
TORSDOF 6
ENDMDL
MODEL 4
REMARK VINA RESULT:    -3.931      1.219      1.676
REMARK INTER + INTRA:          -5.599
REMARK INTER:                  -5.192
REMARK INTRA:                  -0.406
REMARK UNBOUND:                -0.289
REMARK SMILES CCCCCCCC(=O)[O-]
REMARK SMILES IDX 5 1 6 2 7 3 8 4 9 5 10 6 4 7 3 8 2 9 1 10
REMARK H PARENT
REMARK Flexibility Score: inf
ROOT
ATOM      1  C   UNL     1      14.536 -29.695  22.889  1.00  0.00     0.000 C 
ENDROOT
BRANCH   1   2
ATOM      2  C   UNL     1      14.717 -30.267  21.475  1.00  0.00     0.006 C 
BRANCH   2   3
ATOM      3  C   UNL     1      15.481 -31.598  21.467  1.00  0.00     0.053 C 
BRANCH   3   4
ATOM      4  C   UNL     1      14.586 -32.710  21.018  1.00  0.00     0.041 C 
ATOM      5  O   UNL     1      13.531 -32.456  20.380  1.00  0.00    -0.550 OA
ATOM      6  O   UNL     1      14.892 -34.025  21.347  1.00  0.00    -0.550 OA
ENDBRANCH   3   4
ENDBRANCH   2   3
ENDBRANCH   1   2
BRANCH   1   7
ATOM      7  C   UNL     1      13.138 -29.978  23.467  1.00  0.00     0.000 C 
BRANCH   7   8
ATOM      8  C   UNL     1      12.040 -29.956  22.391  1.00  0.00    -0.000 C 
BRANCH   8   9
ATOM      9  C   UNL     1      11.069 -28.777  22.559  1.00  0.00    -0.003 C 
ATOM     10  C   UNL     1      11.364 -28.001  23.840  1.00  0.00     0.004 C 
ENDBRANCH   8   9
ENDBRANCH   7   8
ENDBRANCH   1   7
TORSDOF 6
ENDMDL
MODEL 5
REMARK VINA RESULT:    -3.907      9.865     10.814
REMARK INTER + INTRA:          -5.567
REMARK INTER:                  -5.328
REMARK INTRA:                  -0.239
REMARK UNBOUND:                -0.289
REMARK SMILES CCCCCCCC(=O)[O-]
REMARK SMILES IDX 5 1 6 2 7 3 8 4 9 5 10 6 4 7 3 8 2 9 1 10
REMARK H PARENT
REMARK Flexibility Score: inf
ROOT
ATOM      1  C   UNL     1      20.258 -25.636  20.599  1.00  0.00     0.000 C 
ENDROOT
BRANCH   1   2
ATOM      2  C   UNL     1      21.574 -25.382  19.846  1.00  0.00     0.006 C 
BRANCH   2   3
ATOM      3  C   UNL     1      22.575 -24.556  20.663  1.00  0.00     0.053 C 
BRANCH   3   4
ATOM      4  C   UNL     1      23.584 -23.918  19.761  1.00  0.00     0.041 C 
ATOM      5  O   UNL     1      23.724 -24.326  18.578  1.00  0.00    -0.550 OA
ATOM      6  O   UNL     1      24.405 -22.905  20.241  1.00  0.00    -0.550 OA
ENDBRANCH   3   4
ENDBRANCH   2   3
ENDBRANCH   1   2
BRANCH   1   7
ATOM      7  C   UNL     1      19.815 -27.108  20.533  1.00  0.00     0.000 C 
BRANCH   7   8
ATOM      8  C   UNL     1      20.992 -28.086  20.678  1.00  0.00    -0.000 C 
BRANCH   8   9
ATOM      9  C   UNL     1      20.538 -29.516  21.009  1.00  0.00    -0.003 C 
ATOM     10  C   UNL     1      19.015 -29.613  21.049  1.00  0.00     0.004 C 
ENDBRANCH   8   9
ENDBRANCH   7   8
ENDBRANCH   1   7
TORSDOF 6
ENDMDL
MODEL 6
REMARK VINA RESULT:    -3.850      1.285      2.137
REMARK INTER + INTRA:          -5.490
REMARK INTER:                  -5.386
REMARK INTRA:                  -0.104
REMARK UNBOUND:                -0.289
REMARK SMILES CCCCCCCC(=O)[O-]
REMARK SMILES IDX 5 1 6 2 7 3 8 4 9 5 10 6 4 7 3 8 2 9 1 10
REMARK H PARENT
REMARK Flexibility Score: inf
ROOT
ATOM      1  C   UNL     1      13.477 -31.647  21.018  1.00  0.00     0.000 C 
ENDROOT
BRANCH   1   2
ATOM      2  C   UNL     1      14.444 -32.784  21.385  1.00  0.00     0.006 C 
BRANCH   2   3
ATOM      3  C   UNL     1      14.716 -33.733  20.211  1.00  0.00     0.053 C 
BRANCH   3   4
ATOM      4  C   UNL     1      15.653 -34.822  20.628  1.00  0.00     0.041 C 
ATOM      5  O   UNL     1      16.319 -34.713  21.691  1.00  0.00    -0.550 OA
ATOM      6  O   UNL     1      15.829 -35.937  19.817  1.00  0.00    -0.550 OA
ENDBRANCH   3   4
ENDBRANCH   2   3
ENDBRANCH   1   2
BRANCH   1   7
ATOM      7  C   UNL     1      13.747 -30.361  21.819  1.00  0.00     0.000 C 
BRANCH   7   8
ATOM      8  C   UNL     1      12.496 -29.850  22.553  1.00  0.00    -0.000 C 
BRANCH   8   9
ATOM      9  C   UNL     1      12.837 -29.055  23.823  1.00  0.00    -0.003 C 
ATOM     10  C   UNL     1      11.796 -27.971  24.088  1.00  0.00     0.004 C 
ENDBRANCH   8   9
ENDBRANCH   7   8
ENDBRANCH   1   7
TORSDOF 6
ENDMDL
MODEL 7
REMARK VINA RESULT:    -3.837      1.690      2.356
REMARK INTER + INTRA:          -5.472
REMARK INTER:                  -5.156
REMARK INTRA:                  -0.316
REMARK UNBOUND:                -0.289
REMARK SMILES CCCCCCCC(=O)[O-]
REMARK SMILES IDX 5 1 6 2 7 3 8 4 9 5 10 6 4 7 3 8 2 9 1 10
REMARK H PARENT
REMARK Flexibility Score: inf
ROOT
ATOM      1  C   UNL     1      14.525 -30.167  22.818  1.00  0.00     0.000 C 
ENDROOT
BRANCH   1   2
ATOM      2  C   UNL     1      13.512 -31.319  22.914  1.00  0.00     0.006 C 
BRANCH   2   3
ATOM      3  C   UNL     1      13.877 -32.340  24.000  1.00  0.00     0.053 C 
BRANCH   3   4
ATOM      4  C   UNL     1      14.969 -33.243  23.520  1.00  0.00     0.041 C 
ATOM      5  O   UNL     1      15.876 -33.616  24.309  1.00  0.00    -0.550 OA
ATOM      6  O   UNL     1      15.012 -33.635  22.187  1.00  0.00    -0.550 OA
ENDBRANCH   3   4
ENDBRANCH   2   3
ENDBRANCH   1   2
BRANCH   1   7
ATOM      7  C   UNL     1      13.885 -28.794  23.093  1.00  0.00     0.000 C 
BRANCH   7   8
ATOM      8  C   UNL     1      12.425 -28.906  23.559  1.00  0.00    -0.000 C 
BRANCH   8   9
ATOM      9  C   UNL     1      11.942 -27.653  24.304  1.00  0.00    -0.003 C 
ATOM     10  C   UNL     1      13.121 -26.800  24.764  1.00  0.00     0.004 C 
ENDBRANCH   8   9
ENDBRANCH   7   8
ENDBRANCH   1   7
TORSDOF 6
ENDMDL
MODEL 8
REMARK VINA RESULT:    -3.834      3.874      5.446
REMARK INTER + INTRA:          -5.468
REMARK INTER:                  -5.004
REMARK INTRA:                  -0.464
REMARK UNBOUND:                -0.289
REMARK SMILES CCCCCCCC(=O)[O-]
REMARK SMILES IDX 5 1 6 2 7 3 8 4 9 5 10 6 4 7 3 8 2 9 1 10
REMARK H PARENT
REMARK Flexibility Score: inf
ROOT
ATOM      1  C   UNL     1      12.798 -30.887  22.411  1.00  0.00     0.000 C 
ENDROOT
BRANCH   1   2
ATOM      2  C   UNL     1      12.376 -29.442  22.720  1.00  0.00     0.006 C 
BRANCH   2   3
ATOM      3  C   UNL     1      12.791 -28.992  24.127  1.00  0.00     0.053 C 
BRANCH   3   4
ATOM      4  C   UNL     1      12.410 -27.562  24.349  1.00  0.00     0.041 C 
ATOM      5  O   UNL     1      13.124 -26.822  25.075  1.00  0.00    -0.550 OA
ATOM      6  O   UNL     1      11.240 -27.059  23.794  1.00  0.00    -0.550 OA
ENDBRANCH   3   4
ENDBRANCH   2   3
ENDBRANCH   1   2
BRANCH   1   7
ATOM      7  C   UNL     1      13.517 -31.559  23.594  1.00  0.00     0.000 C 
BRANCH   7   8
ATOM      8  C   UNL     1      14.841 -32.222  23.181  1.00  0.00    -0.000 C 
BRANCH   8   9
ATOM      9  C   UNL     1      15.755 -31.277  22.387  1.00  0.00    -0.003 C 
ATOM     10  C   UNL     1      16.388 -30.230  23.299  1.00  0.00     0.004 C 
ENDBRANCH   8   9
ENDBRANCH   7   8
ENDBRANCH   1   7
TORSDOF 6
ENDMDL
MODEL 9
REMARK VINA RESULT:    -3.700      2.173      3.417
REMARK INTER + INTRA:          -5.286
REMARK INTER:                  -5.139
REMARK INTRA:                  -0.148
REMARK UNBOUND:                -0.289
REMARK SMILES CCCCCCCC(=O)[O-]
REMARK SMILES IDX 5 1 6 2 7 3 8 4 9 5 10 6 4 7 3 8 2 9 1 10
REMARK H PARENT
REMARK Flexibility Score: inf
ROOT
ATOM      1  C   UNL     1      14.274 -32.889  20.644  1.00  0.00     0.000 C 
ENDROOT
BRANCH   1   2
ATOM      2  C   UNL     1      15.205 -33.999  21.156  1.00  0.00     0.006 C 
BRANCH   2   3
ATOM      3  C   UNL     1      15.360 -35.151  20.154  1.00  0.00     0.053 C 
BRANCH   3   4
ATOM      4  C   UNL     1      16.702 -35.795  20.305  1.00  0.00     0.041 C 
ATOM      5  O   UNL     1      17.241 -35.880  21.439  1.00  0.00    -0.550 OA
ATOM      6  O   UNL     1      17.381 -36.258  19.184  1.00  0.00    -0.550 OA
ENDBRANCH   3   4
ENDBRANCH   2   3
ENDBRANCH   1   2
BRANCH   1   7
ATOM      7  C   UNL     1      13.956 -31.840  21.725  1.00  0.00     0.000 C 
BRANCH   7   8
ATOM      8  C   UNL     1      12.675 -31.046  21.418  1.00  0.00    -0.000 C 
BRANCH   8   9
ATOM      9  C   UNL     1      12.392 -29.953  22.459  1.00  0.00    -0.003 C 
ATOM     10  C   UNL     1      13.332 -30.076  23.655  1.00  0.00     0.004 C 
ENDBRANCH   8   9
ENDBRANCH   7   8
ENDBRANCH   1   7
TORSDOF 6
ENDMDL
