MODEL 1
REMARK VINA RESULT:    -3.189      0.000      0.000
REMARK INTER + INTRA:          -9.928
REMARK INTER:                  -6.918
REMARK INTRA:                  -3.009
REMARK UNBOUND:                -3.009
REMARK SMILES CCCCCCCCCCCCCCCCCCCCCC(=O)[O-]
REMARK SMILES IDX 12 1 11 2 10 3 9 4 8 5 7 6 6 7 5 8 4 9 3 10 2 11 1 12 13 13
REMARK SMILES IDX 14 14 15 15 16 16 17 17 18 18 19 19 20 20 21 21 22 22 23 23
REMARK SMILES IDX 24 24
REMARK H PARENT
REMARK Flexibility Score: inf
ROOT
ATOM      1  C   UNL     1      61.401  29.113  61.052  1.00  0.00     0.000 C 
ENDROOT
BRANCH   1   2
ATOM      2  C   UNL     1      62.874  28.947  61.454  1.00  0.00     0.000 C 
BRANCH   2   3
ATOM      3  C   UNL     1      63.614  28.039  60.461  1.00  0.00     0.000 C 
BRANCH   3   4
ATOM      4  C   UNL     1      64.080  26.715  61.093  1.00  0.00    -0.000 C 
BRANCH   4   5
ATOM      5  C   UNL     1      62.960  25.692  61.364  1.00  0.00    -0.000 C 
BRANCH   5   6
ATOM      6  C   UNL     1      62.418  25.679  62.808  1.00  0.00    -0.000 C 
BRANCH   6   7
ATOM      7  C   UNL     1      60.914  25.373  62.937  1.00  0.00    -0.000 C 
BRANCH   7   8
ATOM      8  C   UNL     1      60.093  25.608  61.655  1.00  0.00    -0.000 C 
BRANCH   8   9
ATOM      9  C   UNL     1      58.904  26.576  61.847  1.00  0.00    -0.000 C 
BRANCH   9  10
ATOM     10  C   UNL     1      57.662  26.143  61.054  1.00  0.00    -0.000 C 
BRANCH  10  11
ATOM     11  C   UNL     1      56.925  27.359  60.479  1.00  0.00    -0.003 C 
ATOM     12  C   UNL     1      57.466  27.732  59.103  1.00  0.00     0.004 C 
ENDBRANCH  10  11
ENDBRANCH   9  10
ENDBRANCH   8   9
ENDBRANCH   7   8
ENDBRANCH   6   7
ENDBRANCH   5   6
ENDBRANCH   4   5
ENDBRANCH   3   4
ENDBRANCH   2   3
ENDBRANCH   1   2
BRANCH   1  13
ATOM     13  C   UNL     1      61.164  28.824  59.560  1.00  0.00     0.000 C 
BRANCH  13  14
ATOM     14  C   UNL     1      60.497  30.003  58.829  1.00  0.00     0.000 C 
BRANCH  14  15
ATOM     15  C   UNL     1      61.434  31.225  58.716  1.00  0.00     0.000 C 
BRANCH  15  16
ATOM     16  C   UNL     1      62.591  31.024  57.722  1.00  0.00     0.000 C 
BRANCH  16  17
ATOM     17  C   UNL     1      63.973  31.173  58.378  1.00  0.00     0.000 C 
BRANCH  17  18
ATOM     18  C   UNL     1      63.903  31.846  59.758  1.00  0.00     0.000 C 
BRANCH  18  19
ATOM     19  C   UNL     1      65.089  32.787  60.014  1.00  0.00     0.000 C 
BRANCH  19  20
ATOM     20  C   UNL     1      64.600  34.191  60.401  1.00  0.00     0.006 C 
BRANCH  20  21
ATOM     21  C   UNL     1      63.232  34.519  59.787  1.00  0.00     0.053 C 
BRANCH  21  22
ATOM     22  C   UNL     1      62.524  35.596  60.551  1.00  0.00     0.041 C 
ATOM     23  O   UNL     1      63.054  36.097  61.578  1.00  0.00    -0.550 OA
ATOM     24  O   UNL     1      61.265  36.020  60.151  1.00  0.00    -0.550 OA
ENDBRANCH  21  22
ENDBRANCH  20  21
ENDBRANCH  19  20
ENDBRANCH  18  19
ENDBRANCH  17  18
ENDBRANCH  16  17
ENDBRANCH  15  16
ENDBRANCH  14  15
ENDBRANCH  13  14
ENDBRANCH   1  13
TORSDOF 20
ENDMDL
MODEL 2
REMARK VINA RESULT:    -3.146      8.602     11.079
REMARK INTER + INTRA:          -9.834
REMARK INTER:                  -5.856
REMARK INTRA:                  -3.977
REMARK UNBOUND:                -3.009
REMARK SMILES CCCCCCCCCCCCCCCCCCCCCC(=O)[O-]
REMARK SMILES IDX 12 1 11 2 10 3 9 4 8 5 7 6 6 7 5 8 4 9 3 10 2 11 1 12 13 13
REMARK SMILES IDX 14 14 15 15 16 16 17 17 18 18 19 19 20 20 21 21 22 22 23 23
REMARK SMILES IDX 24 24
REMARK H PARENT
REMARK Flexibility Score: inf
ROOT
ATOM      1  C   UNL     1      57.973  26.208  52.576  1.00  0.00     0.000 C 
ENDROOT
BRANCH   1   2
ATOM      2  C   UNL     1      58.035  27.556  51.845  1.00  0.00     0.000 C 
BRANCH   2   3
ATOM      3  C   UNL     1      59.106  28.466  52.465  1.00  0.00     0.000 C 
BRANCH   3   4
ATOM      4  C   UNL     1      60.507  28.231  51.871  1.00  0.00    -0.000 C 
BRANCH   4   5
ATOM      5  C   UNL     1      60.562  28.174  50.332  1.00  0.00    -0.000 C 
BRANCH   5   6
ATOM      6  C   UNL     1      61.092  26.850  49.743  1.00  0.00    -0.000 C 
BRANCH   6   7
ATOM      7  C   UNL     1      60.013  25.792  49.445  1.00  0.00    -0.000 C 
BRANCH   7   8
ATOM      8  C   UNL     1      60.299  24.393  50.024  1.00  0.00    -0.000 C 
BRANCH   8   9
ATOM      9  C   UNL     1      61.298  24.401  51.203  1.00  0.00    -0.000 C 
BRANCH   9  10
ATOM     10  C   UNL     1      60.701  23.791  52.480  1.00  0.00    -0.000 C 
BRANCH  10  11
ATOM     11  C   UNL     1      61.106  24.601  53.718  1.00  0.00    -0.003 C 
ATOM     12  C   UNL     1      62.293  25.511  53.416  1.00  0.00     0.004 C 
ENDBRANCH  10  11
ENDBRANCH   9  10
ENDBRANCH   8   9
ENDBRANCH   7   8
ENDBRANCH   6   7
ENDBRANCH   5   6
ENDBRANCH   4   5
ENDBRANCH   3   4
ENDBRANCH   2   3
ENDBRANCH   1   2
BRANCH   1  13
ATOM     13  C   UNL     1      56.975  25.233  51.928  1.00  0.00     0.000 C 
BRANCH  13  14
ATOM     14  C   UNL     1      56.595  25.646  50.494  1.00  0.00     0.000 C 
BRANCH  14  15
ATOM     15  C   UNL     1      55.067  25.707  50.289  1.00  0.00     0.000 C 
BRANCH  15  16
ATOM     16  C   UNL     1      54.572  27.058  49.742  1.00  0.00     0.000 C 
BRANCH  16  17
ATOM     17  C   UNL     1      54.518  28.153  50.819  1.00  0.00     0.000 C 
BRANCH  17  18
ATOM     18  C   UNL     1      54.135  27.606  52.202  1.00  0.00     0.000 C 
BRANCH  18  19
ATOM     19  C   UNL     1      54.736  28.432  53.349  1.00  0.00     0.000 C 
BRANCH  19  20
ATOM     20  C   UNL     1      55.046  29.864  52.888  1.00  0.00     0.006 C 
BRANCH  20  21
ATOM     21  C   UNL     1      56.268  30.454  53.606  1.00  0.00     0.053 C 
BRANCH  21  22
ATOM     22  C   UNL     1      56.819  31.642  52.879  1.00  0.00     0.041 C 
ATOM     23  O   UNL     1      56.042  32.452  52.307  1.00  0.00    -0.550 OA
ATOM     24  O   UNL     1      58.191  31.836  52.802  1.00  0.00    -0.550 OA
ENDBRANCH  21  22
ENDBRANCH  20  21
ENDBRANCH  19  20
ENDBRANCH  18  19
ENDBRANCH  17  18
ENDBRANCH  16  17
ENDBRANCH  15  16
ENDBRANCH  14  15
ENDBRANCH  13  14
ENDBRANCH   1  13
TORSDOF 20
ENDMDL
MODEL 3
REMARK VINA RESULT:    -3.081     11.392     14.034
REMARK INTER + INTRA:          -9.692
REMARK INTER:                  -6.341
REMARK INTRA:                  -3.351
REMARK UNBOUND:                -3.009
REMARK SMILES CCCCCCCCCCCCCCCCCCCCCC(=O)[O-]
REMARK SMILES IDX 12 1 11 2 10 3 9 4 8 5 7 6 6 7 5 8 4 9 3 10 2 11 1 12 13 13
REMARK SMILES IDX 14 14 15 15 16 16 17 17 18 18 19 19 20 20 21 21 22 22 23 23
REMARK SMILES IDX 24 24
REMARK H PARENT
REMARK Flexibility Score: inf
ROOT
ATOM      1  C   UNL     1      61.575  25.843  49.909  1.00  0.00     0.000 C 
ENDROOT
BRANCH   1   2
ATOM      2  C   UNL     1      62.047  27.283  49.657  1.00  0.00     0.000 C 
BRANCH   2   3
ATOM      3  C   UNL     1      60.878  28.272  49.779  1.00  0.00     0.000 C 
BRANCH   3   4
ATOM      4  C   UNL     1      60.744  28.869  51.192  1.00  0.00    -0.000 C 
BRANCH   4   5
ATOM      5  C   UNL     1      59.384  28.626  51.875  1.00  0.00    -0.000 C 
BRANCH   5   6
ATOM      6  C   UNL     1      59.090  27.157  52.247  1.00  0.00    -0.000 C 
BRANCH   6   7
ATOM      7  C   UNL     1      57.995  26.479  51.404  1.00  0.00    -0.000 C 
BRANCH   7   8
ATOM      8  C   UNL     1      58.193  24.969  51.176  1.00  0.00    -0.000 C 
BRANCH   8   9
ATOM      9  C   UNL     1      59.114  24.298  52.221  1.00  0.00    -0.000 C 
BRANCH   9  10
ATOM     10  C   UNL     1      58.915  22.777  52.287  1.00  0.00    -0.000 C 
BRANCH  10  11
ATOM     11  C   UNL     1      59.518  22.199  53.573  1.00  0.00    -0.003 C 
ATOM     12  C   UNL     1      60.915  22.757  53.824  1.00  0.00     0.004 C 
ENDBRANCH  10  11
ENDBRANCH   9  10
ENDBRANCH   8   9
ENDBRANCH   7   8
ENDBRANCH   6   7
ENDBRANCH   5   6
ENDBRANCH   4   5
ENDBRANCH   3   4
ENDBRANCH   2   3
ENDBRANCH   1   2
BRANCH   1  13
ATOM     13  C   UNL     1      62.539  25.060  50.816  1.00  0.00     0.000 C 
BRANCH  13  14
ATOM     14  C   UNL     1      62.397  23.536  50.650  1.00  0.00     0.000 C 
BRANCH  14  15
ATOM     15  C   UNL     1      61.357  23.160  49.573  1.00  0.00     0.000 C 
BRANCH  15  16
ATOM     16  C   UNL     1      61.051  21.653  49.510  1.00  0.00     0.000 C 
BRANCH  16  17
ATOM     17  C   UNL     1      62.056  20.807  50.307  1.00  0.00     0.000 C 
BRANCH  17  18
ATOM     18  C   UNL     1      61.408  19.570  50.949  1.00  0.00     0.000 C 
BRANCH  18  19
ATOM     19  C   UNL     1      59.992  19.304  50.418  1.00  0.00     0.000 C 
BRANCH  19  20
ATOM     20  C   UNL     1      59.012  19.054  51.575  1.00  0.00     0.006 C 
BRANCH  20  21
ATOM     21  C   UNL     1      58.385  17.654  51.513  1.00  0.00     0.053 C 
BRANCH  21  22
ATOM     22  C   UNL     1      57.533  17.480  50.294  1.00  0.00     0.041 C 
ATOM     23  O   UNL     1      57.915  16.731  49.355  1.00  0.00    -0.550 OA
ATOM     24  O   UNL     1      56.335  18.171  50.177  1.00  0.00    -0.550 OA
ENDBRANCH  21  22
ENDBRANCH  20  21
ENDBRANCH  19  20
ENDBRANCH  18  19
ENDBRANCH  17  18
ENDBRANCH  16  17
ENDBRANCH  15  16
ENDBRANCH  14  15
ENDBRANCH  13  14
ENDBRANCH   1  13
TORSDOF 20
ENDMDL
MODEL 4
REMARK VINA RESULT:    -3.071      1.671      3.800
REMARK INTER + INTRA:          -9.670
REMARK INTER:                  -6.251
REMARK INTRA:                  -3.420
REMARK UNBOUND:                -3.009
REMARK SMILES CCCCCCCCCCCCCCCCCCCCCC(=O)[O-]
REMARK SMILES IDX 12 1 11 2 10 3 9 4 8 5 7 6 6 7 5 8 4 9 3 10 2 11 1 12 13 13
REMARK SMILES IDX 14 14 15 15 16 16 17 17 18 18 19 19 20 20 21 21 22 22 23 23
REMARK SMILES IDX 24 24
REMARK H PARENT
REMARK Flexibility Score: inf
ROOT
ATOM      1  C   UNL     1      64.948  28.651  59.136  1.00  0.00     0.000 C 
ENDROOT
BRANCH   1   2
ATOM      2  C   UNL     1      64.902  28.369  60.644  1.00  0.00     0.000 C 
BRANCH   2   3
ATOM      3  C   UNL     1      64.056  29.423  61.373  1.00  0.00     0.000 C 
BRANCH   3   4
ATOM      4  C   UNL     1      62.621  28.945  61.660  1.00  0.00    -0.000 C 
BRANCH   4   5
ATOM      5  C   UNL     1      61.618  29.170  60.511  1.00  0.00    -0.000 C 
BRANCH   5   6
ATOM      6  C   UNL     1      60.760  27.943  60.139  1.00  0.00    -0.000 C 
BRANCH   6   7
ATOM      7  C   UNL     1      59.544  27.698  61.053  1.00  0.00    -0.000 C 
BRANCH   7   8
ATOM      8  C   UNL     1      59.532  26.331  61.763  1.00  0.00    -0.000 C 
BRANCH   8   9
ATOM      9  C   UNL     1      60.756  25.447  61.433  1.00  0.00    -0.000 C 
BRANCH   9  10
ATOM     10  C   UNL     1      61.781  25.414  62.575  1.00  0.00    -0.000 C 
BRANCH  10  11
ATOM     11  C   UNL     1      63.204  25.237  62.032  1.00  0.00    -0.003 C 
ATOM     12  C   UNL     1      63.202  25.122  60.511  1.00  0.00     0.004 C 
ENDBRANCH  10  11
ENDBRANCH   9  10
ENDBRANCH   8   9
ENDBRANCH   7   8
ENDBRANCH   6   7
ENDBRANCH   5   6
ENDBRANCH   4   5
ENDBRANCH   3   4
ENDBRANCH   2   3
ENDBRANCH   1   2
BRANCH   1  13
ATOM     13  C   UNL     1      66.343  29.095  58.664  1.00  0.00     0.000 C 
BRANCH  13  14
ATOM     14  C   UNL     1      66.706  30.511  59.147  1.00  0.00     0.000 C 
BRANCH  14  15
ATOM     15  C   UNL     1      66.972  31.478  57.974  1.00  0.00     0.000 C 
BRANCH  15  16
ATOM     16  C   UNL     1      65.917  31.399  56.857  1.00  0.00     0.000 C 
BRANCH  16  17
ATOM     17  C   UNL     1      64.772  32.406  57.046  1.00  0.00     0.000 C 
BRANCH  17  18
ATOM     18  C   UNL     1      63.515  31.765  57.655  1.00  0.00     0.000 C 
BRANCH  18  19
ATOM     19  C   UNL     1      63.321  32.137  59.133  1.00  0.00     0.000 C 
BRANCH  19  20
ATOM     20  C   UNL     1      63.852  33.551  59.415  1.00  0.00     0.006 C 
BRANCH  20  21
ATOM     21  C   UNL     1      64.842  33.577  60.588  1.00  0.00     0.053 C 
BRANCH  21  22
ATOM     22  C   UNL     1      64.721  34.837  61.389  1.00  0.00     0.041 C 
ATOM     23  O   UNL     1      63.632  35.471  61.413  1.00  0.00    -0.550 OA
ATOM     24  O   UNL     1      65.818  35.330  62.080  1.00  0.00    -0.550 OA
ENDBRANCH  21  22
ENDBRANCH  20  21
ENDBRANCH  19  20
ENDBRANCH  18  19
ENDBRANCH  17  18
ENDBRANCH  16  17
ENDBRANCH  15  16
ENDBRANCH  14  15
ENDBRANCH  13  14
ENDBRANCH   1  13
TORSDOF 20
ENDMDL
MODEL 5
REMARK VINA RESULT:    -3.059      9.064     11.098
REMARK INTER + INTRA:          -9.646
REMARK INTER:                  -6.574
REMARK INTRA:                  -3.072
REMARK UNBOUND:                -3.009
REMARK SMILES CCCCCCCCCCCCCCCCCCCCCC(=O)[O-]
REMARK SMILES IDX 12 1 11 2 10 3 9 4 8 5 7 6 6 7 5 8 4 9 3 10 2 11 1 12 13 13
REMARK SMILES IDX 14 14 15 15 16 16 17 17 18 18 19 19 20 20 21 21 22 22 23 23
REMARK SMILES IDX 24 24
REMARK H PARENT
REMARK Flexibility Score: inf
ROOT
ATOM      1  C   UNL     1      61.086  27.609  52.379  1.00  0.00     0.000 C 
ENDROOT
BRANCH   1   2
ATOM      2  C   UNL     1      60.872  28.308  51.029  1.00  0.00     0.000 C 
BRANCH   2   3
ATOM      3  C   UNL     1      60.691  27.280  49.902  1.00  0.00     0.000 C 
BRANCH   3   4
ATOM      4  C   UNL     1      60.546  25.839  50.424  1.00  0.00    -0.000 C 
BRANCH   4   5
ATOM      5  C   UNL     1      59.489  24.986  49.697  1.00  0.00    -0.000 C 
BRANCH   5   6
ATOM      6  C   UNL     1      58.028  25.252  50.117  1.00  0.00    -0.000 C 
BRANCH   6   7
ATOM      7  C   UNL     1      57.843  25.712  51.575  1.00  0.00    -0.000 C 
BRANCH   7   8
ATOM      8  C   UNL     1      57.160  27.082  51.741  1.00  0.00    -0.000 C 
BRANCH   8   9
ATOM      9  C   UNL     1      55.619  27.004  51.818  1.00  0.00    -0.000 C 
BRANCH   9  10
ATOM     10  C   UNL     1      54.943  27.445  50.512  1.00  0.00    -0.000 C 
BRANCH  10  11
ATOM     11  C   UNL     1      53.975  26.370  50.003  1.00  0.00    -0.003 C 
ATOM     12  C   UNL     1      54.624  25.515  48.920  1.00  0.00     0.004 C 
ENDBRANCH  10  11
ENDBRANCH   9  10
ENDBRANCH   8   9
ENDBRANCH   7   8
ENDBRANCH   6   7
ENDBRANCH   5   6
ENDBRANCH   4   5
ENDBRANCH   3   4
ENDBRANCH   2   3
ENDBRANCH   1   2
BRANCH   1  13
ATOM     13  C   UNL     1      62.436  27.973  53.021  1.00  0.00     0.000 C 
BRANCH  13  14
ATOM     14  C   UNL     1      63.495  28.375  51.979  1.00  0.00     0.000 C 
BRANCH  14  15
ATOM     15  C   UNL     1      64.595  27.304  51.820  1.00  0.00     0.000 C 
BRANCH  15  16
ATOM     16  C   UNL     1      64.055  25.922  51.409  1.00  0.00     0.000 C 
BRANCH  16  17
ATOM     17  C   UNL     1      64.193  25.652  49.903  1.00  0.00     0.000 C 
BRANCH  17  18
ATOM     18  C   UNL     1      64.926  26.782  49.164  1.00  0.00     0.000 C 
BRANCH  18  19
ATOM     19  C   UNL     1      63.995  27.583  48.241  1.00  0.00     0.000 C 
BRANCH  19  20
ATOM     20  C   UNL     1      64.685  28.863  47.745  1.00  0.00     0.006 C 
BRANCH  20  21
ATOM     21  C   UNL     1      65.232  29.714  48.900  1.00  0.00     0.053 C 
BRANCH  21  22
ATOM     22  C   UNL     1      64.418  30.953  49.111  1.00  0.00     0.041 C 
ATOM     23  O   UNL     1      63.161  30.908  49.032  1.00  0.00    -0.550 OA
ATOM     24  O   UNL     1      65.046  32.165  49.360  1.00  0.00    -0.550 OA
ENDBRANCH  21  22
ENDBRANCH  20  21
ENDBRANCH  19  20
ENDBRANCH  18  19
ENDBRANCH  17  18
ENDBRANCH  16  17
ENDBRANCH  15  16
ENDBRANCH  14  15
ENDBRANCH  13  14
ENDBRANCH   1  13
TORSDOF 20
ENDMDL
MODEL 6
REMARK VINA RESULT:    -3.059     10.731     12.309
REMARK INTER + INTRA:          -9.646
REMARK INTER:                  -6.678
REMARK INTRA:                  -2.968
REMARK UNBOUND:                -3.009
REMARK SMILES CCCCCCCCCCCCCCCCCCCCCC(=O)[O-]
REMARK SMILES IDX 12 1 11 2 10 3 9 4 8 5 7 6 6 7 5 8 4 9 3 10 2 11 1 12 13 13
REMARK SMILES IDX 14 14 15 15 16 16 17 17 18 18 19 19 20 20 21 21 22 22 23 23
REMARK SMILES IDX 24 24
REMARK H PARENT
REMARK Flexibility Score: inf
ROOT
ATOM      1  C   UNL     1      60.960  23.952  50.286  1.00  0.00     0.000 C 
ENDROOT
BRANCH   1   2
ATOM      2  C   UNL     1      61.802  22.706  49.979  1.00  0.00     0.000 C 
BRANCH   2   3
ATOM      3  C   UNL     1      61.022  21.721  49.094  1.00  0.00     0.000 C 
BRANCH   3   4
ATOM      4  C   UNL     1      60.653  20.420  49.830  1.00  0.00    -0.000 C 
BRANCH   4   5
ATOM      5  C   UNL     1      61.248  20.279  51.244  1.00  0.00    -0.000 C 
BRANCH   5   6
ATOM      6  C   UNL     1      60.222  20.019  52.366  1.00  0.00    -0.000 C 
BRANCH   6   7
ATOM      7  C   UNL     1      58.747  20.103  51.931  1.00  0.00    -0.000 C 
BRANCH   7   8
ATOM      8  C   UNL     1      57.971  18.775  52.013  1.00  0.00    -0.000 C 
BRANCH   8   9
ATOM      9  C   UNL     1      57.142  18.460  50.747  1.00  0.00    -0.000 C 
BRANCH   9  10
ATOM     10  C   UNL     1      57.676  17.239  49.984  1.00  0.00    -0.000 C 
BRANCH  10  11
ATOM     11  C   UNL     1      59.209  17.195  50.021  1.00  0.00    -0.003 C 
ATOM     12  C   UNL     1      59.707  15.876  50.602  1.00  0.00     0.004 C 
ENDBRANCH  10  11
ENDBRANCH   9  10
ENDBRANCH   8   9
ENDBRANCH   7   8
ENDBRANCH   6   7
ENDBRANCH   5   6
ENDBRANCH   4   5
ENDBRANCH   3   4
ENDBRANCH   2   3
ENDBRANCH   1   2
BRANCH   1  13
ATOM     13  C   UNL     1      60.340  23.910  51.693  1.00  0.00     0.000 C 
BRANCH  13  14
ATOM     14  C   UNL     1      58.809  24.069  51.668  1.00  0.00     0.000 C 
BRANCH  14  15
ATOM     15  C   UNL     1      58.324  24.860  50.434  1.00  0.00     0.000 C 
BRANCH  15  16
ATOM     16  C   UNL     1      57.029  25.654  50.680  1.00  0.00     0.000 C 
BRANCH  16  17
ATOM     17  C   UNL     1      57.049  26.433  52.004  1.00  0.00     0.000 C 
BRANCH  17  18
ATOM     18  C   UNL     1      57.921  27.696  51.934  1.00  0.00     0.000 C 
BRANCH  18  19
ATOM     19  C   UNL     1      59.160  27.608  52.837  1.00  0.00     0.000 C 
BRANCH  19  20
ATOM     20  C   UNL     1      60.430  27.997  52.064  1.00  0.00     0.006 C 
BRANCH  20  21
ATOM     21  C   UNL     1      60.331  27.652  50.571  1.00  0.00     0.053 C 
BRANCH  21  22
ATOM     22  C   UNL     1      61.497  28.186  49.799  1.00  0.00     0.041 C 
ATOM     23  O   UNL     1      62.261  27.399  49.178  1.00  0.00    -0.550 OA
ATOM     24  O   UNL     1      61.764  29.548  49.792  1.00  0.00    -0.550 OA
ENDBRANCH  21  22
ENDBRANCH  20  21
ENDBRANCH  19  20
ENDBRANCH  18  19
ENDBRANCH  17  18
ENDBRANCH  16  17
ENDBRANCH  15  16
ENDBRANCH  14  15
ENDBRANCH  13  14
ENDBRANCH   1  13
TORSDOF 20
ENDMDL
MODEL 7
REMARK VINA RESULT:    -3.029      4.545      6.526
REMARK INTER + INTRA:          -9.581
REMARK INTER:                  -6.025
REMARK INTRA:                  -3.556
REMARK UNBOUND:                -3.009
REMARK SMILES CCCCCCCCCCCCCCCCCCCCCC(=O)[O-]
REMARK SMILES IDX 12 1 11 2 10 3 9 4 8 5 7 6 6 7 5 8 4 9 3 10 2 11 1 12 13 13
REMARK SMILES IDX 14 14 15 15 16 16 17 17 18 18 19 19 20 20 21 21 22 22 23 23
REMARK SMILES IDX 24 24
REMARK H PARENT
REMARK Flexibility Score: inf
ROOT
ATOM      1  C   UNL     1      62.942  29.801  57.425  1.00  0.00     0.000 C 
ENDROOT
BRANCH   1   2
ATOM      2  C   UNL     1      62.196  30.738  58.384  1.00  0.00     0.000 C 
BRANCH   2   3
ATOM      3  C   UNL     1      63.168  31.715  59.063  1.00  0.00     0.000 C 
BRANCH   3   4
ATOM      4  C   UNL     1      64.641  31.428  58.720  1.00  0.00    -0.000 C 
BRANCH   4   5
ATOM      5  C   UNL     1      65.518  31.007  59.915  1.00  0.00    -0.000 C 
BRANCH   5   6
ATOM      6  C   UNL     1      64.743  30.578  61.178  1.00  0.00    -0.000 C 
BRANCH   6   7
ATOM      7  C   UNL     1      64.212  29.132  61.157  1.00  0.00    -0.000 C 
BRANCH   7   8
ATOM      8  C   UNL     1      62.810  28.948  61.767  1.00  0.00    -0.000 C 
BRANCH   8   9
ATOM      9  C   UNL     1      61.906  27.984  60.966  1.00  0.00    -0.000 C 
BRANCH   9  10
ATOM     10  C   UNL     1      62.338  26.518  61.112  1.00  0.00    -0.000 C 
BRANCH  10  11
ATOM     11  C   UNL     1      62.490  26.133  62.588  1.00  0.00    -0.003 C 
ATOM     12  C   UNL     1      61.265  25.375  63.089  1.00  0.00     0.004 C 
ENDBRANCH  10  11
ENDBRANCH   9  10
ENDBRANCH   8   9
ENDBRANCH   7   8
ENDBRANCH   6   7
ENDBRANCH   5   6
ENDBRANCH   4   5
ENDBRANCH   3   4
ENDBRANCH   2   3
ENDBRANCH   1   2
BRANCH   1  13
ATOM     13  C   UNL     1      62.410  28.358  57.480  1.00  0.00     0.000 C 
BRANCH  13  14
ATOM     14  C   UNL     1      63.537  27.320  57.630  1.00  0.00     0.000 C 
BRANCH  14  15
ATOM     15  C   UNL     1      64.930  27.978  57.714  1.00  0.00     0.000 C 
BRANCH  15  16
ATOM     16  C   UNL     1      65.987  27.098  58.405  1.00  0.00     0.000 C 
BRANCH  16  17
ATOM     17  C   UNL     1      67.114  27.917  59.054  1.00  0.00     0.000 C 
BRANCH  17  18
ATOM     18  C   UNL     1      67.448  27.440  60.475  1.00  0.00     0.000 C 
BRANCH  18  19
ATOM     19  C   UNL     1      68.116  28.534  61.322  1.00  0.00     0.000 C 
BRANCH  19  20
ATOM     20  C   UNL     1      69.310  29.151  60.576  1.00  0.00     0.006 C 
BRANCH  20  21
ATOM     21  C   UNL     1      70.579  28.297  60.705  1.00  0.00     0.053 C 
BRANCH  21  22
ATOM     22  C   UNL     1      71.750  29.109  61.165  1.00  0.00     0.041 C 
ATOM     23  O   UNL     1      71.571  30.243  61.685  1.00  0.00    -0.550 OA
ATOM     24  O   UNL     1      73.041  28.632  60.988  1.00  0.00    -0.550 OA
ENDBRANCH  21  22
ENDBRANCH  20  21
ENDBRANCH  19  20
ENDBRANCH  18  19
ENDBRANCH  17  18
ENDBRANCH  16  17
ENDBRANCH  15  16
ENDBRANCH  14  15
ENDBRANCH  13  14
ENDBRANCH   1  13
TORSDOF 20
ENDMDL
MODEL 8
REMARK VINA RESULT:    -3.011      3.500      7.450
REMARK INTER + INTRA:          -9.542
REMARK INTER:                  -6.024
REMARK INTRA:                  -3.518
REMARK UNBOUND:                -3.009
REMARK SMILES CCCCCCCCCCCCCCCCCCCCCC(=O)[O-]
REMARK SMILES IDX 12 1 11 2 10 3 9 4 8 5 7 6 6 7 5 8 4 9 3 10 2 11 1 12 13 13
REMARK SMILES IDX 14 14 15 15 16 16 17 17 18 18 19 19 20 20 21 21 22 22 23 23
REMARK SMILES IDX 24 24
REMARK H PARENT
REMARK Flexibility Score: inf
ROOT
ATOM      1  C   UNL     1      61.946  24.601  59.415  1.00  0.00     0.000 C 
ENDROOT
BRANCH   1   2
ATOM      2  C   UNL     1      62.472  26.042  59.330  1.00  0.00     0.000 C 
BRANCH   2   3
ATOM      3  C   UNL     1      63.981  26.091  59.615  1.00  0.00     0.000 C 
BRANCH   3   4
ATOM      4  C   UNL     1      64.329  26.947  60.847  1.00  0.00    -0.000 C 
BRANCH   4   5
ATOM      5  C   UNL     1      63.117  27.542  61.590  1.00  0.00    -0.000 C 
BRANCH   5   6
ATOM      6  C   UNL     1      63.064  29.083  61.631  1.00  0.00    -0.000 C 
BRANCH   6   7
ATOM      7  C   UNL     1      64.359  29.791  61.193  1.00  0.00    -0.000 C 
BRANCH   7   8
ATOM      8  C   UNL     1      64.273  30.521  59.840  1.00  0.00    -0.000 C 
BRANCH   8   9
ATOM      9  C   UNL     1      63.089  30.063  58.960  1.00  0.00    -0.000 C 
BRANCH   9  10
ATOM     10  C   UNL     1      61.955  31.097  58.917  1.00  0.00    -0.000 C 
BRANCH  10  11
ATOM     11  C   UNL     1      60.647  30.460  58.431  1.00  0.00    -0.003 C 
ATOM     12  C   UNL     1      60.405  29.116  59.109  1.00  0.00     0.004 C 
ENDBRANCH  10  11
ENDBRANCH   9  10
ENDBRANCH   8   9
ENDBRANCH   7   8
ENDBRANCH   6   7
ENDBRANCH   5   6
ENDBRANCH   4   5
ENDBRANCH   3   4
ENDBRANCH   2   3
ENDBRANCH   1   2
BRANCH   1  13
ATOM     13  C   UNL     1      62.696  23.764  60.465  1.00  0.00     0.000 C 
BRANCH  13  14
ATOM     14  C   UNL     1      61.810  23.401  61.671  1.00  0.00     0.000 C 
BRANCH  14  15
ATOM     15  C   UNL     1      62.202  24.184  62.941  1.00  0.00     0.000 C 
BRANCH  15  16
ATOM     16  C   UNL     1      61.132  25.189  63.402  1.00  0.00     0.000 C 
BRANCH  16  17
ATOM     17  C   UNL     1      59.857  25.137  62.546  1.00  0.00     0.000 C 
BRANCH  17  18
ATOM     18  C   UNL     1      59.626  26.431  61.750  1.00  0.00     0.000 C 
BRANCH  18  19
ATOM     19  C   UNL     1      58.471  26.307  60.746  1.00  0.00     0.000 C 
BRANCH  19  20
ATOM     20  C   UNL     1      57.412  25.315  61.250  1.00  0.00     0.006 C 
BRANCH  20  21
ATOM     21  C   UNL     1      56.044  25.979  61.455  1.00  0.00     0.053 C 
BRANCH  21  22
ATOM     22  C   UNL     1      55.962  26.688  62.772  1.00  0.00     0.041 C 
ATOM     23  O   UNL     1      55.426  26.125  63.764  1.00  0.00    -0.550 OA
ATOM     24  O   UNL     1      56.446  27.983  62.897  1.00  0.00    -0.550 OA
ENDBRANCH  21  22
ENDBRANCH  20  21
ENDBRANCH  19  20
ENDBRANCH  18  19
ENDBRANCH  17  18
ENDBRANCH  16  17
ENDBRANCH  15  16
ENDBRANCH  14  15
ENDBRANCH  13  14
ENDBRANCH   1  13
TORSDOF 20
ENDMDL
MODEL 9
REMARK VINA RESULT:    -2.973      8.903     11.646
REMARK INTER + INTRA:          -9.458
REMARK INTER:                  -5.168
REMARK INTRA:                  -4.289
REMARK UNBOUND:                -3.009
REMARK SMILES CCCCCCCCCCCCCCCCCCCCCC(=O)[O-]
REMARK SMILES IDX 12 1 11 2 10 3 9 4 8 5 7 6 6 7 5 8 4 9 3 10 2 11 1 12 13 13
REMARK SMILES IDX 14 14 15 15 16 16 17 17 18 18 19 19 20 20 21 21 22 22 23 23
REMARK SMILES IDX 24 24
REMARK H PARENT
REMARK Flexibility Score: inf
ROOT
ATOM      1  C   UNL     1      60.828  26.011  54.154  1.00  0.00     0.000 C 
ENDROOT
BRANCH   1   2
ATOM      2  C   UNL     1      60.796  24.747  53.283  1.00  0.00     0.000 C 
BRANCH   2   3
ATOM      3  C   UNL     1      59.635  24.803  52.278  1.00  0.00     0.000 C 
BRANCH   3   4
ATOM      4  C   UNL     1      59.944  24.059  50.966  1.00  0.00    -0.000 C 
BRANCH   4   5
ATOM      5  C   UNL     1      60.268  24.967  49.763  1.00  0.00    -0.000 C 
BRANCH   5   6
ATOM      6  C   UNL     1      60.057  26.476  50.004  1.00  0.00    -0.000 C 
BRANCH   6   7
ATOM      7  C   UNL     1      61.045  27.398  49.266  1.00  0.00    -0.000 C 
BRANCH   7   8
ATOM      8  C   UNL     1      62.533  27.100  49.533  1.00  0.00    -0.000 C 
BRANCH   8   9
ATOM      9  C   UNL     1      62.979  27.406  50.980  1.00  0.00    -0.000 C 
BRANCH   9  10
ATOM     10  C   UNL     1      63.647  26.200  51.656  1.00  0.00    -0.000 C 
BRANCH  10  11
ATOM     11  C   UNL     1      63.885  25.068  50.649  1.00  0.00    -0.003 C 
ATOM     12  C   UNL     1      63.692  23.702  51.300  1.00  0.00     0.004 C 
ENDBRANCH  10  11
ENDBRANCH   9  10
ENDBRANCH   8   9
ENDBRANCH   7   8
ENDBRANCH   6   7
ENDBRANCH   5   6
ENDBRANCH   4   5
ENDBRANCH   3   4
ENDBRANCH   2   3
ENDBRANCH   1   2
BRANCH   1  13
ATOM     13  C   UNL     1      60.145  27.210  53.473  1.00  0.00     0.000 C 
BRANCH  13  14
ATOM     14  C   UNL     1      60.803  28.551  53.843  1.00  0.00     0.000 C 
BRANCH  14  15
ATOM     15  C   UNL     1      60.484  29.661  52.819  1.00  0.00     0.000 C 
BRANCH  15  16
ATOM     16  C   UNL     1      59.276  29.342  51.921  1.00  0.00     0.000 C 
BRANCH  16  17
ATOM     17  C   UNL     1      57.998  30.077  52.356  1.00  0.00     0.000 C 
BRANCH  17  18
ATOM     18  C   UNL     1      57.000  29.153  53.072  1.00  0.00     0.000 C 
BRANCH  18  19
ATOM     19  C   UNL     1      56.126  28.358  52.092  1.00  0.00     0.000 C 
BRANCH  19  20
ATOM     20  C   UNL     1      56.399  26.851  52.214  1.00  0.00     0.006 C 
BRANCH  20  21
ATOM     21  C   UNL     1      56.567  26.178  50.844  1.00  0.00     0.053 C 
BRANCH  21  22
ATOM     22  C   UNL     1      55.286  25.569  50.363  1.00  0.00     0.041 C 
ATOM     23  O   UNL     1      54.463  25.090  51.187  1.00  0.00    -0.550 OA
ATOM     24  O   UNL     1      55.017  25.499  49.003  1.00  0.00    -0.550 OA
ENDBRANCH  21  22
ENDBRANCH  20  21
ENDBRANCH  19  20
ENDBRANCH  18  19
ENDBRANCH  17  18
ENDBRANCH  16  17
ENDBRANCH  15  16
ENDBRANCH  14  15
ENDBRANCH  13  14
ENDBRANCH   1  13
TORSDOF 20
ENDMDL
