MODEL 1
REMARK VINA RESULT:    -5.394      0.000      0.000
REMARK INTER + INTRA:          -8.236
REMARK INTER:                  -7.286
REMARK INTRA:                  -0.950
REMARK UNBOUND:                -0.950
REMARK SMILES CC(=O)CCC=C(C)CCC=C(C)C
REMARK SMILES IDX 7 1 6 2 8 3 9 4 10 5 11 6 13 7 12 8 14 9 5 10 4 11 2 12 3 13
REMARK SMILES IDX 1 14
REMARK H PARENT
REMARK Flexibility Score: inf
ROOT
ATOM      1  C   UNL     1       1.150 -21.490  -6.721  1.00  0.00    -0.077 C 
ATOM      2  C   UNL     1       1.087 -20.700  -5.624  1.00  0.00    -0.028 C 
ATOM      3  C   UNL     1       0.448 -22.826  -6.782  1.00  0.00     0.039 C 
ENDROOT
BRANCH   1   4
ATOM      4  C   UNL     1       1.958 -21.026  -7.913  1.00  0.00     0.034 C 
BRANCH   4   5
ATOM      5  C   UNL     1       3.120 -20.128  -7.471  1.00  0.00     0.032 C 
BRANCH   5   6
ATOM      6  C   UNL     1       4.451 -20.796  -7.719  1.00  0.00    -0.028 C 
ATOM      7  C   UNL     1       6.468 -22.061  -7.108  1.00  0.00     0.039 C 
ATOM      8  C   UNL     1       5.149 -21.428  -6.752  1.00  0.00    -0.080 C 
ATOM      9  C   UNL     1       4.636 -21.511  -5.334  1.00  0.00     0.039 C 
ENDBRANCH   5   6
ENDBRANCH   4   5
ENDBRANCH   1   4
BRANCH   2  10
ATOM     10  C   UNL     1       0.281 -21.013  -4.385  1.00  0.00     0.035 C 
BRANCH  10  11
ATOM     11  C   UNL     1       0.463 -19.941  -3.303  1.00  0.00     0.079 C 
BRANCH  11  12
ATOM     12  C   UNL     1       1.623 -20.260  -2.394  1.00  0.00     0.130 C 
ATOM     13  O   UNL     1       1.479 -21.083  -1.503  1.00  0.00    -0.300 OA
ATOM     14  C   UNL     1       2.953 -19.588  -2.561  1.00  0.00     0.087 C 
ENDBRANCH  11  12
ENDBRANCH  10  11
ENDBRANCH   2  10
TORSDOF 6
ENDMDL
MODEL 2
REMARK VINA RESULT:    -5.124      1.711      3.677
REMARK INTER + INTRA:          -7.872
REMARK INTER:                  -6.655
REMARK INTRA:                  -1.216
REMARK UNBOUND:                -0.950
REMARK SMILES CC(=O)CCC=C(C)CCC=C(C)C
REMARK SMILES IDX 7 1 6 2 8 3 9 4 10 5 11 6 13 7 12 8 14 9 5 10 4 11 2 12 3 13
REMARK SMILES IDX 1 14
REMARK H PARENT
REMARK Flexibility Score: inf
ROOT
ATOM      1  C   UNL     1       3.499 -19.883  -6.454  1.00  0.00    -0.077 C 
ATOM      2  C   UNL     1       3.795 -20.664  -5.389  1.00  0.00    -0.028 C 
ATOM      3  C   UNL     1       3.481 -18.376  -6.356  1.00  0.00     0.039 C 
ENDROOT
BRANCH   1   4
ATOM      4  C   UNL     1       3.164 -20.541  -7.775  1.00  0.00     0.034 C 
BRANCH   4   5
ATOM      5  C   UNL     1       1.647 -20.636  -7.971  1.00  0.00     0.032 C 
BRANCH   5   6
ATOM      6  C   UNL     1       1.147 -22.035  -7.703  1.00  0.00    -0.028 C 
ATOM      7  C   UNL     1       0.066 -23.813  -6.394  1.00  0.00     0.039 C 
ATOM      8  C   UNL     1       0.525 -22.389  -6.558  1.00  0.00    -0.080 C 
ATOM      9  C   UNL     1       0.282 -21.390  -5.451  1.00  0.00     0.039 C 
ENDBRANCH   5   6
ENDBRANCH   4   5
ENDBRANCH   1   4
BRANCH   2  10
ATOM     10  C   UNL     1       4.194 -20.145  -4.028  1.00  0.00     0.035 C 
BRANCH  10  11
ATOM     11  C   UNL     1       3.036 -20.234  -3.025  1.00  0.00     0.079 C 
BRANCH  11  12
ATOM     12  C   UNL     1       2.461 -18.874  -2.719  1.00  0.00     0.130 C 
ATOM     13  O   UNL     1       2.998 -18.169  -1.879  1.00  0.00    -0.300 OA
ATOM     14  C   UNL     1       1.238 -18.367  -3.426  1.00  0.00     0.087 C 
ENDBRANCH  11  12
ENDBRANCH  10  11
ENDBRANCH   2  10
TORSDOF 6
ENDMDL
MODEL 3
REMARK VINA RESULT:    -4.775      1.821      4.864
REMARK INTER + INTRA:          -7.400
REMARK INTER:                  -6.516
REMARK INTRA:                  -0.884
REMARK UNBOUND:                -0.950
REMARK SMILES CC(=O)CCC=C(C)CCC=C(C)C
REMARK SMILES IDX 7 1 6 2 8 3 9 4 10 5 11 6 13 7 12 8 14 9 5 10 4 11 2 12 3 13
REMARK SMILES IDX 1 14
REMARK H PARENT
REMARK Flexibility Score: inf
ROOT
ATOM      1  C   UNL     1       1.792 -21.378  -7.530  1.00  0.00    -0.077 C 
ATOM      2  C   UNL     1       3.001 -21.059  -7.012  1.00  0.00    -0.028 C 
ATOM      3  C   UNL     1       1.355 -20.889  -8.891  1.00  0.00     0.039 C 
ENDROOT
BRANCH   1   4
ATOM      4  C   UNL     1       0.850 -22.238  -6.717  1.00  0.00     0.034 C 
BRANCH   4   5
ATOM      5  C   UNL     1      -0.069 -21.372  -5.847  1.00  0.00     0.032 C 
BRANCH   5   6
ATOM      6  C   UNL     1       0.420 -21.318  -4.421  1.00  0.00    -0.028 C 
ATOM      7  C   UNL     1       1.457 -20.279  -2.448  1.00  0.00     0.039 C 
ATOM      8  C   UNL     1       1.006 -20.226  -3.884  1.00  0.00    -0.080 C 
ATOM      9  C   UNL     1       1.214 -18.965  -4.689  1.00  0.00     0.039 C 
ENDBRANCH   5   6
ENDBRANCH   4   5
ENDBRANCH   1   4
BRANCH   2  10
ATOM     10  C   UNL     1       4.057 -20.253  -7.730  1.00  0.00     0.035 C 
BRANCH  10  11
ATOM     11  C   UNL     1       5.271 -19.980  -6.832  1.00  0.00     0.079 C 
BRANCH  11  12
ATOM     12  C   UNL     1       5.936 -21.260  -6.393  1.00  0.00     0.130 C 
ATOM     13  O   UNL     1       5.903 -21.581  -5.215  1.00  0.00    -0.300 OA
ATOM     14  C   UNL     1       6.639 -22.151  -7.374  1.00  0.00     0.087 C 
ENDBRANCH  11  12
ENDBRANCH  10  11
ENDBRANCH   2  10
TORSDOF 6
ENDMDL
MODEL 4
REMARK VINA RESULT:    -4.757      1.771      4.365
REMARK INTER + INTRA:          -7.376
REMARK INTER:                  -6.707
REMARK INTRA:                  -0.670
REMARK UNBOUND:                -0.950
REMARK SMILES CC(=O)CCC=C(C)CCC=C(C)C
REMARK SMILES IDX 7 1 6 2 8 3 9 4 10 5 11 6 13 7 12 8 14 9 5 10 4 11 2 12 3 13
REMARK SMILES IDX 1 14
REMARK H PARENT
REMARK Flexibility Score: inf
ROOT
ATOM      1  C   UNL     1       1.584 -21.479  -7.372  1.00  0.00    -0.077 C 
ATOM      2  C   UNL     1       2.762 -21.518  -6.707  1.00  0.00    -0.028 C 
ATOM      3  C   UNL     1       1.435 -20.752  -8.688  1.00  0.00     0.039 C 
ENDROOT
BRANCH   1   4
ATOM      4  C   UNL     1       0.379 -22.171  -6.771  1.00  0.00     0.034 C 
BRANCH   4   5
ATOM      5  C   UNL     1       0.265 -21.870  -5.273  1.00  0.00     0.032 C 
BRANCH   5   6
ATOM      6  C   UNL     1       0.574 -20.421  -4.982  1.00  0.00    -0.028 C 
ATOM      7  C   UNL     1       0.979 -18.463  -3.551  1.00  0.00     0.039 C 
ATOM      8  C   UNL     1       0.665 -19.925  -3.729  1.00  0.00    -0.080 C 
ATOM      9  C   UNL     1       0.461 -20.801  -2.516  1.00  0.00     0.039 C 
ENDBRANCH   5   6
ENDBRANCH   4   5
ENDBRANCH   1   4
BRANCH   2  10
ATOM     10  C   UNL     1       4.052 -20.915  -7.210  1.00  0.00     0.035 C 
BRANCH  10  11
ATOM     11  C   UNL     1       5.070 -20.728  -6.078  1.00  0.00     0.079 C 
BRANCH  11  12
ATOM     12  C   UNL     1       4.487 -19.945  -4.930  1.00  0.00     0.130 C 
ATOM     13  O   UNL     1       4.141 -18.787  -5.106  1.00  0.00    -0.300 OA
ATOM     14  C   UNL     1       4.321 -20.558  -3.571  1.00  0.00     0.087 C 
ENDBRANCH  11  12
ENDBRANCH  10  11
ENDBRANCH   2  10
TORSDOF 6
ENDMDL
MODEL 5
REMARK VINA RESULT:    -4.723     11.130     12.693
REMARK INTER + INTRA:          -7.330
REMARK INTER:                  -6.480
REMARK INTRA:                  -0.850
REMARK UNBOUND:                -0.950
REMARK SMILES CC(=O)CCC=C(C)CCC=C(C)C
REMARK SMILES IDX 7 1 6 2 8 3 9 4 10 5 11 6 13 7 12 8 14 9 5 10 4 11 2 12 3 13
REMARK SMILES IDX 1 14
REMARK H PARENT
REMARK Flexibility Score: inf
ROOT
ATOM      1  C   UNL     1      -5.853 -27.593  -2.464  1.00  0.00    -0.077 C 
ATOM      2  C   UNL     1      -6.648 -26.567  -2.850  1.00  0.00    -0.028 C 
ATOM      3  C   UNL     1      -5.428 -27.775  -1.026  1.00  0.00     0.039 C 
ENDROOT
BRANCH   1   4
ATOM      4  C   UNL     1      -5.368 -28.577  -3.507  1.00  0.00     0.034 C 
BRANCH   4   5
ATOM      5  C   UNL     1      -6.510 -29.486  -3.975  1.00  0.00     0.032 C 
BRANCH   5   6
ATOM      6  C   UNL     1      -6.993 -30.377  -2.856  1.00  0.00    -0.028 C 
ATOM      7  C   UNL     1      -8.599 -31.202  -1.188  1.00  0.00     0.039 C 
ATOM      8  C   UNL     1      -8.218 -30.261  -2.299  1.00  0.00    -0.080 C 
ATOM      9  C   UNL     1      -9.202 -29.215  -2.767  1.00  0.00     0.039 C 
ENDBRANCH   5   6
ENDBRANCH   4   5
ENDBRANCH   1   4
BRANCH   2  10
ATOM     10  C   UNL     1      -7.243 -25.543  -1.912  1.00  0.00     0.035 C 
BRANCH  10  11
ATOM     11  C   UNL     1      -7.971 -24.430  -2.677  1.00  0.00     0.079 C 
BRANCH  11  12
ATOM     12  C   UNL     1      -7.979 -23.137  -1.901  1.00  0.00     0.130 C 
ATOM     13  O   UNL     1      -6.977 -22.439  -1.886  1.00  0.00    -0.300 OA
ATOM     14  C   UNL     1      -9.194 -22.688  -1.146  1.00  0.00     0.087 C 
ENDBRANCH  11  12
ENDBRANCH  10  11
ENDBRANCH   2  10
TORSDOF 6
ENDMDL
MODEL 6
REMARK VINA RESULT:    -4.628      2.009      4.163
REMARK INTER + INTRA:          -7.202
REMARK INTER:                  -6.304
REMARK INTRA:                  -0.898
REMARK UNBOUND:                -0.950
REMARK SMILES CC(=O)CCC=C(C)CCC=C(C)C
REMARK SMILES IDX 7 1 6 2 8 3 9 4 10 5 11 6 13 7 12 8 14 9 5 10 4 11 2 12 3 13
REMARK SMILES IDX 1 14
REMARK H PARENT
REMARK Flexibility Score: inf
ROOT
ATOM      1  C   UNL     1       3.989 -20.330  -7.068  1.00  0.00    -0.077 C 
ATOM      2  C   UNL     1       4.443 -21.367  -6.326  1.00  0.00    -0.028 C 
ATOM      3  C   UNL     1       4.342 -18.899  -6.737  1.00  0.00     0.039 C 
ENDROOT
BRANCH   1   4
ATOM      4  C   UNL     1       3.093 -20.614  -8.255  1.00  0.00     0.034 C 
BRANCH   4   5
ATOM      5  C   UNL     1       1.616 -20.558  -7.851  1.00  0.00     0.032 C 
BRANCH   5   6
ATOM      6  C   UNL     1       1.061 -21.942  -7.613  1.00  0.00    -0.028 C 
ATOM      7  C   UNL     1       0.024 -23.742  -6.298  1.00  0.00     0.039 C 
ATOM      8  C   UNL     1       0.551 -22.337  -6.427  1.00  0.00    -0.080 C 
ATOM      9  C   UNL     1       0.501 -21.405  -5.240  1.00  0.00     0.039 C 
ENDBRANCH   5   6
ENDBRANCH   4   5
ENDBRANCH   1   4
BRANCH   2  10
ATOM     10  C   UNL     1       5.379 -21.235  -5.148  1.00  0.00     0.035 C 
BRANCH  10  11
ATOM     11  C   UNL     1       4.616 -20.986  -3.841  1.00  0.00     0.079 C 
BRANCH  11  12
ATOM     12  C   UNL     1       5.447 -20.209  -2.852  1.00  0.00     0.130 C 
ATOM     13  O   UNL     1       6.103 -20.811  -2.015  1.00  0.00    -0.300 OA
ATOM     14  C   UNL     1       5.488 -18.710  -2.873  1.00  0.00     0.087 C 
ENDBRANCH  11  12
ENDBRANCH  10  11
ENDBRANCH   2  10
TORSDOF 6
ENDMDL
MODEL 7
REMARK VINA RESULT:    -4.623     10.836     12.974
REMARK INTER + INTRA:          -7.195
REMARK INTER:                  -6.481
REMARK INTRA:                  -0.715
REMARK UNBOUND:                -0.950
REMARK SMILES CC(=O)CCC=C(C)CCC=C(C)C
REMARK SMILES IDX 7 1 6 2 8 3 9 4 10 5 11 6 13 7 12 8 14 9 5 10 4 11 2 12 3 13
REMARK SMILES IDX 1 14
REMARK H PARENT
REMARK Flexibility Score: inf
ROOT
ATOM      1  C   UNL     1      -7.789 -26.190  -2.469  1.00  0.00    -0.077 C 
ATOM      2  C   UNL     1      -6.465 -26.438  -2.331  1.00  0.00    -0.028 C 
ATOM      3  C   UNL     1      -8.520 -26.461  -3.762  1.00  0.00     0.039 C 
ENDROOT
BRANCH   1   4
ATOM      4  C   UNL     1      -8.551 -25.612  -1.296  1.00  0.00     0.034 C 
BRANCH   4   5
ATOM      5  C   UNL     1      -9.544 -24.541  -1.762  1.00  0.00     0.032 C 
BRANCH   5   6
ATOM      6  C   UNL     1      -9.749 -23.487  -0.702  1.00  0.00    -0.028 C 
ATOM      7  C   UNL     1      -9.209 -21.447   0.561  1.00  0.00     0.039 C 
ATOM      8  C   UNL     1      -8.911 -22.442  -0.529  1.00  0.00    -0.080 C 
ATOM      9  C   UNL     1      -7.692 -22.257  -1.401  1.00  0.00     0.039 C 
ENDBRANCH   5   6
ENDBRANCH   4   5
ENDBRANCH   1   4
BRANCH   2  10
ATOM     10  C   UNL     1      -5.593 -27.057  -3.398  1.00  0.00     0.035 C 
BRANCH  10  11
ATOM     11  C   UNL     1      -5.160 -28.480  -3.022  1.00  0.00     0.079 C 
BRANCH  11  12
ATOM     12  C   UNL     1      -6.328 -29.433  -3.018  1.00  0.00     0.130 C 
ATOM     13  O   UNL     1      -6.756 -29.854  -1.954  1.00  0.00    -0.300 OA
ATOM     14  C   UNL     1      -6.978 -29.877  -4.295  1.00  0.00     0.087 C 
ENDBRANCH  11  12
ENDBRANCH  10  11
ENDBRANCH   2  10
TORSDOF 6
ENDMDL
MODEL 8
REMARK VINA RESULT:    -4.622      1.358      3.777
REMARK INTER + INTRA:          -7.194
REMARK INTER:                  -6.390
REMARK INTRA:                  -0.803
REMARK UNBOUND:                -0.950
REMARK SMILES CC(=O)CCC=C(C)CCC=C(C)C
REMARK SMILES IDX 7 1 6 2 8 3 9 4 10 5 11 6 13 7 12 8 14 9 5 10 4 11 2 12 3 13
REMARK SMILES IDX 1 14
REMARK H PARENT
REMARK Flexibility Score: inf
ROOT
ATOM      1  C   UNL     1       4.630 -19.688  -5.049  1.00  0.00    -0.077 C 
ATOM      2  C   UNL     1       4.235 -20.247  -3.882  1.00  0.00    -0.028 C 
ATOM      3  C   UNL     1       4.804 -18.196  -5.199  1.00  0.00     0.039 C 
ENDROOT
BRANCH   1   4
ATOM      4  C   UNL     1       4.891 -20.585  -6.240  1.00  0.00     0.034 C 
BRANCH   4   5
ATOM      5  C   UNL     1       3.713 -20.552  -7.219  1.00  0.00     0.032 C 
BRANCH   5   6
ATOM      6  C   UNL     1       2.554 -21.374  -6.709  1.00  0.00    -0.028 C 
ATOM      7  C   UNL     1       0.331 -22.419  -6.818  1.00  0.00     0.039 C 
ATOM      8  C   UNL     1       1.427 -21.582  -7.423  1.00  0.00    -0.080 C 
ATOM      9  C   UNL     1       1.248 -20.995  -8.803  1.00  0.00     0.039 C 
ENDBRANCH   5   6
ENDBRANCH   4   5
ENDBRANCH   1   4
BRANCH   2  10
ATOM     10  C   UNL     1       3.986 -19.482  -2.604  1.00  0.00     0.035 C 
BRANCH  10  11
ATOM     11  C   UNL     1       2.522 -19.042  -2.481  1.00  0.00     0.079 C 
BRANCH  11  12
ATOM     12  C   UNL     1       1.588 -20.224  -2.442  1.00  0.00     0.130 C 
ATOM     13  O   UNL     1       1.645 -21.004  -1.503  1.00  0.00    -0.300 OA
ATOM     14  C   UNL     1       0.586 -20.465  -3.532  1.00  0.00     0.087 C 
ENDBRANCH  11  12
ENDBRANCH  10  11
ENDBRANCH   2  10
TORSDOF 6
ENDMDL
MODEL 9
REMARK VINA RESULT:    -4.560     11.212     13.554
REMARK INTER + INTRA:          -7.110
REMARK INTER:                  -5.728
REMARK INTRA:                  -1.383
REMARK UNBOUND:                -0.950
REMARK SMILES CC(=O)CCC=C(C)CCC=C(C)C
REMARK SMILES IDX 7 1 6 2 8 3 9 4 10 5 11 6 13 7 12 8 14 9 5 10 4 11 2 12 3 13
REMARK SMILES IDX 1 14
REMARK H PARENT
REMARK Flexibility Score: inf
ROOT
ATOM      1  C   UNL     1      -6.411 -29.493  -2.840  1.00  0.00    -0.077 C 
ATOM      2  C   UNL     1      -6.914 -29.786  -1.619  1.00  0.00    -0.028 C 
ATOM      3  C   UNL     1      -7.003 -30.068  -4.105  1.00  0.00     0.039 C 
ENDROOT
BRANCH   1   4
ATOM      4  C   UNL     1      -5.214 -28.572  -2.938  1.00  0.00     0.034 C 
BRANCH   4   5
ATOM      5  C   UNL     1      -5.605 -27.230  -3.567  1.00  0.00     0.032 C 
BRANCH   5   6
ATOM      6  C   UNL     1      -6.261 -26.322  -2.554  1.00  0.00    -0.028 C 
ATOM      7  C   UNL     1      -8.131 -25.113  -1.512  1.00  0.00     0.039 C 
ATOM      8  C   UNL     1      -7.579 -26.031  -2.571  1.00  0.00    -0.080 C 
ATOM      9  C   UNL     1      -8.501 -26.605  -3.621  1.00  0.00     0.039 C 
ENDBRANCH   5   6
ENDBRANCH   4   5
ENDBRANCH   1   4
BRANCH   2  10
ATOM     10  C   UNL     1      -8.131 -30.648  -1.376  1.00  0.00     0.035 C 
BRANCH  10  11
ATOM     11  C   UNL     1      -9.134 -29.963  -0.439  1.00  0.00     0.079 C 
BRANCH  11  12
ATOM     12  C   UNL     1     -10.039 -29.019  -1.189  1.00  0.00     0.130 C 
ATOM     13  O   UNL     1     -10.232 -27.895  -0.750  1.00  0.00    -0.300 OA
ATOM     14  C   UNL     1     -10.709 -29.430  -2.467  1.00  0.00     0.087 C 
ENDBRANCH  11  12
ENDBRANCH  10  11
ENDBRANCH   2  10
TORSDOF 6
ENDMDL
