MODEL 1
REMARK VINA RESULT:    -3.623      0.000      0.000
REMARK INTER + INTRA:          -5.794
REMARK INTER:                  -5.529
REMARK INTRA:                  -0.265
REMARK UNBOUND:                -0.265
REMARK SMILES CC1=CCC[C@@H](C)C(=O)C[C@@H](C(C)C)C(=O)C1
REMARK SMILES IDX 8 1 9 2 6 3 7 4 5 5 4 6 3 7 2 8 1 9 10 11 11 12 15 13 16 14
REMARK SMILES IDX 17 15 12 17 13 18 14 19
REMARK H PARENT
REMARK Flexibility Score: 70.00
ROOT
ATOM      1  C   UNL     1      17.833  28.602  29.803  1.00  0.00     0.136 C 
ATOM      2  O   UNL     1      17.059  27.672  29.979  1.00  0.00    -0.299 OA
ENDROOT
BRANCH   1   3
ATOM      3  C   UNL     1      18.851  28.502  28.682  1.00  0.00     0.053 C 
ATOM      4  C   UNL     1      18.287  27.693  27.506  1.00  0.00     0.016 C 
BRANCH   3   5
ATOM      5  C   UNL     1      20.183  27.905  29.176  1.00  0.00     0.015 C 
BRANCH   5   6
ATOM      6  C   UNL     1      21.351  28.895  29.021  1.00  0.00     0.028 C 
BRANCH   6   7
ATOM      7  C   UNL     1      21.786  29.418  30.365  1.00  0.00    -0.028 C 
ATOM      8  C   UNL     1      21.448  30.631  30.862  1.00  0.00    -0.070 CG0
ATOM      9  C   UNL     1      21.909  30.977  32.256  1.00  0.00     0.039 C 
ATOM     10  G   UNL     1      20.646  31.654  30.074  1.00  0.00     0.000 G0
ENDBRANCH   6   7
ENDBRANCH   5   6
ENDBRANCH   3   5
ENDBRANCH   1   3
BRANCH   1  11
ATOM     11  C   UNL     1      17.758  29.795  30.731  1.00  0.00     0.087 C 
BRANCH  11  12
ATOM     12  C   UNL     1      18.060  31.130  29.999  1.00  0.00     0.066 C 
BRANCH  12  13
ATOM     13  C   UNL     1      19.247  31.852  30.625  1.00  0.00     0.140 C 
ATOM     14  O   UNL     1      19.066  32.634  31.548  1.00  0.00    -0.299 OA
BRANCH  13  15
ATOM     15  C   UNL     1      20.644  31.671  30.081  1.00  0.00     0.106 CG0
ATOM     16  G   UNL     1      21.430  30.622  30.852  1.00  0.00     0.000 G0
ENDBRANCH  13  15
ENDBRANCH  12  13
BRANCH  12  17
ATOM     17  C   UNL     1      16.797  32.041  29.905  1.00  0.00    -0.006 C 
ATOM     18  C   UNL     1      15.502  31.217  29.971  1.00  0.00     0.008 C 
ATOM     19  C   UNL     1      16.777  32.962  28.672  1.00  0.00     0.008 C 
ENDBRANCH  12  17
ENDBRANCH  11  12
ENDBRANCH   1  11
TORSDOF 1
ENDMDL
MODEL 2
REMARK VINA RESULT:    -3.602      3.296      6.098
REMARK INTER + INTRA:          -5.762
REMARK INTER:                  -5.434
REMARK INTRA:                  -0.328
REMARK UNBOUND:                -0.265
REMARK SMILES CC1=CCC[C@@H](C)C(=O)C[C@@H](C(C)C)C(=O)C1
REMARK SMILES IDX 8 1 9 2 6 3 7 4 5 5 4 6 3 7 2 8 1 9 10 11 11 12 15 13 16 14
REMARK SMILES IDX 17 15 12 17 13 18 14 19
REMARK H PARENT
REMARK Flexibility Score: 70.00
ROOT
ATOM      1  C   UNL     1      20.008  28.543  29.904  1.00  0.00     0.136 C 
ATOM      2  O   UNL     1      19.290  28.783  30.865  1.00  0.00    -0.299 OA
ENDROOT
BRANCH   1   3
ATOM      3  C   UNL     1      19.492  28.857  28.512  1.00  0.00     0.053 C 
ATOM      4  C   UNL     1      19.403  30.373  28.295  1.00  0.00     0.016 C 
BRANCH   3   5
ATOM      5  C   UNL     1      18.136  28.178  28.241  1.00  0.00     0.015 C 
BRANCH   5   6
ATOM      6  C   UNL     1      18.153  26.685  28.615  1.00  0.00     0.028 C 
BRANCH   6   7
ATOM      7  C   UNL     1      18.766  25.868  27.509  1.00  0.00    -0.028 C 
ATOM      8  C   UNL     1      19.888  25.121  27.638  1.00  0.00    -0.070 CG0
ATOM      9  C   UNL     1      20.334  24.304  26.452  1.00  0.00     0.039 C 
ATOM     10  G   UNL     1      20.716  25.085  28.913  1.00  0.00     0.000 G0
ENDBRANCH   6   7
ENDBRANCH   5   6
ENDBRANCH   3   5
ENDBRANCH   1   3
BRANCH   1  11
ATOM     11  C   UNL     1      21.362  27.914  30.149  1.00  0.00     0.087 C 
BRANCH  11  12
ATOM     12  C   UNL     1      22.012  27.388  28.841  1.00  0.00     0.066 C 
BRANCH  12  13
ATOM     13  C   UNL     1      22.005  25.865  28.789  1.00  0.00     0.140 C 
ATOM     14  O   UNL     1      23.048  25.258  28.587  1.00  0.00    -0.299 OA
BRANCH  13  15
ATOM     15  C   UNL     1      20.717  25.088  28.917  1.00  0.00     0.106 CG0
ATOM     16  G   UNL     1      19.895  25.124  27.638  1.00  0.00     0.000 G0
ENDBRANCH  13  15
ENDBRANCH  12  13
BRANCH  12  17
ATOM     17  C   UNL     1      23.438  27.981  28.621  1.00  0.00    -0.006 C 
ATOM     18  C   UNL     1      23.735  29.119  29.609  1.00  0.00     0.008 C 
ATOM     19  C   UNL     1      23.709  28.447  27.179  1.00  0.00     0.008 C 
ENDBRANCH  12  17
ENDBRANCH  11  12
ENDBRANCH   1  11
TORSDOF 1
ENDMDL
MODEL 3
REMARK VINA RESULT:    -3.589      2.214      3.256
REMARK INTER + INTRA:          -5.742
REMARK INTER:                  -5.907
REMARK INTRA:                   0.165
REMARK UNBOUND:                -0.265
REMARK SMILES CC1=CCC[C@@H](C)C(=O)C[C@@H](C(C)C)C(=O)C1
REMARK SMILES IDX 8 1 9 2 6 3 7 4 5 5 4 6 3 7 2 8 1 9 10 11 11 12 15 13 16 14
REMARK SMILES IDX 17 15 12 17 13 18 14 19
REMARK H PARENT
REMARK Flexibility Score: 70.00
ROOT
ATOM      1  C   UNL     1      15.480  28.661  29.795  1.00  0.00     0.136 C 
ATOM      2  O   UNL     1      14.771  29.215  28.967  1.00  0.00    -0.299 OA
ENDROOT
BRANCH   1   3
ATOM      3  C   UNL     1      15.323  27.167  30.007  1.00  0.00     0.053 C 
ATOM      4  C   UNL     1      15.750  26.770  31.426  1.00  0.00     0.016 C 
BRANCH   3   5
ATOM      5  C   UNL     1      16.098  26.358  28.950  1.00  0.00     0.015 C 
BRANCH   5   6
ATOM      6  C   UNL     1      17.140  27.219  28.213  1.00  0.00     0.028 C 
BRANCH   6   7
ATOM      7  C   UNL     1      18.531  26.889  28.686  1.00  0.00    -0.028 C 
ATOM      8  C   UNL     1      19.515  27.800  28.872  1.00  0.00    -0.070 CG0
ATOM      9  C   UNL     1      20.835  27.314  29.416  1.00  0.00     0.039 C 
ATOM     10  G   UNL     1      19.350  29.275  28.543  1.00  0.00     0.000 G0
ENDBRANCH   6   7
ENDBRANCH   5   6
ENDBRANCH   3   5
ENDBRANCH   1   3
BRANCH   1  11
ATOM     11  C   UNL     1      16.459  29.498  30.590  1.00  0.00     0.087 C 
BRANCH  11  12
ATOM     12  C   UNL     1      17.290  30.448  29.686  1.00  0.00     0.066 C 
BRANCH  12  13
ATOM     13  C   UNL     1      18.764  30.062  29.681  1.00  0.00     0.140 C 
ATOM     14  O   UNL     1      19.494  30.434  30.590  1.00  0.00    -0.299 OA
BRANCH  13  15
ATOM     15  C   UNL     1      19.361  29.281  28.535  1.00  0.00     0.106 CG0
ATOM     16  G   UNL     1      19.521  27.806  28.866  1.00  0.00     0.000 G0
ENDBRANCH  13  15
ENDBRANCH  12  13
BRANCH  12  17
ATOM     17  C   UNL     1      17.072  31.946  30.062  1.00  0.00    -0.006 C 
ATOM     18  C   UNL     1      15.791  32.141  30.887  1.00  0.00     0.008 C 
ATOM     19  C   UNL     1      17.076  32.903  28.856  1.00  0.00     0.008 C 
ENDBRANCH  12  17
ENDBRANCH  11  12
ENDBRANCH   1  11
TORSDOF 1
ENDMDL
MODEL 4
REMARK VINA RESULT:    -3.538      2.064      4.093
REMARK INTER + INTRA:          -5.665
REMARK INTER:                  -5.374
REMARK INTRA:                  -0.291
REMARK UNBOUND:                -0.265
REMARK SMILES CC1=CCC[C@@H](C)C(=O)C[C@@H](C(C)C)C(=O)C1
REMARK SMILES IDX 8 1 9 2 6 3 7 4 5 5 4 6 3 7 2 8 1 9 10 11 11 12 15 13 16 14
REMARK SMILES IDX 17 15 12 17 13 18 14 19
REMARK H PARENT
REMARK Flexibility Score: 70.00
ROOT
ATOM      1  C   UNL     1      15.387  30.786  29.851  1.00  0.00     0.136 C 
ATOM      2  O   UNL     1      14.280  30.278  29.957  1.00  0.00    -0.299 OA
ENDROOT
BRANCH   1   3
ATOM      3  C   UNL     1      15.553  32.252  30.209  1.00  0.00     0.053 C 
ATOM      4  C   UNL     1      16.274  33.008  29.086  1.00  0.00     0.016 C 
BRANCH   3   5
ATOM      5  C   UNL     1      16.284  32.429  31.554  1.00  0.00     0.015 C 
BRANCH   5   6
ATOM      6  C   UNL     1      17.623  33.170  31.389  1.00  0.00     0.028 C 
BRANCH   6   7
ATOM      7  C   UNL     1      18.702  32.504  32.202  1.00  0.00    -0.028 C 
ATOM      8  C   UNL     1      19.485  31.493  31.756  1.00  0.00    -0.070 CG0
ATOM      9  C   UNL     1      20.568  30.981  32.672  1.00  0.00     0.039 C 
ATOM     10  G   UNL     1      19.308  30.850  30.390  1.00  0.00     0.000 G0
ENDBRANCH   6   7
ENDBRANCH   5   6
ENDBRANCH   3   5
ENDBRANCH   1   3
BRANCH   1  11
ATOM     11  C   UNL     1      16.531  29.938  29.340  1.00  0.00     0.087 C 
BRANCH  11  12
ATOM     12  C   UNL     1      17.261  29.183  30.483  1.00  0.00     0.066 C 
BRANCH  12  13
ATOM     13  C   UNL     1      18.763  29.434  30.446  1.00  0.00     0.140 C 
ATOM     14  O   UNL     1      19.540  28.494  30.538  1.00  0.00    -0.299 OA
BRANCH  13  15
ATOM     15  C   UNL     1      19.316  30.837  30.364  1.00  0.00     0.106 CG0
ATOM     16  G   UNL     1      19.483  31.469  31.737  1.00  0.00     0.000 G0
ENDBRANCH  13  15
ENDBRANCH  12  13
BRANCH  12  17
ATOM     17  C   UNL     1      16.915  27.661  30.488  1.00  0.00    -0.006 C 
ATOM     18  C   UNL     1      16.684  27.131  29.065  1.00  0.00     0.008 C 
ATOM     19  C   UNL     1      15.726  27.290  31.392  1.00  0.00     0.008 C 
ENDBRANCH  12  17
ENDBRANCH  11  12
ENDBRANCH   1  11
TORSDOF 1
ENDMDL
MODEL 5
REMARK VINA RESULT:    -3.489      2.269      4.063
REMARK INTER + INTRA:          -5.589
REMARK INTER:                  -5.885
REMARK INTRA:                   0.296
REMARK UNBOUND:                -0.265
REMARK SMILES CC1=CCC[C@@H](C)C(=O)C[C@@H](C(C)C)C(=O)C1
REMARK SMILES IDX 8 1 9 2 6 3 7 4 5 5 4 6 3 7 2 8 1 9 10 11 11 12 15 13 16 14
REMARK SMILES IDX 17 15 12 17 13 18 14 19
REMARK H PARENT
REMARK Flexibility Score: 70.00
ROOT
ATOM      1  C   UNL     1      22.071  27.188  28.695  1.00  0.00     0.136 C 
ATOM      2  O   UNL     1      22.559  26.096  28.442  1.00  0.00    -0.299 OA
ENDROOT
BRANCH   1   3
ATOM      3  C   UNL     1      22.913  28.431  28.475  1.00  0.00     0.053 C 
ATOM      4  C   UNL     1      23.980  28.183  27.401  1.00  0.00     0.016 C 
BRANCH   3   5
ATOM      5  C   UNL     1      23.553  28.924  29.787  1.00  0.00     0.015 C 
BRANCH   5   6
ATOM      6  C   UNL     1      22.503  29.172  30.884  1.00  0.00     0.028 C 
BRANCH   6   7
ATOM      7  C   UNL     1      21.894  30.542  30.737  1.00  0.00    -0.028 C 
ATOM      8  C   UNL     1      20.577  30.779  30.537  1.00  0.00    -0.070 CG0
ATOM      9  C   UNL     1      20.117  32.214  30.478  1.00  0.00     0.039 C 
ATOM     10  G   UNL     1      19.554  29.668  30.355  1.00  0.00     0.000 G0
ENDBRANCH   6   7
ENDBRANCH   5   6
ENDBRANCH   3   5
ENDBRANCH   1   3
BRANCH   1  11
ATOM     11  C   UNL     1      20.663  27.244  29.245  1.00  0.00     0.087 C 
BRANCH  11  12
ATOM     12  C   UNL     1      19.694  28.013  28.305  1.00  0.00     0.066 C 
BRANCH  12  13
ATOM     13  C   UNL     1      19.273  29.347  28.909  1.00  0.00     0.140 C 
ATOM     14  O   UNL     1      18.763  30.202  28.199  1.00  0.00    -0.299 OA
BRANCH  13  15
ATOM     15  C   UNL     1      19.538  29.660  30.362  1.00  0.00     0.106 CG0
ATOM     16  G   UNL     1      20.561  30.772  30.533  1.00  0.00     0.000 G0
ENDBRANCH  13  15
ENDBRANCH  12  13
BRANCH  12  17
ATOM     17  C   UNL     1      18.471  27.138  27.890  1.00  0.00    -0.006 C 
ATOM     18  C   UNL     1      17.355  27.192  28.945  1.00  0.00     0.008 C 
ATOM     19  C   UNL     1      18.825  25.676  27.567  1.00  0.00     0.008 C 
ENDBRANCH  12  17
ENDBRANCH  11  12
ENDBRANCH   1  11
TORSDOF 1
ENDMDL
MODEL 6
REMARK VINA RESULT:    -3.369      2.096      3.025
REMARK INTER + INTRA:          -5.407
REMARK INTER:                  -5.673
REMARK INTRA:                   0.266
REMARK UNBOUND:                -0.265
REMARK SMILES CC1=CCC[C@@H](C)C(=O)C[C@@H](C(C)C)C(=O)C1
REMARK SMILES IDX 8 1 9 2 6 3 7 4 5 5 4 6 3 7 2 8 1 9 10 11 11 12 15 13 16 14
REMARK SMILES IDX 17 15 12 17 13 18 14 19
REMARK H PARENT
REMARK Flexibility Score: 70.00
ROOT
ATOM      1  C   UNL     1      18.370  27.754  27.917  1.00  0.00     0.136 C 
ATOM      2  O   UNL     1      18.382  28.455  26.915  1.00  0.00    -0.299 OA
ENDROOT
BRANCH   1   3
ATOM      3  C   UNL     1      18.157  26.260  27.759  1.00  0.00     0.053 C 
ATOM      4  C   UNL     1      17.404  25.686  28.966  1.00  0.00     0.016 C 
BRANCH   3   5
ATOM      5  C   UNL     1      19.488  25.517  27.533  1.00  0.00     0.015 C 
BRANCH   5   6
ATOM      6  C   UNL     1      20.481  25.748  28.686  1.00  0.00     0.028 C 
BRANCH   6   7
ATOM      7  C   UNL     1      21.644  26.586  28.225  1.00  0.00    -0.028 C 
ATOM      8  C   UNL     1      22.053  27.728  28.827  1.00  0.00    -0.070 CG0
ATOM      9  C   UNL     1      23.280  28.414  28.281  1.00  0.00     0.039 C 
ATOM     10  G   UNL     1      21.324  28.348  30.008  1.00  0.00     0.000 G0
ENDBRANCH   6   7
ENDBRANCH   5   6
ENDBRANCH   3   5
ENDBRANCH   1   3
BRANCH   1  11
ATOM     11  C   UNL     1      18.536  28.415  29.268  1.00  0.00     0.087 C 
BRANCH  11  12
ATOM     12  C   UNL     1      19.265  29.782  29.168  1.00  0.00     0.066 C 
BRANCH  12  13
ATOM     13  C   UNL     1      20.695  29.689  29.687  1.00  0.00     0.140 C 
ATOM     14  O   UNL     1      21.375  30.702  29.783  1.00  0.00    -0.299 OA
BRANCH  13  15
ATOM     15  C   UNL     1      21.316  28.355  30.024  1.00  0.00     0.106 CG0
ATOM     16  G   UNL     1      22.047  27.745  28.838  1.00  0.00     0.000 G0
ENDBRANCH  13  15
ENDBRANCH  12  13
BRANCH  12  17
ATOM     17  C   UNL     1      18.457  30.923  29.860  1.00  0.00    -0.006 C 
ATOM     18  C   UNL     1      16.966  30.573  29.968  1.00  0.00     0.008 C 
ATOM     19  C   UNL     1      18.631  32.304  29.202  1.00  0.00     0.008 C 
ENDBRANCH  12  17
ENDBRANCH  11  12
ENDBRANCH   1  11
TORSDOF 1
ENDMDL
MODEL 7
REMARK VINA RESULT:    -3.367      2.440      4.223
REMARK INTER + INTRA:          -5.403
REMARK INTER:                  -4.964
REMARK INTRA:                  -0.439
REMARK UNBOUND:                -0.265
REMARK SMILES CC1=CCC[C@@H](C)C(=O)C[C@@H](C(C)C)C(=O)C1
REMARK SMILES IDX 8 1 9 2 6 3 7 4 5 5 4 6 3 7 2 8 1 9 10 11 11 12 15 13 16 14
REMARK SMILES IDX 17 15 12 17 13 18 14 19
REMARK H PARENT
REMARK Flexibility Score: 70.00
ROOT
ATOM      1  C   UNL     1      16.483  30.455  31.800  1.00  0.00     0.136 C 
ATOM      2  O   UNL     1      16.195  30.289  32.977  1.00  0.00    -0.299 OA
ENDROOT
BRANCH   1   3
ATOM      3  C   UNL     1      15.449  30.117  30.742  1.00  0.00     0.053 C 
ATOM      4  C   UNL     1      14.254  31.076  30.823  1.00  0.00     0.016 C 
BRANCH   3   5
ATOM      5  C   UNL     1      14.989  28.650  30.845  1.00  0.00     0.015 C 
BRANCH   5   6
ATOM      6  C   UNL     1      16.175  27.670  30.814  1.00  0.00     0.028 C 
BRANCH   6   7
ATOM      7  C   UNL     1      16.670  27.479  29.405  1.00  0.00    -0.028 C 
ATOM      8  C   UNL     1      17.915  27.794  28.979  1.00  0.00    -0.070 CG0
ATOM      9  C   UNL     1      18.276  27.476  27.550  1.00  0.00     0.039 C 
ATOM     10  G   UNL     1      18.949  28.464  29.870  1.00  0.00     0.000 G0
ENDBRANCH   6   7
ENDBRANCH   5   6
ENDBRANCH   3   5
ENDBRANCH   1   3
BRANCH   1  11
ATOM     11  C   UNL     1      17.867  30.960  31.455  1.00  0.00     0.087 C 
BRANCH  11  12
ATOM     12  C   UNL     1      18.122  30.977  29.924  1.00  0.00     0.066 C 
BRANCH  12  13
ATOM     13  C   UNL     1      19.150  29.928  29.519  1.00  0.00     0.140 C 
ATOM     14  O   UNL     1      20.123  30.254  28.854  1.00  0.00    -0.299 OA
BRANCH  13  15
ATOM     15  C   UNL     1      18.955  28.472  29.868  1.00  0.00     0.106 CG0
ATOM     16  G   UNL     1      17.920  27.801  28.978  1.00  0.00     0.000 G0
ENDBRANCH  13  15
ENDBRANCH  12  13
BRANCH  12  17
ATOM     17  C   UNL     1      18.500  32.403  29.413  1.00  0.00    -0.006 C 
ATOM     18  C   UNL     1      18.995  33.299  30.558  1.00  0.00     0.008 C 
ATOM     19  C   UNL     1      17.375  33.109  28.635  1.00  0.00     0.008 C 
ENDBRANCH  12  17
ENDBRANCH  11  12
ENDBRANCH   1  11
TORSDOF 1
ENDMDL
MODEL 8
REMARK VINA RESULT:    -3.350      2.182      4.344
REMARK INTER + INTRA:          -5.377
REMARK INTER:                  -5.107
REMARK INTRA:                  -0.270
REMARK UNBOUND:                -0.265
REMARK SMILES CC1=CCC[C@@H](C)C(=O)C[C@@H](C(C)C)C(=O)C1
REMARK SMILES IDX 8 1 9 2 6 3 7 4 5 5 4 6 3 7 2 8 1 9 10 11 11 12 15 13 16 14
REMARK SMILES IDX 17 15 12 17 13 18 14 19
REMARK H PARENT
REMARK Flexibility Score: 70.00
ROOT
ATOM      1  C   UNL     1      15.636  30.283  30.532  1.00  0.00     0.136 C 
ATOM      2  O   UNL     1      14.845  30.090  31.446  1.00  0.00    -0.299 OA
ENDROOT
BRANCH   1   3
ATOM      3  C   UNL     1      16.354  31.617  30.460  1.00  0.00     0.053 C 
ATOM      4  C   UNL     1      16.147  32.273  29.088  1.00  0.00     0.016 C 
BRANCH   3   5
ATOM      5  C   UNL     1      17.854  31.473  30.784  1.00  0.00     0.015 C 
BRANCH   5   6
ATOM      6  C   UNL     1      18.728  31.560  29.520  1.00  0.00     0.028 C 
BRANCH   6   7
ATOM      7  C   UNL     1      19.834  30.539  29.568  1.00  0.00    -0.028 C 
ATOM      8  C   UNL     1      19.788  29.328  28.965  1.00  0.00    -0.070 CG0
ATOM      9  C   UNL     1      21.009  28.448  29.052  1.00  0.00     0.039 C 
ATOM     10  G   UNL     1      18.562  28.819  28.224  1.00  0.00     0.000 G0
ENDBRANCH   6   7
ENDBRANCH   5   6
ENDBRANCH   3   5
ENDBRANCH   1   3
BRANCH   1  11
ATOM     11  C   UNL     1      15.835  29.193  29.502  1.00  0.00     0.087 C 
BRANCH  11  12
ATOM     12  C   UNL     1      16.761  28.058  30.017  1.00  0.00     0.066 C 
BRANCH  12  13
ATOM     13  C   UNL     1      17.845  27.720  29.001  1.00  0.00     0.140 C 
ATOM     14  O   UNL     1      18.183  26.556  28.836  1.00  0.00    -0.299 OA
BRANCH  13  15
ATOM     15  C   UNL     1      18.561  28.807  28.236  1.00  0.00     0.106 CG0
ATOM     16  G   UNL     1      19.796  29.307  28.969  1.00  0.00     0.000 G0
ENDBRANCH  13  15
ENDBRANCH  12  13
BRANCH  12  17
ATOM     17  C   UNL     1      15.950  26.801  30.459  1.00  0.00    -0.006 C 
ATOM     18  C   UNL     1      14.639  26.669  29.669  1.00  0.00     0.008 C 
ATOM     19  C   UNL     1      15.668  26.734  31.970  1.00  0.00     0.008 C 
ENDBRANCH  12  17
ENDBRANCH  11  12
ENDBRANCH   1  11
TORSDOF 1
ENDMDL
MODEL 9
REMARK VINA RESULT:    -3.349      1.905      4.267
REMARK INTER + INTRA:          -5.376
REMARK INTER:                  -5.144
REMARK INTRA:                  -0.232
REMARK UNBOUND:                -0.265
REMARK SMILES CC1=CCC[C@@H](C)C(=O)C[C@@H](C(C)C)C(=O)C1
REMARK SMILES IDX 8 1 9 2 6 3 7 4 5 5 4 6 3 7 2 8 1 9 10 11 11 12 15 13 16 14
REMARK SMILES IDX 17 15 12 17 13 18 14 19
REMARK H PARENT
REMARK Flexibility Score: 70.00
ROOT
ATOM      1  C   UNL     1      18.534  28.147  28.012  1.00  0.00     0.136 C 
ATOM      2  O   UNL     1      18.657  27.575  26.937  1.00  0.00    -0.299 OA
ENDROOT
BRANCH   1   3
ATOM      3  C   UNL     1      17.615  27.543  29.057  1.00  0.00     0.053 C 
ATOM      4  C   UNL     1      17.496  26.026  28.867  1.00  0.00     0.016 C 
BRANCH   3   5
ATOM      5  C   UNL     1      16.227  28.212  29.047  1.00  0.00     0.015 C 
BRANCH   5   6
ATOM      6  C   UNL     1      15.970  29.028  30.327  1.00  0.00     0.028 C 
BRANCH   6   7
ATOM      7  C   UNL     1      15.671  30.465  29.990  1.00  0.00    -0.028 C 
ATOM      8  C   UNL     1      16.497  31.504  30.257  1.00  0.00    -0.070 CG0
ATOM      9  C   UNL     1      16.080  32.876  29.792  1.00  0.00     0.039 C 
ATOM     10  G   UNL     1      17.808  31.346  31.013  1.00  0.00     0.000 G0
ENDBRANCH   6   7
ENDBRANCH   5   6
ENDBRANCH   3   5
ENDBRANCH   1   3
BRANCH   1  11
ATOM     11  C   UNL     1      19.281  29.443  28.234  1.00  0.00     0.087 C 
BRANCH  11  12
ATOM     12  C   UNL     1      19.485  29.754  29.742  1.00  0.00     0.066 C 
BRANCH  12  13
ATOM     13  C   UNL     1      18.993  31.153  30.093  1.00  0.00     0.140 C 
ATOM     14  O   UNL     1      19.588  32.132  29.665  1.00  0.00    -0.299 OA
BRANCH  13  15
ATOM     15  C   UNL     1      17.819  31.354  31.020  1.00  0.00     0.106 CG0
ATOM     16  G   UNL     1      16.508  31.503  30.264  1.00  0.00     0.000 G0
ENDBRANCH  13  15
ENDBRANCH  12  13
BRANCH  12  17
ATOM     17  C   UNL     1      20.960  29.515  30.190  1.00  0.00    -0.006 C 
ATOM     18  C   UNL     1      21.420  28.083  29.879  1.00  0.00     0.008 C 
ATOM     19  C   UNL     1      21.229  29.850  31.668  1.00  0.00     0.008 C 
ENDBRANCH  12  17
ENDBRANCH  11  12
ENDBRANCH   1  11
TORSDOF 1
ENDMDL
