MODEL 1
REMARK VINA RESULT:    -1.918      0.000      0.000
REMARK INTER + INTRA:          -8.161
REMARK INTER:                  -4.161
REMARK INTRA:                  -3.999
REMARK UNBOUND:                -3.999
REMARK SMILES CCCCCCCCCCCCCCCCCCCCCC(=O)[O-]
REMARK SMILES IDX 12 1 11 2 10 3 9 4 8 5 7 6 6 7 5 8 4 9 3 10 2 11 1 12 13 13
REMARK SMILES IDX 14 14 15 15 16 16 17 17 18 18 19 19 20 20 21 21 22 22 23 23
REMARK SMILES IDX 24 24
REMARK H PARENT
REMARK Flexibility Score: inf
ROOT
ATOM      1  C   UNL     1     176.749 204.490 199.733  1.00  0.00     0.000 C 
ENDROOT
BRANCH   1   2
ATOM      2  C   UNL     1     175.421 204.512 200.504  1.00  0.00     0.000 C 
BRANCH   2   3
ATOM      3  C   UNL     1     175.504 205.365 201.784  1.00  0.00     0.000 C 
BRANCH   3   4
ATOM      4  C   UNL     1     176.760 206.253 201.842  1.00  0.00    -0.000 C 
BRANCH   4   5
ATOM      5  C   UNL     1     176.509 207.754 201.599  1.00  0.00    -0.000 C 
BRANCH   5   6
ATOM      6  C   UNL     1     175.163 208.040 200.914  1.00  0.00    -0.000 C 
BRANCH   6   7
ATOM      7  C   UNL     1     175.325 208.125 199.389  1.00  0.00    -0.000 C 
BRANCH   7   8
ATOM      8  C   UNL     1     174.120 207.543 198.632  1.00  0.00    -0.000 C 
BRANCH   8   9
ATOM      9  C   UNL     1     172.832 207.552 199.470  1.00  0.00    -0.000 C 
BRANCH   9  10
ATOM     10  C   UNL     1     172.217 206.148 199.542  1.00  0.00    -0.000 C 
BRANCH  10  11
ATOM     11  C   UNL     1     171.895 205.716 200.982  1.00  0.00    -0.003 C 
ATOM     12  C   UNL     1     171.849 206.893 201.958  1.00  0.00     0.004 C 
ENDBRANCH  10  11
ENDBRANCH   9  10
ENDBRANCH   8   9
ENDBRANCH   7   8
ENDBRANCH   6   7
ENDBRANCH   5   6
ENDBRANCH   4   5
ENDBRANCH   3   4
ENDBRANCH   2   3
ENDBRANCH   1   2
BRANCH   1  13
ATOM     13  C   UNL     1     177.485 203.146 199.851  1.00  0.00     0.000 C 
BRANCH  13  14
ATOM     14  C   UNL     1     179.000 203.272 199.606  1.00  0.00     0.000 C 
BRANCH  14  15
ATOM     15  C   UNL     1     179.701 204.370 200.430  1.00  0.00     0.000 C 
BRANCH  15  16
ATOM     16  C   UNL     1     180.438 205.405 199.559  1.00  0.00     0.000 C 
BRANCH  16  17
ATOM     17  C   UNL     1     180.019 206.852 199.902  1.00  0.00     0.000 C 
BRANCH  17  18
ATOM     18  C   UNL     1     178.888 207.401 199.012  1.00  0.00     0.000 C 
BRANCH  18  19
ATOM     19  C   UNL     1     179.046 207.016 197.531  1.00  0.00     0.000 C 
BRANCH  19  20
ATOM     20  C   UNL     1     177.704 206.673 196.866  1.00  0.00     0.006 C 
BRANCH  20  21
ATOM     21  C   UNL     1     177.122 207.864 196.090  1.00  0.00     0.053 C 
BRANCH  21  22
ATOM     22  C   UNL     1     176.629 207.431 194.745  1.00  0.00     0.041 C 
ATOM     23  O   UNL     1     176.882 208.125 193.725  1.00  0.00    -0.550 OA
ATOM     24  O   UNL     1     175.924 206.241 194.611  1.00  0.00    -0.550 OA
ENDBRANCH  21  22
ENDBRANCH  20  21
ENDBRANCH  19  20
ENDBRANCH  18  19
ENDBRANCH  17  18
ENDBRANCH  16  17
ENDBRANCH  15  16
ENDBRANCH  14  15
ENDBRANCH  13  14
ENDBRANCH   1  13
TORSDOF 20
ENDMDL
MODEL 2
REMARK VINA RESULT:    -1.788      2.387      3.242
REMARK INTER + INTRA:          -7.877
REMARK INTER:                  -3.872
REMARK INTRA:                  -4.005
REMARK UNBOUND:                -3.999
REMARK SMILES CCCCCCCCCCCCCCCCCCCCCC(=O)[O-]
REMARK SMILES IDX 12 1 11 2 10 3 9 4 8 5 7 6 6 7 5 8 4 9 3 10 2 11 1 12 13 13
REMARK SMILES IDX 14 14 15 15 16 16 17 17 18 18 19 19 20 20 21 21 22 22 23 23
REMARK SMILES IDX 24 24
REMARK H PARENT
REMARK Flexibility Score: inf
ROOT
ATOM      1  C   UNL     1     177.937 205.636 201.362  1.00  0.00     0.000 C 
ENDROOT
BRANCH   1   2
ATOM      2  C   UNL     1     176.975 206.300 202.358  1.00  0.00     0.000 C 
BRANCH   2   3
ATOM      3  C   UNL     1     176.483 207.674 201.865  1.00  0.00     0.000 C 
BRANCH   3   4
ATOM      4  C   UNL     1     176.865 207.968 200.403  1.00  0.00    -0.000 C 
BRANCH   4   5
ATOM      5  C   UNL     1     175.676 208.125 199.437  1.00  0.00    -0.000 C 
BRANCH   5   6
ATOM      6  C   UNL     1     175.896 207.426 198.085  1.00  0.00    -0.000 C 
BRANCH   6   7
ATOM      7  C   UNL     1     176.008 205.905 198.261  1.00  0.00    -0.000 C 
BRANCH   7   8
ATOM      8  C   UNL     1     174.744 205.160 197.800  1.00  0.00    -0.000 C 
BRANCH   8   9
ATOM      9  C   UNL     1     173.723 204.968 198.933  1.00  0.00    -0.000 C 
BRANCH   9  10
ATOM     10  C   UNL     1     174.432 204.695 200.266  1.00  0.00    -0.000 C 
BRANCH  10  11
ATOM     11  C   UNL     1     173.536 204.982 201.483  1.00  0.00    -0.003 C 
ATOM     12  C   UNL     1     173.063 206.435 201.541  1.00  0.00     0.004 C 
ENDBRANCH  10  11
ENDBRANCH   9  10
ENDBRANCH   8   9
ENDBRANCH   7   8
ENDBRANCH   6   7
ENDBRANCH   5   6
ENDBRANCH   4   5
ENDBRANCH   3   4
ENDBRANCH   2   3
ENDBRANCH   1   2
BRANCH   1  13
ATOM     13  C   UNL     1     179.301 205.301 201.984  1.00  0.00     0.000 C 
BRANCH  13  14
ATOM     14  C   UNL     1     180.480 205.617 201.045  1.00  0.00     0.000 C 
BRANCH  14  15
ATOM     15  C   UNL     1     180.446 207.021 200.412  1.00  0.00     0.000 C 
BRANCH  15  16
ATOM     16  C   UNL     1     180.820 207.022 198.917  1.00  0.00     0.000 C 
BRANCH  16  17
ATOM     17  C   UNL     1     179.571 207.027 198.008  1.00  0.00     0.000 C 
BRANCH  17  18
ATOM     18  C   UNL     1     179.544 205.880 196.980  1.00  0.00     0.000 C 
BRANCH  18  19
ATOM     19  C   UNL     1     180.044 204.543 197.557  1.00  0.00     0.000 C 
BRANCH  19  20
ATOM     20  C   UNL     1     179.404 203.329 196.865  1.00  0.00     0.006 C 
BRANCH  20  21
ATOM     21  C   UNL     1     178.046 203.672 196.235  1.00  0.00     0.053 C 
BRANCH  21  22
ATOM     22  C   UNL     1     177.124 202.496 196.288  1.00  0.00     0.041 C 
ATOM     23  O   UNL     1     176.906 201.814 195.251  1.00  0.00    -0.550 OA
ATOM     24  O   UNL     1     176.532 202.127 197.490  1.00  0.00    -0.550 OA
ENDBRANCH  21  22
ENDBRANCH  20  21
ENDBRANCH  19  20
ENDBRANCH  18  19
ENDBRANCH  17  18
ENDBRANCH  16  17
ENDBRANCH  15  16
ENDBRANCH  14  15
ENDBRANCH  13  14
ENDBRANCH   1  13
TORSDOF 20
ENDMDL
MODEL 3
REMARK VINA RESULT:    -1.782      2.184      3.986
REMARK INTER + INTRA:          -7.865
REMARK INTER:                  -3.457
REMARK INTRA:                  -4.408
REMARK UNBOUND:                -3.999
REMARK SMILES CCCCCCCCCCCCCCCCCCCCCC(=O)[O-]
REMARK SMILES IDX 12 1 11 2 10 3 9 4 8 5 7 6 6 7 5 8 4 9 3 10 2 11 1 12 13 13
REMARK SMILES IDX 14 14 15 15 16 16 17 17 18 18 19 19 20 20 21 21 22 22 23 23
REMARK SMILES IDX 24 24
REMARK H PARENT
REMARK Flexibility Score: inf
ROOT
ATOM      1  C   UNL     1     177.862 204.862 198.139  1.00  0.00     0.000 C 
ENDROOT
BRANCH   1   2
ATOM      2  C   UNL     1     177.512 203.792 199.182  1.00  0.00     0.000 C 
BRANCH   2   3
ATOM      3  C   UNL     1     176.109 204.000 199.785  1.00  0.00     0.000 C 
BRANCH   3   4
ATOM      4  C   UNL     1     176.113 204.066 201.322  1.00  0.00    -0.000 C 
BRANCH   4   5
ATOM      5  C   UNL     1     177.503 204.232 201.965  1.00  0.00    -0.000 C 
BRANCH   5   6
ATOM      6  C   UNL     1     177.818 205.684 202.363  1.00  0.00    -0.000 C 
BRANCH   6   7
ATOM      7  C   UNL     1     176.544 206.540 202.384  1.00  0.00    -0.000 C 
BRANCH   7   8
ATOM      8  C   UNL     1     176.620 207.740 201.425  1.00  0.00    -0.000 C 
BRANCH   8   9
ATOM      9  C   UNL     1     175.435 207.794 200.448  1.00  0.00    -0.000 C 
BRANCH   9  10
ATOM     10  C   UNL     1     174.103 207.652 201.197  1.00  0.00    -0.000 C 
BRANCH  10  11
ATOM     11  C   UNL     1     172.976 207.112 200.302  1.00  0.00    -0.003 C 
ATOM     12  C   UNL     1     172.819 205.593 200.396  1.00  0.00     0.004 C 
ENDBRANCH  10  11
ENDBRANCH   9  10
ENDBRANCH   8   9
ENDBRANCH   7   8
ENDBRANCH   6   7
ENDBRANCH   5   6
ENDBRANCH   4   5
ENDBRANCH   3   4
ENDBRANCH   2   3
ENDBRANCH   1   2
BRANCH   1  13
ATOM     13  C   UNL     1     178.466 206.129 198.764  1.00  0.00     0.000 C 
BRANCH  13  14
ATOM     14  C   UNL     1     178.531 207.309 197.777  1.00  0.00     0.000 C 
BRANCH  14  15
ATOM     15  C   UNL     1     178.037 206.991 196.352  1.00  0.00     0.000 C 
BRANCH  15  16
ATOM     16  C   UNL     1     176.871 207.890 195.899  1.00  0.00     0.000 C 
BRANCH  16  17
ATOM     17  C   UNL     1     175.847 208.125 197.031  1.00  0.00     0.000 C 
BRANCH  17  18
ATOM     18  C   UNL     1     174.496 207.420 196.806  1.00  0.00     0.000 C 
BRANCH  18  19
ATOM     19  C   UNL     1     174.557 205.904 197.071  1.00  0.00     0.000 C 
BRANCH  19  20
ATOM     20  C   UNL     1     174.330 205.076 195.797  1.00  0.00     0.006 C 
BRANCH  20  21
ATOM     21  C   UNL     1     175.596 204.320 195.365  1.00  0.00     0.053 C 
BRANCH  21  22
ATOM     22  C   UNL     1     175.414 202.844 195.528  1.00  0.00     0.041 C 
ATOM     23  O   UNL     1     175.428 202.327 196.676  1.00  0.00    -0.550 OA
ATOM     24  O   UNL     1     175.191 202.042 194.415  1.00  0.00    -0.550 OA
ENDBRANCH  21  22
ENDBRANCH  20  21
ENDBRANCH  19  20
ENDBRANCH  18  19
ENDBRANCH  17  18
ENDBRANCH  16  17
ENDBRANCH  15  16
ENDBRANCH  14  15
ENDBRANCH  13  14
ENDBRANCH   1  13
TORSDOF 20
ENDMDL
MODEL 4
REMARK VINA RESULT:    -1.767      2.996      5.407
REMARK INTER + INTRA:          -7.832
REMARK INTER:                  -3.840
REMARK INTRA:                  -3.992
REMARK UNBOUND:                -3.999
REMARK SMILES CCCCCCCCCCCCCCCCCCCCCC(=O)[O-]
REMARK SMILES IDX 12 1 11 2 10 3 9 4 8 5 7 6 6 7 5 8 4 9 3 10 2 11 1 12 13 13
REMARK SMILES IDX 14 14 15 15 16 16 17 17 18 18 19 19 20 20 21 21 22 22 23 23
REMARK SMILES IDX 24 24
REMARK H PARENT
REMARK Flexibility Score: inf
ROOT
ATOM      1  C   UNL     1     176.422 203.570 201.615  1.00  0.00     0.000 C 
ENDROOT
BRANCH   1   2
ATOM      2  C   UNL     1     176.759 202.868 200.291  1.00  0.00     0.000 C 
BRANCH   2   3
ATOM      3  C   UNL     1     176.337 203.701 199.066  1.00  0.00     0.000 C 
BRANCH   3   4
ATOM      4  C   UNL     1     177.156 203.379 197.802  1.00  0.00    -0.000 C 
BRANCH   4   5
ATOM      5  C   UNL     1     176.625 204.013 196.502  1.00  0.00    -0.000 C 
BRANCH   5   6
ATOM      6  C   UNL     1     175.163 204.478 196.607  1.00  0.00    -0.000 C 
BRANCH   6   7
ATOM      7  C   UNL     1     175.059 206.006 196.497  1.00  0.00    -0.000 C 
BRANCH   7   8
ATOM      8  C   UNL     1     175.178 206.506 195.048  1.00  0.00    -0.000 C 
BRANCH   8   9
ATOM      9  C   UNL     1     175.667 207.960 194.960  1.00  0.00    -0.000 C 
BRANCH   9  10
ATOM     10  C   UNL     1     177.020 208.125 195.665  1.00  0.00    -0.000 C 
BRANCH  10  11
ATOM     11  C   UNL     1     178.103 207.197 195.090  1.00  0.00    -0.003 C 
ATOM     12  C   UNL     1     179.432 207.301 195.839  1.00  0.00     0.004 C 
ENDBRANCH  10  11
ENDBRANCH   9  10
ENDBRANCH   8   9
ENDBRANCH   7   8
ENDBRANCH   6   7
ENDBRANCH   5   6
ENDBRANCH   4   5
ENDBRANCH   3   4
ENDBRANCH   2   3
ENDBRANCH   1   2
BRANCH   1  13
ATOM     13  C   UNL     1     177.647 204.225 202.271  1.00  0.00     0.000 C 
BRANCH  13  14
ATOM     14  C   UNL     1     177.394 205.688 202.681  1.00  0.00     0.000 C 
BRANCH  14  15
ATOM     15  C   UNL     1     176.044 206.268 202.215  1.00  0.00     0.000 C 
BRANCH  15  16
ATOM     16  C   UNL     1     176.193 207.549 201.371  1.00  0.00     0.000 C 
BRANCH  16  17
ATOM     17  C   UNL     1     176.027 207.269 199.861  1.00  0.00     0.000 C 
BRANCH  17  18
ATOM     18  C   UNL     1     177.348 207.316 199.070  1.00  0.00     0.000 C 
BRANCH  18  19
ATOM     19  C   UNL     1     178.528 207.853 199.900  1.00  0.00     0.000 C 
BRANCH  19  20
ATOM     20  C   UNL     1     179.819 207.052 199.673  1.00  0.00     0.006 C 
BRANCH  20  21
ATOM     21  C   UNL     1     179.534 205.614 199.213  1.00  0.00     0.053 C 
BRANCH  21  22
ATOM     22  C   UNL     1     180.395 204.640 199.954  1.00  0.00     0.041 C 
ATOM     23  O   UNL     1     180.609 203.494 199.477  1.00  0.00    -0.550 OA
ATOM     24  O   UNL     1     180.993 205.009 201.153  1.00  0.00    -0.550 OA
ENDBRANCH  21  22
ENDBRANCH  20  21
ENDBRANCH  19  20
ENDBRANCH  18  19
ENDBRANCH  17  18
ENDBRANCH  16  17
ENDBRANCH  15  16
ENDBRANCH  14  15
ENDBRANCH  13  14
ENDBRANCH   1  13
TORSDOF 20
ENDMDL
MODEL 5
REMARK VINA RESULT:    -1.766      3.177      6.055
REMARK INTER + INTRA:          -7.829
REMARK INTER:                  -3.941
REMARK INTRA:                  -3.889
REMARK UNBOUND:                -3.999
REMARK SMILES CCCCCCCCCCCCCCCCCCCCCC(=O)[O-]
REMARK SMILES IDX 12 1 11 2 10 3 9 4 8 5 7 6 6 7 5 8 4 9 3 10 2 11 1 12 13 13
REMARK SMILES IDX 14 14 15 15 16 16 17 17 18 18 19 19 20 20 21 21 22 22 23 23
REMARK SMILES IDX 24 24
REMARK H PARENT
REMARK Flexibility Score: inf
ROOT
ATOM      1  C   UNL     1     177.312 203.331 197.795  1.00  0.00     0.000 C 
ENDROOT
BRANCH   1   2
ATOM      2  C   UNL     1     177.227 204.301 198.981  1.00  0.00     0.000 C 
BRANCH   2   3
ATOM      3  C   UNL     1     178.190 203.916 200.120  1.00  0.00     0.000 C 
BRANCH   3   4
ATOM      4  C   UNL     1     177.724 204.410 201.502  1.00  0.00    -0.000 C 
BRANCH   4   5
ATOM      5  C   UNL     1     176.201 204.367 201.730  1.00  0.00    -0.000 C 
BRANCH   5   6
ATOM      6  C   UNL     1     175.602 205.739 202.083  1.00  0.00    -0.000 C 
BRANCH   6   7
ATOM      7  C   UNL     1     176.699 206.806 202.207  1.00  0.00    -0.000 C 
BRANCH   7   8
ATOM      8  C   UNL     1     176.388 208.073 201.394  1.00  0.00    -0.000 C 
BRANCH   8   9
ATOM      9  C   UNL     1     176.928 208.002 199.956  1.00  0.00    -0.000 C 
BRANCH   9  10
ATOM     10  C   UNL     1     178.447 207.785 199.954  1.00  0.00    -0.000 C 
BRANCH  10  11
ATOM     11  C   UNL     1     178.980 207.350 198.579  1.00  0.00    -0.003 C 
ATOM     12  C   UNL     1     180.391 206.764 198.648  1.00  0.00     0.004 C 
ENDBRANCH  10  11
ENDBRANCH   9  10
ENDBRANCH   8   9
ENDBRANCH   7   8
ENDBRANCH   6   7
ENDBRANCH   5   6
ENDBRANCH   4   5
ENDBRANCH   3   4
ENDBRANCH   2   3
ENDBRANCH   1   2
BRANCH   1  13
ATOM     13  C   UNL     1     175.956 202.700 197.443  1.00  0.00     0.000 C 
BRANCH  13  14
ATOM     14  C   UNL     1     174.984 202.669 198.637  1.00  0.00     0.000 C 
BRANCH  14  15
ATOM     15  C   UNL     1     173.741 203.569 198.486  1.00  0.00     0.000 C 
BRANCH  15  16
ATOM     16  C   UNL     1     173.767 204.430 197.209  1.00  0.00     0.000 C 
BRANCH  16  17
ATOM     17  C   UNL     1     174.071 205.913 197.517  1.00  0.00     0.000 C 
BRANCH  17  18
ATOM     18  C   UNL     1     173.911 206.286 199.003  1.00  0.00     0.000 C 
BRANCH  18  19
ATOM     19  C   UNL     1     173.255 207.663 199.210  1.00  0.00     0.000 C 
BRANCH  19  20
ATOM     20  C   UNL     1     172.908 207.933 200.683  1.00  0.00     0.006 C 
BRANCH  20  21
ATOM     21  C   UNL     1     171.403 207.794 200.958  1.00  0.00     0.053 C 
BRANCH  21  22
ATOM     22  C   UNL     1     171.156 206.852 202.094  1.00  0.00     0.041 C 
ATOM     23  O   UNL     1     172.057 206.051 202.459  1.00  0.00    -0.550 OA
ATOM     24  O   UNL     1     169.945 206.884 202.774  1.00  0.00    -0.550 OA
ENDBRANCH  21  22
ENDBRANCH  20  21
ENDBRANCH  19  20
ENDBRANCH  18  19
ENDBRANCH  17  18
ENDBRANCH  16  17
ENDBRANCH  15  16
ENDBRANCH  14  15
ENDBRANCH  13  14
ENDBRANCH   1  13
TORSDOF 20
ENDMDL
MODEL 6
REMARK VINA RESULT:    -1.764      2.470      5.032
REMARK INTER + INTRA:          -7.827
REMARK INTER:                  -4.018
REMARK INTRA:                  -3.808
REMARK UNBOUND:                -3.999
REMARK SMILES CCCCCCCCCCCCCCCCCCCCCC(=O)[O-]
REMARK SMILES IDX 12 1 11 2 10 3 9 4 8 5 7 6 6 7 5 8 4 9 3 10 2 11 1 12 13 13
REMARK SMILES IDX 14 14 15 15 16 16 17 17 18 18 19 19 20 20 21 21 22 22 23 23
REMARK SMILES IDX 24 24
REMARK H PARENT
REMARK Flexibility Score: inf
ROOT
ATOM      1  C   UNL     1     176.474 203.776 198.877  1.00  0.00     0.000 C 
ENDROOT
BRANCH   1   2
ATOM      2  C   UNL     1     175.273 203.342 199.729  1.00  0.00     0.000 C 
BRANCH   2   3
ATOM      3  C   UNL     1     173.933 203.810 199.130  1.00  0.00     0.000 C 
BRANCH   3   4
ATOM      4  C   UNL     1     173.761 205.339 199.148  1.00  0.00    -0.000 C 
BRANCH   4   5
ATOM      5  C   UNL     1     173.780 206.015 197.764  1.00  0.00    -0.000 C 
BRANCH   5   6
ATOM      6  C   UNL     1     173.679 205.015 196.600  1.00  0.00    -0.000 C 
BRANCH   6   7
ATOM      7  C   UNL     1     174.952 205.035 195.742  1.00  0.00    -0.000 C 
BRANCH   7   8
ATOM      8  C   UNL     1     175.772 206.323 195.927  1.00  0.00    -0.000 C 
BRANCH   8   9
ATOM      9  C   UNL     1     175.398 207.415 194.911  1.00  0.00    -0.000 C 
BRANCH   9  10
ATOM     10  C   UNL     1     176.655 208.115 194.377  1.00  0.00    -0.000 C 
BRANCH  10  11
ATOM     11  C   UNL     1     177.853 207.991 195.332  1.00  0.00    -0.003 C 
ATOM     12  C   UNL     1     179.148 207.612 194.612  1.00  0.00     0.004 C 
ENDBRANCH  10  11
ENDBRANCH   9  10
ENDBRANCH   8   9
ENDBRANCH   7   8
ENDBRANCH   6   7
ENDBRANCH   5   6
ENDBRANCH   4   5
ENDBRANCH   3   4
ENDBRANCH   2   3
ENDBRANCH   1   2
BRANCH   1  13
ATOM     13  C   UNL     1     177.678 204.216 199.724  1.00  0.00     0.000 C 
BRANCH  13  14
ATOM     14  C   UNL     1     177.450 204.017 201.234  1.00  0.00     0.000 C 
BRANCH  14  15
ATOM     15  C   UNL     1     177.962 205.165 202.125  1.00  0.00     0.000 C 
BRANCH  15  16
ATOM     16  C   UNL     1     176.832 205.922 202.848  1.00  0.00     0.000 C 
BRANCH  16  17
ATOM     17  C   UNL     1     175.908 206.667 201.859  1.00  0.00     0.000 C 
BRANCH  17  18
ATOM     18  C   UNL     1     176.590 207.841 201.133  1.00  0.00     0.000 C 
BRANCH  18  19
ATOM     19  C   UNL     1     176.449 207.766 199.602  1.00  0.00     0.000 C 
BRANCH  19  20
ATOM     20  C   UNL     1     177.807 207.661 198.891  1.00  0.00     0.006 C 
BRANCH  20  21
ATOM     21  C   UNL     1     178.982 207.709 199.880  1.00  0.00     0.053 C 
BRANCH  21  22
ATOM     22  C   UNL     1     180.199 207.069 199.289  1.00  0.00     0.041 C 
ATOM     23  O   UNL     1     181.006 206.443 200.026  1.00  0.00    -0.550 OA
ATOM     24  O   UNL     1     180.423 207.131 197.919  1.00  0.00    -0.550 OA
ENDBRANCH  21  22
ENDBRANCH  20  21
ENDBRANCH  19  20
ENDBRANCH  18  19
ENDBRANCH  17  18
ENDBRANCH  16  17
ENDBRANCH  15  16
ENDBRANCH  14  15
ENDBRANCH  13  14
ENDBRANCH   1  13
TORSDOF 20
ENDMDL
MODEL 7
REMARK VINA RESULT:    -1.752      2.729      5.466
REMARK INTER + INTRA:          -7.800
REMARK INTER:                  -3.702
REMARK INTRA:                  -4.098
REMARK UNBOUND:                -3.999
REMARK SMILES CCCCCCCCCCCCCCCCCCCCCC(=O)[O-]
REMARK SMILES IDX 12 1 11 2 10 3 9 4 8 5 7 6 6 7 5 8 4 9 3 10 2 11 1 12 13 13
REMARK SMILES IDX 14 14 15 15 16 16 17 17 18 18 19 19 20 20 21 21 22 22 23 23
REMARK SMILES IDX 24 24
REMARK H PARENT
REMARK Flexibility Score: inf
ROOT
ATOM      1  C   UNL     1     177.158 204.094 200.361  1.00  0.00     0.000 C 
ENDROOT
BRANCH   1   2
ATOM      2  C   UNL     1     178.666 204.219 200.102  1.00  0.00     0.000 C 
BRANCH   2   3
ATOM      3  C   UNL     1     179.448 204.593 201.375  1.00  0.00     0.000 C 
BRANCH   3   4
ATOM      4  C   UNL     1     180.134 205.968 201.284  1.00  0.00    -0.000 C 
BRANCH   4   5
ATOM      5  C   UNL     1     179.762 206.802 200.043  1.00  0.00    -0.000 C 
BRANCH   5   6
ATOM      6  C   UNL     1     180.938 207.003 199.073  1.00  0.00    -0.000 C 
BRANCH   6   7
ATOM      7  C   UNL     1     180.451 207.056 197.617  1.00  0.00    -0.000 C 
BRANCH   7   8
ATOM      8  C   UNL     1     178.924 207.197 197.508  1.00  0.00    -0.000 C 
BRANCH   8   9
ATOM      9  C   UNL     1     178.340 206.425 196.314  1.00  0.00    -0.000 C 
BRANCH   9  10
ATOM     10  C   UNL     1     177.864 205.032 196.745  1.00  0.00    -0.000 C 
BRANCH  10  11
ATOM     11  C   UNL     1     176.334 204.888 196.694  1.00  0.00    -0.003 C 
ATOM     12  C   UNL     1     175.749 205.248 195.328  1.00  0.00     0.004 C 
ENDBRANCH  10  11
ENDBRANCH   9  10
ENDBRANCH   8   9
ENDBRANCH   7   8
ENDBRANCH   6   7
ENDBRANCH   5   6
ENDBRANCH   4   5
ENDBRANCH   3   4
ENDBRANCH   2   3
ENDBRANCH   1   2
BRANCH   1  13
ATOM     13  C   UNL     1     176.756 204.546 201.774  1.00  0.00     0.000 C 
BRANCH  13  14
ATOM     14  C   UNL     1     175.871 205.806 201.768  1.00  0.00     0.000 C 
BRANCH  14  15
ATOM     15  C   UNL     1     176.622 207.128 202.023  1.00  0.00     0.000 C 
BRANCH  15  16
ATOM     16  C   UNL     1     176.517 208.122 200.850  1.00  0.00     0.000 C 
BRANCH  16  17
ATOM     17  C   UNL     1     176.078 207.428 199.541  1.00  0.00     0.000 C 
BRANCH  17  18
ATOM     18  C   UNL     1     174.902 208.125 198.831  1.00  0.00     0.000 C 
BRANCH  18  19
ATOM     19  C   UNL     1     173.854 207.135 198.291  1.00  0.00     0.000 C 
BRANCH  19  20
ATOM     20  C   UNL     1     173.297 206.213 199.388  1.00  0.00     0.006 C 
BRANCH  20  21
ATOM     21  C   UNL     1     173.550 204.730 199.079  1.00  0.00     0.053 C 
BRANCH  21  22
ATOM     22  C   UNL     1     172.742 203.854 199.983  1.00  0.00     0.041 C 
ATOM     23  O   UNL     1     171.805 203.155 199.516  1.00  0.00    -0.550 OA
ATOM     24  O   UNL     1     173.046 203.781 201.337  1.00  0.00    -0.550 OA
ENDBRANCH  21  22
ENDBRANCH  20  21
ENDBRANCH  19  20
ENDBRANCH  18  19
ENDBRANCH  17  18
ENDBRANCH  16  17
ENDBRANCH  15  16
ENDBRANCH  14  15
ENDBRANCH  13  14
ENDBRANCH   1  13
TORSDOF 20
ENDMDL
MODEL 8
REMARK VINA RESULT:    -1.719      1.960      5.479
REMARK INTER + INTRA:          -7.728
REMARK INTER:                  -3.605
REMARK INTRA:                  -4.123
REMARK UNBOUND:                -3.999
REMARK SMILES CCCCCCCCCCCCCCCCCCCCCC(=O)[O-]
REMARK SMILES IDX 12 1 11 2 10 3 9 4 8 5 7 6 6 7 5 8 4 9 3 10 2 11 1 12 13 13
REMARK SMILES IDX 14 14 15 15 16 16 17 17 18 18 19 19 20 20 21 21 22 22 23 23
REMARK SMILES IDX 24 24
REMARK H PARENT
REMARK Flexibility Score: inf
ROOT
ATOM      1  C   UNL     1     172.526 203.213 199.610  1.00  0.00     0.000 C 
ENDROOT
BRANCH   1   2
ATOM      2  C   UNL     1     173.852 203.562 198.920  1.00  0.00     0.000 C 
BRANCH   2   3
ATOM      3  C   UNL     1     174.981 202.583 199.298  1.00  0.00     0.000 C 
BRANCH   3   4
ATOM      4  C   UNL     1     175.837 203.072 200.480  1.00  0.00    -0.000 C 
BRANCH   4   5
ATOM      5  C   UNL     1     175.779 204.589 200.745  1.00  0.00    -0.000 C 
BRANCH   5   6
ATOM      6  C   UNL     1     176.439 204.998 202.072  1.00  0.00    -0.000 C 
BRANCH   6   7
ATOM      7  C   UNL     1     177.039 206.409 201.979  1.00  0.00    -0.000 C 
BRANCH   7   8
ATOM      8  C   UNL     1     178.232 206.482 201.011  1.00  0.00    -0.000 C 
BRANCH   8   9
ATOM      9  C   UNL     1     178.175 207.713 200.092  1.00  0.00    -0.000 C 
BRANCH   9  10
ATOM     10  C   UNL     1     178.624 207.353 198.669  1.00  0.00    -0.000 C 
BRANCH  10  11
ATOM     11  C   UNL     1     177.440 207.123 197.716  1.00  0.00    -0.003 C 
ATOM     12  C   UNL     1     177.102 205.643 197.535  1.00  0.00     0.004 C 
ENDBRANCH  10  11
ENDBRANCH   9  10
ENDBRANCH   8   9
ENDBRANCH   7   8
ENDBRANCH   6   7
ENDBRANCH   5   6
ENDBRANCH   4   5
ENDBRANCH   3   4
ENDBRANCH   2   3
ENDBRANCH   1   2
BRANCH   1  13
ATOM     13  C   UNL     1     171.913 204.406 200.360  1.00  0.00     0.000 C 
BRANCH  13  14
ATOM     14  C   UNL     1     172.287 204.428 201.854  1.00  0.00     0.000 C 
BRANCH  14  15
ATOM     15  C   UNL     1     172.649 205.818 202.412  1.00  0.00     0.000 C 
BRANCH  15  16
ATOM     16  C   UNL     1     171.662 206.920 201.983  1.00  0.00     0.000 C 
BRANCH  16  17
ATOM     17  C   UNL     1     172.383 208.125 201.339  1.00  0.00     0.000 C 
BRANCH  17  18
ATOM     18  C   UNL     1     173.908 207.946 201.217  1.00  0.00     0.000 C 
BRANCH  18  19
ATOM     19  C   UNL     1     174.395 207.915 199.758  1.00  0.00     0.000 C 
BRANCH  19  20
ATOM     20  C   UNL     1     173.276 207.542 198.773  1.00  0.00     0.006 C 
BRANCH  20  21
ATOM     21  C   UNL     1     173.798 207.388 197.336  1.00  0.00     0.053 C 
BRANCH  21  22
ATOM     22  C   UNL     1     173.070 206.293 196.622  1.00  0.00     0.041 C 
ATOM     23  O   UNL     1     171.816 206.209 196.702  1.00  0.00    -0.550 OA
ATOM     24  O   UNL     1     173.771 205.386 195.837  1.00  0.00    -0.550 OA
ENDBRANCH  21  22
ENDBRANCH  20  21
ENDBRANCH  19  20
ENDBRANCH  18  19
ENDBRANCH  17  18
ENDBRANCH  16  17
ENDBRANCH  15  16
ENDBRANCH  14  15
ENDBRANCH  13  14
ENDBRANCH   1  13
TORSDOF 20
ENDMDL
MODEL 9
REMARK VINA RESULT:    -1.705      1.821      5.189
REMARK INTER + INTRA:          -7.698
REMARK INTER:                  -3.799
REMARK INTRA:                  -3.899
REMARK UNBOUND:                -3.999
REMARK SMILES CCCCCCCCCCCCCCCCCCCCCC(=O)[O-]
REMARK SMILES IDX 12 1 11 2 10 3 9 4 8 5 7 6 6 7 5 8 4 9 3 10 2 11 1 12 13 13
REMARK SMILES IDX 14 14 15 15 16 16 17 17 18 18 19 19 20 20 21 21 22 22 23 23
REMARK SMILES IDX 24 24
REMARK H PARENT
REMARK Flexibility Score: inf
ROOT
ATOM      1  C   UNL     1     176.798 204.313 199.085  1.00  0.00     0.000 C 
ENDROOT
BRANCH   1   2
ATOM      2  C   UNL     1     177.818 203.236 198.690  1.00  0.00     0.000 C 
BRANCH   2   3
ATOM      3  C   UNL     1     179.247 203.589 199.147  1.00  0.00     0.000 C 
BRANCH   3   4
ATOM      4  C   UNL     1     179.649 202.904 200.465  1.00  0.00    -0.000 C 
BRANCH   4   5
ATOM      5  C   UNL     1     180.608 203.716 201.356  1.00  0.00    -0.000 C 
BRANCH   5   6
ATOM      6  C   UNL     1     180.094 205.131 201.668  1.00  0.00    -0.000 C 
BRANCH   6   7
ATOM      7  C   UNL     1     181.125 206.195 201.263  1.00  0.00    -0.000 C 
BRANCH   7   8
ATOM      8  C   UNL     1     180.618 207.113 200.138  1.00  0.00    -0.000 C 
BRANCH   8   9
ATOM      9  C   UNL     1     179.087 207.094 200.002  1.00  0.00    -0.000 C 
BRANCH   9  10
ATOM     10  C   UNL     1     178.664 207.403 198.559  1.00  0.00    -0.000 C 
BRANCH  10  11
ATOM     11  C   UNL     1     179.656 206.853 197.521  1.00  0.00    -0.003 C 
ATOM     12  C   UNL     1     178.968 206.084 196.392  1.00  0.00     0.004 C 
ENDBRANCH  10  11
ENDBRANCH   9  10
ENDBRANCH   8   9
ENDBRANCH   7   8
ENDBRANCH   6   7
ENDBRANCH   5   6
ENDBRANCH   4   5
ENDBRANCH   3   4
ENDBRANCH   2   3
ENDBRANCH   1   2
BRANCH   1  13
ATOM     13  C   UNL     1     176.008 203.948 200.351  1.00  0.00     0.000 C 
BRANCH  13  14
ATOM     14  C   UNL     1     176.595 204.582 201.626  1.00  0.00     0.000 C 
BRANCH  14  15
ATOM     15  C   UNL     1     175.733 205.695 202.255  1.00  0.00     0.000 C 
BRANCH  15  16
ATOM     16  C   UNL     1     175.627 206.953 201.372  1.00  0.00     0.000 C 
BRANCH  16  17
ATOM     17  C   UNL     1     174.171 207.242 200.948  1.00  0.00     0.000 C 
BRANCH  17  18
ATOM     18  C   UNL     1     174.049 208.002 199.613  1.00  0.00     0.000 C 
BRANCH  18  19
ATOM     19  C   UNL     1     175.390 208.124 198.867  1.00  0.00     0.000 C 
BRANCH  19  20
ATOM     20  C   UNL     1     175.213 208.125 197.340  1.00  0.00     0.006 C 
BRANCH  20  21
ATOM     21  C   UNL     1     175.185 206.702 196.761  1.00  0.00     0.053 C 
BRANCH  21  22
ATOM     22  C   UNL     1     173.897 206.447 196.043  1.00  0.00     0.041 C 
ATOM     23  O   UNL     1     173.715 205.359 195.436  1.00  0.00    -0.550 OA
ATOM     24  O   UNL     1     172.882 207.396 196.074  1.00  0.00    -0.550 OA
ENDBRANCH  21  22
ENDBRANCH  20  21
ENDBRANCH  19  20
ENDBRANCH  18  19
ENDBRANCH  17  18
ENDBRANCH  16  17
ENDBRANCH  15  16
ENDBRANCH  14  15
ENDBRANCH  13  14
ENDBRANCH   1  13
TORSDOF 20
ENDMDL
