MODEL 1
REMARK VINA RESULT:    -3.903      0.000      0.000
REMARK INTER + INTRA:          -8.701
REMARK INTER:                  -7.097
REMARK INTRA:                  -1.605
REMARK UNBOUND:                -1.605
REMARK SMILES CCCCCCCCCCCCCCCC(=O)[O-]
REMARK SMILES IDX 9 1 10 2 11 3 12 4 13 5 14 6 15 7 16 8 17 9 18 10 8 11 7 12
REMARK SMILES IDX 6 13 5 14 4 15 3 16 2 17 1 18
REMARK H PARENT
REMARK Flexibility Score: inf
ROOT
ATOM      1  C   UNL     1     121.637 113.318 111.992  1.00  0.00     0.000 C 
ENDROOT
BRANCH   1   2
ATOM      2  C   UNL     1     120.155 113.738 111.914  1.00  0.00     0.000 C 
BRANCH   2   3
ATOM      3  C   UNL     1     119.795 115.009 112.704  1.00  0.00     0.000 C 
BRANCH   3   4
ATOM      4  C   UNL     1     120.111 114.891 114.202  1.00  0.00     0.000 C 
BRANCH   4   5
ATOM      5  C   UNL     1     118.855 115.140 115.049  1.00  0.00     0.000 C 
BRANCH   5   6
ATOM      6  C   UNL     1     118.705 114.133 116.199  1.00  0.00     0.006 C 
BRANCH   6   7
ATOM      7  C   UNL     1     119.931 113.223 116.351  1.00  0.00     0.053 C 
BRANCH   7   8
ATOM      8  C   UNL     1     119.639 112.109 117.306  1.00  0.00     0.041 C 
ATOM      9  O   UNL     1     120.351 111.071 117.304  1.00  0.00    -0.550 OA
ATOM     10  O   UNL     1     118.551 112.197 118.165  1.00  0.00    -0.550 OA
ENDBRANCH   7   8
ENDBRANCH   6   7
ENDBRANCH   5   6
ENDBRANCH   4   5
ENDBRANCH   3   4
ENDBRANCH   2   3
ENDBRANCH   1   2
BRANCH   1  11
ATOM     11  C   UNL     1     121.895 111.952 112.653  1.00  0.00     0.000 C 
BRANCH  11  12
ATOM     12  C   UNL     1     120.618 111.314 113.218  1.00  0.00    -0.000 C 
BRANCH  12  13
ATOM     13  C   UNL     1     120.285 110.007 112.481  1.00  0.00    -0.000 C 
BRANCH  13  14
ATOM     14  C   UNL     1     119.135 110.166 111.472  1.00  0.00    -0.000 C 
BRANCH  14  15
ATOM     15  C   UNL     1     119.530 109.967 109.994  1.00  0.00    -0.000 C 
BRANCH  15  16
ATOM     16  C   UNL     1     119.858 111.261 109.227  1.00  0.00    -0.000 C 
BRANCH  16  17
ATOM     17  C   UNL     1     119.959 111.044 107.710  1.00  0.00    -0.003 C 
ATOM     18  C   UNL     1     120.116 109.564 107.376  1.00  0.00     0.004 C 
ENDBRANCH  16  17
ENDBRANCH  15  16
ENDBRANCH  14  15
ENDBRANCH  13  14
ENDBRANCH  12  13
ENDBRANCH  11  12
ENDBRANCH   1  11
TORSDOF 14
ENDMDL
MODEL 2
REMARK VINA RESULT:    -3.880      2.062      4.134
REMARK INTER + INTRA:          -8.659
REMARK INTER:                  -7.164
REMARK INTRA:                  -1.496
REMARK UNBOUND:                -1.605
REMARK SMILES CCCCCCCCCCCCCCCC(=O)[O-]
REMARK SMILES IDX 9 1 10 2 11 3 12 4 13 5 14 6 15 7 16 8 17 9 18 10 8 11 7 12
REMARK SMILES IDX 6 13 5 14 4 15 3 16 2 17 1 18
REMARK H PARENT
REMARK Flexibility Score: inf
ROOT
ATOM      1  C   UNL     1     118.490 114.827 115.513  1.00  0.00     0.000 C 
ENDROOT
BRANCH   1   2
ATOM      2  C   UNL     1     117.595 114.263 116.635  1.00  0.00     0.000 C 
BRANCH   2   3
ATOM      3  C   UNL     1     118.353 113.650 117.827  1.00  0.00     0.000 C 
BRANCH   3   4
ATOM      4  C   UNL     1     118.227 112.121 117.892  1.00  0.00     0.000 C 
BRANCH   4   5
ATOM      5  C   UNL     1     119.602 111.451 117.754  1.00  0.00     0.000 C 
BRANCH   5   6
ATOM      6  C   UNL     1     120.679 112.122 118.619  1.00  0.00     0.006 C 
BRANCH   6   7
ATOM      7  C   UNL     1     122.027 112.243 117.896  1.00  0.00     0.053 C 
BRANCH   7   8
ATOM      8  C   UNL     1     123.125 112.506 118.878  1.00  0.00     0.041 C 
ATOM      9  O   UNL     1     123.174 113.603 119.493  1.00  0.00    -0.550 OA
ATOM     10  O   UNL     1     124.121 111.558 119.077  1.00  0.00    -0.550 OA
ENDBRANCH   7   8
ENDBRANCH   6   7
ENDBRANCH   5   6
ENDBRANCH   4   5
ENDBRANCH   3   4
ENDBRANCH   2   3
ENDBRANCH   1   2
BRANCH   1  11
ATOM     11  C   UNL     1     119.993 114.529 115.664  1.00  0.00     0.000 C 
BRANCH  11  12
ATOM     12  C   UNL     1     120.485 113.446 114.693  1.00  0.00    -0.000 C 
BRANCH  12  13
ATOM     13  C   UNL     1     120.083 113.781 113.248  1.00  0.00    -0.000 C 
BRANCH  13  14
ATOM     14  C   UNL     1     120.111 112.554 112.320  1.00  0.00    -0.000 C 
BRANCH  14  15
ATOM     15  C   UNL     1     120.533 111.233 112.995  1.00  0.00    -0.000 C 
BRANCH  15  16
ATOM     16  C   UNL     1     120.244 109.960 112.178  1.00  0.00    -0.000 C 
BRANCH  16  17
ATOM     17  C   UNL     1     119.127 110.158 111.143  1.00  0.00    -0.003 C 
ATOM     18  C   UNL     1     119.635 109.893 109.729  1.00  0.00     0.004 C 
ENDBRANCH  16  17
ENDBRANCH  15  16
ENDBRANCH  14  15
ENDBRANCH  13  14
ENDBRANCH  12  13
ENDBRANCH  11  12
ENDBRANCH   1  11
TORSDOF 14
ENDMDL
MODEL 3
REMARK VINA RESULT:    -3.874      1.801      2.877
REMARK INTER + INTRA:          -8.648
REMARK INTER:                  -7.375
REMARK INTRA:                  -1.274
REMARK UNBOUND:                -1.605
REMARK SMILES CCCCCCCCCCCCCCCC(=O)[O-]
REMARK SMILES IDX 9 1 10 2 11 3 12 4 13 5 14 6 15 7 16 8 17 9 18 10 8 11 7 12
REMARK SMILES IDX 6 13 5 14 4 15 3 16 2 17 1 18
REMARK H PARENT
REMARK Flexibility Score: inf
ROOT
ATOM      1  C   UNL     1     120.324 112.799 114.089  1.00  0.00     0.000 C 
ENDROOT
BRANCH   1   2
ATOM      2  C   UNL     1     121.305 113.513 115.041  1.00  0.00     0.000 C 
BRANCH   2   3
ATOM      3  C   UNL     1     121.805 112.660 116.222  1.00  0.00     0.000 C 
BRANCH   3   4
ATOM      4  C   UNL     1     120.929 111.427 116.481  1.00  0.00     0.000 C 
BRANCH   4   5
ATOM      5  C   UNL     1     120.302 111.484 117.882  1.00  0.00     0.000 C 
BRANCH   5   6
ATOM      6  C   UNL     1     118.813 111.860 117.851  1.00  0.00     0.006 C 
BRANCH   6   7
ATOM      7  C   UNL     1     118.573 113.346 118.153  1.00  0.00     0.053 C 
BRANCH   7   8
ATOM      8  C   UNL     1     117.644 113.940 117.142  1.00  0.00     0.041 C 
ATOM      9  O   UNL     1     116.407 113.719 117.212  1.00  0.00    -0.550 OA
ATOM     10  O   UNL     1     118.151 114.699 116.095  1.00  0.00    -0.550 OA
ENDBRANCH   7   8
ENDBRANCH   6   7
ENDBRANCH   5   6
ENDBRANCH   4   5
ENDBRANCH   3   4
ENDBRANCH   2   3
ENDBRANCH   1   2
BRANCH   1  11
ATOM     11  C   UNL     1     120.554 113.071 112.592  1.00  0.00     0.000 C 
BRANCH  11  12
ATOM     12  C   UNL     1     121.203 111.884 111.864  1.00  0.00    -0.000 C 
BRANCH  12  13
ATOM     13  C   UNL     1     120.622 110.552 112.361  1.00  0.00    -0.000 C 
BRANCH  13  14
ATOM     14  C   UNL     1     119.258 110.221 111.729  1.00  0.00    -0.000 C 
BRANCH  14  15
ATOM     15  C   UNL     1     119.234 110.228 110.186  1.00  0.00    -0.000 C 
BRANCH  15  16
ATOM     16  C   UNL     1     120.352 109.412 109.512  1.00  0.00    -0.000 C 
BRANCH  16  17
ATOM     17  C   UNL     1     120.312 109.500 107.980  1.00  0.00    -0.003 C 
ATOM     18  C   UNL     1     120.193 110.949 107.516  1.00  0.00     0.004 C 
ENDBRANCH  16  17
ENDBRANCH  15  16
ENDBRANCH  14  15
ENDBRANCH  13  14
ENDBRANCH  12  13
ENDBRANCH  11  12
ENDBRANCH   1  11
TORSDOF 14
ENDMDL
MODEL 4
REMARK VINA RESULT:    -3.860      5.074      7.840
REMARK INTER + INTRA:          -8.624
REMARK INTER:                  -6.544
REMARK INTRA:                  -2.079
REMARK UNBOUND:                -1.605
REMARK SMILES CCCCCCCCCCCCCCCC(=O)[O-]
REMARK SMILES IDX 9 1 10 2 11 3 12 4 13 5 14 6 15 7 16 8 17 9 18 10 8 11 7 12
REMARK SMILES IDX 6 13 5 14 4 15 3 16 2 17 1 18
REMARK H PARENT
REMARK Flexibility Score: inf
ROOT
ATOM      1  C   UNL     1     120.658 109.234 109.828  1.00  0.00     0.000 C 
ENDROOT
BRANCH   1   2
ATOM      2  C   UNL     1     121.270 109.275 108.414  1.00  0.00     0.000 C 
BRANCH   2   3
ATOM      3  C   UNL     1     120.542 110.194 107.415  1.00  0.00     0.000 C 
BRANCH   3   4
ATOM      4  C   UNL     1     121.398 111.389 106.971  1.00  0.00     0.000 C 
BRANCH   4   5
ATOM      5  C   UNL     1     120.593 112.695 107.040  1.00  0.00     0.000 C 
BRANCH   5   6
ATOM      6  C   UNL     1     121.127 113.772 106.083  1.00  0.00     0.006 C 
BRANCH   6   7
ATOM      7  C   UNL     1     120.103 114.883 105.813  1.00  0.00     0.053 C 
BRANCH   7   8
ATOM      8  C   UNL     1     120.798 116.163 105.474  1.00  0.00     0.041 C 
ATOM      9  O   UNL     1     121.986 116.357 105.844  1.00  0.00    -0.550 OA
ATOM     10  O   UNL     1     120.118 117.163 104.790  1.00  0.00    -0.550 OA
ENDBRANCH   7   8
ENDBRANCH   6   7
ENDBRANCH   5   6
ENDBRANCH   4   5
ENDBRANCH   3   4
ENDBRANCH   2   3
ENDBRANCH   1   2
BRANCH   1  11
ATOM     11  C   UNL     1     119.340 110.011 109.993  1.00  0.00     0.000 C 
BRANCH  11  12
ATOM     12  C   UNL     1     119.048 110.386 111.453  1.00  0.00    -0.000 C 
BRANCH  12  13
ATOM     13  C   UNL     1     120.238 111.133 112.075  1.00  0.00    -0.000 C 
BRANCH  13  14
ATOM     14  C   UNL     1     120.153 112.658 111.884  1.00  0.00    -0.000 C 
BRANCH  14  15
ATOM     15  C   UNL     1     120.979 113.217 110.707  1.00  0.00    -0.000 C 
BRANCH  15  16
ATOM     16  C   UNL     1     122.299 112.475 110.426  1.00  0.00    -0.000 C 
BRANCH  16  17
ATOM     17  C   UNL     1     123.292 113.314 109.610  1.00  0.00    -0.003 C 
ATOM     18  C   UNL     1     122.740 114.712 109.343  1.00  0.00     0.004 C 
ENDBRANCH  16  17
ENDBRANCH  15  16
ENDBRANCH  14  15
ENDBRANCH  13  14
ENDBRANCH  12  13
ENDBRANCH  11  12
ENDBRANCH   1  11
TORSDOF 14
ENDMDL
MODEL 5
REMARK VINA RESULT:    -3.854      3.667      7.584
REMARK INTER + INTRA:          -8.613
REMARK INTER:                  -7.246
REMARK INTRA:                  -1.367
REMARK UNBOUND:                -1.605
REMARK SMILES CCCCCCCCCCCCCCCC(=O)[O-]
REMARK SMILES IDX 9 1 10 2 11 3 12 4 13 5 14 6 15 7 16 8 17 9 18 10 8 11 7 12
REMARK SMILES IDX 6 13 5 14 4 15 3 16 2 17 1 18
REMARK H PARENT
REMARK Flexibility Score: inf
ROOT
ATOM      1  C   UNL     1     120.584 112.428 113.884  1.00  0.00     0.000 C 
ENDROOT
BRANCH   1   2
ATOM      2  C   UNL     1     120.806 110.904 113.809  1.00  0.00     0.000 C 
BRANCH   2   3
ATOM      3  C   UNL     1     120.767 110.308 112.390  1.00  0.00     0.000 C 
BRANCH   3   4
ATOM      4  C   UNL     1     119.794 111.045 111.460  1.00  0.00     0.000 C 
BRANCH   4   5
ATOM      5  C   UNL     1     119.202 110.088 110.415  1.00  0.00     0.000 C 
BRANCH   5   6
ATOM      6  C   UNL     1     120.261 109.540 109.446  1.00  0.00     0.006 C 
BRANCH   6   7
ATOM      7  C   UNL     1     119.976 109.916 107.985  1.00  0.00     0.053 C 
BRANCH   7   8
ATOM      8  C   UNL     1     120.856 111.048 107.557  1.00  0.00     0.041 C 
ATOM      9  O   UNL     1     120.583 112.228 107.899  1.00  0.00    -0.550 OA
ATOM     10  O   UNL     1     121.953 110.804 106.739  1.00  0.00    -0.550 OA
ENDBRANCH   7   8
ENDBRANCH   6   7
ENDBRANCH   5   6
ENDBRANCH   4   5
ENDBRANCH   3   4
ENDBRANCH   2   3
ENDBRANCH   1   2
BRANCH   1  11
ATOM     11  C   UNL     1     121.299 113.136 115.048  1.00  0.00     0.000 C 
BRANCH  11  12
ATOM     12  C   UNL     1     122.015 112.157 115.991  1.00  0.00    -0.000 C 
BRANCH  12  13
ATOM     13  C   UNL     1     121.356 112.154 117.379  1.00  0.00    -0.000 C 
BRANCH  13  14
ATOM     14  C   UNL     1     120.174 111.174 117.478  1.00  0.00    -0.000 C 
BRANCH  14  15
ATOM     15  C   UNL     1     118.834 111.808 117.905  1.00  0.00    -0.000 C 
BRANCH  15  16
ATOM     16  C   UNL     1     118.823 113.347 117.947  1.00  0.00    -0.000 C 
BRANCH  16  17
ATOM     17  C   UNL     1     117.604 113.954 117.238  1.00  0.00    -0.003 C 
ATOM     18  C   UNL     1     118.022 114.718 115.985  1.00  0.00     0.004 C 
ENDBRANCH  16  17
ENDBRANCH  15  16
ENDBRANCH  14  15
ENDBRANCH  13  14
ENDBRANCH  12  13
ENDBRANCH  11  12
ENDBRANCH   1  11
TORSDOF 14
ENDMDL
MODEL 6
REMARK VINA RESULT:    -3.790      4.485      8.283
REMARK INTER + INTRA:          -8.497
REMARK INTER:                  -7.787
REMARK INTRA:                  -0.710
REMARK UNBOUND:                -1.605
REMARK SMILES CCCCCCCCCCCCCCCC(=O)[O-]
REMARK SMILES IDX 9 1 10 2 11 3 12 4 13 5 14 6 15 7 16 8 17 9 18 10 8 11 7 12
REMARK SMILES IDX 6 13 5 14 4 15 3 16 2 17 1 18
REMARK H PARENT
REMARK Flexibility Score: inf
ROOT
ATOM      1  C   UNL     1     120.683 111.648 112.613  1.00  0.00     0.000 C 
ENDROOT
BRANCH   1   2
ATOM      2  C   UNL     1     120.158 110.222 112.350  1.00  0.00     0.000 C 
BRANCH   2   3
ATOM      3  C   UNL     1     119.064 110.118 111.272  1.00  0.00     0.000 C 
BRANCH   3   4
ATOM      4  C   UNL     1     119.585 110.430 109.861  1.00  0.00     0.000 C 
BRANCH   4   5
ATOM      5  C   UNL     1     120.801 109.556 109.521  1.00  0.00     0.000 C 
BRANCH   5   6
ATOM      6  C   UNL     1     121.181 109.621 108.034  1.00  0.00     0.006 C 
BRANCH   6   7
ATOM      7  C   UNL     1     119.997 109.310 107.108  1.00  0.00     0.053 C 
BRANCH   7   8
ATOM      8  C   UNL     1     120.245 108.044 106.350  1.00  0.00     0.041 C 
ATOM      9  O   UNL     1     119.288 107.277 106.068  1.00  0.00    -0.550 OA
ATOM     10  O   UNL     1     121.541 107.688 105.997  1.00  0.00    -0.550 OA
ENDBRANCH   7   8
ENDBRANCH   6   7
ENDBRANCH   5   6
ENDBRANCH   4   5
ENDBRANCH   3   4
ENDBRANCH   2   3
ENDBRANCH   1   2
BRANCH   1  11
ATOM     11  C   UNL     1     121.653 111.778 113.801  1.00  0.00     0.000 C 
BRANCH  11  12
ATOM     12  C   UNL     1     121.000 111.424 115.145  1.00  0.00    -0.000 C 
BRANCH  12  13
ATOM     13  C   UNL     1     121.670 112.188 116.298  1.00  0.00    -0.000 C 
BRANCH  13  14
ATOM     14  C   UNL     1     121.143 111.767 117.681  1.00  0.00    -0.000 C 
BRANCH  14  15
ATOM     15  C   UNL     1     119.628 111.478 117.743  1.00  0.00    -0.000 C 
BRANCH  15  16
ATOM     16  C   UNL     1     118.753 112.672 118.165  1.00  0.00    -0.000 C 
BRANCH  16  17
ATOM     17  C   UNL     1     118.580 113.709 117.045  1.00  0.00    -0.003 C 
ATOM     18  C   UNL     1     117.163 114.275 117.036  1.00  0.00     0.004 C 
ENDBRANCH  16  17
ENDBRANCH  15  16
ENDBRANCH  14  15
ENDBRANCH  13  14
ENDBRANCH  12  13
ENDBRANCH  11  12
ENDBRANCH   1  11
TORSDOF 14
ENDMDL
MODEL 7
REMARK VINA RESULT:    -3.770      4.051      8.041
REMARK INTER + INTRA:          -8.461
REMARK INTER:                  -7.189
REMARK INTRA:                  -1.271
REMARK UNBOUND:                -1.605
REMARK SMILES CCCCCCCCCCCCCCCC(=O)[O-]
REMARK SMILES IDX 9 1 10 2 11 3 12 4 13 5 14 6 15 7 16 8 17 9 18 10 8 11 7 12
REMARK SMILES IDX 6 13 5 14 4 15 3 16 2 17 1 18
REMARK H PARENT
REMARK Flexibility Score: inf
ROOT
ATOM      1  C   UNL     1     120.878 110.982 113.788  1.00  0.00     0.000 C 
ENDROOT
BRANCH   1   2
ATOM      2  C   UNL     1     120.644 110.033 112.595  1.00  0.00     0.000 C 
BRANCH   2   3
ATOM      3  C   UNL     1     119.364 110.306 111.785  1.00  0.00     0.000 C 
BRANCH   3   4
ATOM      4  C   UNL     1     119.517 109.972 110.295  1.00  0.00     0.000 C 
BRANCH   4   5
ATOM      5  C   UNL     1     120.989 110.057 109.863  1.00  0.00     0.000 C 
BRANCH   5   6
ATOM      6  C   UNL     1     121.448 108.820 109.075  1.00  0.00     0.006 C 
BRANCH   6   7
ATOM      7  C   UNL     1     121.753 109.136 107.605  1.00  0.00     0.053 C 
BRANCH   7   8
ATOM      8  C   UNL     1     120.746 108.484 106.711  1.00  0.00     0.041 C 
ATOM      9  O   UNL     1     121.123 107.724 105.781  1.00  0.00    -0.550 OA
ATOM     10  O   UNL     1     119.393 108.754 106.875  1.00  0.00    -0.550 OA
ENDBRANCH   7   8
ENDBRANCH   6   7
ENDBRANCH   5   6
ENDBRANCH   4   5
ENDBRANCH   3   4
ENDBRANCH   2   3
ENDBRANCH   1   2
BRANCH   1  11
ATOM     11  C   UNL     1     120.896 112.480 113.436  1.00  0.00     0.000 C 
BRANCH  11  12
ATOM     12  C   UNL     1     119.909 113.301 114.279  1.00  0.00    -0.000 C 
BRANCH  12  13
ATOM     13  C   UNL     1     120.407 113.441 115.725  1.00  0.00    -0.000 C 
BRANCH  13  14
ATOM     14  C   UNL     1     119.260 113.485 116.751  1.00  0.00    -0.000 C 
BRANCH  14  15
ATOM     15  C   UNL     1     119.228 112.306 117.745  1.00  0.00    -0.000 C 
BRANCH  15  16
ATOM     16  C   UNL     1     120.136 111.118 117.379  1.00  0.00    -0.000 C 
BRANCH  16  17
ATOM     17  C   UNL     1     121.364 111.002 118.293  1.00  0.00    -0.003 C 
ATOM     18  C   UNL     1     122.656 111.009 117.481  1.00  0.00     0.004 C 
ENDBRANCH  16  17
ENDBRANCH  15  16
ENDBRANCH  14  15
ENDBRANCH  13  14
ENDBRANCH  12  13
ENDBRANCH  11  12
ENDBRANCH   1  11
TORSDOF 14
ENDMDL
MODEL 8
REMARK VINA RESULT:    -3.722      1.531      3.418
REMARK INTER + INTRA:          -8.372
REMARK INTER:                  -7.395
REMARK INTRA:                  -0.977
REMARK UNBOUND:                -1.605
REMARK SMILES CCCCCCCCCCCCCCCC(=O)[O-]
REMARK SMILES IDX 9 1 10 2 11 3 12 4 13 5 14 6 15 7 16 8 17 9 18 10 8 11 7 12
REMARK SMILES IDX 6 13 5 14 4 15 3 16 2 17 1 18
REMARK H PARENT
REMARK Flexibility Score: inf
ROOT
ATOM      1  C   UNL     1     119.235 110.490 111.669  1.00  0.00     0.000 C 
ENDROOT
BRANCH   1   2
ATOM      2  C   UNL     1     120.395 110.010 112.564  1.00  0.00     0.000 C 
BRANCH   2   3
ATOM      3  C   UNL     1     121.012 111.093 113.468  1.00  0.00     0.000 C 
BRANCH   3   4
ATOM      4  C   UNL     1     120.909 112.502 112.867  1.00  0.00     0.000 C 
BRANCH   4   5
ATOM      5  C   UNL     1     120.008 113.401 113.727  1.00  0.00     0.000 C 
BRANCH   5   6
ATOM      6  C   UNL     1     120.620 113.715 115.101  1.00  0.00     0.006 C 
BRANCH   6   7
ATOM      7  C   UNL     1     119.562 113.833 116.206  1.00  0.00     0.053 C 
BRANCH   7   8
ATOM      8  C   UNL     1     119.671 112.684 117.158  1.00  0.00     0.041 C 
ATOM      9  O   UNL     1     120.447 111.725 116.907  1.00  0.00    -0.550 OA
ATOM     10  O   UNL     1     118.878 112.649 118.298  1.00  0.00    -0.550 OA
ENDBRANCH   7   8
ENDBRANCH   6   7
ENDBRANCH   5   6
ENDBRANCH   4   5
ENDBRANCH   3   4
ENDBRANCH   2   3
ENDBRANCH   1   2
BRANCH   1  11
ATOM     11  C   UNL     1     119.290 110.000 110.210  1.00  0.00     0.000 C 
BRANCH  11  12
ATOM     12  C   UNL     1     120.505 110.544 109.445  1.00  0.00    -0.000 C 
BRANCH  12  13
ATOM     13  C   UNL     1     120.121 110.929 108.008  1.00  0.00    -0.000 C 
BRANCH  13  14
ATOM     14  C   UNL     1     120.109 109.726 107.049  1.00  0.00    -0.000 C 
BRANCH  14  15
ATOM     15  C   UNL     1     121.378 108.849 107.085  1.00  0.00    -0.000 C 
BRANCH  15  16
ATOM     16  C   UNL     1     121.151 107.359 106.772  1.00  0.00    -0.000 C 
BRANCH  16  17
ATOM     17  C   UNL     1     119.931 107.119 105.871  1.00  0.00    -0.003 C 
ATOM     18  C   UNL     1     120.353 106.924 104.417  1.00  0.00     0.004 C 
ENDBRANCH  16  17
ENDBRANCH  15  16
ENDBRANCH  14  15
ENDBRANCH  13  14
ENDBRANCH  12  13
ENDBRANCH  11  12
ENDBRANCH   1  11
TORSDOF 14
ENDMDL
MODEL 9
REMARK VINA RESULT:    -3.709      2.780      5.027
REMARK INTER + INTRA:          -8.349
REMARK INTER:                  -5.741
REMARK INTRA:                  -2.608
REMARK UNBOUND:                -1.605
REMARK SMILES CCCCCCCCCCCCCCCC(=O)[O-]
REMARK SMILES IDX 9 1 10 2 11 3 12 4 13 5 14 6 15 7 16 8 17 9 18 10 8 11 7 12
REMARK SMILES IDX 6 13 5 14 4 15 3 16 2 17 1 18
REMARK H PARENT
REMARK Flexibility Score: inf
ROOT
ATOM      1  C   UNL     1     121.442 109.397 107.069  1.00  0.00     0.000 C 
ENDROOT
BRANCH   1   2
ATOM      2  C   UNL     1     120.060 109.769 107.643  1.00  0.00     0.000 C 
BRANCH   2   3
ATOM      3  C   UNL     1     119.884 109.497 109.148  1.00  0.00     0.000 C 
BRANCH   3   4
ATOM      4  C   UNL     1     119.238 110.672 109.895  1.00  0.00     0.000 C 
BRANCH   4   5
ATOM      5  C   UNL     1     118.925 110.292 111.350  1.00  0.00     0.000 C 
BRANCH   5   6
ATOM      6  C   UNL     1     120.186 110.188 112.221  1.00  0.00     0.006 C 
BRANCH   6   7
ATOM      7  C   UNL     1     120.566 111.526 112.870  1.00  0.00     0.053 C 
BRANCH   7   8
ATOM      8  C   UNL     1     121.672 111.330 113.859  1.00  0.00     0.041 C 
ATOM      9  O   UNL     1     121.414 111.231 115.087  1.00  0.00    -0.550 OA
ATOM     10  O   UNL     1     122.993 111.306 113.429  1.00  0.00    -0.550 OA
ENDBRANCH   7   8
ENDBRANCH   6   7
ENDBRANCH   5   6
ENDBRANCH   4   5
ENDBRANCH   3   4
ENDBRANCH   2   3
ENDBRANCH   1   2
BRANCH   1  11
ATOM     11  C   UNL     1     122.478 108.935 108.109  1.00  0.00     0.000 C 
BRANCH  11  12
ATOM     12  C   UNL     1     123.484 110.036 108.477  1.00  0.00    -0.000 C 
BRANCH  12  13
ATOM     13  C   UNL     1     123.198 110.593 109.880  1.00  0.00    -0.000 C 
BRANCH  13  14
ATOM     14  C   UNL     1     122.753 112.065 109.859  1.00  0.00    -0.000 C 
BRANCH  14  15
ATOM     15  C   UNL     1     122.693 112.711 108.460  1.00  0.00    -0.000 C 
BRANCH  15  16
ATOM     16  C   UNL     1     121.294 113.167 108.010  1.00  0.00    -0.000 C 
BRANCH  16  17
ATOM     17  C   UNL     1     121.140 113.200 106.483  1.00  0.00    -0.003 C 
ATOM     18  C   UNL     1     122.393 112.670 105.793  1.00  0.00     0.004 C 
ENDBRANCH  16  17
ENDBRANCH  15  16
ENDBRANCH  14  15
ENDBRANCH  13  14
ENDBRANCH  12  13
ENDBRANCH  11  12
ENDBRANCH   1  11
TORSDOF 14
ENDMDL
