MODEL 1
REMARK VINA RESULT:    -4.112      0.000      0.000
REMARK INTER + INTRA:          -4.578
REMARK INTER:                  -4.473
REMARK INTRA:                  -0.105
REMARK UNBOUND:                -0.105
REMARK SMILES Cc1ccc(C(C)C)cc1O
REMARK SMILES IDX 1 1 2 2 10 3 9 4 5 5 4 6 3 7 11 8 6 10 7 11 8 12
REMARK H PARENT 11 9
REMARK Flexibility Score: inf
ROOT
ATOM      1  C   UNL     1      32.964  -2.021  60.104  1.00  0.00     0.048 C 
ATOM      2  C   UNL     1      33.973  -2.220  59.008  1.00  0.00    -0.009 A 
ATOM      3  C   UNL     1      33.769  -1.640  57.744  1.00  0.00     0.118 A 
ATOM      4  C   UNL     1      34.713  -1.830  56.725  1.00  0.00     0.050 A 
ATOM      5  C   UNL     1      35.869  -2.600  56.954  1.00  0.00    -0.042 A 
ATOM      6  C   UNL     1      36.064  -3.175  58.220  1.00  0.00     0.004 A 
ATOM      7  C   UNL     1      35.124  -2.987  59.237  1.00  0.00     0.007 A 
ENDROOT
BRANCH   3   8
ATOM      8  O   UNL     1      32.627  -0.875  57.503  1.00  0.00    -0.508 OA
ATOM      9  H   UNL     1      32.025  -1.056  56.709  1.00  0.00     0.293 HD
ENDBRANCH   3   8
BRANCH   5  10
ATOM     10  C   UNL     1      36.898  -2.812  55.859  1.00  0.00     0.013 C 
ATOM     11  C   UNL     1      36.943  -1.615  54.902  1.00  0.00     0.012 C 
ATOM     12  C   UNL     1      36.635  -4.118  55.097  1.00  0.00     0.012 C 
ENDBRANCH   5  10
TORSDOF 2
ENDMDL
MODEL 2
REMARK VINA RESULT:    -3.863      5.620      7.909
REMARK INTER + INTRA:          -4.306
REMARK INTER:                  -4.179
REMARK INTRA:                  -0.127
REMARK UNBOUND:                -0.105
REMARK SMILES Cc1ccc(C(C)C)cc1O
REMARK SMILES IDX 1 1 2 2 10 3 9 4 5 5 4 6 3 7 11 8 6 10 7 11 8 12
REMARK H PARENT 11 9
REMARK Flexibility Score: inf
ROOT
ATOM      1  C   UNL     1      35.604 -11.698  53.989  1.00  0.00     0.048 C 
ATOM      2  C   UNL     1      35.960 -10.253  53.783  1.00  0.00    -0.009 A 
ATOM      3  C   UNL     1      36.143  -9.404  54.889  1.00  0.00     0.118 A 
ATOM      4  C   UNL     1      36.474  -8.057  54.691  1.00  0.00     0.050 A 
ATOM      5  C   UNL     1      36.627  -7.539  53.391  1.00  0.00    -0.042 A 
ATOM      6  C   UNL     1      36.443  -8.395  52.293  1.00  0.00     0.004 A 
ATOM      7  C   UNL     1      36.112  -9.739  52.488  1.00  0.00     0.007 A 
ENDROOT
BRANCH   3   8
ATOM      8  O   UNL     1      35.994  -9.903  56.184  1.00  0.00    -0.508 OA
ATOM      9  H   UNL     1      36.631 -10.593  56.564  1.00  0.00     0.293 HD
ENDBRANCH   3   8
BRANCH   5  10
ATOM     10  C   UNL     1      36.986  -6.083  53.164  1.00  0.00     0.013 C 
ATOM     11  C   UNL     1      35.971  -5.151  53.836  1.00  0.00     0.012 C 
ATOM     12  C   UNL     1      37.114  -5.771  51.667  1.00  0.00     0.012 C 
ENDBRANCH   5  10
TORSDOF 2
ENDMDL
MODEL 3
REMARK VINA RESULT:    -3.862      1.558      4.240
REMARK INTER + INTRA:          -4.305
REMARK INTER:                  -4.197
REMARK INTRA:                  -0.109
REMARK UNBOUND:                -0.105
REMARK SMILES Cc1ccc(C(C)C)cc1O
REMARK SMILES IDX 1 1 2 2 10 3 9 4 5 5 4 6 3 7 11 8 6 10 7 11 8 12
REMARK H PARENT 11 9
REMARK Flexibility Score: inf
ROOT
ATOM      1  C   UNL     1      37.025  -2.982  54.373  1.00  0.00     0.048 C 
ATOM      2  C   UNL     1      36.499  -2.852  55.774  1.00  0.00    -0.009 A 
ATOM      3  C   UNL     1      35.625  -1.803  56.110  1.00  0.00     0.118 A 
ATOM      4  C   UNL     1      35.138  -1.688  57.419  1.00  0.00     0.050 A 
ATOM      5  C   UNL     1      35.516  -2.615  58.409  1.00  0.00    -0.042 A 
ATOM      6  C   UNL     1      36.389  -3.659  58.064  1.00  0.00     0.004 A 
ATOM      7  C   UNL     1      36.876  -3.776  56.760  1.00  0.00     0.007 A 
ENDROOT
BRANCH   3   8
ATOM      8  O   UNL     1      35.242  -0.877  55.139  1.00  0.00    -0.508 OA
ATOM      9  H   UNL     1      35.575   0.080  55.157  1.00  0.00     0.293 HD
ENDBRANCH   3   8
BRANCH   5  10
ATOM     10  C   UNL     1      34.995  -2.500  59.829  1.00  0.00     0.013 C 
ATOM     11  C   UNL     1      33.895  -3.532  60.100  1.00  0.00     0.012 C 
ATOM     12  C   UNL     1      34.502  -1.078  60.125  1.00  0.00     0.012 C 
ENDBRANCH   5  10
TORSDOF 2
ENDMDL
MODEL 4
REMARK VINA RESULT:    -3.826      5.853      7.724
REMARK INTER + INTRA:          -4.266
REMARK INTER:                  -4.139
REMARK INTRA:                  -0.127
REMARK UNBOUND:                -0.105
REMARK SMILES Cc1ccc(C(C)C)cc1O
REMARK SMILES IDX 1 1 2 2 10 3 9 4 5 5 4 6 3 7 11 8 6 10 7 11 8 12
REMARK H PARENT 11 9
REMARK Flexibility Score: inf
ROOT
ATOM      1  C   UNL     1      37.092  -4.497  53.160  1.00  0.00     0.048 C 
ATOM      2  C   UNL     1      36.854  -5.975  53.292  1.00  0.00    -0.009 A 
ATOM      3  C   UNL     1      36.513  -6.741  52.163  1.00  0.00     0.118 A 
ATOM      4  C   UNL     1      36.292  -8.119  52.292  1.00  0.00     0.050 A 
ATOM      5  C   UNL     1      36.408  -8.750  53.545  1.00  0.00    -0.042 A 
ATOM      6  C   UNL     1      36.749  -7.977  54.666  1.00  0.00     0.004 A 
ATOM      7  C   UNL     1      36.970  -6.603  54.540  1.00  0.00     0.007 A 
ENDROOT
BRANCH   3   8
ATOM      8  O   UNL     1      36.394  -6.129  50.914  1.00  0.00    -0.508 OA
ATOM      9  H   UNL     1      37.135  -6.181  50.225  1.00  0.00     0.293 HD
ENDBRANCH   3   8
BRANCH   5  10
ATOM     10  C   UNL     1      36.172 -10.241  53.697  1.00  0.00     0.013 C 
ATOM     11  C   UNL     1      34.977 -10.701  52.854  1.00  0.00     0.012 C 
ATOM     12  C   UNL     1      35.987 -10.625  55.171  1.00  0.00     0.012 C 
ENDBRANCH   5  10
TORSDOF 2
ENDMDL
MODEL 5
REMARK VINA RESULT:    -3.822      6.152      7.980
REMARK INTER + INTRA:          -4.262
REMARK INTER:                  -4.143
REMARK INTRA:                  -0.120
REMARK UNBOUND:                -0.105
REMARK SMILES Cc1ccc(C(C)C)cc1O
REMARK SMILES IDX 1 1 2 2 10 3 9 4 5 5 4 6 3 7 11 8 6 10 7 11 8 12
REMARK H PARENT 11 9
REMARK Flexibility Score: inf
ROOT
ATOM      1  C   UNL     1      36.676  -5.467  51.367  1.00  0.00     0.048 C 
ATOM      2  C   UNL     1      36.714  -6.685  52.245  1.00  0.00    -0.009 A 
ATOM      3  C   UNL     1      36.376  -6.588  53.607  1.00  0.00     0.118 A 
ATOM      4  C   UNL     1      36.413  -7.728  54.421  1.00  0.00     0.050 A 
ATOM      5  C   UNL     1      36.788  -8.976  53.890  1.00  0.00    -0.042 A 
ATOM      6  C   UNL     1      37.124  -9.064  52.530  1.00  0.00     0.004 A 
ATOM      7  C   UNL     1      37.087  -7.928  51.715  1.00  0.00     0.007 A 
ENDROOT
BRANCH   3   8
ATOM      8  O   UNL     1      36.003  -5.357  54.147  1.00  0.00    -0.508 OA
ATOM      9  H   UNL     1      35.111  -4.928  53.926  1.00  0.00     0.293 HD
ENDBRANCH   3   8
BRANCH   5  10
ATOM     10  C   UNL     1      36.832 -10.218  54.762  1.00  0.00     0.013 C 
ATOM     11  C   UNL     1      36.020 -11.359  54.141  1.00  0.00     0.012 C 
ATOM     12  C   UNL     1      36.351  -9.910  56.186  1.00  0.00     0.012 C 
ENDBRANCH   5  10
TORSDOF 2
ENDMDL
MODEL 6
REMARK VINA RESULT:    -3.791      5.701      7.805
REMARK INTER + INTRA:          -4.228
REMARK INTER:                  -4.101
REMARK INTRA:                  -0.127
REMARK UNBOUND:                -0.105
REMARK SMILES Cc1ccc(C(C)C)cc1O
REMARK SMILES IDX 1 1 2 2 10 3 9 4 5 5 4 6 3 7 11 8 6 10 7 11 8 12
REMARK H PARENT 11 9
REMARK Flexibility Score: inf
ROOT
ATOM      1  C   UNL     1      35.642 -11.819  54.126  1.00  0.00     0.048 C 
ATOM      2  C   UNL     1      36.021 -10.366  54.180  1.00  0.00    -0.009 A 
ATOM      3  C   UNL     1      35.856  -9.549  53.048  1.00  0.00     0.118 A 
ATOM      4  C   UNL     1      36.212  -8.194  53.104  1.00  0.00     0.050 A 
ATOM      5  C   UNL     1      36.735  -7.639  54.287  1.00  0.00    -0.042 A 
ATOM      6  C   UNL     1      36.895  -8.463  55.412  1.00  0.00     0.004 A 
ATOM      7  C   UNL     1      36.542  -9.814  55.358  1.00  0.00     0.007 A 
ENDROOT
BRANCH   3   8
ATOM      8  O   UNL     1      35.339 -10.086  51.868  1.00  0.00    -0.508 OA
ATOM      9  H   UNL     1      35.065  -9.496  51.091  1.00  0.00     0.293 HD
ENDBRANCH   3   8
BRANCH   5  10
ATOM     10  C   UNL     1      37.123  -6.173  54.360  1.00  0.00     0.013 C 
ATOM     11  C   UNL     1      37.125  -5.673  55.808  1.00  0.00     0.012 C 
ATOM     12  C   UNL     1      36.204  -5.314  53.481  1.00  0.00     0.012 C 
ENDBRANCH   5  10
TORSDOF 2
ENDMDL
MODEL 7
REMARK VINA RESULT:    -3.786     10.575     13.039
REMARK INTER + INTRA:          -4.223
REMARK INTER:                  -4.095
REMARK INTRA:                  -0.128
REMARK UNBOUND:                -0.105
REMARK SMILES Cc1ccc(C(C)C)cc1O
REMARK SMILES IDX 1 1 2 2 10 3 9 4 5 5 4 6 3 7 11 8 6 10 7 11 8 12
REMARK H PARENT 11 9
REMARK Flexibility Score: inf
ROOT
ATOM      1  C   UNL     1      36.301  -6.066  42.235  1.00  0.00     0.048 C 
ATOM      2  C   UNL     1      36.022  -5.404  43.554  1.00  0.00    -0.009 A 
ATOM      3  C   UNL     1      34.762  -4.835  43.810  1.00  0.00     0.118 A 
ATOM      4  C   UNL     1      34.508  -4.219  45.043  1.00  0.00     0.050 A 
ATOM      5  C   UNL     1      35.505  -4.162  46.035  1.00  0.00    -0.042 A 
ATOM      6  C   UNL     1      36.760  -4.732  45.770  1.00  0.00     0.004 A 
ATOM      7  C   UNL     1      37.016  -5.347  44.542  1.00  0.00     0.007 A 
ENDROOT
BRANCH   3   8
ATOM      8  O   UNL     1      33.764  -4.885  42.836  1.00  0.00    -0.508 OA
ATOM      9  H   UNL     1      32.820  -5.179  43.057  1.00  0.00     0.293 HD
ENDBRANCH   3   8
BRANCH   5  10
ATOM     10  C   UNL     1      35.241  -3.498  47.374  1.00  0.00     0.013 C 
ATOM     11  C   UNL     1      34.868  -2.022  47.195  1.00  0.00     0.012 C 
ATOM     12  C   UNL     1      36.443  -3.653  48.314  1.00  0.00     0.012 C 
ENDBRANCH   5  10
TORSDOF 2
ENDMDL
MODEL 8
REMARK VINA RESULT:    -3.575     11.981     14.470
REMARK INTER + INTRA:          -3.993
REMARK INTER:                  -3.866
REMARK INTRA:                  -0.128
REMARK UNBOUND:                -0.105
REMARK SMILES Cc1ccc(C(C)C)cc1O
REMARK SMILES IDX 1 1 2 2 10 3 9 4 5 5 4 6 3 7 11 8 6 10 7 11 8 12
REMARK H PARENT 11 9
REMARK Flexibility Score: inf
ROOT
ATOM      1  C   UNL     1      37.125  -5.581  41.168  1.00  0.00     0.048 C 
ATOM      2  C   UNL     1      36.415  -4.818  42.250  1.00  0.00    -0.009 A 
ATOM      3  C   UNL     1      35.516  -5.475  43.108  1.00  0.00     0.118 A 
ATOM      4  C   UNL     1      34.856  -4.757  44.115  1.00  0.00     0.050 A 
ATOM      5  C   UNL     1      35.084  -3.378  44.279  1.00  0.00    -0.042 A 
ATOM      6  C   UNL     1      35.984  -2.730  43.418  1.00  0.00     0.004 A 
ATOM      7  C   UNL     1      36.643  -3.444  42.413  1.00  0.00     0.007 A 
ENDROOT
BRANCH   3   8
ATOM      8  O   UNL     1      35.280  -6.842  42.957  1.00  0.00    -0.508 OA
ATOM      9  H   UNL     1      34.360  -7.200  42.725  1.00  0.00     0.293 HD
ENDBRANCH   3   8
BRANCH   5  10
ATOM     10  C   UNL     1      34.377  -2.591  45.367  1.00  0.00     0.013 C 
ATOM     11  C   UNL     1      34.056  -1.167  44.899  1.00  0.00     0.012 C 
ATOM     12  C   UNL     1      35.200  -2.574  46.662  1.00  0.00     0.012 C 
ENDBRANCH   5  10
TORSDOF 2
ENDMDL
