MODEL 1
REMARK VINA RESULT:    -2.852      0.000      0.000
REMARK INTER + INTRA:          -6.213
REMARK INTER:                  -5.186
REMARK INTRA:                  -1.027
REMARK UNBOUND:                -1.027
REMARK SMILES CCCCCCCCCCCCCCCC(=O)[O-]
REMARK SMILES IDX 9 1 10 2 11 3 12 4 13 5 14 6 15 7 16 8 17 9 18 10 8 11 7 12
REMARK SMILES IDX 6 13 5 14 4 15 3 16 2 17 1 18
REMARK H PARENT
REMARK Flexibility Score: inf
ROOT
ATOM      1  C   UNL     1     -53.737 121.021  -8.598  1.00  0.00     0.000 C 
ENDROOT
BRANCH   1   2
ATOM      2  C   UNL     1     -53.230 122.468  -8.668  1.00  0.00     0.000 C 
BRANCH   2   3
ATOM      3  C   UNL     1     -54.001 123.271  -9.723  1.00  0.00     0.000 C 
BRANCH   3   4
ATOM      4  C   UNL     1     -53.537 122.909 -11.139  1.00  0.00     0.000 C 
BRANCH   4   5
ATOM      5  C   UNL     1     -54.716 122.931 -12.125  1.00  0.00     0.000 C 
BRANCH   5   6
ATOM      6  C   UNL     1     -55.894 122.062 -11.658  1.00  0.00     0.006 C 
BRANCH   6   7
ATOM      7  C   UNL     1     -55.634 120.562 -11.851  1.00  0.00     0.053 C 
BRANCH   7   8
ATOM      8  C   UNL     1     -56.802 119.764 -11.363  1.00  0.00     0.041 C 
ATOM      9  O   UNL     1     -57.971 120.074 -11.713  1.00  0.00    -0.550 OA
ATOM     10  O   UNL     1     -56.603 118.708 -10.484  1.00  0.00    -0.550 OA
ENDBRANCH   7   8
ENDBRANCH   6   7
ENDBRANCH   5   6
ENDBRANCH   4   5
ENDBRANCH   3   4
ENDBRANCH   2   3
ENDBRANCH   1   2
BRANCH   1  11
ATOM     11  C   UNL     1     -52.903 120.103  -9.503  1.00  0.00     0.000 C 
BRANCH  11  12
ATOM     12  C   UNL     1     -51.457 120.600  -9.692  1.00  0.00    -0.000 C 
BRANCH  12  13
ATOM     13  C   UNL     1     -51.091 121.003 -11.133  1.00  0.00    -0.000 C 
BRANCH  13  14
ATOM     14  C   UNL     1     -49.626 121.432 -11.339  1.00  0.00    -0.000 C 
BRANCH  14  15
ATOM     15  C   UNL     1     -49.469 122.751 -12.125  1.00  0.00    -0.000 C 
BRANCH  15  16
ATOM     16  C   UNL     1     -48.944 123.899 -11.250  1.00  0.00    -0.000 C 
BRANCH  16  17
ATOM     17  C   UNL     1     -48.879 123.481  -9.776  1.00  0.00    -0.003 C 
ATOM     18  C   UNL     1     -49.028 124.687  -8.854  1.00  0.00     0.004 C 
ENDBRANCH  16  17
ENDBRANCH  15  16
ENDBRANCH  14  15
ENDBRANCH  13  14
ENDBRANCH  12  13
ENDBRANCH  11  12
ENDBRANCH   1  11
TORSDOF 14
ENDMDL
MODEL 2
REMARK VINA RESULT:    -2.587      3.482      6.148
REMARK INTER + INTRA:          -5.732
REMARK INTER:                  -4.910
REMARK INTRA:                  -0.822
REMARK UNBOUND:                -1.027
REMARK SMILES CCCCCCCCCCCCCCCC(=O)[O-]
REMARK SMILES IDX 9 1 10 2 11 3 12 4 13 5 14 6 15 7 16 8 17 9 18 10 8 11 7 12
REMARK SMILES IDX 6 13 5 14 4 15 3 16 2 17 1 18
REMARK H PARENT
REMARK Flexibility Score: inf
ROOT
ATOM      1  C   UNL     1     -54.598 120.000 -11.188  1.00  0.00     0.000 C 
ENDROOT
BRANCH   1   2
ATOM      2  C   UNL     1     -53.389 120.400 -12.044  1.00  0.00     0.000 C 
BRANCH   2   3
ATOM      3  C   UNL     1     -53.251 121.925 -12.125  1.00  0.00     0.000 C 
BRANCH   3   4
ATOM      4  C   UNL     1     -51.816 122.365 -11.812  1.00  0.00     0.000 C 
BRANCH   4   5
ATOM      5  C   UNL     1     -51.110 121.338 -10.912  1.00  0.00     0.000 C 
BRANCH   5   6
ATOM      6  C   UNL     1     -49.579 121.455 -10.969  1.00  0.00     0.006 C 
BRANCH   6   7
ATOM      7  C   UNL     1     -48.987 122.077  -9.697  1.00  0.00     0.053 C 
BRANCH   7   8
ATOM      8  C   UNL     1     -49.040 123.570  -9.775  1.00  0.00     0.041 C 
ATOM      9  O   UNL     1     -48.877 124.153 -10.879  1.00  0.00    -0.550 OA
ATOM     10  O   UNL     1     -49.220 124.321  -8.620  1.00  0.00    -0.550 OA
ENDBRANCH   7   8
ENDBRANCH   6   7
ENDBRANCH   5   6
ENDBRANCH   4   5
ENDBRANCH   3   4
ENDBRANCH   2   3
ENDBRANCH   1   2
BRANCH   1  11
ATOM     11  C   UNL     1     -55.838 119.766 -12.064  1.00  0.00     0.000 C 
BRANCH  11  12
ATOM     12  C   UNL     1     -57.158 120.028 -11.315  1.00  0.00    -0.000 C 
BRANCH  12  13
ATOM     13  C   UNL     1     -57.012 120.249  -9.797  1.00  0.00    -0.000 C 
BRANCH  13  14
ATOM     14  C   UNL     1     -56.606 121.676  -9.382  1.00  0.00    -0.000 C 
BRANCH  14  15
ATOM     15  C   UNL     1     -55.543 121.717  -8.262  1.00  0.00    -0.000 C 
BRANCH  15  16
ATOM     16  C   UNL     1     -54.111 121.780  -8.813  1.00  0.00    -0.000 C 
BRANCH  16  17
ATOM     17  C   UNL     1     -53.586 123.221  -8.816  1.00  0.00    -0.003 C 
ATOM     18  C   UNL     1     -52.478 123.407  -7.785  1.00  0.00     0.004 C 
ENDBRANCH  16  17
ENDBRANCH  15  16
ENDBRANCH  14  15
ENDBRANCH  13  14
ENDBRANCH  12  13
ENDBRANCH  11  12
ENDBRANCH   1  11
TORSDOF 14
ENDMDL
MODEL 3
REMARK VINA RESULT:    -2.179      2.956      5.590
REMARK INTER + INTRA:          -4.989
REMARK INTER:                  -3.677
REMARK INTRA:                  -1.312
REMARK UNBOUND:                -1.027
REMARK SMILES CCCCCCCCCCCCCCCC(=O)[O-]
REMARK SMILES IDX 9 1 10 2 11 3 12 4 13 5 14 6 15 7 16 8 17 9 18 10 8 11 7 12
REMARK SMILES IDX 6 13 5 14 4 15 3 16 2 17 1 18
REMARK H PARENT
REMARK Flexibility Score: inf
ROOT
ATOM      1  C   UNL     1     -56.051 121.363  -8.365  1.00  0.00     0.000 C 
ENDROOT
BRANCH   1   2
ATOM      2  C   UNL     1     -54.538 121.387  -8.618  1.00  0.00     0.000 C 
BRANCH   2   3
ATOM      3  C   UNL     1     -54.049 122.813  -8.898  1.00  0.00     0.000 C 
BRANCH   3   4
ATOM      4  C   UNL     1     -52.624 123.019  -8.369  1.00  0.00     0.000 C 
BRANCH   4   5
ATOM      5  C   UNL     1     -51.600 122.966  -9.513  1.00  0.00     0.000 C 
BRANCH   5   6
ATOM      6  C   UNL     1     -50.215 123.480  -9.091  1.00  0.00     0.006 C 
BRANCH   6   7
ATOM      7  C   UNL     1     -49.139 123.218 -10.153  1.00  0.00     0.053 C 
BRANCH   7   8
ATOM      8  C   UNL     1     -49.273 121.831 -10.698  1.00  0.00     0.041 C 
ATOM      9  O   UNL     1     -49.500 121.651 -11.924  1.00  0.00    -0.550 OA
ATOM     10  O   UNL     1     -49.194 120.738  -9.845  1.00  0.00    -0.550 OA
ENDBRANCH   7   8
ENDBRANCH   6   7
ENDBRANCH   5   6
ENDBRANCH   4   5
ENDBRANCH   3   4
ENDBRANCH   2   3
ENDBRANCH   1   2
BRANCH   1  11
ATOM     11  C   UNL     1     -56.826 121.760  -9.630  1.00  0.00     0.000 C 
BRANCH  11  12
ATOM     12  C   UNL     1     -56.874 120.634 -10.681  1.00  0.00    -0.000 C 
BRANCH  12  13
ATOM     13  C   UNL     1     -56.382 121.034 -12.085  1.00  0.00    -0.000 C 
BRANCH  13  14
ATOM     14  C   UNL     1     -55.412 122.230 -12.121  1.00  0.00    -0.000 C 
BRANCH  14  15
ATOM     15  C   UNL     1     -53.923 121.821 -12.125  1.00  0.00    -0.000 C 
BRANCH  15  16
ATOM     16  C   UNL     1     -53.731 120.298 -12.080  1.00  0.00    -0.000 C 
BRANCH  16  17
ATOM     17  C   UNL     1     -52.470 119.925 -11.292  1.00  0.00    -0.003 C 
ATOM     18  C   UNL     1     -52.817 119.462  -9.881  1.00  0.00     0.004 C 
ENDBRANCH  16  17
ENDBRANCH  15  16
ENDBRANCH  14  15
ENDBRANCH  13  14
ENDBRANCH  12  13
ENDBRANCH  11  12
ENDBRANCH   1  11
TORSDOF 14
ENDMDL
MODEL 4
REMARK VINA RESULT:    -2.158      1.143      2.921
REMARK INTER + INTRA:          -4.952
REMARK INTER:                  -3.913
REMARK INTRA:                  -1.039
REMARK UNBOUND:                -1.027
REMARK SMILES CCCCCCCCCCCCCCCC(=O)[O-]
REMARK SMILES IDX 9 1 10 2 11 3 12 4 13 5 14 6 15 7 16 8 17 9 18 10 8 11 7 12
REMARK SMILES IDX 6 13 5 14 4 15 3 16 2 17 1 18
REMARK H PARENT
REMARK Flexibility Score: inf
ROOT
ATOM      1  C   UNL     1     -51.845 123.147  -8.382  1.00  0.00     0.000 C 
ENDROOT
BRANCH   1   2
ATOM      2  C   UNL     1     -53.129 123.599  -9.090  1.00  0.00     0.000 C 
BRANCH   2   3
ATOM      3  C   UNL     1     -53.823 122.417  -9.777  1.00  0.00     0.000 C 
BRANCH   3   4
ATOM      4  C   UNL     1     -53.525 121.102  -9.047  1.00  0.00     0.000 C 
BRANCH   4   5
ATOM      5  C   UNL     1     -53.916 119.893  -9.910  1.00  0.00     0.000 C 
BRANCH   5   6
ATOM      6  C   UNL     1     -54.116 120.262 -11.389  1.00  0.00     0.006 C 
BRANCH   6   7
ATOM      7  C   UNL     1     -55.489 120.890 -11.661  1.00  0.00     0.053 C 
BRANCH   7   8
ATOM      8  C   UNL     1     -56.576 120.029 -11.099  1.00  0.00     0.041 C 
ATOM      9  O   UNL     1     -56.485 118.774 -11.160  1.00  0.00    -0.550 OA
ATOM     10  O   UNL     1     -57.712 120.611 -10.551  1.00  0.00    -0.550 OA
ENDBRANCH   7   8
ENDBRANCH   6   7
ENDBRANCH   5   6
ENDBRANCH   4   5
ENDBRANCH   3   4
ENDBRANCH   2   3
ENDBRANCH   1   2
BRANCH   1  11
ATOM     11  C   UNL     1     -50.841 124.305  -8.274  1.00  0.00     0.000 C 
BRANCH  11  12
ATOM     12  C   UNL     1     -49.505 124.007  -8.979  1.00  0.00    -0.000 C 
BRANCH  12  13
ATOM     13  C   UNL     1     -49.007 125.117  -9.924  1.00  0.00    -0.000 C 
BRANCH  13  14
ATOM     14  C   UNL     1     -48.875 124.706 -11.403  1.00  0.00    -0.000 C 
BRANCH  14  15
ATOM     15  C   UNL     1     -48.928 123.179 -11.629  1.00  0.00    -0.000 C 
BRANCH  15  16
ATOM     16  C   UNL     1     -50.305 122.705 -12.118  1.00  0.00    -0.000 C 
BRANCH  16  17
ATOM     17  C   UNL     1     -50.696 121.378 -11.456  1.00  0.00    -0.003 C 
ATOM     18  C   UNL     1     -49.718 121.006 -10.347  1.00  0.00     0.004 C 
ENDBRANCH  16  17
ENDBRANCH  15  16
ENDBRANCH  14  15
ENDBRANCH  13  14
ENDBRANCH  12  13
ENDBRANCH  11  12
ENDBRANCH   1  11
TORSDOF 14
ENDMDL
MODEL 5
REMARK VINA RESULT:    -2.146      1.558      2.593
REMARK INTER + INTRA:          -4.929
REMARK INTER:                  -4.258
REMARK INTRA:                  -0.671
REMARK UNBOUND:                -1.027
REMARK SMILES CCCCCCCCCCCCCCCC(=O)[O-]
REMARK SMILES IDX 9 1 10 2 11 3 12 4 13 5 14 6 15 7 16 8 17 9 18 10 8 11 7 12
REMARK SMILES IDX 6 13 5 14 4 15 3 16 2 17 1 18
REMARK H PARENT
REMARK Flexibility Score: inf
ROOT
ATOM      1  C   UNL     1     -53.854 120.978  -9.084  1.00  0.00     0.000 C 
ENDROOT
BRANCH   1   2
ATOM      2  C   UNL     1     -53.871 119.669  -9.885  1.00  0.00     0.000 C 
BRANCH   2   3
ATOM      3  C   UNL     1     -53.842 119.946 -11.393  1.00  0.00     0.000 C 
BRANCH   3   4
ATOM      4  C   UNL     1     -55.206 119.659 -12.031  1.00  0.00     0.000 C 
BRANCH   4   5
ATOM      5  C   UNL     1     -56.167 119.026 -11.013  1.00  0.00     0.000 C 
BRANCH   5   6
ATOM      6  C   UNL     1     -57.507 119.772 -10.921  1.00  0.00     0.006 C 
BRANCH   6   7
ATOM      7  C   UNL     1     -57.511 121.079 -11.725  1.00  0.00     0.053 C 
BRANCH   7   8
ATOM      8  C   UNL     1     -56.714 122.129 -11.016  1.00  0.00     0.041 C 
ATOM      9  O   UNL     1     -56.713 122.181  -9.758  1.00  0.00    -0.550 OA
ATOM     10  O   UNL     1     -56.011 123.079 -11.746  1.00  0.00    -0.550 OA
ENDBRANCH   7   8
ENDBRANCH   6   7
ENDBRANCH   5   6
ENDBRANCH   4   5
ENDBRANCH   3   4
ENDBRANCH   2   3
ENDBRANCH   1   2
BRANCH   1  11
ATOM     11  C   UNL     1     -52.572 121.777  -9.364  1.00  0.00     0.000 C 
BRANCH  11  12
ATOM     12  C   UNL     1     -52.715 122.738 -10.558  1.00  0.00    -0.000 C 
BRANCH  12  13
ATOM     13  C   UNL     1     -51.833 122.400 -11.775  1.00  0.00    -0.000 C 
BRANCH  13  14
ATOM     14  C   UNL     1     -50.641 121.469 -11.479  1.00  0.00    -0.000 C 
BRANCH  14  15
ATOM     15  C   UNL     1     -49.284 122.028 -11.958  1.00  0.00    -0.000 C 
BRANCH  15  16
ATOM     16  C   UNL     1     -48.876 123.305 -11.208  1.00  0.00    -0.000 C 
BRANCH  16  17
ATOM     17  C   UNL     1     -48.876 123.077  -9.692  1.00  0.00    -0.003 C 
ATOM     18  C   UNL     1     -49.690 124.148  -8.973  1.00  0.00     0.004 C 
ENDBRANCH  16  17
ENDBRANCH  15  16
ENDBRANCH  14  15
ENDBRANCH  13  14
ENDBRANCH  12  13
ENDBRANCH  11  12
ENDBRANCH   1  11
TORSDOF 14
ENDMDL
MODEL 6
REMARK VINA RESULT:    -2.030      2.849      6.142
REMARK INTER + INTRA:          -4.719
REMARK INTER:                  -4.312
REMARK INTRA:                  -0.408
REMARK UNBOUND:                -1.027
REMARK SMILES CCCCCCCCCCCCCCCC(=O)[O-]
REMARK SMILES IDX 9 1 10 2 11 3 12 4 13 5 14 6 15 7 16 8 17 9 18 10 8 11 7 12
REMARK SMILES IDX 6 13 5 14 4 15 3 16 2 17 1 18
REMARK H PARENT
REMARK Flexibility Score: inf
ROOT
ATOM      1  C   UNL     1     -53.328 120.939  -8.799  1.00  0.00     0.000 C 
ENDROOT
BRANCH   1   2
ATOM      2  C   UNL     1     -54.045 122.274  -8.552  1.00  0.00     0.000 C 
BRANCH   2   3
ATOM      3  C   UNL     1     -53.069 123.451  -8.666  1.00  0.00     0.000 C 
BRANCH   3   4
ATOM      4  C   UNL     1     -51.647 123.027  -8.282  1.00  0.00     0.000 C 
BRANCH   4   5
ATOM      5  C   UNL     1     -50.638 124.144  -8.594  1.00  0.00     0.000 C 
BRANCH   5   6
ATOM      6  C   UNL     1     -49.368 123.618  -9.282  1.00  0.00     0.006 C 
BRANCH   6   7
ATOM      7  C   UNL     1     -49.626 123.154 -10.722  1.00  0.00     0.053 C 
BRANCH   7   8
ATOM      8  C   UNL     1     -49.431 121.675 -10.835  1.00  0.00     0.041 C 
ATOM      9  O   UNL     1     -49.694 121.082 -11.915  1.00  0.00    -0.550 OA
ATOM     10  O   UNL     1     -49.004 120.944  -9.734  1.00  0.00    -0.550 OA
ENDBRANCH   7   8
ENDBRANCH   6   7
ENDBRANCH   5   6
ENDBRANCH   4   5
ENDBRANCH   3   4
ENDBRANCH   2   3
ENDBRANCH   1   2
BRANCH   1  11
ATOM     11  C   UNL     1     -53.039 120.739 -10.294  1.00  0.00     0.000 C 
BRANCH  11  12
ATOM     12  C   UNL     1     -53.287 122.010 -11.127  1.00  0.00    -0.000 C 
BRANCH  12  13
ATOM     13  C   UNL     1     -54.456 121.916 -12.125  1.00  0.00    -0.000 C 
BRANCH  13  14
ATOM     14  C   UNL     1     -55.267 120.608 -12.060  1.00  0.00    -0.000 C 
BRANCH  14  15
ATOM     15  C   UNL     1     -56.794 120.820 -12.125  1.00  0.00    -0.000 C 
BRANCH  15  16
ATOM     16  C   UNL     1     -57.549 119.990 -11.075  1.00  0.00    -0.000 C 
BRANCH  16  17
ATOM     17  C   UNL     1     -56.838 120.043  -9.718  1.00  0.00    -0.003 C 
ATOM     18  C   UNL     1     -56.828 121.461  -9.155  1.00  0.00     0.004 C 
ENDBRANCH  16  17
ENDBRANCH  15  16
ENDBRANCH  14  15
ENDBRANCH  13  14
ENDBRANCH  12  13
ENDBRANCH  11  12
ENDBRANCH   1  11
TORSDOF 14
ENDMDL
MODEL 7
REMARK VINA RESULT:    -2.027      1.175      2.374
REMARK INTER + INTRA:          -4.714
REMARK INTER:                  -3.983
REMARK INTRA:                  -0.731
REMARK UNBOUND:                -1.027
REMARK SMILES CCCCCCCCCCCCCCCC(=O)[O-]
REMARK SMILES IDX 9 1 10 2 11 3 12 4 13 5 14 6 15 7 16 8 17 9 18 10 8 11 7 12
REMARK SMILES IDX 6 13 5 14 4 15 3 16 2 17 1 18
REMARK H PARENT
REMARK Flexibility Score: inf
ROOT
ATOM      1  C   UNL     1     -52.921 120.376 -10.773  1.00  0.00     0.000 C 
ENDROOT
BRANCH   1   2
ATOM      2  C   UNL     1     -53.291 121.014 -12.119  1.00  0.00     0.000 C 
BRANCH   2   3
ATOM      3  C   UNL     1     -53.175 122.541 -12.055  1.00  0.00     0.000 C 
BRANCH   3   4
ATOM      4  C   UNL     1     -54.552 123.191 -11.880  1.00  0.00     0.000 C 
BRANCH   4   5
ATOM      5  C   UNL     1     -55.630 122.130 -11.607  1.00  0.00     0.000 C 
BRANCH   5   6
ATOM      6  C   UNL     1     -55.995 122.028 -10.118  1.00  0.00     0.006 C 
BRANCH   6   7
ATOM      7  C   UNL     1     -56.565 120.654  -9.742  1.00  0.00     0.053 C 
BRANCH   7   8
ATOM      8  C   UNL     1     -56.971 119.904 -10.972  1.00  0.00     0.041 C 
ATOM      9  O   UNL     1     -58.126 120.054 -11.452  1.00  0.00    -0.550 OA
ATOM     10  O   UNL     1     -56.091 119.006 -11.561  1.00  0.00    -0.550 OA
ENDBRANCH   7   8
ENDBRANCH   6   7
ENDBRANCH   5   6
ENDBRANCH   4   5
ENDBRANCH   3   4
ENDBRANCH   2   3
ENDBRANCH   1   2
BRANCH   1  11
ATOM     11  C   UNL     1     -51.442 120.619 -10.438  1.00  0.00     0.000 C 
BRANCH  11  12
ATOM     12  C   UNL     1     -50.611 121.036 -11.666  1.00  0.00    -0.000 C 
BRANCH  12  13
ATOM     13  C   UNL     1     -49.313 121.800 -11.343  1.00  0.00    -0.000 C 
BRANCH  13  14
ATOM     14  C   UNL     1     -49.510 123.254 -10.875  1.00  0.00    -0.000 C 
BRANCH  14  15
ATOM     15  C   UNL     1     -49.440 123.428  -9.342  1.00  0.00    -0.000 C 
BRANCH  15  16
ATOM     16  C   UNL     1     -50.723 124.038  -8.759  1.00  0.00    -0.000 C 
BRANCH  16  17
ATOM     17  C   UNL     1     -51.791 122.961  -8.536  1.00  0.00    -0.003 C 
ATOM     18  C   UNL     1     -53.189 123.571  -8.499  1.00  0.00     0.004 C 
ENDBRANCH  16  17
ENDBRANCH  15  16
ENDBRANCH  14  15
ENDBRANCH  13  14
ENDBRANCH  12  13
ENDBRANCH  11  12
ENDBRANCH   1  11
TORSDOF 14
ENDMDL
MODEL 8
REMARK VINA RESULT:    -1.528      1.702      2.890
REMARK INTER + INTRA:          -3.806
REMARK INTER:                  -2.714
REMARK INTRA:                  -1.092
REMARK UNBOUND:                -1.027
REMARK SMILES CCCCCCCCCCCCCCCC(=O)[O-]
REMARK SMILES IDX 9 1 10 2 11 3 12 4 13 5 14 6 15 7 16 8 17 9 18 10 8 11 7 12
REMARK SMILES IDX 6 13 5 14 4 15 3 16 2 17 1 18
REMARK H PARENT
REMARK Flexibility Score: inf
ROOT
ATOM      1  C   UNL     1     -53.767 121.221  -8.821  1.00  0.00     0.000 C 
ENDROOT
BRANCH   1   2
ATOM      2  C   UNL     1     -53.646 119.968  -9.698  1.00  0.00     0.000 C 
BRANCH   2   3
ATOM      3  C   UNL     1     -53.069 120.313 -11.076  1.00  0.00     0.000 C 
BRANCH   3   4
ATOM      4  C   UNL     1     -54.185 120.661 -12.068  1.00  0.00     0.000 C 
BRANCH   4   5
ATOM      5  C   UNL     1     -55.298 119.602 -12.037  1.00  0.00     0.000 C 
BRANCH   5   6
ATOM      6  C   UNL     1     -56.703 120.222 -12.007  1.00  0.00     0.006 C 
BRANCH   6   7
ATOM      7  C   UNL     1     -57.223 120.437 -10.579  1.00  0.00     0.053 C 
BRANCH   7   8
ATOM      8  C   UNL     1     -56.877 121.813 -10.101  1.00  0.00     0.041 C 
ATOM      9  O   UNL     1     -56.376 122.652 -10.896  1.00  0.00    -0.550 OA
ATOM     10  O   UNL     1     -57.063 122.153  -8.767  1.00  0.00    -0.550 OA
ENDBRANCH   7   8
ENDBRANCH   6   7
ENDBRANCH   5   6
ENDBRANCH   4   5
ENDBRANCH   3   4
ENDBRANCH   2   3
ENDBRANCH   1   2
BRANCH   1  11
ATOM     11  C   UNL     1     -52.936 122.376  -9.396  1.00  0.00     0.000 C 
BRANCH  11  12
ATOM     12  C   UNL     1     -51.602 122.583  -8.654  1.00  0.00    -0.000 C 
BRANCH  12  13
ATOM     13  C   UNL     1     -51.114 124.042  -8.587  1.00  0.00    -0.000 C 
BRANCH  13  14
ATOM     14  C   UNL     1     -49.585 124.223  -8.649  1.00  0.00    -0.000 C 
BRANCH  14  15
ATOM     15  C   UNL     1     -48.875 123.197  -9.557  1.00  0.00    -0.000 C 
BRANCH  15  16
ATOM     16  C   UNL     1     -48.897 123.607 -11.037  1.00  0.00    -0.000 C 
BRANCH  16  17
ATOM     17  C   UNL     1     -48.983 122.375 -11.947  1.00  0.00    -0.003 C 
ATOM     18  C   UNL     1     -50.428 121.920 -12.125  1.00  0.00     0.004 C 
ENDBRANCH  16  17
ENDBRANCH  15  16
ENDBRANCH  14  15
ENDBRANCH  13  14
ENDBRANCH  12  13
ENDBRANCH  11  12
ENDBRANCH   1  11
TORSDOF 14
ENDMDL
MODEL 9
REMARK VINA RESULT:    -0.566      2.303      6.129
REMARK INTER + INTRA:          -2.057
REMARK INTER:                  -1.061
REMARK INTRA:                  -0.996
REMARK UNBOUND:                -1.027
REMARK SMILES CCCCCCCCCCCCCCCC(=O)[O-]
REMARK SMILES IDX 9 1 10 2 11 3 12 4 13 5 14 6 15 7 16 8 17 9 18 10 8 11 7 12
REMARK SMILES IDX 6 13 5 14 4 15 3 16 2 17 1 18
REMARK H PARENT
REMARK Flexibility Score: inf
ROOT
ATOM      1  C   UNL     1     -52.945 121.035 -11.758  1.00  0.00     0.000 C 
ENDROOT
BRANCH   1   2
ATOM      2  C   UNL     1     -51.556 120.471 -11.435  1.00  0.00     0.000 C 
BRANCH   2   3
ATOM      3  C   UNL     1     -50.470 121.536 -11.626  1.00  0.00     0.000 C 
BRANCH   3   4
ATOM      4  C   UNL     1     -49.411 121.447 -10.521  1.00  0.00     0.000 C 
BRANCH   4   5
ATOM      5  C   UNL     1     -49.444 122.697  -9.627  1.00  0.00     0.000 C 
BRANCH   5   6
ATOM      6  C   UNL     1     -50.806 123.409  -9.656  1.00  0.00     0.006 C 
BRANCH   6   7
ATOM      7  C   UNL     1     -51.502 123.408  -8.289  1.00  0.00     0.053 C 
BRANCH   7   8
ATOM      8  C   UNL     1     -52.913 122.928  -8.423  1.00  0.00     0.041 C 
ATOM      9  O   UNL     1     -53.863 123.754  -8.458  1.00  0.00    -0.550 OA
ATOM     10  O   UNL     1     -53.183 121.566  -8.462  1.00  0.00    -0.550 OA
ENDBRANCH   7   8
ENDBRANCH   6   7
ENDBRANCH   5   6
ENDBRANCH   4   5
ENDBRANCH   3   4
ENDBRANCH   2   3
ENDBRANCH   1   2
BRANCH   1  11
ATOM     11  C   UNL     1     -52.871 122.539 -12.060  1.00  0.00     0.000 C 
BRANCH  11  12
ATOM     12  C   UNL     1     -54.257 123.206 -12.125  1.00  0.00    -0.000 C 
BRANCH  12  13
ATOM     13  C   UNL     1     -55.437 122.294 -11.739  1.00  0.00    -0.000 C 
BRANCH  13  14
ATOM     14  C   UNL     1     -55.998 122.516 -10.322  1.00  0.00    -0.000 C 
BRANCH  14  15
ATOM     15  C   UNL     1     -56.339 121.207  -9.577  1.00  0.00    -0.000 C 
BRANCH  15  16
ATOM     16  C   UNL     1     -55.830 119.960 -10.316  1.00  0.00    -0.000 C 
BRANCH  16  17
ATOM     17  C   UNL     1     -56.991 119.185 -10.949  1.00  0.00    -0.003 C 
ATOM     18  C   UNL     1     -57.859 120.097 -11.811  1.00  0.00     0.004 C 
ENDBRANCH  16  17
ENDBRANCH  15  16
ENDBRANCH  14  15
ENDBRANCH  13  14
ENDBRANCH  12  13
ENDBRANCH  11  12
ENDBRANCH   1  11
TORSDOF 14
ENDMDL
