MODEL 1
REMARK VINA RESULT:    -4.889      0.000      0.000
REMARK INTER + INTRA:          -7.792
REMARK INTER:                  -7.032
REMARK INTRA:                  -0.759
REMARK UNBOUND:                -0.759
REMARK SMILES O=C(CO)[C@@H](O)[C@H](O)[C@H](O)CO
REMARK SMILES IDX 7 1 9 2 11 3 12 4 10 6 5 8 2 9 1 10 3 11 4 12 6 14 8 16
REMARK H PARENT 12 5 10 7 4 13 6 15 8 17
REMARK Flexibility Score: inf
ROOT
ATOM      1  C   UNL     1     -17.903  35.397 -22.521  1.00  0.00     0.181 C 
ENDROOT
BRANCH   1   2
ATOM      2  C   UNL     1     -16.796  36.229 -21.813  1.00  0.00     0.171 C 
BRANCH   2   3
ATOM      3  C   UNL     1     -16.183  35.539 -20.578  1.00  0.00     0.190 C 
BRANCH   3   4
ATOM      4  O   UNL     1     -17.119  35.484 -19.536  1.00  0.00    -0.394 OA
ATOM      5  H   UNL     1     -16.964  34.622 -19.070  1.00  0.00     0.210 HD
ENDBRANCH   3   4
ENDBRANCH   2   3
BRANCH   2   6
ATOM      6  O   UNL     1     -15.800  36.633 -22.721  1.00  0.00    -0.388 OA
ATOM      7  H   UNL     1     -15.132  37.175 -22.225  1.00  0.00     0.211 HD
ENDBRANCH   2   6
ENDBRANCH   1   2
BRANCH   1   8
ATOM      8  C   UNL     1     -17.431  34.016 -23.032  1.00  0.00     0.214 C 
BRANCH   8   9
ATOM      9  C   UNL     1     -18.603  33.251 -23.621  1.00  0.00     0.189 C 
ATOM     10  O   UNL     1     -19.722  33.736 -23.539  1.00  0.00    -0.294 OA
BRANCH   9  11
ATOM     11  C   UNL     1     -18.457  31.913 -24.305  1.00  0.00     0.234 C 
BRANCH  11  12
ATOM     12  O   UNL     1     -17.426  31.909 -25.257  1.00  0.00    -0.388 OA
ATOM     13  H   UNL     1     -17.088  30.976 -25.307  1.00  0.00     0.211 HD
ENDBRANCH  11  12
ENDBRANCH   9  11
ENDBRANCH   8   9
BRANCH   8  14
ATOM     14  O   UNL     1     -16.440  34.177 -24.014  1.00  0.00    -0.382 OA
ATOM     15  H   UNL     1     -16.784  33.751 -24.843  1.00  0.00     0.211 HD
ENDBRANCH   8  14
ENDBRANCH   1   8
BRANCH   1  16
ATOM     16  O   UNL     1     -18.419  36.136 -23.602  1.00  0.00    -0.387 OA
ATOM     17  H   UNL     1     -17.648  36.576 -24.048  1.00  0.00     0.211 HD
ENDBRANCH   1  16
TORSDOF 10
ENDMDL
MODEL 2
REMARK VINA RESULT:    -4.884      1.157      4.485
REMARK INTER + INTRA:          -7.784
REMARK INTER:                  -6.578
REMARK INTRA:                  -1.206
REMARK UNBOUND:                -0.759
REMARK SMILES O=C(CO)[C@@H](O)[C@H](O)[C@H](O)CO
REMARK SMILES IDX 7 1 9 2 11 3 12 4 10 6 5 8 2 9 1 10 3 11 4 12 6 14 8 16
REMARK H PARENT 12 5 10 7 4 13 6 15 8 17
REMARK Flexibility Score: inf
ROOT
ATOM      1  C   UNL     1     -18.925  34.230 -22.345  1.00  0.00     0.181 C 
ENDROOT
BRANCH   1   2
ATOM      2  C   UNL     1     -19.013  33.545 -23.739  1.00  0.00     0.171 C 
BRANCH   2   3
ATOM      3  C   UNL     1     -17.778  32.695 -24.102  1.00  0.00     0.190 C 
BRANCH   3   4
ATOM      4  O   UNL     1     -16.636  33.504 -24.176  1.00  0.00    -0.394 OA
ATOM      5  H   UNL     1     -16.144  33.215 -24.988  1.00  0.00     0.210 HD
ENDBRANCH   3   4
ENDBRANCH   2   3
BRANCH   2   6
ATOM      6  O   UNL     1     -20.201  32.803 -23.870  1.00  0.00    -0.388 OA
ATOM      7  H   UNL     1     -20.820  33.313 -24.456  1.00  0.00     0.211 HD
ENDBRANCH   2   6
ENDBRANCH   1   2
BRANCH   1   8
ATOM      8  C   UNL     1     -18.513  35.721 -22.395  1.00  0.00     0.214 C 
BRANCH   8   9
ATOM      9  C   UNL     1     -17.176  35.914 -21.702  1.00  0.00     0.189 C 
ATOM     10  O   UNL     1     -16.151  35.691 -22.330  1.00  0.00    -0.294 OA
BRANCH   9  11
ATOM     11  C   UNL     1     -17.046  36.367 -20.267  1.00  0.00     0.234 C 
BRANCH  11  12
ATOM     12  O   UNL     1     -17.249  35.319 -19.356  1.00  0.00    -0.388 OA
ATOM     13  H   UNL     1     -18.192  35.387 -19.049  1.00  0.00     0.211 HD
ENDBRANCH  11  12
ENDBRANCH   9  11
ENDBRANCH   8   9
BRANCH   8  14
ATOM     14  O   UNL     1     -18.412  36.149 -23.729  1.00  0.00    -0.382 OA
ATOM     15  H   UNL     1     -17.572  35.762 -24.093  1.00  0.00     0.211 HD
ENDBRANCH   8  14
ENDBRANCH   1   8
BRANCH   1  16
ATOM     16  O   UNL     1     -18.009  33.527 -21.540  1.00  0.00    -0.387 OA
ATOM     17  H   UNL     1     -17.919  32.617 -21.928  1.00  0.00     0.211 HD
ENDBRANCH   1  16
TORSDOF 10
ENDMDL
MODEL 3
REMARK VINA RESULT:    -4.877      1.819      4.408
REMARK INTER + INTRA:          -7.774
REMARK INTER:                  -6.859
REMARK INTRA:                  -0.915
REMARK UNBOUND:                -0.759
REMARK SMILES O=C(CO)[C@@H](O)[C@H](O)[C@H](O)CO
REMARK SMILES IDX 7 1 9 2 11 3 12 4 10 6 5 8 2 9 1 10 3 11 4 12 6 14 8 16
REMARK H PARENT 12 5 10 7 4 13 6 15 8 17
REMARK Flexibility Score: inf
ROOT
ATOM      1  C   UNL     1     -18.510  34.689 -23.312  1.00  0.00     0.181 C 
ENDROOT
BRANCH   1   2
ATOM      2  C   UNL     1     -19.962  34.561 -22.768  1.00  0.00     0.171 C 
BRANCH   2   3
ATOM      3  C   UNL     1     -20.978  35.490 -23.462  1.00  0.00     0.190 C 
BRANCH   3   4
ATOM      4  O   UNL     1     -20.777  36.818 -23.060  1.00  0.00    -0.394 OA
ATOM      5  H   UNL     1     -21.193  36.901 -22.164  1.00  0.00     0.210 HD
ENDBRANCH   3   4
ENDBRANCH   2   3
BRANCH   2   6
ATOM      6  O   UNL     1     -20.398  33.223 -22.783  1.00  0.00    -0.388 OA
ATOM      7  H   UNL     1     -20.897  33.052 -21.943  1.00  0.00     0.211 HD
ENDBRANCH   2   6
ENDBRANCH   1   2
BRANCH   1   8
ATOM      8  C   UNL     1     -17.415  34.261 -22.306  1.00  0.00     0.214 C 
BRANCH   8   9
ATOM      9  C   UNL     1     -16.693  35.487 -21.772  1.00  0.00     0.189 C 
ATOM     10  O   UNL     1     -15.721  35.908 -22.381  1.00  0.00    -0.294 OA
BRANCH   9  11
ATOM     11  C   UNL     1     -17.115  36.213 -20.517  1.00  0.00     0.234 C 
BRANCH  11  12
ATOM     12  O   UNL     1     -17.164  35.367 -19.400  1.00  0.00    -0.388 OA
ATOM     13  H   UNL     1     -17.458  34.476 -19.729  1.00  0.00     0.211 HD
ENDBRANCH  11  12
ENDBRANCH   9  11
ENDBRANCH   8   9
BRANCH   8  14
ATOM     14  O   UNL     1     -17.991  33.558 -21.234  1.00  0.00    -0.382 OA
ATOM     15  H   UNL     1     -17.655  33.979 -20.400  1.00  0.00     0.211 HD
ENDBRANCH   8  14
ENDBRANCH   1   8
BRANCH   1  16
ATOM     16  O   UNL     1     -18.278  36.020 -23.705  1.00  0.00    -0.387 OA
ATOM     17  H   UNL     1     -19.167  36.445 -23.832  1.00  0.00     0.211 HD
ENDBRANCH   1  16
TORSDOF 10
ENDMDL
MODEL 4
REMARK VINA RESULT:    -4.771      2.493      3.803
REMARK INTER + INTRA:          -7.622
REMARK INTER:                  -6.794
REMARK INTRA:                  -0.828
REMARK UNBOUND:                -0.759
REMARK SMILES O=C(CO)[C@@H](O)[C@H](O)[C@H](O)CO
REMARK SMILES IDX 7 1 9 2 11 3 12 4 10 6 5 8 2 9 1 10 3 11 4 12 6 14 8 16
REMARK H PARENT 12 5 10 7 4 13 6 15 8 17
REMARK Flexibility Score: inf
ROOT
ATOM      1  C   UNL     1     -20.090  34.365 -23.229  1.00  0.00     0.181 C 
ENDROOT
BRANCH   1   2
ATOM      2  C   UNL     1     -21.059  35.570 -23.402  1.00  0.00     0.171 C 
BRANCH   2   3
ATOM      3  C   UNL     1     -22.358  35.456 -22.579  1.00  0.00     0.190 C 
BRANCH   3   4
ATOM      4  O   UNL     1     -23.231  36.504 -22.900  1.00  0.00    -0.394 OA
ATOM      5  H   UNL     1     -24.055  36.079 -23.254  1.00  0.00     0.210 HD
ENDBRANCH   3   4
ENDBRANCH   2   3
BRANCH   2   6
ATOM      6  O   UNL     1     -20.405  36.792 -23.161  1.00  0.00    -0.388 OA
ATOM      7  H   UNL     1     -20.085  37.147 -24.031  1.00  0.00     0.211 HD
ENDBRANCH   2   6
ENDBRANCH   1   2
BRANCH   1   8
ATOM      8  C   UNL     1     -18.702  34.743 -22.658  1.00  0.00     0.214 C 
BRANCH   8   9
ATOM      9  C   UNL     1     -17.964  33.492 -22.216  1.00  0.00     0.189 C 
ATOM     10  O   UNL     1     -18.327  32.925 -21.196  1.00  0.00    -0.294 OA
BRANCH   9  11
ATOM     11  C   UNL     1     -16.796  32.910 -22.975  1.00  0.00     0.234 C 
BRANCH  11  12
ATOM     12  O   UNL     1     -17.065  32.769 -24.345  1.00  0.00    -0.388 OA
ATOM     13  H   UNL     1     -16.515  32.006 -24.666  1.00  0.00     0.211 HD
ENDBRANCH  11  12
ENDBRANCH   9  11
ENDBRANCH   8   9
BRANCH   8  14
ATOM     14  O   UNL     1     -17.944  35.410 -23.635  1.00  0.00    -0.382 OA
ATOM     15  H   UNL     1     -18.412  35.279 -24.502  1.00  0.00     0.211 HD
ENDBRANCH   8  14
ENDBRANCH   1   8
BRANCH   1  16
ATOM     16  O   UNL     1     -19.919  33.725 -24.470  1.00  0.00    -0.387 OA
ATOM     17  H   UNL     1     -20.265  34.343 -25.166  1.00  0.00     0.211 HD
ENDBRANCH   1  16
TORSDOF 10
ENDMDL
MODEL 5
REMARK VINA RESULT:    -4.752      2.360      3.472
REMARK INTER + INTRA:          -7.594
REMARK INTER:                  -6.858
REMARK INTRA:                  -0.736
REMARK UNBOUND:                -0.759
REMARK SMILES O=C(CO)[C@@H](O)[C@H](O)[C@H](O)CO
REMARK SMILES IDX 7 1 9 2 11 3 12 4 10 6 5 8 2 9 1 10 3 11 4 12 6 14 8 16
REMARK H PARENT 12 5 10 7 4 13 6 15 8 17
REMARK Flexibility Score: inf
ROOT
ATOM      1  C   UNL     1     -18.833  34.649 -22.978  1.00  0.00     0.181 C 
ENDROOT
BRANCH   1   2
ATOM      2  C   UNL     1     -18.056  35.496 -21.929  1.00  0.00     0.171 C 
BRANCH   2   3
ATOM      3  C   UNL     1     -17.448  34.668 -20.779  1.00  0.00     0.190 C 
BRANCH   3   4
ATOM      4  O   UNL     1     -17.195  35.488 -19.670  1.00  0.00    -0.394 OA
ATOM      5  H   UNL     1     -16.417  36.052 -19.915  1.00  0.00     0.210 HD
ENDBRANCH   3   4
ENDBRANCH   2   3
BRANCH   2   6
ATOM      6  O   UNL     1     -17.085  36.308 -22.544  1.00  0.00    -0.388 OA
ATOM      7  H   UNL     1     -17.337  37.256 -22.394  1.00  0.00     0.211 HD
ENDBRANCH   2   6
ENDBRANCH   1   2
BRANCH   1   8
ATOM      8  C   UNL     1     -19.989  35.407 -23.674  1.00  0.00     0.214 C 
BRANCH   8   9
ATOM      9  C   UNL     1     -21.302  34.682 -23.436  1.00  0.00     0.189 C 
ATOM     10  O   UNL     1     -21.493  33.611 -23.993  1.00  0.00    -0.294 OA
BRANCH   9  11
ATOM     11  C   UNL     1     -22.393  35.222 -22.542  1.00  0.00     0.234 C 
BRANCH  11  12
ATOM     12  O   UNL     1     -22.984  36.383 -23.062  1.00  0.00    -0.388 OA
ATOM     13  H   UNL     1     -23.764  36.590 -22.482  1.00  0.00     0.211 HD
ENDBRANCH  11  12
ENDBRANCH   9  11
ENDBRANCH   8   9
BRANCH   8  14
ATOM     14  O   UNL     1     -20.082  36.715 -23.171  1.00  0.00    -0.382 OA
ATOM     15  H   UNL     1     -19.729  37.320 -23.876  1.00  0.00     0.211 HD
ENDBRANCH   8  14
ENDBRANCH   1   8
BRANCH   1  16
ATOM     16  O   UNL     1     -19.347  33.497 -22.355  1.00  0.00    -0.387 OA
ATOM     17  H   UNL     1     -20.178  33.250 -22.841  1.00  0.00     0.211 HD
ENDBRANCH   1  16
TORSDOF 10
ENDMDL
MODEL 6
REMARK VINA RESULT:    -4.724      1.131      2.086
REMARK INTER + INTRA:          -7.555
REMARK INTER:                  -6.248
REMARK INTRA:                  -1.307
REMARK UNBOUND:                -0.759
REMARK SMILES O=C(CO)[C@@H](O)[C@H](O)[C@H](O)CO
REMARK SMILES IDX 7 1 9 2 11 3 12 4 10 6 5 8 2 9 1 10 3 11 4 12 6 14 8 16
REMARK H PARENT 12 5 10 7 4 13 6 15 8 17
REMARK Flexibility Score: inf
ROOT
ATOM      1  C   UNL     1     -18.452  35.503 -22.307  1.00  0.00     0.181 C 
ENDROOT
BRANCH   1   2
ATOM      2  C   UNL     1     -17.089  35.419 -21.563  1.00  0.00     0.171 C 
BRANCH   2   3
ATOM      3  C   UNL     1     -15.998  36.343 -22.142  1.00  0.00     0.190 C 
BRANCH   3   4
ATOM      4  O   UNL     1     -15.409  35.753 -23.269  1.00  0.00    -0.394 OA
ATOM      5  H   UNL     1     -16.157  35.484 -23.863  1.00  0.00     0.210 HD
ENDBRANCH   3   4
ENDBRANCH   2   3
BRANCH   2   6
ATOM      6  O   UNL     1     -17.247  35.618 -20.179  1.00  0.00    -0.388 OA
ATOM      7  H   UNL     1     -17.623  36.527 -20.040  1.00  0.00     0.211 HD
ENDBRANCH   2   6
ENDBRANCH   1   2
BRANCH   1   8
ATOM      8  C   UNL     1     -19.202  34.153 -22.412  1.00  0.00     0.214 C 
BRANCH   8   9
ATOM      9  C   UNL     1     -19.112  33.619 -23.831  1.00  0.00     0.189 C 
ATOM     10  O   UNL     1     -19.947  33.976 -24.648  1.00  0.00    -0.294 OA
BRANCH   9  11
ATOM     11  C   UNL     1     -18.038  32.659 -24.285  1.00  0.00     0.234 C 
BRANCH  11  12
ATOM     12  O   UNL     1     -16.749  33.194 -24.145  1.00  0.00    -0.388 OA
ATOM     13  H   UNL     1     -16.610  33.353 -23.174  1.00  0.00     0.211 HD
ENDBRANCH  11  12
ENDBRANCH   9  11
ENDBRANCH   8   9
BRANCH   8  14
ATOM     14  O   UNL     1     -18.642  33.218 -21.527  1.00  0.00    -0.382 OA
ATOM     15  H   UNL     1     -19.374  32.604 -21.255  1.00  0.00     0.211 HD
ENDBRANCH   8  14
ENDBRANCH   1   8
BRANCH   1  16
ATOM     16  O   UNL     1     -18.244  36.015 -23.601  1.00  0.00    -0.387 OA
ATOM     17  H   UNL     1     -17.504  35.491 -24.006  1.00  0.00     0.211 HD
ENDBRANCH   1  16
TORSDOF 10
ENDMDL
MODEL 7
REMARK VINA RESULT:    -4.637      1.555      2.612
REMARK INTER + INTRA:          -7.429
REMARK INTER:                  -6.003
REMARK INTRA:                  -1.426
REMARK UNBOUND:                -0.759
REMARK SMILES O=C(CO)[C@@H](O)[C@H](O)[C@H](O)CO
REMARK SMILES IDX 7 1 9 2 11 3 12 4 10 6 5 8 2 9 1 10 3 11 4 12 6 14 8 16
REMARK H PARENT 12 5 10 7 4 13 6 15 8 17
REMARK Flexibility Score: inf
ROOT
ATOM      1  C   UNL     1     -17.641  34.249 -21.889  1.00  0.00     0.181 C 
ENDROOT
BRANCH   1   2
ATOM      2  C   UNL     1     -17.836  35.737 -22.298  1.00  0.00     0.171 C 
BRANCH   2   3
ATOM      3  C   UNL     1     -19.199  36.036 -22.955  1.00  0.00     0.190 C 
BRANCH   3   4
ATOM      4  O   UNL     1     -19.189  35.635 -24.298  1.00  0.00    -0.394 OA
ATOM      5  H   UNL     1     -18.440  36.125 -24.727  1.00  0.00     0.210 HD
ENDBRANCH   3   4
ENDBRANCH   2   3
BRANCH   2   6
ATOM      6  O   UNL     1     -17.588  36.602 -21.215  1.00  0.00    -0.388 OA
ATOM      7  H   UNL     1     -16.745  37.092 -21.399  1.00  0.00     0.211 HD
ENDBRANCH   2   6
ENDBRANCH   1   2
BRANCH   1   8
ATOM      8  C   UNL     1     -16.716  33.446 -22.835  1.00  0.00     0.214 C 
BRANCH   8   9
ATOM      9  C   UNL     1     -17.365  32.121 -23.194  1.00  0.00     0.189 C 
ATOM     10  O   UNL     1     -17.332  31.210 -22.381  1.00  0.00    -0.294 OA
BRANCH   9  11
ATOM     11  C   UNL     1     -18.053  31.869 -24.515  1.00  0.00     0.234 C 
BRANCH  11  12
ATOM     12  O   UNL     1     -19.117  32.755 -24.742  1.00  0.00    -0.388 OA
ATOM     13  H   UNL     1     -19.160  32.905 -25.723  1.00  0.00     0.211 HD
ENDBRANCH  11  12
ENDBRANCH   9  11
ENDBRANCH   8   9
BRANCH   8  14
ATOM     14  O   UNL     1     -16.473  34.178 -24.009  1.00  0.00    -0.382 OA
ATOM     15  H   UNL     1     -15.489  34.299 -24.075  1.00  0.00     0.211 HD
ENDBRANCH   8  14
ENDBRANCH   1   8
BRANCH   1  16
ATOM     16  O   UNL     1     -18.896  33.616 -21.827  1.00  0.00    -0.387 OA
ATOM     17  H   UNL     1     -18.727  32.639 -21.773  1.00  0.00     0.211 HD
ENDBRANCH   1  16
TORSDOF 10
ENDMDL
MODEL 8
REMARK VINA RESULT:    -4.581      1.577      4.137
REMARK INTER + INTRA:          -7.349
REMARK INTER:                  -5.966
REMARK INTRA:                  -1.382
REMARK UNBOUND:                -0.759
REMARK SMILES O=C(CO)[C@@H](O)[C@H](O)[C@H](O)CO
REMARK SMILES IDX 7 1 9 2 11 3 12 4 10 6 5 8 2 9 1 10 3 11 4 12 6 14 8 16
REMARK H PARENT 12 5 10 7 4 13 6 15 8 17
REMARK Flexibility Score: inf
ROOT
ATOM      1  C   UNL     1     -16.604  33.472 -22.789  1.00  0.00     0.181 C 
ENDROOT
BRANCH   1   2
ATOM      2  C   UNL     1     -16.974  32.005 -23.150  1.00  0.00     0.171 C 
BRANCH   2   3
ATOM      3  C   UNL     1     -17.606  31.841 -24.548  1.00  0.00     0.190 C 
BRANCH   3   4
ATOM      4  O   UNL     1     -18.779  32.601 -24.643  1.00  0.00    -0.394 OA
ATOM      5  H   UNL     1     -18.725  33.285 -23.926  1.00  0.00     0.210 HD
ENDBRANCH   3   4
ENDBRANCH   2   3
BRANCH   2   6
ATOM      6  O   UNL     1     -15.874  31.143 -22.981  1.00  0.00    -0.388 OA
ATOM      7  H   UNL     1     -15.517  30.920 -23.880  1.00  0.00     0.211 HD
ENDBRANCH   2   6
ENDBRANCH   1   2
BRANCH   1   8
ATOM      8  C   UNL     1     -17.609  34.164 -21.837  1.00  0.00     0.214 C 
BRANCH   8   9
ATOM      9  C   UNL     1     -17.852  35.593 -22.289  1.00  0.00     0.189 C 
ATOM     10  O   UNL     1     -16.980  36.427 -22.096  1.00  0.00    -0.294 OA
BRANCH   9  11
ATOM     11  C   UNL     1     -19.126  36.040 -22.965  1.00  0.00     0.234 C 
BRANCH  11  12
ATOM     12  O   UNL     1     -19.234  35.554 -24.277  1.00  0.00    -0.388 OA
ATOM     13  H   UNL     1     -19.749  36.231 -24.790  1.00  0.00     0.211 HD
ENDBRANCH  11  12
ENDBRANCH   9  11
ENDBRANCH   8   9
BRANCH   8  14
ATOM     14  O   UNL     1     -18.827  33.465 -21.829  1.00  0.00    -0.382 OA
ATOM     15  H   UNL     1     -18.606  32.503 -21.719  1.00  0.00     0.211 HD
ENDBRANCH   8  14
ENDBRANCH   1   8
BRANCH   1  16
ATOM     16  O   UNL     1     -16.496  34.228 -23.971  1.00  0.00    -0.387 OA
ATOM     17  H   UNL     1     -16.917  35.110 -23.792  1.00  0.00     0.211 HD
ENDBRANCH   1  16
TORSDOF 10
ENDMDL
MODEL 9
REMARK VINA RESULT:    -4.520      1.796      3.248
REMARK INTER + INTRA:          -7.260
REMARK INTER:                  -6.038
REMARK INTRA:                  -1.222
REMARK UNBOUND:                -0.759
REMARK SMILES O=C(CO)[C@@H](O)[C@H](O)[C@H](O)CO
REMARK SMILES IDX 7 1 9 2 11 3 12 4 10 6 5 8 2 9 1 10 3 11 4 12 6 14 8 16
REMARK H PARENT 12 5 10 7 4 13 6 15 8 17
REMARK Flexibility Score: inf
ROOT
ATOM      1  C   UNL     1     -18.181  33.997 -23.324  1.00  0.00     0.181 C 
ENDROOT
BRANCH   1   2
ATOM      2  C   UNL     1     -18.350  35.426 -22.733  1.00  0.00     0.171 C 
BRANCH   2   3
ATOM      3  C   UNL     1     -17.062  36.006 -22.113  1.00  0.00     0.190 C 
BRANCH   3   4
ATOM      4  O   UNL     1     -15.970  35.786 -22.963  1.00  0.00    -0.394 OA
ATOM      5  H   UNL     1     -16.147  34.925 -23.423  1.00  0.00     0.210 HD
ENDBRANCH   3   4
ENDBRANCH   2   3
BRANCH   2   6
ATOM      6  O   UNL     1     -18.906  36.308 -23.678  1.00  0.00    -0.388 OA
ATOM      7  H   UNL     1     -19.846  36.034 -23.838  1.00  0.00     0.211 HD
ENDBRANCH   2   6
ENDBRANCH   1   2
BRANCH   1   8
ATOM      8  C   UNL     1     -19.507  33.328 -23.758  1.00  0.00     0.214 C 
BRANCH   8   9
ATOM      9  C   UNL     1     -20.510  33.377 -22.619  1.00  0.00     0.189 C 
ATOM     10  O   UNL     1     -20.224  32.838 -21.560  1.00  0.00    -0.294 OA
BRANCH   9  11
ATOM     11  C   UNL     1     -21.853  34.060 -22.729  1.00  0.00     0.234 C 
BRANCH  11  12
ATOM     12  O   UNL     1     -21.755  35.347 -23.279  1.00  0.00    -0.388 OA
ATOM     13  H   UNL     1     -22.126  35.293 -24.199  1.00  0.00     0.211 HD
ENDBRANCH  11  12
ENDBRANCH   9  11
ENDBRANCH   8   9
BRANCH   8  14
ATOM     14  O   UNL     1     -20.040  33.992 -24.875  1.00  0.00    -0.382 OA
ATOM     15  H   UNL     1     -19.388  33.877 -25.616  1.00  0.00     0.211 HD
ENDBRANCH   8  14
ENDBRANCH   1   8
BRANCH   1  16
ATOM     16  O   UNL     1     -17.540  33.176 -22.377  1.00  0.00    -0.387 OA
ATOM     17  H   UNL     1     -16.562  33.283 -22.513  1.00  0.00     0.211 HD
ENDBRANCH   1  16
TORSDOF 10
ENDMDL
