MODEL 1
REMARK VINA RESULT:    -5.024      0.000      0.000
REMARK INTER + INTRA:          -5.713
REMARK INTER:                  -5.464
REMARK INTRA:                  -0.249
REMARK UNBOUND:                -0.249
REMARK SMILES O=C([O-])c1ccccc1O
REMARK SMILES IDX 4 1 9 2 5 3 8 4 6 5 7 6 2 7 1 8 3 9 10 10
REMARK H PARENT 10 11
REMARK Flexibility Score: inf
ROOT
ATOM      1  C   UNL     1      -5.877   3.950  -4.748  1.00  0.00     0.039 A 
ATOM      2  C   UNL     1      -5.741   5.352  -4.617  1.00  0.00     0.124 A 
ATOM      3  C   UNL     1      -6.820   3.281  -3.943  1.00  0.00     0.014 A 
ATOM      4  C   UNL     1      -6.538   6.050  -3.697  1.00  0.00     0.047 A 
ATOM      5  C   UNL     1      -7.607   3.988  -3.030  1.00  0.00     0.001 A 
ATOM      6  C   UNL     1      -7.466   5.370  -2.908  1.00  0.00     0.004 A 
ENDROOT
BRANCH   1   7
ATOM      7  C   UNL     1      -5.058   3.166  -5.707  1.00  0.00     0.075 C 
ATOM      8  O   UNL     1      -4.868   3.573  -6.884  1.00  0.00    -0.545 OA
ATOM      9  O   UNL     1      -4.483   1.961  -5.318  1.00  0.00    -0.545 OA
ENDBRANCH   1   7
BRANCH   2  10
ATOM     10  O   UNL     1      -4.820   6.056  -5.395  1.00  0.00    -0.507 OA
ATOM     11  H   UNL     1      -4.437   5.666  -6.248  1.00  0.00     0.293 HD
ENDBRANCH   2  10
TORSDOF 2
ENDMDL
MODEL 2
REMARK VINA RESULT:    -5.022      1.752      3.505
REMARK INTER + INTRA:          -5.711
REMARK INTER:                  -5.463
REMARK INTRA:                  -0.248
REMARK UNBOUND:                -0.249
REMARK SMILES O=C([O-])c1ccccc1O
REMARK SMILES IDX 4 1 9 2 5 3 8 4 6 5 7 6 2 7 1 8 3 9 10 10
REMARK H PARENT 10 11
REMARK Flexibility Score: inf
ROOT
ATOM      1  C   UNL     1      -6.404   4.402  -4.209  1.00  0.00     0.039 A 
ATOM      2  C   UNL     1      -5.475   4.608  -5.257  1.00  0.00     0.124 A 
ATOM      3  C   UNL     1      -6.968   3.122  -4.045  1.00  0.00     0.014 A 
ATOM      4  C   UNL     1      -5.134   3.546  -6.108  1.00  0.00     0.047 A 
ATOM      5  C   UNL     1      -6.620   2.073  -4.900  1.00  0.00     0.001 A 
ATOM      6  C   UNL     1      -5.704   2.285  -5.929  1.00  0.00     0.004 A 
ENDROOT
BRANCH   1   7
ATOM      7  C   UNL     1      -6.799   5.492  -3.282  1.00  0.00     0.075 C 
ATOM      8  O   UNL     1      -6.705   5.349  -2.033  1.00  0.00    -0.545 OA
ATOM      9  O   UNL     1      -7.282   6.697  -3.780  1.00  0.00    -0.545 OA
ENDBRANCH   1   7
BRANCH   2  10
ATOM     10  O   UNL     1      -4.891   5.859  -5.457  1.00  0.00    -0.507 OA
ATOM     11  H   UNL     1      -3.886   5.985  -5.445  1.00  0.00     0.293 HD
ENDBRANCH   2  10
TORSDOF 2
ENDMDL
MODEL 3
REMARK VINA RESULT:    -5.013      2.215      3.617
REMARK INTER + INTRA:          -5.702
REMARK INTER:                  -5.454
REMARK INTRA:                  -0.248
REMARK UNBOUND:                -0.249
REMARK SMILES O=C([O-])c1ccccc1O
REMARK SMILES IDX 4 1 9 2 5 3 8 4 6 5 7 6 2 7 1 8 3 9 10 10
REMARK H PARENT 10 11
REMARK Flexibility Score: inf
ROOT
ATOM      1  C   UNL     1      -7.288   2.898  -4.259  1.00  0.00     0.039 A 
ATOM      2  C   UNL     1      -7.330   1.997  -5.350  1.00  0.00     0.124 A 
ATOM      3  C   UNL     1      -8.455   3.094  -3.496  1.00  0.00     0.014 A 
ATOM      4  C   UNL     1      -8.522   1.320  -5.653  1.00  0.00     0.047 A 
ATOM      5  C   UNL     1      -9.635   2.415  -3.809  1.00  0.00     0.001 A 
ATOM      6  C   UNL     1      -9.668   1.529  -4.886  1.00  0.00     0.004 A 
ENDROOT
BRANCH   1   7
ATOM      7  C   UNL     1      -6.052   3.637  -3.897  1.00  0.00     0.075 C 
ATOM      8  O   UNL     1      -4.930   3.065  -3.892  1.00  0.00    -0.545 OA
ATOM      9  O   UNL     1      -6.116   4.984  -3.556  1.00  0.00    -0.545 OA
ENDBRANCH   1   7
BRANCH   2  10
ATOM     10  O   UNL     1      -6.198   1.771  -6.133  1.00  0.00    -0.507 OA
ATOM     11  H   UNL     1      -6.081   0.916  -6.665  1.00  0.00     0.293 HD
ENDBRANCH   2  10
TORSDOF 2
ENDMDL
MODEL 4
REMARK VINA RESULT:    -4.987      1.356      1.907
REMARK INTER + INTRA:          -5.673
REMARK INTER:                  -5.519
REMARK INTRA:                  -0.155
REMARK UNBOUND:                -0.249
REMARK SMILES O=C([O-])c1ccccc1O
REMARK SMILES IDX 4 1 9 2 5 3 8 4 6 5 7 6 2 7 1 8 3 9 10 10
REMARK H PARENT 10 11
REMARK Flexibility Score: inf
ROOT
ATOM      1  C   UNL     1      -6.217   2.911  -5.099  1.00  0.00     0.039 A 
ATOM      2  C   UNL     1      -6.495   3.869  -4.094  1.00  0.00     0.124 A 
ATOM      3  C   UNL     1      -7.115   1.842  -5.284  1.00  0.00     0.014 A 
ATOM      4  C   UNL     1      -7.648   3.740  -3.305  1.00  0.00     0.047 A 
ATOM      5  C   UNL     1      -8.259   1.726  -4.491  1.00  0.00     0.001 A 
ATOM      6  C   UNL     1      -8.525   2.673  -3.503  1.00  0.00     0.004 A 
ENDROOT
BRANCH   1   7
ATOM      7  C   UNL     1      -5.012   3.002  -5.961  1.00  0.00     0.075 C 
ATOM      8  O   UNL     1      -4.944   3.842  -6.898  1.00  0.00    -0.545 OA
ATOM      9  O   UNL     1      -3.930   2.155  -5.746  1.00  0.00    -0.545 OA
ENDBRANCH   1   7
BRANCH   2  10
ATOM     10  O   UNL     1      -5.634   4.945  -3.876  1.00  0.00    -0.507 OA
ATOM     11  H   UNL     1      -4.814   5.095  -4.452  1.00  0.00     0.293 HD
ENDBRANCH   2  10
TORSDOF 2
ENDMDL
MODEL 5
REMARK VINA RESULT:    -4.894      2.273      3.800
REMARK INTER + INTRA:          -5.572
REMARK INTER:                  -5.329
REMARK INTRA:                  -0.243
REMARK UNBOUND:                -0.249
REMARK SMILES O=C([O-])c1ccccc1O
REMARK SMILES IDX 4 1 9 2 5 3 8 4 6 5 7 6 2 7 1 8 3 9 10 10
REMARK H PARENT 10 11
REMARK Flexibility Score: inf
ROOT
ATOM      1  C   UNL     1      -7.231   3.808  -3.868  1.00  0.00     0.039 A 
ATOM      2  C   UNL     1      -6.199   2.921  -4.258  1.00  0.00     0.124 A 
ATOM      3  C   UNL     1      -8.528   3.607  -4.379  1.00  0.00     0.014 A 
ATOM      4  C   UNL     1      -6.479   1.866  -5.139  1.00  0.00     0.047 A 
ATOM      5  C   UNL     1      -8.793   2.552  -5.257  1.00  0.00     0.001 A 
ATOM      6  C   UNL     1      -7.771   1.683  -5.636  1.00  0.00     0.004 A 
ENDROOT
BRANCH   1   7
ATOM      7  C   UNL     1      -6.986   4.939  -2.938  1.00  0.00     0.075 C 
ATOM      8  O   UNL     1      -7.653   5.063  -1.875  1.00  0.00    -0.545 OA
ATOM      9  O   UNL     1      -6.011   5.887  -3.227  1.00  0.00    -0.545 OA
ENDBRANCH   1   7
BRANCH   2  10
ATOM     10  O   UNL     1      -4.899   3.082  -3.775  1.00  0.00    -0.507 OA
ATOM     11  H   UNL     1      -4.091   2.814  -4.324  1.00  0.00     0.293 HD
ENDBRANCH   2  10
TORSDOF 2
ENDMDL
MODEL 6
REMARK VINA RESULT:    -4.789      1.781      2.894
REMARK INTER + INTRA:          -5.458
REMARK INTER:                  -5.212
REMARK INTRA:                  -0.246
REMARK UNBOUND:                -0.249
REMARK SMILES O=C([O-])c1ccccc1O
REMARK SMILES IDX 4 1 9 2 5 3 8 4 6 5 7 6 2 7 1 8 3 9 10 10
REMARK H PARENT 10 11
REMARK Flexibility Score: inf
ROOT
ATOM      1  C   UNL     1      -6.472   2.810  -4.794  1.00  0.00     0.039 A 
ATOM      2  C   UNL     1      -7.753   2.424  -5.255  1.00  0.00     0.124 A 
ATOM      3  C   UNL     1      -6.349   3.997  -4.045  1.00  0.00     0.014 A 
ATOM      4  C   UNL     1      -8.871   3.221  -4.964  1.00  0.00     0.047 A 
ATOM      5  C   UNL     1      -7.471   4.781  -3.763  1.00  0.00     0.001 A 
ATOM      6  C   UNL     1      -8.729   4.393  -4.221  1.00  0.00     0.004 A 
ENDROOT
BRANCH   1   7
ATOM      7  C   UNL     1      -5.258   2.002  -5.075  1.00  0.00     0.075 C 
ATOM      8  O   UNL     1      -5.205   0.781  -4.769  1.00  0.00    -0.545 OA
ATOM      9  O   UNL     1      -4.152   2.586  -5.683  1.00  0.00    -0.545 OA
ENDBRANCH   1   7
BRANCH   2  10
ATOM     10  O   UNL     1      -7.921   1.256  -5.999  1.00  0.00    -0.507 OA
ATOM     11  H   UNL     1      -7.149   0.824  -6.493  1.00  0.00     0.293 HD
ENDBRANCH   2  10
TORSDOF 2
ENDMDL
MODEL 7
REMARK VINA RESULT:    -4.670     11.836     12.414
REMARK INTER + INTRA:          -5.328
REMARK INTER:                  -5.076
REMARK INTRA:                  -0.253
REMARK UNBOUND:                -0.249
REMARK SMILES O=C([O-])c1ccccc1O
REMARK SMILES IDX 4 1 9 2 5 3 8 4 6 5 7 6 2 7 1 8 3 9 10 10
REMARK H PARENT 10 11
REMARK Flexibility Score: inf
ROOT
ATOM      1  C   UNL     1       6.171   2.730  -5.500  1.00  0.00     0.039 A 
ATOM      2  C   UNL     1       5.945   4.127  -5.489  1.00  0.00     0.124 A 
ATOM      3  C   UNL     1       5.793   1.990  -6.637  1.00  0.00     0.014 A 
ATOM      4  C   UNL     1       5.354   4.749  -6.600  1.00  0.00     0.047 A 
ATOM      5  C   UNL     1       5.205   2.622  -7.736  1.00  0.00     0.001 A 
ATOM      6  C   UNL     1       4.986   3.999  -7.717  1.00  0.00     0.004 A 
ENDROOT
BRANCH   1   7
ATOM      7  C   UNL     1       6.794   2.025  -4.351  1.00  0.00     0.075 C 
ATOM      8  O   UNL     1       6.259   0.999  -3.851  1.00  0.00    -0.545 OA
ATOM      9  O   UNL     1       7.985   2.489  -3.805  1.00  0.00    -0.545 OA
ENDBRANCH   1   7
BRANCH   2  10
ATOM     10  O   UNL     1       6.304   4.900  -4.384  1.00  0.00    -0.507 OA
ATOM     11  H   UNL     1       6.069   5.883  -4.324  1.00  0.00     0.293 HD
ENDBRANCH   2  10
TORSDOF 2
ENDMDL
MODEL 8
REMARK VINA RESULT:    -4.656      2.578      4.269
REMARK INTER + INTRA:          -5.313
REMARK INTER:                  -5.059
REMARK INTRA:                  -0.255
REMARK UNBOUND:                -0.249
REMARK SMILES O=C([O-])c1ccccc1O
REMARK SMILES IDX 4 1 9 2 5 3 8 4 6 5 7 6 2 7 1 8 3 9 10 10
REMARK H PARENT 10 11
REMARK Flexibility Score: inf
ROOT
ATOM      1  C   UNL     1      -6.818   3.799  -3.923  1.00  0.00     0.039 A 
ATOM      2  C   UNL     1      -7.174   2.474  -4.271  1.00  0.00     0.124 A 
ATOM      3  C   UNL     1      -5.834   4.459  -4.683  1.00  0.00     0.014 A 
ATOM      4  C   UNL     1      -6.547   1.844  -5.357  1.00  0.00     0.047 A 
ATOM      5  C   UNL     1      -5.217   3.820  -5.762  1.00  0.00     0.001 A 
ATOM      6  C   UNL     1      -5.574   2.515  -6.098  1.00  0.00     0.004 A 
ENDROOT
BRANCH   1   7
ATOM      7  C   UNL     1      -7.451   4.509  -2.783  1.00  0.00     0.075 C 
ATOM      8  O   UNL     1      -6.757   5.161  -1.957  1.00  0.00    -0.545 OA
ATOM      9  O   UNL     1      -8.830   4.466  -2.608  1.00  0.00    -0.545 OA
ENDBRANCH   1   7
BRANCH   2  10
ATOM     10  O   UNL     1      -8.145   1.781  -3.546  1.00  0.00    -0.507 OA
ATOM     11  H   UNL     1      -8.718   1.064  -3.975  1.00  0.00     0.293 HD
ENDBRANCH   2  10
TORSDOF 2
ENDMDL
MODEL 9
REMARK VINA RESULT:    -4.540     11.493     12.144
REMARK INTER + INTRA:          -5.188
REMARK INTER:                  -4.938
REMARK INTRA:                  -0.250
REMARK UNBOUND:                -0.249
REMARK SMILES O=C([O-])c1ccccc1O
REMARK SMILES IDX 4 1 9 2 5 3 8 4 6 5 7 6 2 7 1 8 3 9 10 10
REMARK H PARENT 10 11
REMARK Flexibility Score: inf
ROOT
ATOM      1  C   UNL     1      -5.641  -5.453   2.027  1.00  0.00     0.039 A 
ATOM      2  C   UNL     1      -6.041  -5.427   3.384  1.00  0.00     0.124 A 
ATOM      3  C   UNL     1      -6.632  -5.469   1.026  1.00  0.00     0.014 A 
ATOM      4  C   UNL     1      -7.407  -5.417   3.710  1.00  0.00     0.047 A 
ATOM      5  C   UNL     1      -7.988  -5.460   1.365  1.00  0.00     0.001 A 
ATOM      6  C   UNL     1      -8.374  -5.434   2.705  1.00  0.00     0.004 A 
ENDROOT
BRANCH   1   7
ATOM      7  C   UNL     1      -4.210  -5.464   1.629  1.00  0.00     0.075 C 
ATOM      8  O   UNL     1      -3.378  -4.693   2.176  1.00  0.00    -0.545 OA
ATOM      9  O   UNL     1      -3.764  -6.332   0.638  1.00  0.00    -0.545 OA
ENDBRANCH   1   7
BRANCH   2  10
ATOM     10  O   UNL     1      -5.094  -5.410   4.408  1.00  0.00    -0.507 OA
ATOM     11  H   UNL     1      -5.050  -6.144   5.104  1.00  0.00     0.293 HD
ENDBRANCH   2  10
TORSDOF 2
ENDMDL
