MODEL 1
REMARK VINA RESULT:    -4.451      0.000      0.000
REMARK INTER + INTRA:          -7.223
REMARK INTER:                  -6.793
REMARK INTRA:                  -0.430
REMARK UNBOUND:                -0.430
REMARK SMILES O=C([O-])CCCCCCCCC(=O)[O-]
REMARK SMILES IDX 7 1 6 2 5 3 4 4 2 5 1 6 3 7 8 8 9 9 10 10 11 11 12 12 13 13
REMARK SMILES IDX 14 14
REMARK H PARENT
REMARK Flexibility Score: inf
ROOT
ATOM      1  C   UNL     1       5.011  -6.474 -21.287  1.00  0.00     0.000 C 
ENDROOT
BRANCH   1   2
ATOM      2  C   UNL     1       5.420  -7.356 -22.478  1.00  0.00     0.000 C 
BRANCH   2   3
ATOM      3  C   UNL     1       6.032  -8.720 -22.107  1.00  0.00     0.006 C 
BRANCH   3   4
ATOM      4  C   UNL     1       6.942  -9.318 -23.196  1.00  0.00     0.053 C 
BRANCH   4   5
ATOM      5  C   UNL     1       6.434 -10.627 -23.719  1.00  0.00     0.041 C 
ATOM      6  O   UNL     1       7.171 -11.354 -24.436  1.00  0.00    -0.550 OA
ATOM      7  O   UNL     1       5.159 -11.064 -23.383  1.00  0.00    -0.550 OA
ENDBRANCH   4   5
ENDBRANCH   3   4
ENDBRANCH   2   3
ENDBRANCH   1   2
BRANCH   1   8
ATOM      8  C   UNL     1       4.194  -7.232 -20.230  1.00  0.00     0.000 C 
BRANCH   8   9
ATOM      9  C   UNL     1       2.983  -6.405 -19.776  1.00  0.00     0.000 C 
BRANCH   9  10
ATOM     10  C   UNL     1       3.188  -5.761 -18.395  1.00  0.00     0.006 C 
BRANCH  10  11
ATOM     11  C   UNL     1       3.276  -4.231 -18.465  1.00  0.00     0.053 C 
BRANCH  11  12
ATOM     12  C   UNL     1       4.706  -3.792 -18.477  1.00  0.00     0.041 C 
ATOM     13  O   UNL     1       5.110  -2.972 -19.343  1.00  0.00    -0.550 OA
ATOM     14  O   UNL     1       5.606  -4.324 -17.562  1.00  0.00    -0.550 OA
ENDBRANCH  11  12
ENDBRANCH  10  11
ENDBRANCH   9  10
ENDBRANCH   8   9
ENDBRANCH   1   8
TORSDOF 9
ENDMDL
MODEL 2
REMARK VINA RESULT:    -4.441      1.523      2.144
REMARK INTER + INTRA:          -7.208
REMARK INTER:                  -6.897
REMARK INTRA:                  -0.310
REMARK UNBOUND:                -0.430
REMARK SMILES O=C([O-])CCCCCCCCC(=O)[O-]
REMARK SMILES IDX 7 1 6 2 5 3 4 4 2 5 1 6 3 7 8 8 9 9 10 10 11 11 12 12 13 13
REMARK SMILES IDX 14 14
REMARK H PARENT
REMARK Flexibility Score: inf
ROOT
ATOM      1  C   UNL     1       5.889  -7.506 -22.311  1.00  0.00     0.000 C 
ENDROOT
BRANCH   1   2
ATOM      2  C   UNL     1       6.248  -8.969 -22.616  1.00  0.00     0.000 C 
BRANCH   2   3
ATOM      3  C   UNL     1       5.111  -9.985 -22.397  1.00  0.00     0.006 C 
BRANCH   3   4
ATOM      4  C   UNL     1       5.254 -11.276 -23.224  1.00  0.00     0.053 C 
BRANCH   4   5
ATOM      5  C   UNL     1       4.519 -12.434 -22.619  1.00  0.00     0.041 C 
ATOM      6  O   UNL     1       5.063 -13.134 -21.725  1.00  0.00    -0.550 OA
ATOM      7  O   UNL     1       3.217 -12.717 -23.015  1.00  0.00    -0.550 OA
ENDBRANCH   4   5
ENDBRANCH   3   4
ENDBRANCH   2   3
ENDBRANCH   1   2
BRANCH   1   8
ATOM      8  C   UNL     1       4.672  -7.367 -21.384  1.00  0.00     0.000 C 
BRANCH   8   9
ATOM      9  C   UNL     1       4.698  -6.022 -20.643  1.00  0.00     0.000 C 
BRANCH   9  10
ATOM     10  C   UNL     1       4.290  -6.149 -19.167  1.00  0.00     0.006 C 
BRANCH  10  11
ATOM     11  C   UNL     1       3.896  -4.803 -18.546  1.00  0.00     0.053 C 
BRANCH  11  12
ATOM     12  C   UNL     1       5.117  -3.995 -18.237  1.00  0.00     0.041 C 
ATOM     13  O   UNL     1       5.831  -4.281 -17.240  1.00  0.00    -0.550 OA
ATOM     14  O   UNL     1       5.442  -2.897 -19.023  1.00  0.00    -0.550 OA
ENDBRANCH  11  12
ENDBRANCH  10  11
ENDBRANCH   9  10
ENDBRANCH   8   9
ENDBRANCH   1   8
TORSDOF 9
ENDMDL
MODEL 3
REMARK VINA RESULT:    -4.340      2.082      7.413
REMARK INTER + INTRA:          -7.054
REMARK INTER:                  -6.687
REMARK INTRA:                  -0.367
REMARK UNBOUND:                -0.430
REMARK SMILES O=C([O-])CCCCCCCCC(=O)[O-]
REMARK SMILES IDX 7 1 6 2 5 3 4 4 2 5 1 6 3 7 8 8 9 9 10 10 11 11 12 12 13 13
REMARK SMILES IDX 14 14
REMARK H PARENT
REMARK Flexibility Score: inf
ROOT
ATOM      1  C   UNL     1       5.588  -8.308 -22.116  1.00  0.00     0.000 C 
ENDROOT
BRANCH   1   2
ATOM      2  C   UNL     1       5.528  -6.805 -22.436  1.00  0.00     0.000 C 
BRANCH   2   3
ATOM      3  C   UNL     1       5.079  -5.902 -21.271  1.00  0.00     0.006 C 
BRANCH   3   4
ATOM      4  C   UNL     1       4.373  -6.655 -20.128  1.00  0.00     0.053 C 
BRANCH   4   5
ATOM      5  C   UNL     1       4.094  -5.779 -18.944  1.00  0.00     0.041 C 
ATOM      6  O   UNL     1       3.064  -5.966 -18.244  1.00  0.00    -0.550 OA
ATOM      7  O   UNL     1       4.992  -4.780 -18.590  1.00  0.00    -0.550 OA
ENDBRANCH   4   5
ENDBRANCH   3   4
ENDBRANCH   2   3
ENDBRANCH   1   2
BRANCH   1   8
ATOM      8  C   UNL     1       6.719  -9.035 -22.858  1.00  0.00     0.000 C 
BRANCH   8   9
ATOM      9  C   UNL     1       6.234 -10.385 -23.408  1.00  0.00     0.000 C 
BRANCH   9  10
ATOM     10  C   UNL     1       4.911 -10.843 -22.775  1.00  0.00     0.006 C 
BRANCH  10  11
ATOM     11  C   UNL     1       4.839 -12.364 -22.594  1.00  0.00     0.053 C 
BRANCH  11  12
ATOM     12  C   UNL     1       3.444 -12.851 -22.826  1.00  0.00     0.041 C 
ATOM     13  O   UNL     1       2.944 -13.728 -22.072  1.00  0.00    -0.550 OA
ATOM     14  O   UNL     1       2.710 -12.372 -23.904  1.00  0.00    -0.550 OA
ENDBRANCH  11  12
ENDBRANCH  10  11
ENDBRANCH   9  10
ENDBRANCH   8   9
ENDBRANCH   1   8
TORSDOF 9
ENDMDL
MODEL 4
REMARK VINA RESULT:    -4.311      2.431      7.465
REMARK INTER + INTRA:          -7.009
REMARK INTER:                  -6.610
REMARK INTRA:                  -0.399
REMARK UNBOUND:                -0.430
REMARK SMILES O=C([O-])CCCCCCCCC(=O)[O-]
REMARK SMILES IDX 7 1 6 2 5 3 4 4 2 5 1 6 3 7 8 8 9 9 10 10 11 11 12 12 13 13
REMARK SMILES IDX 14 14
REMARK H PARENT
REMARK Flexibility Score: inf
ROOT
ATOM      1  C   UNL     1       5.860  -9.062 -22.247  1.00  0.00     0.000 C 
ENDROOT
BRANCH   1   2
ATOM      2  C   UNL     1       5.837  -7.534 -22.419  1.00  0.00     0.000 C 
BRANCH   2   3
ATOM      3  C   UNL     1       4.676  -6.810 -21.710  1.00  0.00     0.006 C 
BRANCH   3   4
ATOM      4  C   UNL     1       4.374  -7.341 -20.296  1.00  0.00     0.053 C 
BRANCH   4   5
ATOM      5  C   UNL     1       3.820  -6.284 -19.388  1.00  0.00     0.041 C 
ATOM      6  O   UNL     1       2.592  -6.269 -19.108  1.00  0.00    -0.550 OA
ATOM      7  O   UNL     1       4.665  -5.340 -18.820  1.00  0.00    -0.550 OA
ENDBRANCH   4   5
ENDBRANCH   3   4
ENDBRANCH   2   3
ENDBRANCH   1   2
BRANCH   1   8
ATOM      8  C   UNL     1       6.725  -9.772 -23.300  1.00  0.00     0.000 C 
BRANCH   8   9
ATOM      9  C   UNL     1       6.128 -11.139 -23.667  1.00  0.00     0.000 C 
BRANCH   9  10
ATOM     10  C   UNL     1       4.824 -11.439 -22.912  1.00  0.00     0.006 C 
BRANCH  10  11
ATOM     11  C   UNL     1       4.872 -12.774 -22.159  1.00  0.00     0.053 C 
BRANCH  11  12
ATOM     12  C   UNL     1       3.567 -13.494 -22.291  1.00  0.00     0.041 C 
ATOM     13  O   UNL     1       2.590 -12.937 -22.858  1.00  0.00    -0.550 OA
ATOM     14  O   UNL     1       3.414 -14.763 -21.746  1.00  0.00    -0.550 OA
ENDBRANCH  11  12
ENDBRANCH  10  11
ENDBRANCH   9  10
ENDBRANCH   8   9
ENDBRANCH   1   8
TORSDOF 9
ENDMDL
MODEL 5
REMARK VINA RESULT:    -4.305      3.970      4.948
REMARK INTER + INTRA:          -7.000
REMARK INTER:                  -6.133
REMARK INTRA:                  -0.867
REMARK UNBOUND:                -0.430
REMARK SMILES O=C([O-])CCCCCCCCC(=O)[O-]
REMARK SMILES IDX 7 1 6 2 5 3 4 4 2 5 1 6 3 7 8 8 9 9 10 10 11 11 12 12 13 13
REMARK SMILES IDX 14 14
REMARK H PARENT
REMARK Flexibility Score: inf
ROOT
ATOM      1  C   UNL     1       6.987  -9.831 -23.670  1.00  0.00     0.000 C 
ENDROOT
BRANCH   1   2
ATOM      2  C   UNL     1       6.396 -11.205 -24.024  1.00  0.00     0.000 C 
BRANCH   2   3
ATOM      3  C   UNL     1       4.996 -11.488 -23.445  1.00  0.00     0.006 C 
BRANCH   3   4
ATOM      4  C   UNL     1       4.966 -12.615 -22.395  1.00  0.00     0.053 C 
BRANCH   4   5
ATOM      5  C   UNL     1       3.621 -13.267 -22.286  1.00  0.00     0.041 C 
ATOM      6  O   UNL     1       3.512 -14.417 -21.783  1.00  0.00    -0.550 OA
ATOM      7  O   UNL     1       2.482 -12.590 -22.704  1.00  0.00    -0.550 OA
ENDBRANCH   4   5
ENDBRANCH   3   4
ENDBRANCH   2   3
ENDBRANCH   1   2
BRANCH   1   8
ATOM      8  C   UNL     1       6.426  -9.255 -22.360  1.00  0.00     0.000 C 
BRANCH   8   9
ATOM      9  C   UNL     1       5.921  -7.819 -22.565  1.00  0.00     0.000 C 
BRANCH   9  10
ATOM     10  C   UNL     1       4.535  -7.584 -21.945  1.00  0.00     0.006 C 
BRANCH  10  11
ATOM     11  C   UNL     1       4.247  -8.525 -20.769  1.00  0.00     0.053 C 
BRANCH  11  12
ATOM     12  C   UNL     1       3.062  -9.387 -21.070  1.00  0.00     0.041 C 
ATOM     13  O   UNL     1       2.462  -9.279 -22.172  1.00  0.00    -0.550 OA
ATOM     14  O   UNL     1       2.589 -10.279 -20.115  1.00  0.00    -0.550 OA
ENDBRANCH  11  12
ENDBRANCH  10  11
ENDBRANCH   9  10
ENDBRANCH   8   9
ENDBRANCH   1   8
TORSDOF 9
ENDMDL
MODEL 6
REMARK VINA RESULT:    -4.290      2.173      2.969
REMARK INTER + INTRA:          -6.977
REMARK INTER:                  -6.670
REMARK INTRA:                  -0.307
REMARK UNBOUND:                -0.430
REMARK SMILES O=C([O-])CCCCCCCCC(=O)[O-]
REMARK SMILES IDX 7 1 6 2 5 3 4 4 2 5 1 6 3 7 8 8 9 9 10 10 11 11 12 12 13 13
REMARK SMILES IDX 14 14
REMARK H PARENT
REMARK Flexibility Score: inf
ROOT
ATOM      1  C   UNL     1       6.276  -8.915 -22.484  1.00  0.00     0.000 C 
ENDROOT
BRANCH   1   2
ATOM      2  C   UNL     1       5.085  -9.870 -22.305  1.00  0.00     0.000 C 
BRANCH   2   3
ATOM      3  C   UNL     1       5.203 -11.215 -23.049  1.00  0.00     0.006 C 
BRANCH   3   4
ATOM      4  C   UNL     1       3.964 -12.120 -22.912  1.00  0.00     0.053 C 
BRANCH   4   5
ATOM      5  C   UNL     1       4.244 -13.368 -22.131  1.00  0.00     0.041 C 
ATOM      6  O   UNL     1       5.236 -13.424 -21.357  1.00  0.00    -0.550 OA
ATOM      7  O   UNL     1       3.388 -14.458 -22.228  1.00  0.00    -0.550 OA
ENDBRANCH   4   5
ENDBRANCH   3   4
ENDBRANCH   2   3
ENDBRANCH   1   2
BRANCH   1   8
ATOM      8  C   UNL     1       5.875  -7.434 -22.410  1.00  0.00     0.000 C 
BRANCH   8   9
ATOM      9  C   UNL     1       4.703  -7.232 -21.439  1.00  0.00     0.000 C 
BRANCH   9  10
ATOM     10  C   UNL     1       4.758  -5.877 -20.715  1.00  0.00     0.006 C 
BRANCH  10  11
ATOM     11  C   UNL     1       4.463  -5.998 -19.215  1.00  0.00     0.053 C 
BRANCH  11  12
ATOM     12  C   UNL     1       4.379  -4.640 -18.591  1.00  0.00     0.041 C 
ATOM     13  O   UNL     1       3.268  -4.184 -18.211  1.00  0.00    -0.550 OA
ATOM     14  O   UNL     1       5.521  -3.858 -18.471  1.00  0.00    -0.550 OA
ENDBRANCH  11  12
ENDBRANCH  10  11
ENDBRANCH   9  10
ENDBRANCH   8   9
ENDBRANCH   1   8
TORSDOF 9
ENDMDL
MODEL 7
REMARK VINA RESULT:    -4.288      0.903      7.339
REMARK INTER + INTRA:          -6.974
REMARK INTER:                  -6.568
REMARK INTRA:                  -0.406
REMARK UNBOUND:                -0.430
REMARK SMILES O=C([O-])CCCCCCCCC(=O)[O-]
REMARK SMILES IDX 7 1 6 2 5 3 4 4 2 5 1 6 3 7 8 8 9 9 10 10 11 11 12 12 13 13
REMARK SMILES IDX 14 14
REMARK H PARENT
REMARK Flexibility Score: inf
ROOT
ATOM      1  C   UNL     1       4.395  -7.182 -20.343  1.00  0.00     0.000 C 
ENDROOT
BRANCH   1   2
ATOM      2  C   UNL     1       3.082  -6.670 -19.726  1.00  0.00     0.000 C 
BRANCH   2   3
ATOM      3  C   UNL     1       3.238  -5.873 -18.416  1.00  0.00     0.006 C 
BRANCH   3   4
ATOM      4  C   UNL     1       4.402  -4.864 -18.429  1.00  0.00     0.053 C 
BRANCH   4   5
ATOM      5  C   UNL     1       3.986  -3.510 -18.920  1.00  0.00     0.041 C 
ATOM      6  O   UNL     1       2.855  -3.045 -18.620  1.00  0.00    -0.550 OA
ATOM      7  O   UNL     1       4.864  -2.744 -19.678  1.00  0.00    -0.550 OA
ENDBRANCH   4   5
ENDBRANCH   3   4
ENDBRANCH   2   3
ENDBRANCH   1   2
BRANCH   1   8
ATOM      8  C   UNL     1       4.630  -6.664 -21.769  1.00  0.00     0.000 C 
BRANCH   8   9
ATOM      9  C   UNL     1       5.849  -7.348 -22.406  1.00  0.00     0.000 C 
BRANCH   9  10
ATOM     10  C   UNL     1       5.861  -8.868 -22.181  1.00  0.00     0.006 C 
BRANCH  10  11
ATOM     11  C   UNL     1       6.747  -9.607 -23.192  1.00  0.00     0.053 C 
BRANCH  11  12
ATOM     12  C   UNL     1       6.104 -10.893 -23.605  1.00  0.00     0.041 C 
ATOM     13  O   UNL     1       6.763 -11.755 -24.245  1.00  0.00    -0.550 OA
ATOM     14  O   UNL     1       4.763 -11.123 -23.324  1.00  0.00    -0.550 OA
ENDBRANCH  11  12
ENDBRANCH  10  11
ENDBRANCH   9  10
ENDBRANCH   8   9
ENDBRANCH   1   8
TORSDOF 9
ENDMDL
MODEL 8
REMARK VINA RESULT:    -4.269      1.729      7.527
REMARK INTER + INTRA:          -6.946
REMARK INTER:                  -6.614
REMARK INTRA:                  -0.333
REMARK UNBOUND:                -0.430
REMARK SMILES O=C([O-])CCCCCCCCC(=O)[O-]
REMARK SMILES IDX 7 1 6 2 5 3 4 4 2 5 1 6 3 7 8 8 9 9 10 10 11 11 12 12 13 13
REMARK SMILES IDX 14 14
REMARK H PARENT
REMARK Flexibility Score: inf
ROOT
ATOM      1  C   UNL     1       4.264  -7.816 -21.308  1.00  0.00     0.000 C 
ENDROOT
BRANCH   1   2
ATOM      2  C   UNL     1       4.417  -7.031 -19.995  1.00  0.00     0.000 C 
BRANCH   2   3
ATOM      3  C   UNL     1       3.170  -6.242 -19.551  1.00  0.00     0.006 C 
BRANCH   3   4
ATOM      4  C   UNL     1       3.356  -5.459 -18.238  1.00  0.00     0.053 C 
BRANCH   4   5
ATOM      5  C   UNL     1       4.279  -4.288 -18.390  1.00  0.00     0.041 C 
ATOM      6  O   UNL     1       3.959  -3.319 -19.127  1.00  0.00    -0.550 OA
ATOM      7  O   UNL     1       5.476  -4.248 -17.685  1.00  0.00    -0.550 OA
ENDBRANCH   4   5
ENDBRANCH   3   4
ENDBRANCH   2   3
ENDBRANCH   1   2
BRANCH   1   8
ATOM      8  C   UNL     1       5.549  -7.834 -22.150  1.00  0.00     0.000 C 
BRANCH   8   9
ATOM      9  C   UNL     1       5.941  -9.272 -22.520  1.00  0.00     0.000 C 
BRANCH   9  10
ATOM     10  C   UNL     1       4.770 -10.258 -22.394  1.00  0.00     0.006 C 
BRANCH  10  11
ATOM     11  C   UNL     1       5.107 -11.649 -22.946  1.00  0.00     0.053 C 
BRANCH  11  12
ATOM     12  C   UNL     1       4.485 -12.711 -22.096  1.00  0.00     0.041 C 
ATOM     13  O   UNL     1       5.211 -13.506 -21.441  1.00  0.00    -0.550 OA
ATOM     14  O   UNL     1       3.104 -12.855 -22.062  1.00  0.00    -0.550 OA
ENDBRANCH  11  12
ENDBRANCH  10  11
ENDBRANCH   9  10
ENDBRANCH   8   9
ENDBRANCH   1   8
TORSDOF 9
ENDMDL
MODEL 9
REMARK VINA RESULT:    -4.184      3.412      6.625
REMARK INTER + INTRA:          -6.816
REMARK INTER:                  -6.044
REMARK INTRA:                  -0.772
REMARK UNBOUND:                -0.430
REMARK SMILES O=C([O-])CCCCCCCCC(=O)[O-]
REMARK SMILES IDX 7 1 6 2 5 3 4 4 2 5 1 6 3 7 8 8 9 9 10 10 11 11 12 12 13 13
REMARK SMILES IDX 14 14
REMARK H PARENT
REMARK Flexibility Score: inf
ROOT
ATOM      1  C   UNL     1       5.840  -7.488 -22.491  1.00  0.00     0.000 C 
ENDROOT
BRANCH   1   2
ATOM      2  C   UNL     1       4.885  -6.707 -21.574  1.00  0.00     0.000 C 
BRANCH   2   3
ATOM      3  C   UNL     1       4.420  -7.462 -20.313  1.00  0.00     0.006 C 
BRANCH   3   4
ATOM      4  C   UNL     1       2.895  -7.659 -20.225  1.00  0.00     0.053 C 
BRANCH   4   5
ATOM      5  C   UNL     1       2.436  -8.920 -20.893  1.00  0.00     0.041 C 
ATOM      6  O   UNL     1       2.073  -8.903 -22.099  1.00  0.00    -0.550 OA
ATOM      7  O   UNL     1       2.448 -10.122 -20.197  1.00  0.00    -0.550 OA
ENDBRANCH   4   5
ENDBRANCH   3   4
ENDBRANCH   2   3
ENDBRANCH   1   2
BRANCH   1   8
ATOM      8  C   UNL     1       5.908  -8.985 -22.152  1.00  0.00     0.000 C 
BRANCH   8   9
ATOM      9  C   UNL     1       6.633  -9.765 -23.259  1.00  0.00     0.000 C 
BRANCH   9  10
ATOM     10  C   UNL     1       5.940 -11.094 -23.599  1.00  0.00     0.006 C 
BRANCH  10  11
ATOM     11  C   UNL     1       4.625 -11.287 -22.833  1.00  0.00     0.053 C 
BRANCH  11  12
ATOM     12  C   UNL     1       4.556 -12.666 -22.258  1.00  0.00     0.041 C 
ATOM     13  O   UNL     1       5.578 -13.401 -22.247  1.00  0.00    -0.550 OA
ATOM     14  O   UNL     1       3.349 -13.160 -21.778  1.00  0.00    -0.550 OA
ENDBRANCH  11  12
ENDBRANCH  10  11
ENDBRANCH   9  10
ENDBRANCH   8   9
ENDBRANCH   1   8
TORSDOF 9
ENDMDL
