MODEL 1
REMARK VINA RESULT:    -3.835      0.000      0.000
REMARK INTER + INTRA:          -4.845
REMARK INTER:                  -4.731
REMARK INTRA:                  -0.113
REMARK UNBOUND:                -0.113
REMARK SMILES CCCCCC(=O)[O-]
REMARK SMILES IDX 4 1 5 2 6 3 7 4 8 5 3 6 2 7 1 8
REMARK H PARENT
REMARK Flexibility Score: inf
ROOT
ATOM      1  C   UNL     1      -7.780  26.599   3.343  1.00  0.00     0.006 C 
ENDROOT
BRANCH   1   2
ATOM      2  C   UNL     1      -7.084  26.098   2.071  1.00  0.00     0.053 C 
BRANCH   2   3
ATOM      3  C   UNL     1      -7.698  24.829   1.564  1.00  0.00     0.041 C 
ATOM      4  O   UNL     1      -8.890  24.817   1.161  1.00  0.00    -0.550 OA
ATOM      5  O   UNL     1      -6.961  23.650   1.567  1.00  0.00    -0.550 OA
ENDBRANCH   2   3
ENDBRANCH   1   2
BRANCH   1   6
ATOM      6  C   UNL     1      -7.608  25.627   4.520  1.00  0.00     0.000 C 
BRANCH   6   7
ATOM      7  C   UNL     1      -6.780  26.264   5.641  1.00  0.00    -0.003 C 
ATOM      8  C   UNL     1      -7.367  25.942   7.012  1.00  0.00     0.004 C 
ENDBRANCH   6   7
ENDBRANCH   1   6
TORSDOF 4
ENDMDL
MODEL 2
REMARK VINA RESULT:    -3.483      1.165      1.511
REMARK INTER + INTRA:          -4.410
REMARK INTER:                  -4.254
REMARK INTRA:                  -0.156
REMARK UNBOUND:                -0.113
REMARK SMILES CCCCCC(=O)[O-]
REMARK SMILES IDX 4 1 5 2 6 3 7 4 8 5 3 6 2 7 1 8
REMARK H PARENT
REMARK Flexibility Score: inf
ROOT
ATOM      1  C   UNL     1      -7.665  26.487   3.208  1.00  0.00     0.006 C 
ENDROOT
BRANCH   1   2
ATOM      2  C   UNL     1      -7.596  25.480   2.051  1.00  0.00     0.053 C 
BRANCH   2   3
ATOM      3  C   UNL     1      -6.355  24.643   2.115  1.00  0.00     0.041 C 
ATOM      4  O   UNL     1      -6.429  23.391   2.013  1.00  0.00    -0.550 OA
ATOM      5  O   UNL     1      -5.119  25.246   2.318  1.00  0.00    -0.550 OA
ENDBRANCH   2   3
ENDBRANCH   1   2
BRANCH   1   6
ATOM      6  C   UNL     1      -7.887  25.799   4.563  1.00  0.00     0.000 C 
BRANCH   6   7
ATOM      7  C   UNL     1      -6.862  26.277   5.596  1.00  0.00    -0.003 C 
ATOM      8  C   UNL     1      -7.313  25.948   7.016  1.00  0.00     0.004 C 
ENDBRANCH   6   7
ENDBRANCH   1   6
TORSDOF 4
ENDMDL
MODEL 3
REMARK VINA RESULT:    -3.128      1.302      1.798
REMARK INTER + INTRA:          -3.973
REMARK INTER:                  -3.775
REMARK INTRA:                  -0.198
REMARK UNBOUND:                -0.113
REMARK SMILES CCCCCC(=O)[O-]
REMARK SMILES IDX 4 1 5 2 6 3 7 4 8 5 3 6 2 7 1 8
REMARK H PARENT
REMARK Flexibility Score: inf
ROOT
ATOM      1  C   UNL     1      -6.099  26.218   2.280  1.00  0.00     0.006 C 
ENDROOT
BRANCH   1   2
ATOM      2  C   UNL     1      -6.112  24.813   1.664  1.00  0.00     0.053 C 
BRANCH   2   3
ATOM      3  C   UNL     1      -7.125  24.696   0.566  1.00  0.00     0.041 C 
ATOM      4  O   UNL     1      -7.032  25.415  -0.462  1.00  0.00    -0.550 OA
ATOM      5  O   UNL     1      -8.192  23.814   0.695  1.00  0.00    -0.550 OA
ENDBRANCH   2   3
ENDBRANCH   1   2
BRANCH   1   6
ATOM      6  C   UNL     1      -7.408  26.541   3.017  1.00  0.00     0.000 C 
BRANCH   6   7
ATOM      7  C   UNL     1      -7.635  25.572   4.182  1.00  0.00    -0.003 C 
ATOM      8  C   UNL     1      -7.098  26.147   5.490  1.00  0.00     0.004 C 
ENDBRANCH   6   7
ENDBRANCH   1   6
TORSDOF 4
ENDMDL
MODEL 4
REMARK VINA RESULT:    -3.126      2.132      3.351
REMARK INTER + INTRA:          -3.971
REMARK INTER:                  -3.782
REMARK INTRA:                  -0.188
REMARK UNBOUND:                -0.113
REMARK SMILES CCCCCC(=O)[O-]
REMARK SMILES IDX 4 1 5 2 6 3 7 4 8 5 3 6 2 7 1 8
REMARK H PARENT
REMARK Flexibility Score: inf
ROOT
ATOM      1  C   UNL     1      -5.789  26.393   2.105  1.00  0.00     0.006 C 
ENDROOT
BRANCH   1   2
ATOM      2  C   UNL     1      -7.249  26.048   2.425  1.00  0.00     0.053 C 
BRANCH   2   3
ATOM      3  C   UNL     1      -7.688  24.791   1.738  1.00  0.00     0.041 C 
ATOM      4  O   UNL     1      -6.965  23.761   1.778  1.00  0.00    -0.550 OA
ATOM      5  O   UNL     1      -8.881  24.767   1.026  1.00  0.00    -0.550 OA
ENDBRANCH   2   3
ENDBRANCH   1   2
BRANCH   1   6
ATOM      6  C   UNL     1      -4.871  26.221   3.324  1.00  0.00     0.000 C 
BRANCH   6   7
ATOM      7  C   UNL     1      -3.481  25.735   2.900  1.00  0.00    -0.003 C 
ATOM      8  C   UNL     1      -3.520  25.088   1.519  1.00  0.00     0.004 C 
ENDBRANCH   6   7
ENDBRANCH   1   6
TORSDOF 4
ENDMDL
MODEL 5
REMARK VINA RESULT:    -3.120      3.134      3.727
REMARK INTER + INTRA:          -3.963
REMARK INTER:                  -3.803
REMARK INTRA:                  -0.159
REMARK UNBOUND:                -0.113
REMARK SMILES CCCCCC(=O)[O-]
REMARK SMILES IDX 4 1 5 2 6 3 7 4 8 5 3 6 2 7 1 8
REMARK H PARENT
REMARK Flexibility Score: inf
ROOT
ATOM      1  C   UNL     1      -4.661  23.950   1.100  1.00  0.00     0.006 C 
ENDROOT
BRANCH   1   2
ATOM      2  C   UNL     1      -5.964  24.052   1.904  1.00  0.00     0.053 C 
BRANCH   2   3
ATOM      3  C   UNL     1      -7.097  24.558   1.065  1.00  0.00     0.041 C 
ATOM      4  O   UNL     1      -8.031  23.785   0.726  1.00  0.00    -0.550 OA
ATOM      5  O   UNL     1      -7.106  25.878   0.631  1.00  0.00    -0.550 OA
ENDBRANCH   2   3
ENDBRANCH   1   2
BRANCH   1   6
ATOM      6  C   UNL     1      -3.710  25.123   1.382  1.00  0.00     0.000 C 
BRANCH   6   7
ATOM      7  C   UNL     1      -3.684  25.459   2.877  1.00  0.00    -0.003 C 
ATOM      8  C   UNL     1      -3.381  26.937   3.105  1.00  0.00     0.004 C 
ENDBRANCH   6   7
ENDBRANCH   1   6
TORSDOF 4
ENDMDL
MODEL 6
REMARK VINA RESULT:    -3.067      2.986      3.908
REMARK INTER + INTRA:          -3.898
REMARK INTER:                  -3.698
REMARK INTRA:                  -0.200
REMARK UNBOUND:                -0.113
REMARK SMILES CCCCCC(=O)[O-]
REMARK SMILES IDX 4 1 5 2 6 3 7 4 8 5 3 6 2 7 1 8
REMARK H PARENT
REMARK Flexibility Score: inf
ROOT
ATOM      1  C   UNL     1      -7.594  26.700   3.199  1.00  0.00     0.006 C 
ENDROOT
BRANCH   1   2
ATOM      2  C   UNL     1      -7.604  25.461   4.105  1.00  0.00     0.053 C 
BRANCH   2   3
ATOM      3  C   UNL     1      -7.505  25.831   5.554  1.00  0.00     0.041 C 
ATOM      4  O   UNL     1      -8.457  25.582   6.338  1.00  0.00    -0.550 OA
ATOM      5  O   UNL     1      -6.373  26.482   6.031  1.00  0.00    -0.550 OA
ENDBRANCH   2   3
ENDBRANCH   1   2
BRANCH   1   6
ATOM      6  C   UNL     1      -6.381  26.720   2.257  1.00  0.00     0.000 C 
BRANCH   6   7
ATOM      7  C   UNL     1      -5.389  25.610   2.616  1.00  0.00    -0.003 C 
ATOM      8  C   UNL     1      -4.109  26.186   3.214  1.00  0.00     0.004 C 
ENDBRANCH   6   7
ENDBRANCH   1   6
TORSDOF 4
ENDMDL
MODEL 7
REMARK VINA RESULT:    -3.059      9.064     10.815
REMARK INTER + INTRA:          -3.888
REMARK INTER:                  -3.638
REMARK INTRA:                  -0.250
REMARK UNBOUND:                -0.113
REMARK SMILES CCCCCC(=O)[O-]
REMARK SMILES IDX 4 1 5 2 6 3 7 4 8 5 3 6 2 7 1 8
REMARK H PARENT
REMARK Flexibility Score: inf
ROOT
ATOM      1  C   UNL     1     -12.774  24.580  -5.767  1.00  0.00     0.006 C 
ENDROOT
BRANCH   1   2
ATOM      2  C   UNL     1     -11.866  24.888  -4.568  1.00  0.00     0.053 C 
BRANCH   2   3
ATOM      3  C   UNL     1     -10.897  25.990  -4.872  1.00  0.00     0.041 C 
ATOM      4  O   UNL     1     -10.421  26.691  -3.941  1.00  0.00    -0.550 OA
ATOM      5  O   UNL     1     -10.545  26.263  -6.189  1.00  0.00    -0.550 OA
ENDBRANCH   2   3
ENDBRANCH   1   2
BRANCH   1   6
ATOM      6  C   UNL     1     -14.091  25.368  -5.715  1.00  0.00     0.000 C 
BRANCH   6   7
ATOM      7  C   UNL     1     -14.232  26.282  -6.937  1.00  0.00    -0.003 C 
ATOM      8  C   UNL     1     -13.752  27.696  -6.629  1.00  0.00     0.004 C 
ENDBRANCH   6   7
ENDBRANCH   1   6
TORSDOF 4
ENDMDL
MODEL 8
REMARK VINA RESULT:    -3.032      2.671      3.788
REMARK INTER + INTRA:          -3.854
REMARK INTER:                  -3.618
REMARK INTRA:                  -0.236
REMARK UNBOUND:                -0.113
REMARK SMILES CCCCCC(=O)[O-]
REMARK SMILES IDX 4 1 5 2 6 3 7 4 8 5 3 6 2 7 1 8
REMARK H PARENT
REMARK Flexibility Score: inf
ROOT
ATOM      1  C   UNL     1      -6.029  24.017   2.219  1.00  0.00     0.006 C 
ENDROOT
BRANCH   1   2
ATOM      2  C   UNL     1      -7.312  24.643   1.653  1.00  0.00     0.053 C 
BRANCH   2   3
ATOM      3  C   UNL     1      -7.685  25.899   2.380  1.00  0.00     0.041 C 
ATOM      4  O   UNL     1      -7.118  26.986   2.099  1.00  0.00    -0.550 OA
ATOM      5  O   UNL     1      -8.639  25.861   3.390  1.00  0.00    -0.550 OA
ENDBRANCH   2   3
ENDBRANCH   1   2
BRANCH   1   6
ATOM      6  C   UNL     1      -4.911  23.934   1.169  1.00  0.00     0.000 C 
BRANCH   6   7
ATOM      7  C   UNL     1      -3.901  25.071   1.353  1.00  0.00    -0.003 C 
ATOM      8  C   UNL     1      -3.821  25.509   2.812  1.00  0.00     0.004 C 
ENDBRANCH   6   7
ENDBRANCH   1   6
TORSDOF 4
ENDMDL
MODEL 9
REMARK VINA RESULT:    -2.958      3.317      5.062
REMARK INTER + INTRA:          -3.763
REMARK INTER:                  -3.684
REMARK INTRA:                  -0.079
REMARK UNBOUND:                -0.113
REMARK SMILES CCCCCC(=O)[O-]
REMARK SMILES IDX 4 1 5 2 6 3 7 4 8 5 3 6 2 7 1 8
REMARK H PARENT
REMARK Flexibility Score: inf
ROOT
ATOM      1  C   UNL     1      -5.264  23.606   1.583  1.00  0.00     0.006 C 
ENDROOT
BRANCH   1   2
ATOM      2  C   UNL     1      -6.068  24.851   1.982  1.00  0.00     0.053 C 
BRANCH   2   3
ATOM      3  C   UNL     1      -7.521  24.706   1.650  1.00  0.00     0.041 C 
ATOM      4  O   UNL     1      -7.900  23.830   0.830  1.00  0.00    -0.550 OA
ATOM      5  O   UNL     1      -8.455  25.560   2.224  1.00  0.00    -0.550 OA
ENDBRANCH   2   3
ENDBRANCH   1   2
BRANCH   1   6
ATOM      6  C   UNL     1      -4.348  23.868   0.379  1.00  0.00     0.000 C 
BRANCH   6   7
ATOM      7  C   UNL     1      -3.785  22.556  -0.178  1.00  0.00    -0.003 C 
ATOM      8  C   UNL     1      -2.262  22.526  -0.089  1.00  0.00     0.004 C 
ENDBRANCH   6   7
ENDBRANCH   1   6
TORSDOF 4
ENDMDL
