MODEL 1
REMARK VINA RESULT:    -4.973      0.000      0.000
REMARK INTER + INTRA:          -5.432
REMARK INTER:                  -5.409
REMARK INTRA:                  -0.023
REMARK UNBOUND:                -0.023
REMARK SMILES CC1(C)[C@@H]2CC=C(CO)[C@H]1C2
REMARK SMILES IDX 8 1 7 2 1 3 2 4 4 5 3 6 10 7 5 8 11 9 6 10 9 11
REMARK H PARENT 9 12
REMARK Flexibility Score: inf
ROOT
ATOM      1  C   UNL     1      -0.775   7.273  -1.884  1.00  0.00     0.187 C 
ENDROOT
BRANCH   1   2
ATOM      2  C   UNL     1       0.404   8.079  -2.352  1.00  0.00    -0.045 C 
ATOM      3  C   UNL     1       2.762   8.573  -0.635  1.00  0.00     0.012 C 
ATOM      4  C   UNL     1       2.911   8.125  -2.116  1.00  0.00    -0.026 C 
ATOM      5  C   UNL     1       2.759   9.192  -3.236  1.00  0.00    -0.000 C 
ATOM      6  C   UNL     1       4.229   7.320  -2.251  1.00  0.00     0.012 C 
ATOM      7  C   UNL     1       1.713   7.409  -2.795  1.00  0.00     0.023 C 
ATOM      8  C   UNL     1       1.620  10.205  -2.872  1.00  0.00     0.031 C 
ATOM      9  C   UNL     1       2.094   8.111  -4.112  1.00  0.00     0.013 C 
ATOM     10  C   UNL     1       0.360   9.443  -2.414  1.00  0.00    -0.025 C 
ENDBRANCH   1   2
BRANCH   1  11
ATOM     11  O   UNL     1      -1.957   8.013  -2.024  1.00  0.00    -0.392 OA
ATOM     12  H   UNL     1      -2.403   7.682  -2.847  1.00  0.00     0.211 HD
ENDBRANCH   1  11
TORSDOF 2
ENDMDL
MODEL 2
REMARK VINA RESULT:    -4.972      0.887      2.565
REMARK INTER + INTRA:          -5.431
REMARK INTER:                  -5.386
REMARK INTRA:                  -0.045
REMARK UNBOUND:                -0.023
REMARK SMILES CC1(C)[C@@H]2CC=C(CO)[C@H]1C2
REMARK SMILES IDX 8 1 7 2 1 3 2 4 4 5 3 6 10 7 5 8 11 9 6 10 9 11
REMARK H PARENT 9 12
REMARK Flexibility Score: inf
ROOT
ATOM      1  C   UNL     1      -0.820   7.059  -1.995  1.00  0.00     0.187 C 
ENDROOT
BRANCH   1   2
ATOM      2  C   UNL     1       0.616   7.491  -1.891  1.00  0.00    -0.045 C 
ATOM      3  C   UNL     1       2.259   8.107  -4.273  1.00  0.00     0.012 C 
ATOM      4  C   UNL     1       2.241   9.041  -3.031  1.00  0.00    -0.026 C 
ATOM      5  C   UNL     1       3.105   8.657  -1.797  1.00  0.00    -0.000 C 
ATOM      6  C   UNL     1       2.515  10.490  -3.508  1.00  0.00     0.012 C 
ATOM      7  C   UNL     1       1.030   8.959  -2.063  1.00  0.00     0.023 C 
ATOM      8  C   UNL     1       3.069   7.107  -1.568  1.00  0.00     0.031 C 
ATOM      9  C   UNL     1       1.997   9.239  -0.896  1.00  0.00     0.013 C 
ATOM     10  C   UNL     1       1.615   6.597  -1.628  1.00  0.00    -0.025 C 
ENDBRANCH   1   2
BRANCH   1  11
ATOM     11  O   UNL     1      -1.665   8.178  -2.015  1.00  0.00    -0.392 OA
ATOM     12  H   UNL     1      -1.076   8.976  -2.060  1.00  0.00     0.211 HD
ENDBRANCH   1  11
TORSDOF 2
ENDMDL
MODEL 3
REMARK VINA RESULT:    -4.958      2.160      3.267
REMARK INTER + INTRA:          -5.415
REMARK INTER:                  -5.393
REMARK INTRA:                  -0.023
REMARK UNBOUND:                -0.023
REMARK SMILES CC1(C)[C@@H]2CC=C(CO)[C@H]1C2
REMARK SMILES IDX 8 1 7 2 1 3 2 4 4 5 3 6 10 7 5 8 11 9 6 10 9 11
REMARK H PARENT 9 12
REMARK Flexibility Score: inf
ROOT
ATOM      1  C   UNL     1       4.190   6.588  -1.696  1.00  0.00     0.187 C 
ENDROOT
BRANCH   1   2
ATOM      2  C   UNL     1       2.990   7.367  -2.158  1.00  0.00    -0.045 C 
ATOM      3  C   UNL     1       2.415  10.105  -1.196  1.00  0.00     0.012 C 
ATOM      4  C   UNL     1       2.335   9.737  -2.704  1.00  0.00    -0.026 C 
ATOM      5  C   UNL     1       1.062   9.012  -3.227  1.00  0.00    -0.000 C 
ATOM      6  C   UNL     1       2.669  11.003  -3.533  1.00  0.00     0.012 C 
ATOM      7  C   UNL     1       3.109   8.487  -3.201  1.00  0.00     0.023 C 
ATOM      8  C   UNL     1       0.559   7.967  -2.173  1.00  0.00     0.031 C 
ATOM      9  C   UNL     1       1.965   8.226  -4.199  1.00  0.00     0.013 C 
ATOM     10  C   UNL     1       1.738   7.105  -1.679  1.00  0.00    -0.025 C 
ENDBRANCH   1   2
BRANCH   1  11
ATOM     11  O   UNL     1       3.790   5.493  -0.920  1.00  0.00    -0.392 OA
ATOM     12  H   UNL     1       3.771   4.707  -1.527  1.00  0.00     0.211 HD
ENDBRANCH   1  11
TORSDOF 2
ENDMDL
MODEL 4
REMARK VINA RESULT:    -4.853      1.241      2.177
REMARK INTER + INTRA:          -5.301
REMARK INTER:                  -5.259
REMARK INTRA:                  -0.042
REMARK UNBOUND:                -0.023
REMARK SMILES CC1(C)[C@@H]2CC=C(CO)[C@H]1C2
REMARK SMILES IDX 8 1 7 2 1 3 2 4 4 5 3 6 10 7 5 8 11 9 6 10 9 11
REMARK H PARENT 9 12
REMARK Flexibility Score: inf
ROOT
ATOM      1  C   UNL     1      -0.422  10.308  -2.745  1.00  0.00     0.187 C 
ENDROOT
BRANCH   1   2
ATOM      2  C   UNL     1       0.650   9.256  -2.686  1.00  0.00    -0.045 C 
ATOM      3  C   UNL     1       2.941   9.436  -0.824  1.00  0.00     0.012 C 
ATOM      4  C   UNL     1       2.132   8.120  -0.997  1.00  0.00    -0.026 C 
ATOM      5  C   UNL     1       2.436   7.215  -2.225  1.00  0.00    -0.000 C 
ATOM      6  C   UNL     1       2.191   7.333   0.337  1.00  0.00     0.012 C 
ATOM      7  C   UNL     1       0.691   8.209  -1.565  1.00  0.00     0.023 C 
ATOM      8  C   UNL     1       2.717   8.094  -3.492  1.00  0.00     0.031 C 
ATOM      9  C   UNL     1       0.935   6.866  -2.281  1.00  0.00     0.013 C 
ATOM     10  C   UNL     1       1.630   9.179  -3.635  1.00  0.00    -0.025 C 
ENDBRANCH   1   2
BRANCH   1  11
ATOM     11  O   UNL     1      -1.646   9.781  -2.311  1.00  0.00    -0.392 OA
ATOM     12  H   UNL     1      -2.100  10.502  -1.802  1.00  0.00     0.211 HD
ENDBRANCH   1  11
TORSDOF 2
ENDMDL
MODEL 5
REMARK VINA RESULT:    -4.850      1.424      2.719
REMARK INTER + INTRA:          -5.298
REMARK INTER:                  -5.267
REMARK INTRA:                  -0.030
REMARK UNBOUND:                -0.023
REMARK SMILES CC1(C)[C@@H]2CC=C(CO)[C@H]1C2
REMARK SMILES IDX 8 1 7 2 1 3 2 4 4 5 3 6 10 7 5 8 11 9 6 10 9 11
REMARK H PARENT 9 12
REMARK Flexibility Score: inf
ROOT
ATOM      1  C   UNL     1      -0.274  10.509  -2.090  1.00  0.00     0.187 C 
ENDROOT
BRANCH   1   2
ATOM      2  C   UNL     1       0.225   9.094  -1.997  1.00  0.00    -0.045 C 
ATOM      3  C   UNL     1       2.070   7.933  -3.998  1.00  0.00     0.012 C 
ATOM      4  C   UNL     1       2.308   7.759  -2.471  1.00  0.00    -0.026 C 
ATOM      5  C   UNL     1       1.497   6.671  -1.711  1.00  0.00    -0.000 C 
ATOM      6  C   UNL     1       3.833   7.628  -2.228  1.00  0.00     0.012 C 
ATOM      7  C   UNL     1       1.641   8.769  -1.500  1.00  0.00     0.023 C 
ATOM      8  C   UNL     1       0.027   6.611  -2.252  1.00  0.00     0.031 C 
ATOM      9  C   UNL     1       1.457   7.617  -0.494  1.00  0.00     0.013 C 
ATOM     10  C   UNL     1      -0.563   8.032  -2.341  1.00  0.00    -0.025 C 
ENDBRANCH   1   2
BRANCH   1  11
ATOM     11  O   UNL     1      -0.915  10.719  -3.318  1.00  0.00    -0.392 OA
ATOM     12  H   UNL     1      -1.569  11.453  -3.173  1.00  0.00     0.211 HD
ENDBRANCH   1  11
TORSDOF 2
ENDMDL
MODEL 6
REMARK VINA RESULT:    -4.832      2.323      3.863
REMARK INTER + INTRA:          -5.278
REMARK INTER:                  -5.240
REMARK INTRA:                  -0.037
REMARK UNBOUND:                -0.023
REMARK SMILES CC1(C)[C@@H]2CC=C(CO)[C@H]1C2
REMARK SMILES IDX 8 1 7 2 1 3 2 4 4 5 3 6 10 7 5 8 11 9 6 10 9 11
REMARK H PARENT 9 12
REMARK Flexibility Score: inf
ROOT
ATOM      1  C   UNL     1       3.371   9.357   0.094  1.00  0.00     0.187 C 
ENDROOT
BRANCH   1   2
ATOM      2  C   UNL     1       2.867   9.228  -1.317  1.00  0.00    -0.045 C 
ATOM      3  C   UNL     1       0.162   8.208  -1.943  1.00  0.00     0.012 C 
ATOM      4  C   UNL     1       0.729   9.486  -2.622  1.00  0.00    -0.026 C 
ATOM      5  C   UNL     1       1.715   9.322  -3.812  1.00  0.00    -0.000 C 
ATOM      6  C   UNL     1      -0.458  10.420  -2.970  1.00  0.00     0.012 C 
ATOM      7  C   UNL     1       1.886  10.244  -1.918  1.00  0.00     0.023 C 
ATOM      8  C   UNL     1       2.685   8.118  -3.554  1.00  0.00     0.031 C 
ATOM      9  C   UNL     1       2.459  10.575  -3.310  1.00  0.00     0.013 C 
ATOM     10  C   UNL     1       3.269   8.206  -2.130  1.00  0.00    -0.025 C 
ENDBRANCH   1   2
BRANCH   1  11
ATOM     11  O   UNL     1       4.268  10.429   0.194  1.00  0.00    -0.392 OA
ATOM     12  H   UNL     1       4.151  10.974  -0.628  1.00  0.00     0.211 HD
ENDBRANCH   1  11
TORSDOF 2
ENDMDL
MODEL 7
REMARK VINA RESULT:    -4.696      1.670      2.948
REMARK INTER + INTRA:          -5.130
REMARK INTER:                  -5.071
REMARK INTRA:                  -0.059
REMARK UNBOUND:                -0.023
REMARK SMILES CC1(C)[C@@H]2CC=C(CO)[C@H]1C2
REMARK SMILES IDX 8 1 7 2 1 3 2 4 4 5 3 6 10 7 5 8 11 9 6 10 9 11
REMARK H PARENT 9 12
REMARK Flexibility Score: inf
ROOT
ATOM      1  C   UNL     1       1.747   8.515   0.546  1.00  0.00     0.187 C 
ENDROOT
BRANCH   1   2
ATOM      2  C   UNL     1       1.754   8.370  -0.950  1.00  0.00    -0.045 C 
ATOM      3  C   UNL     1       0.390  10.297  -2.732  1.00  0.00     0.012 C 
ATOM      4  C   UNL     1       1.838   9.807  -3.017  1.00  0.00    -0.026 C 
ATOM      5  C   UNL     1       2.035   8.417  -3.686  1.00  0.00    -0.000 C 
ATOM      6  C   UNL     1       2.593  10.931  -3.770  1.00  0.00     0.012 C 
ATOM      7  C   UNL     1       2.666   9.228  -1.839  1.00  0.00     0.023 C 
ATOM      8  C   UNL     1       0.993   7.390  -3.125  1.00  0.00     0.031 C 
ATOM      9  C   UNL     1       3.305   8.236  -2.830  1.00  0.00     0.013 C 
ATOM     10  C   UNL     1       0.958   7.460  -1.585  1.00  0.00    -0.025 C 
ENDBRANCH   1   2
BRANCH   1  11
ATOM     11  O   UNL     1       0.884   9.550   0.931  1.00  0.00    -0.392 OA
ATOM     12  H   UNL     1       0.178   9.135   1.492  1.00  0.00     0.211 HD
ENDBRANCH   1  11
TORSDOF 2
ENDMDL
MODEL 8
REMARK VINA RESULT:    -4.635      2.435      3.917
REMARK INTER + INTRA:          -5.064
REMARK INTER:                  -5.041
REMARK INTRA:                  -0.023
REMARK UNBOUND:                -0.023
REMARK SMILES CC1(C)[C@@H]2CC=C(CO)[C@H]1C2
REMARK SMILES IDX 8 1 7 2 1 3 2 4 4 5 3 6 10 7 5 8 11 9 6 10 9 11
REMARK H PARENT 9 12
REMARK Flexibility Score: inf
ROOT
ATOM      1  C   UNL     1       3.124   5.993  -0.537  1.00  0.00     0.187 C 
ENDROOT
BRANCH   1   2
ATOM      2  C   UNL     1       2.287   6.890  -1.406  1.00  0.00    -0.045 C 
ATOM      3  C   UNL     1       0.102   5.851  -3.109  1.00  0.00     0.012 C 
ATOM      4  C   UNL     1      -0.089   7.106  -2.212  1.00  0.00    -0.026 C 
ATOM      5  C   UNL     1       0.457   8.472  -2.716  1.00  0.00    -0.000 C 
ATOM      6  C   UNL     1      -1.582   7.189  -1.803  1.00  0.00     0.012 C 
ATOM      7  C   UNL     1       0.864   7.302  -1.003  1.00  0.00     0.023 C 
ATOM      8  C   UNL     1       1.831   8.274  -3.442  1.00  0.00     0.031 C 
ATOM      9  C   UNL     1       0.802   8.821  -1.254  1.00  0.00     0.013 C 
ATOM     10  C   UNL     1       2.759   7.387  -2.587  1.00  0.00    -0.025 C 
ENDBRANCH   1   2
BRANCH   1  11
ATOM     11  O   UNL     1       4.234   5.522  -1.250  1.00  0.00    -0.392 OA
ATOM     12  H   UNL     1       4.779   6.319  -1.485  1.00  0.00     0.211 HD
ENDBRANCH   1  11
TORSDOF 2
ENDMDL
MODEL 9
REMARK VINA RESULT:    -4.590      2.619      3.816
REMARK INTER + INTRA:          -5.015
REMARK INTER:                  -4.992
REMARK INTRA:                  -0.023
REMARK UNBOUND:                -0.023
REMARK SMILES CC1(C)[C@@H]2CC=C(CO)[C@H]1C2
REMARK SMILES IDX 8 1 7 2 1 3 2 4 4 5 3 6 10 7 5 8 11 9 6 10 9 11
REMARK H PARENT 9 12
REMARK Flexibility Score: inf
ROOT
ATOM      1  C   UNL     1       4.960   6.753  -3.011  1.00  0.00     0.187 C 
ENDROOT
BRANCH   1   2
ATOM      2  C   UNL     1       3.733   7.592  -2.786  1.00  0.00    -0.045 C 
ATOM      3  C   UNL     1       1.178   6.437  -1.844  1.00  0.00     0.012 C 
ATOM      4  C   UNL     1       1.766   7.734  -1.220  1.00  0.00    -0.026 C 
ATOM      5  C   UNL     1       1.567   9.079  -1.973  1.00  0.00    -0.000 C 
ATOM      6  C   UNL     1       1.304   7.816   0.257  1.00  0.00     0.012 C 
ATOM      7  C   UNL     1       3.286   8.004  -1.377  1.00  0.00     0.023 C 
ATOM      8  C   UNL     1       1.705   8.863  -3.519  1.00  0.00     0.031 C 
ATOM      9  C   UNL     1       2.965   9.508  -1.484  1.00  0.00     0.013 C 
ATOM     10  C   UNL     1       2.968   8.034  -3.827  1.00  0.00    -0.025 C 
ENDBRANCH   1   2
BRANCH   1  11
ATOM     11  O   UNL     1       5.109   6.462  -4.374  1.00  0.00    -0.392 OA
ATOM     12  H   UNL     1       6.085   6.431  -4.552  1.00  0.00     0.211 HD
ENDBRANCH   1  11
TORSDOF 2
ENDMDL
