MODEL 1
REMARK VINA RESULT:    -4.592      0.000      0.000
REMARK INTER + INTRA:          -4.885
REMARK INTER:                  -4.861
REMARK INTRA:                  -0.024
REMARK UNBOUND:                -0.024
REMARK SMILES O=C([O-])c1cccnc1
REMARK SMILES IDX 4 1 5 2 9 3 6 4 8 5 7 6 2 7 1 8 3 9
REMARK H PARENT
REMARK Flexibility Score: inf
ROOT
ATOM      1  C   UNL     1     136.098 124.343 140.157  1.00  0.00     0.016 A 
ATOM      2  C   UNL     1     135.612 124.478 138.846  1.00  0.00     0.013 A 
ATOM      3  C   UNL     1     137.413 123.881 140.338  1.00  0.00     0.120 A 
ATOM      4  C   UNL     1     136.427 124.158 137.760  1.00  0.00     0.021 A 
ATOM      5  N   UNL     1     138.187 123.576 139.261  1.00  0.00    -0.264 NA
ATOM      6  C   UNL     1     137.726 123.703 137.990  1.00  0.00     0.111 A 
ENDROOT
BRANCH   1   7
ATOM      7  C   UNL     1     135.243 124.680 141.317  1.00  0.00     0.073 C 
ATOM      8  O   UNL     1     134.058 125.071 141.148  1.00  0.00    -0.545 OA
ATOM      9  O   UNL     1     135.739 124.569 142.611  1.00  0.00    -0.545 OA
ENDBRANCH   1   7
TORSDOF 1
ENDMDL
MODEL 2
REMARK VINA RESULT:    -4.551      0.691      1.294
REMARK INTER + INTRA:          -4.841
REMARK INTER:                  -4.818
REMARK INTRA:                  -0.023
REMARK UNBOUND:                -0.024
REMARK SMILES O=C([O-])c1cccnc1
REMARK SMILES IDX 4 1 5 2 9 3 6 4 8 5 7 6 2 7 1 8 3 9
REMARK H PARENT
REMARK Flexibility Score: inf
ROOT
ATOM      1  C   UNL     1     135.596 124.473 140.501  1.00  0.00     0.016 A 
ATOM      2  C   UNL     1     135.005 124.854 139.286  1.00  0.00     0.013 A 
ATOM      3  C   UNL     1     136.818 123.777 140.462  1.00  0.00     0.120 A 
ATOM      4  C   UNL     1     135.628 124.544 138.076  1.00  0.00     0.021 A 
ATOM      5  N   UNL     1     137.403 123.488 139.268  1.00  0.00    -0.264 NA
ATOM      6  C   UNL     1     136.839 123.853 138.087  1.00  0.00     0.111 A 
ENDROOT
BRANCH   1   7
ATOM      7  C   UNL     1     134.947 124.795 141.791  1.00  0.00     0.073 C 
ATOM      8  O   UNL     1     135.602 124.758 142.865  1.00  0.00    -0.545 OA
ATOM      9  O   UNL     1     133.602 125.145 141.832  1.00  0.00    -0.545 OA
ENDBRANCH   1   7
TORSDOF 1
ENDMDL
MODEL 3
REMARK VINA RESULT:    -4.492      2.090      2.924
REMARK INTER + INTRA:          -4.778
REMARK INTER:                  -4.755
REMARK INTRA:                  -0.024
REMARK UNBOUND:                -0.024
REMARK SMILES O=C([O-])c1cccnc1
REMARK SMILES IDX 4 1 5 2 9 3 6 4 8 5 7 6 2 7 1 8 3 9
REMARK H PARENT
REMARK Flexibility Score: inf
ROOT
ATOM      1  C   UNL     1     137.545 123.718 140.078  1.00  0.00     0.016 A 
ATOM      2  C   UNL     1     137.996 123.712 138.749  1.00  0.00     0.013 A 
ATOM      3  C   UNL     1     136.177 123.935 140.320  1.00  0.00     0.120 A 
ATOM      4  C   UNL     1     137.096 123.917 137.702  1.00  0.00     0.021 A 
ATOM      5  N   UNL     1     135.321 124.133 139.282  1.00  0.00    -0.264 NA
ATOM      6  C   UNL     1     135.748 124.129 137.992  1.00  0.00     0.111 A 
ENDROOT
BRANCH   1   7
ATOM      7  C   UNL     1     138.490 123.500 141.196  1.00  0.00     0.073 C 
ATOM      8  O   UNL     1     139.643 123.043 140.981  1.00  0.00    -0.545 OA
ATOM      9  O   UNL     1     138.115 123.800 142.501  1.00  0.00    -0.545 OA
ENDBRANCH   1   7
TORSDOF 1
ENDMDL
MODEL 4
REMARK VINA RESULT:    -4.263      1.288      1.984
REMARK INTER + INTRA:          -4.536
REMARK INTER:                  -4.513
REMARK INTRA:                  -0.024
REMARK UNBOUND:                -0.024
REMARK SMILES O=C([O-])c1cccnc1
REMARK SMILES IDX 4 1 5 2 9 3 6 4 8 5 7 6 2 7 1 8 3 9
REMARK H PARENT
REMARK Flexibility Score: inf
ROOT
ATOM      1  C   UNL     1     136.200 124.388 139.373  1.00  0.00     0.016 A 
ATOM      2  C   UNL     1     136.848 124.344 138.129  1.00  0.00     0.013 A 
ATOM      3  C   UNL     1     136.905 123.955 140.510  1.00  0.00     0.120 A 
ATOM      4  C   UNL     1     138.162 123.881 138.038  1.00  0.00     0.021 A 
ATOM      5  N   UNL     1     138.185 123.508 140.394  1.00  0.00    -0.264 NA
ATOM      6  C   UNL     1     138.820 123.462 139.194  1.00  0.00     0.111 A 
ENDROOT
BRANCH   1   7
ATOM      7  C   UNL     1     134.808 124.877 139.482  1.00  0.00     0.073 C 
ATOM      8  O   UNL     1     134.254 124.988 140.608  1.00  0.00    -0.545 OA
ATOM      9  O   UNL     1     134.092 125.221 138.341  1.00  0.00    -0.545 OA
ENDBRANCH   1   7
TORSDOF 1
ENDMDL
MODEL 5
REMARK VINA RESULT:    -4.082      2.877      3.547
REMARK INTER + INTRA:          -4.345
REMARK INTER:                  -4.321
REMARK INTRA:                  -0.023
REMARK UNBOUND:                -0.024
REMARK SMILES O=C([O-])c1cccnc1
REMARK SMILES IDX 4 1 5 2 9 3 6 4 8 5 7 6 2 7 1 8 3 9
REMARK H PARENT
REMARK Flexibility Score: inf
ROOT
ATOM      1  C   UNL     1     136.920 124.074 139.337  1.00  0.00     0.016 A 
ATOM      2  C   UNL     1     135.897 124.779 138.685  1.00  0.00     0.013 A 
ATOM      3  C   UNL     1     136.738 123.725 140.687  1.00  0.00     0.120 A 
ATOM      4  C   UNL     1     134.730 125.117 139.373  1.00  0.00     0.021 A 
ATOM      5  N   UNL     1     135.591 124.067 141.334  1.00  0.00    -0.264 NA
ATOM      6  C   UNL     1     134.595 124.750 140.712  1.00  0.00     0.111 A 
ENDROOT
BRANCH   1   7
ATOM      7  C   UNL     1     138.161 123.708 138.618  1.00  0.00     0.073 C 
ATOM      8  O   UNL     1     138.200 123.722 137.360  1.00  0.00    -0.545 OA
ATOM      9  O   UNL     1     139.301 123.344 139.325  1.00  0.00    -0.545 OA
ENDBRANCH   1   7
TORSDOF 1
ENDMDL
MODEL 6
REMARK VINA RESULT:    -3.888      2.897      3.853
REMARK INTER + INTRA:          -4.140
REMARK INTER:                  -4.117
REMARK INTRA:                  -0.023
REMARK UNBOUND:                -0.024
REMARK SMILES O=C([O-])c1cccnc1
REMARK SMILES IDX 4 1 5 2 9 3 6 4 8 5 7 6 2 7 1 8 3 9
REMARK H PARENT
REMARK Flexibility Score: inf
ROOT
ATOM      1  C   UNL     1     136.772 124.103 139.420  1.00  0.00     0.016 A 
ATOM      2  C   UNL     1     136.696 123.775 140.783  1.00  0.00     0.013 A 
ATOM      3  C   UNL     1     135.691 124.788 138.836  1.00  0.00     0.120 A 
ATOM      4  C   UNL     1     135.570 124.129 141.528  1.00  0.00     0.021 A 
ATOM      5  N   UNL     1     134.606 125.121 139.585  1.00  0.00    -0.264 NA
ATOM      6  C   UNL     1     134.524 124.808 140.904  1.00  0.00     0.111 A 
ENDROOT
BRANCH   1   7
ATOM      7  C   UNL     1     137.960 123.734 138.620  1.00  0.00     0.073 C 
ATOM      8  O   UNL     1     137.900 123.697 137.362  1.00  0.00    -0.545 OA
ATOM      9  O   UNL     1     139.161 123.422 139.247  1.00  0.00    -0.545 OA
ENDBRANCH   1   7
TORSDOF 1
ENDMDL
MODEL 7
REMARK VINA RESULT:    -3.861      2.065      2.942
REMARK INTER + INTRA:          -4.111
REMARK INTER:                  -4.095
REMARK INTRA:                  -0.016
REMARK UNBOUND:                -0.024
REMARK SMILES O=C([O-])c1cccnc1
REMARK SMILES IDX 4 1 5 2 9 3 6 4 8 5 7 6 2 7 1 8 3 9
REMARK H PARENT
REMARK Flexibility Score: inf
ROOT
ATOM      1  C   UNL     1     136.544 123.725 139.256  1.00  0.00     0.016 A 
ATOM      2  C   UNL     1     136.545 123.646 140.658  1.00  0.00     0.013 A 
ATOM      3  C   UNL     1     137.780 123.733 138.585  1.00  0.00     0.120 A 
ATOM      4  C   UNL     1     137.753 123.576 141.355  1.00  0.00     0.021 A 
ATOM      5  N   UNL     1     138.942 123.664 139.289  1.00  0.00    -0.264 NA
ATOM      6  C   UNL     1     138.954 123.588 140.646  1.00  0.00     0.111 A 
ENDROOT
BRANCH   1   7
ATOM      7  C   UNL     1     135.272 123.798 138.505  1.00  0.00     0.073 C 
ATOM      8  O   UNL     1     134.692 122.748 138.122  1.00  0.00    -0.545 OA
ATOM      9  O   UNL     1     134.698 125.030 138.213  1.00  0.00    -0.545 OA
ENDBRANCH   1   7
TORSDOF 1
ENDMDL
MODEL 8
REMARK VINA RESULT:    -3.826      2.331      3.421
REMARK INTER + INTRA:          -4.074
REMARK INTER:                  -4.050
REMARK INTRA:                  -0.024
REMARK UNBOUND:                -0.024
REMARK SMILES O=C([O-])c1cccnc1
REMARK SMILES IDX 4 1 5 2 9 3 6 4 8 5 7 6 2 7 1 8 3 9
REMARK H PARENT
REMARK Flexibility Score: inf
ROOT
ATOM      1  C   UNL     1     135.705 124.437 140.016  1.00  0.00     0.016 A 
ATOM      2  C   UNL     1     134.716 124.891 140.903  1.00  0.00     0.013 A 
ATOM      3  C   UNL     1     136.888 123.898 140.552  1.00  0.00     0.120 A 
ATOM      4  C   UNL     1     134.915 124.801 142.281  1.00  0.00     0.021 A 
ATOM      5  N   UNL     1     137.057 123.822 141.900  1.00  0.00    -0.264 NA
ATOM      6  C   UNL     1     136.105 124.259 142.766  1.00  0.00     0.111 A 
ENDROOT
BRANCH   1   7
ATOM      7  C   UNL     1     135.505 124.526 138.553  1.00  0.00     0.073 C 
ATOM      8  O   UNL     1     134.439 125.002 138.079  1.00  0.00    -0.545 OA
ATOM      9  O   UNL     1     136.493 124.085 137.680  1.00  0.00    -0.545 OA
ENDBRANCH   1   7
TORSDOF 1
ENDMDL
MODEL 9
REMARK VINA RESULT:    -3.718      3.100      4.081
REMARK INTER + INTRA:          -3.960
REMARK INTER:                  -3.941
REMARK INTRA:                  -0.019
REMARK UNBOUND:                -0.024
REMARK SMILES O=C([O-])c1cccnc1
REMARK SMILES IDX 4 1 5 2 9 3 6 4 8 5 7 6 2 7 1 8 3 9
REMARK H PARENT
REMARK Flexibility Score: inf
ROOT
ATOM      1  C   UNL     1     136.373 124.495 143.807  1.00  0.00     0.016 A 
ATOM      2  C   UNL     1     135.023 124.543 143.426  1.00  0.00     0.013 A 
ATOM      3  C   UNL     1     137.328 124.123 142.844  1.00  0.00     0.120 A 
ATOM      4  C   UNL     1     134.652 124.229 142.117  1.00  0.00     0.021 A 
ATOM      5  N   UNL     1     136.939 123.821 141.576  1.00  0.00    -0.264 NA
ATOM      6  C   UNL     1     135.635 123.866 141.197  1.00  0.00     0.111 A 
ENDROOT
BRANCH   1   7
ATOM      7  C   UNL     1     136.778 124.826 145.191  1.00  0.00     0.073 C 
ATOM      8  O   UNL     1     137.502 124.037 145.853  1.00  0.00    -0.545 OA
ATOM      9  O   UNL     1     136.364 126.016 145.779  1.00  0.00    -0.545 OA
ENDBRANCH   1   7
TORSDOF 1
ENDMDL
