MODEL 1
REMARK VINA RESULT:    -3.609      0.000      0.000
REMARK INTER + INTRA:          -4.211
REMARK INTER:                  -4.136
REMARK INTRA:                  -0.075
REMARK UNBOUND:                -0.075
REMARK SMILES CC(C)[C@H]([NH3+])C(=O)[O-]
REMARK SMILES IDX 4 1 5 2 6 6 7 7 8 8 2 9 1 10 3 11
REMARK H PARENT 5 3 5 4 5 5
REMARK Flexibility Score: inf
ROOT
ATOM      1  C   UNL     1     126.245 140.375 122.697  1.00  0.00     0.230 C 
ENDROOT
BRANCH   1   2
ATOM      2  N   UNL     1     125.924 140.165 124.116  1.00  0.00    -0.350 N 
ATOM      3  H   UNL     1     125.335 140.953 124.470  1.00  0.00     0.345 HD
ATOM      4  H   UNL     1     125.376 139.279 124.222  1.00  0.00     0.345 HD
ATOM      5  H   UNL     1     126.788 140.093 124.698  1.00  0.00     0.345 HD
ENDBRANCH   1   2
BRANCH   1   6
ATOM      6  C   UNL     1     127.626 139.849 122.380  1.00  0.00     0.099 C 
ATOM      7  O   UNL     1     128.360 139.412 123.305  1.00  0.00    -0.544 OA
ATOM      8  O   UNL     1     128.087 139.814 121.070  1.00  0.00    -0.544 OA
ENDBRANCH   1   6
BRANCH   1   9
ATOM      9  C   UNL     1     126.059 141.864 122.277  1.00  0.00     0.047 C 
ATOM     10  C   UNL     1     124.609 142.364 122.401  1.00  0.00     0.014 C 
ATOM     11  C   UNL     1     127.002 142.788 123.062  1.00  0.00     0.014 C 
ENDBRANCH   1   9
TORSDOF 3
ENDMDL
MODEL 2
REMARK VINA RESULT:    -3.558      2.971      3.695
REMARK INTER + INTRA:          -4.153
REMARK INTER:                  -4.087
REMARK INTRA:                  -0.066
REMARK UNBOUND:                -0.075
REMARK SMILES CC(C)[C@H]([NH3+])C(=O)[O-]
REMARK SMILES IDX 4 1 5 2 6 6 7 7 8 8 2 9 1 10 3 11
REMARK H PARENT 5 3 5 4 5 5
REMARK Flexibility Score: inf
ROOT
ATOM      1  C   UNL     1     126.235 141.837 121.800  1.00  0.00     0.230 C 
ENDROOT
BRANCH   1   2
ATOM      2  N   UNL     1     127.405 142.724 121.733  1.00  0.00    -0.350 N 
ATOM      3  H   UNL     1     127.187 143.640 122.188  1.00  0.00     0.345 HD
ATOM      4  H   UNL     1     128.203 142.288 122.252  1.00  0.00     0.345 HD
ATOM      5  H   UNL     1     127.702 142.892 120.746  1.00  0.00     0.345 HD
ENDBRANCH   1   2
BRANCH   1   6
ATOM      6  C   UNL     1     125.076 142.533 122.475  1.00  0.00     0.099 C 
ATOM      7  O   UNL     1     125.226 143.691 122.947  1.00  0.00    -0.544 OA
ATOM      8  O   UNL     1     123.832 141.920 122.556  1.00  0.00    -0.544 OA
ENDBRANCH   1   6
BRANCH   1   9
ATOM      9  C   UNL     1     126.584 140.471 122.465  1.00  0.00     0.047 C 
ATOM     10  C   UNL     1     127.831 139.795 121.868  1.00  0.00     0.014 C 
ATOM     11  C   UNL     1     126.741 140.614 123.986  1.00  0.00     0.014 C 
ENDBRANCH   1   9
TORSDOF 3
ENDMDL
MODEL 3
REMARK VINA RESULT:    -3.515      2.332      3.352
REMARK INTER + INTRA:          -4.103
REMARK INTER:                  -4.059
REMARK INTRA:                  -0.044
REMARK UNBOUND:                -0.075
REMARK SMILES CC(C)[C@H]([NH3+])C(=O)[O-]
REMARK SMILES IDX 4 1 5 2 6 6 7 7 8 8 2 9 1 10 3 11
REMARK H PARENT 5 3 5 4 5 5
REMARK Flexibility Score: inf
ROOT
ATOM      1  C   UNL     1     126.858 140.881 123.140  1.00  0.00     0.230 C 
ENDROOT
BRANCH   1   2
ATOM      2  N   UNL     1     125.893 140.035 123.857  1.00  0.00    -0.350 N 
ATOM      3  H   UNL     1     125.376 139.428 123.180  1.00  0.00     0.345 HD
ATOM      4  H   UNL     1     126.405 139.411 124.524  1.00  0.00     0.345 HD
ATOM      5  H   UNL     1     125.208 140.609 124.397  1.00  0.00     0.345 HD
ENDBRANCH   1   2
BRANCH   1   6
ATOM      6  C   UNL     1     126.358 142.304 123.056  1.00  0.00     0.099 C 
ATOM      7  O   UNL     1     125.124 142.534 122.964  1.00  0.00    -0.544 OA
ATOM      8  O   UNL     1     127.248 143.371 123.109  1.00  0.00    -0.544 OA
ENDBRANCH   1   6
BRANCH   1   9
ATOM      9  C   UNL     1     127.219 140.288 121.744  1.00  0.00     0.047 C 
ATOM     10  C   UNL     1     128.385 139.285 121.782  1.00  0.00     0.014 C 
ATOM     11  C   UNL     1     125.994 139.646 121.076  1.00  0.00     0.014 C 
ENDBRANCH   1   9
TORSDOF 3
ENDMDL
MODEL 4
REMARK VINA RESULT:    -3.514     17.229     17.899
REMARK INTER + INTRA:          -4.103
REMARK INTER:                  -4.055
REMARK INTRA:                  -0.048
REMARK UNBOUND:                -0.075
REMARK SMILES CC(C)[C@H]([NH3+])C(=O)[O-]
REMARK SMILES IDX 4 1 5 2 6 6 7 7 8 8 2 9 1 10 3 11
REMARK H PARENT 5 3 5 4 5 5
REMARK Flexibility Score: inf
ROOT
ATOM      1  C   UNL     1     139.694 129.068 123.241  1.00  0.00     0.230 C 
ENDROOT
BRANCH   1   2
ATOM      2  N   UNL     1     138.992 130.230 122.678  1.00  0.00    -0.350 N 
ATOM      3  H   UNL     1     138.061 130.344 123.139  1.00  0.00     0.345 HD
ATOM      4  H   UNL     1     139.551 131.096 122.859  1.00  0.00     0.345 HD
ATOM      5  H   UNL     1     138.855 130.132 121.647  1.00  0.00     0.345 HD
ENDBRANCH   1   2
BRANCH   1   6
ATOM      6  C   UNL     1     139.191 128.764 124.633  1.00  0.00     0.099 C 
ATOM      7  O   UNL     1     139.261 127.592 125.085  1.00  0.00    -0.544 OA
ATOM      8  O   UNL     1     138.674 129.775 125.434  1.00  0.00    -0.544 OA
ENDBRANCH   1   6
BRANCH   1   9
ATOM      9  C   UNL     1     141.241 129.249 123.188  1.00  0.00     0.047 C 
ATOM     10  C   UNL     1     141.828 129.142 121.770  1.00  0.00     0.014 C 
ATOM     11  C   UNL     1     141.672 130.572 123.836  1.00  0.00     0.014 C 
ENDBRANCH   1   9
TORSDOF 3
ENDMDL
MODEL 5
REMARK VINA RESULT:    -3.509     17.439     18.426
REMARK INTER + INTRA:          -4.097
REMARK INTER:                  -4.036
REMARK INTRA:                  -0.060
REMARK UNBOUND:                -0.075
REMARK SMILES CC(C)[C@H]([NH3+])C(=O)[O-]
REMARK SMILES IDX 4 1 5 2 6 6 7 7 8 8 2 9 1 10 3 11
REMARK H PARENT 5 3 5 4 5 5
REMARK Flexibility Score: inf
ROOT
ATOM      1  C   UNL     1     141.279 128.776 123.535  1.00  0.00     0.230 C 
ENDROOT
BRANCH   1   2
ATOM      2  N   UNL     1     142.159 129.327 124.575  1.00  0.00    -0.350 N 
ATOM      3  H   UNL     1     142.979 129.803 124.135  1.00  0.00     0.345 HD
ATOM      4  H   UNL     1     141.634 130.038 125.136  1.00  0.00     0.345 HD
ATOM      5  H   UNL     1     142.501 128.581 125.222  1.00  0.00     0.345 HD
ENDBRANCH   1   2
BRANCH   1   6
ATOM      6  C   UNL     1     141.754 129.190 122.162  1.00  0.00     0.099 C 
ATOM      7  O   UNL     1     141.181 128.739 121.135  1.00  0.00    -0.544 OA
ATOM      8  O   UNL     1     142.804 130.089 122.017  1.00  0.00    -0.544 OA
ENDBRANCH   1   6
BRANCH   1   9
ATOM      9  C   UNL     1     139.786 129.144 123.790  1.00  0.00     0.047 C 
ATOM     10  C   UNL     1     139.290 128.770 125.197  1.00  0.00     0.014 C 
ATOM     11  C   UNL     1     139.522 130.632 123.517  1.00  0.00     0.014 C 
ENDBRANCH   1   9
TORSDOF 3
ENDMDL
MODEL 6
REMARK VINA RESULT:    -3.467     17.267     17.887
REMARK INTER + INTRA:          -4.048
REMARK INTER:                  -3.994
REMARK INTRA:                  -0.054
REMARK UNBOUND:                -0.075
REMARK SMILES CC(C)[C@H]([NH3+])C(=O)[O-]
REMARK SMILES IDX 4 1 5 2 6 6 7 7 8 8 2 9 1 10 3 11
REMARK H PARENT 5 3 5 4 5 5
REMARK Flexibility Score: inf
ROOT
ATOM      1  C   UNL     1     140.024 130.066 123.497  1.00  0.00     0.230 C 
ENDROOT
BRANCH   1   2
ATOM      2  N   UNL     1     138.877 130.113 122.579  1.00  0.00    -0.350 N 
ATOM      3  H   UNL     1     138.014 129.782 123.068  1.00  0.00     0.345 HD
ATOM      4  H   UNL     1     138.716 131.101 122.273  1.00  0.00     0.345 HD
ATOM      5  H   UNL     1     139.040 129.525 121.732  1.00  0.00     0.345 HD
ENDBRANCH   1   2
BRANCH   1   6
ATOM      6  C   UNL     1     141.313 129.888 122.729  1.00  0.00     0.099 C 
ATOM      7  O   UNL     1     141.287 129.459 121.546  1.00  0.00    -0.544 OA
ATOM      8  O   UNL     1     142.533 130.221 123.307  1.00  0.00    -0.544 OA
ENDBRANCH   1   6
BRANCH   1   9
ATOM      9  C   UNL     1     139.832 128.989 124.606  1.00  0.00     0.047 C 
ATOM     10  C   UNL     1     138.720 129.331 125.613  1.00  0.00     0.014 C 
ATOM     11  C   UNL     1     139.582 127.600 123.999  1.00  0.00     0.014 C 
ENDBRANCH   1   9
TORSDOF 3
ENDMDL
MODEL 7
REMARK VINA RESULT:    -3.434      2.575      3.133
REMARK INTER + INTRA:          -4.011
REMARK INTER:                  -3.966
REMARK INTRA:                  -0.046
REMARK UNBOUND:                -0.075
REMARK SMILES CC(C)[C@H]([NH3+])C(=O)[O-]
REMARK SMILES IDX 4 1 5 2 6 6 7 7 8 8 2 9 1 10 3 11
REMARK H PARENT 5 3 5 4 5 5
REMARK Flexibility Score: inf
ROOT
ATOM      1  C   UNL     1     125.473 141.032 123.139  1.00  0.00     0.230 C 
ENDROOT
BRANCH   1   2
ATOM      2  N   UNL     1     125.989 140.021 124.074  1.00  0.00    -0.350 N 
ATOM      3  H   UNL     1     125.543 140.140 125.012  1.00  0.00     0.345 HD
ATOM      4  H   UNL     1     125.749 139.065 123.720  1.00  0.00     0.345 HD
ATOM      5  H   UNL     1     127.026 140.088 124.175  1.00  0.00     0.345 HD
ENDBRANCH   1   2
BRANCH   1   6
ATOM      6  C   UNL     1     124.175 140.570 122.519  1.00  0.00     0.099 C 
ATOM      7  O   UNL     1     124.076 139.400 122.064  1.00  0.00    -0.544 OA
ATOM      8  O   UNL     1     123.074 141.417 122.469  1.00  0.00    -0.544 OA
ENDBRANCH   1   6
BRANCH   1   9
ATOM      9  C   UNL     1     126.539 141.430 122.074  1.00  0.00     0.047 C 
ATOM     10  C   UNL     1     127.231 142.773 122.365  1.00  0.00     0.014 C 
ATOM     11  C   UNL     1     127.591 140.325 121.896  1.00  0.00     0.014 C 
ENDBRANCH   1   9
TORSDOF 3
ENDMDL
MODEL 8
REMARK VINA RESULT:    -3.425     17.480     18.032
REMARK INTER + INTRA:          -4.001
REMARK INTER:                  -3.955
REMARK INTRA:                  -0.045
REMARK UNBOUND:                -0.075
REMARK SMILES CC(C)[C@H]([NH3+])C(=O)[O-]
REMARK SMILES IDX 4 1 5 2 6 6 7 7 8 8 2 9 1 10 3 11
REMARK H PARENT 5 3 5 4 5 5
REMARK Flexibility Score: inf
ROOT
ATOM      1  C   UNL     1     140.102 129.602 122.450  1.00  0.00     0.230 C 
ENDROOT
BRANCH   1   2
ATOM      2  N   UNL     1     138.791 130.235 122.656  1.00  0.00    -0.350 N 
ATOM      3  H   UNL     1     138.582 130.890 121.868  1.00  0.00     0.345 HD
ATOM      4  H   UNL     1     138.047 129.499 122.670  1.00  0.00     0.345 HD
ATOM      5  H   UNL     1     138.757 130.761 123.558  1.00  0.00     0.345 HD
ENDBRANCH   1   2
BRANCH   1   6
ATOM      6  C   UNL     1     140.022 128.552 121.367  1.00  0.00     0.099 C 
ATOM      7  O   UNL     1     140.997 128.374 120.590  1.00  0.00    -0.544 OA
ATOM      8  O   UNL     1     138.891 127.756 121.235  1.00  0.00    -0.544 OA
ENDBRANCH   1   6
BRANCH   1   9
ATOM      9  C   UNL     1     140.689 129.047 123.783  1.00  0.00     0.047 C 
ATOM     10  C   UNL     1     141.901 129.839 124.301  1.00  0.00     0.014 C 
ATOM     11  C   UNL     1     139.612 128.960 124.875  1.00  0.00     0.014 C 
ENDBRANCH   1   9
TORSDOF 3
ENDMDL
MODEL 9
REMARK VINA RESULT:    -3.363      1.842      2.223
REMARK INTER + INTRA:          -3.930
REMARK INTER:                  -4.040
REMARK INTRA:                   0.111
REMARK UNBOUND:                -0.075
REMARK SMILES CC(C)[C@H]([NH3+])C(=O)[O-]
REMARK SMILES IDX 4 1 5 2 6 6 7 7 8 8 2 9 1 10 3 11
REMARK H PARENT 5 3 5 4 5 5
REMARK Flexibility Score: inf
ROOT
ATOM      1  C   UNL     1     126.481 142.393 122.752  1.00  0.00     0.230 C 
ENDROOT
BRANCH   1   2
ATOM      2  N   UNL     1     127.422 143.019 121.812  1.00  0.00    -0.350 N 
ATOM      3  H   UNL     1     128.232 142.380 121.638  1.00  0.00     0.345 HD
ATOM      4  H   UNL     1     126.941 143.187 120.898  1.00  0.00     0.345 HD
ATOM      5  H   UNL     1     127.776 143.932 122.175  1.00  0.00     0.345 HD
ENDBRANCH   1   2
BRANCH   1   6
ATOM      6  C   UNL     1     126.905 140.977 123.067  1.00  0.00     0.099 C 
ATOM      7  O   UNL     1     126.776 140.527 124.236  1.00  0.00    -0.544 OA
ATOM      8  O   UNL     1     127.410 140.152 122.070  1.00  0.00    -0.544 OA
ENDBRANCH   1   6
BRANCH   1   9
ATOM      9  C   UNL     1     125.012 142.481 122.241  1.00  0.00     0.047 C 
ATOM     10  C   UNL     1     124.190 141.206 122.501  1.00  0.00     0.014 C 
ATOM     11  C   UNL     1     124.288 143.702 122.828  1.00  0.00     0.014 C 
ENDBRANCH   1   9
TORSDOF 3
ENDMDL
