MODEL 1
REMARK VINA RESULT:    -5.893      0.000      0.000
REMARK INTER + INTRA:         -11.822
REMARK INTER:                 -10.717
REMARK INTRA:                  -1.105
REMARK UNBOUND:                -1.105
REMARK SMILES CCCCCCCCCCCCCCCC(=O)[O-]
REMARK SMILES IDX 9 1 10 2 11 3 12 4 13 5 14 6 15 7 16 8 17 9 18 10 8 11 7 12
REMARK SMILES IDX 6 13 5 14 4 15 3 16 2 17 1 18
REMARK H PARENT
REMARK Flexibility Score: inf
ROOT
ATOM      1  C   UNL     1      38.959  55.874  60.674  1.00  0.00     0.000 C 
ENDROOT
BRANCH   1   2
ATOM      2  C   UNL     1      39.282  54.390  60.436  1.00  0.00     0.000 C 
BRANCH   2   3
ATOM      3  C   UNL     1      40.690  54.049  60.937  1.00  0.00     0.000 C 
BRANCH   3   4
ATOM      4  C   UNL     1      41.745  54.345  59.862  1.00  0.00     0.000 C 
BRANCH   4   5
ATOM      5  C   UNL     1      42.919  55.189  60.408  1.00  0.00     0.000 C 
BRANCH   5   6
ATOM      6  C   UNL     1      43.115  56.523  59.663  1.00  0.00     0.006 C 
BRANCH   6   7
ATOM      7  C   UNL     1      42.087  56.775  58.550  1.00  0.00     0.053 C 
BRANCH   7   8
ATOM      8  C   UNL     1      41.719  58.224  58.446  1.00  0.00     0.041 C 
ATOM      9  O   UNL     1      42.571  59.113  58.706  1.00  0.00    -0.550 OA
ATOM     10  O   UNL     1      40.430  58.594  58.083  1.00  0.00    -0.550 OA
ENDBRANCH   7   8
ENDBRANCH   6   7
ENDBRANCH   5   6
ENDBRANCH   4   5
ENDBRANCH   3   4
ENDBRANCH   2   3
ENDBRANCH   1   2
BRANCH   1  11
ATOM     11  C   UNL     1      38.006  56.450  59.616  1.00  0.00     0.000 C 
BRANCH  11  12
ATOM     12  C   UNL     1      36.532  56.132  59.911  1.00  0.00    -0.000 C 
BRANCH  12  13
ATOM     13  C   UNL     1      35.865  55.455  58.706  1.00  0.00    -0.000 C 
BRANCH  13  14
ATOM     14  C   UNL     1      35.865  53.919  58.806  1.00  0.00    -0.000 C 
BRANCH  14  15
ATOM     15  C   UNL     1      34.730  53.216  58.034  1.00  0.00    -0.000 C 
BRANCH  15  16
ATOM     16  C   UNL     1      34.685  51.683  58.189  1.00  0.00    -0.000 C 
BRANCH  16  17
ATOM     17  C   UNL     1      35.879  50.934  57.571  1.00  0.00    -0.003 C 
ATOM     18  C   UNL     1      35.483  49.600  56.942  1.00  0.00     0.004 C 
ENDBRANCH  16  17
ENDBRANCH  15  16
ENDBRANCH  14  15
ENDBRANCH  13  14
ENDBRANCH  12  13
ENDBRANCH  11  12
ENDBRANCH   1  11
TORSDOF 14
ENDMDL
MODEL 2
REMARK VINA RESULT:    -5.569      1.234      2.510
REMARK INTER + INTRA:         -11.233
REMARK INTER:                 -10.377
REMARK INTRA:                  -0.855
REMARK UNBOUND:                -1.105
REMARK SMILES CCCCCCCCCCCCCCCC(=O)[O-]
REMARK SMILES IDX 9 1 10 2 11 3 12 4 13 5 14 6 15 7 16 8 17 9 18 10 8 11 7 12
REMARK SMILES IDX 6 13 5 14 4 15 3 16 2 17 1 18
REMARK H PARENT
REMARK Flexibility Score: inf
ROOT
ATOM      1  C   UNL     1      40.461  53.999  61.021  1.00  0.00     0.000 C 
ENDROOT
BRANCH   1   2
ATOM      2  C   UNL     1      41.500  54.143  59.898  1.00  0.00     0.000 C 
BRANCH   2   3
ATOM      3  C   UNL     1      42.660  55.044  60.337  1.00  0.00     0.000 C 
BRANCH   3   4
ATOM      4  C   UNL     1      43.055  56.020  59.219  1.00  0.00     0.000 C 
BRANCH   4   5
ATOM      5  C   UNL     1      44.065  57.085  59.700  1.00  0.00     0.000 C 
BRANCH   5   6
ATOM      6  C   UNL     1      44.527  58.041  58.583  1.00  0.00     0.006 C 
BRANCH   6   7
ATOM      7  C   UNL     1      44.274  59.525  58.886  1.00  0.00     0.053 C 
BRANCH   7   8
ATOM      8  C   UNL     1      42.983  60.004  58.296  1.00  0.00     0.041 C 
ATOM      9  O   UNL     1      42.305  59.244  57.556  1.00  0.00    -0.550 OA
ATOM     10  O   UNL     1      42.537  61.297  58.543  1.00  0.00    -0.550 OA
ENDBRANCH   7   8
ENDBRANCH   6   7
ENDBRANCH   5   6
ENDBRANCH   4   5
ENDBRANCH   3   4
ENDBRANCH   2   3
ENDBRANCH   1   2
BRANCH   1  11
ATOM     11  C   UNL     1      39.083  54.554  60.629  1.00  0.00     0.000 C 
BRANCH  11  12
ATOM     12  C   UNL     1      39.036  56.089  60.641  1.00  0.00    -0.000 C 
BRANCH  12  13
ATOM     13  C   UNL     1      38.016  56.615  59.621  1.00  0.00    -0.000 C 
BRANCH  13  14
ATOM     14  C   UNL     1      36.575  56.175  59.935  1.00  0.00    -0.000 C 
BRANCH  14  15
ATOM     15  C   UNL     1      35.874  55.388  58.809  1.00  0.00    -0.000 C 
BRANCH  15  16
ATOM     16  C   UNL     1      35.933  53.854  58.947  1.00  0.00    -0.000 C 
BRANCH  16  17
ATOM     17  C   UNL     1      34.993  53.083  58.004  1.00  0.00    -0.003 C 
ATOM     18  C   UNL     1      35.187  51.569  58.078  1.00  0.00     0.004 C 
ENDBRANCH  16  17
ENDBRANCH  15  16
ENDBRANCH  14  15
ENDBRANCH  13  14
ENDBRANCH  12  13
ENDBRANCH  11  12
ENDBRANCH   1  11
TORSDOF 14
ENDMDL
MODEL 3
REMARK VINA RESULT:    -5.497      3.306      7.373
REMARK INTER + INTRA:         -11.100
REMARK INTER:                  -9.749
REMARK INTRA:                  -1.352
REMARK UNBOUND:                -1.105
REMARK SMILES CCCCCCCCCCCCCCCC(=O)[O-]
REMARK SMILES IDX 9 1 10 2 11 3 12 4 13 5 14 6 15 7 16 8 17 9 18 10 8 11 7 12
REMARK SMILES IDX 6 13 5 14 4 15 3 16 2 17 1 18
REMARK H PARENT
REMARK Flexibility Score: inf
ROOT
ATOM      1  C   UNL     1      40.139  53.856  61.044  1.00  0.00     0.000 C 
ENDROOT
BRANCH   1   2
ATOM      2  C   UNL     1      38.824  54.652  61.057  1.00  0.00     0.000 C 
BRANCH   2   3
ATOM      3  C   UNL     1      38.989  55.996  60.340  1.00  0.00     0.000 C 
BRANCH   3   4
ATOM      4  C   UNL     1      37.724  56.360  59.551  1.00  0.00     0.000 C 
BRANCH   4   5
ATOM      5  C   UNL     1      36.500  55.525  59.986  1.00  0.00     0.000 C 
BRANCH   5   6
ATOM      6  C   UNL     1      35.929  54.639  58.862  1.00  0.00     0.006 C 
BRANCH   6   7
ATOM      7  C   UNL     1      36.099  53.133  59.107  1.00  0.00     0.053 C 
BRANCH   7   8
ATOM      8  C   UNL     1      35.277  52.315  58.158  1.00  0.00     0.041 C 
ATOM      9  O   UNL     1      35.831  51.477  57.400  1.00  0.00    -0.550 OA
ATOM     10  O   UNL     1      33.900  52.493  58.094  1.00  0.00    -0.550 OA
ENDBRANCH   7   8
ENDBRANCH   6   7
ENDBRANCH   5   6
ENDBRANCH   4   5
ENDBRANCH   3   4
ENDBRANCH   2   3
ENDBRANCH   1   2
BRANCH   1  11
ATOM     11  C   UNL     1      41.128  54.365  59.984  1.00  0.00     0.000 C 
BRANCH  11  12
ATOM     12  C   UNL     1      42.482  54.774  60.584  1.00  0.00    -0.000 C 
BRANCH  12  13
ATOM     13  C   UNL     1      43.360  55.468  59.533  1.00  0.00    -0.000 C 
BRANCH  13  14
ATOM     14  C   UNL     1      43.487  56.984  59.766  1.00  0.00    -0.000 C 
BRANCH  14  15
ATOM     15  C   UNL     1      43.072  57.864  58.569  1.00  0.00    -0.000 C 
BRANCH  15  16
ATOM     16  C   UNL     1      41.635  57.638  58.057  1.00  0.00    -0.000 C 
BRANCH  16  17
ATOM     17  C   UNL     1      40.721  58.873  58.127  1.00  0.00    -0.003 C 
ATOM     18  C   UNL     1      39.358  58.641  57.477  1.00  0.00     0.004 C 
ENDBRANCH  16  17
ENDBRANCH  15  16
ENDBRANCH  14  15
ENDBRANCH  13  14
ENDBRANCH  12  13
ENDBRANCH  11  12
ENDBRANCH   1  11
TORSDOF 14
ENDMDL
MODEL 4
REMARK VINA RESULT:    -5.475      3.549      8.245
REMARK INTER + INTRA:         -11.061
REMARK INTER:                  -9.939
REMARK INTRA:                  -1.122
REMARK UNBOUND:                -1.105
REMARK SMILES CCCCCCCCCCCCCCCC(=O)[O-]
REMARK SMILES IDX 9 1 10 2 11 3 12 4 13 5 14 6 15 7 16 8 17 9 18 10 8 11 7 12
REMARK SMILES IDX 6 13 5 14 4 15 3 16 2 17 1 18
REMARK H PARENT
REMARK Flexibility Score: inf
ROOT
ATOM      1  C   UNL     1      39.093  54.590  60.931  1.00  0.00     0.000 C 
ENDROOT
BRANCH   1   2
ATOM      2  C   UNL     1      39.099  56.041  60.424  1.00  0.00     0.000 C 
BRANCH   2   3
ATOM      3  C   UNL     1      37.721  56.437  59.882  1.00  0.00     0.000 C 
BRANCH   3   4
ATOM      4  C   UNL     1      36.780  55.225  59.825  1.00  0.00     0.000 C 
BRANCH   4   5
ATOM      5  C   UNL     1      35.922  55.208  58.541  1.00  0.00     0.000 C 
BRANCH   5   6
ATOM      6  C   UNL     1      35.098  53.916  58.371  1.00  0.00     0.006 C 
BRANCH   6   7
ATOM      7  C   UNL     1      35.913  52.627  58.545  1.00  0.00     0.053 C 
BRANCH   7   8
ATOM      8  C   UNL     1      35.192  51.431  58.001  1.00  0.00     0.041 C 
ATOM      9  O   UNL     1      33.967  51.268  58.241  1.00  0.00    -0.550 OA
ATOM     10  O   UNL     1      35.876  50.485  57.247  1.00  0.00    -0.550 OA
ENDBRANCH   7   8
ENDBRANCH   6   7
ENDBRANCH   5   6
ENDBRANCH   4   5
ENDBRANCH   3   4
ENDBRANCH   2   3
ENDBRANCH   1   2
BRANCH   1  11
ATOM     11  C   UNL     1      40.336  53.803  60.490  1.00  0.00     0.000 C 
BRANCH  11  12
ATOM     12  C   UNL     1      41.635  54.610  60.648  1.00  0.00    -0.000 C 
BRANCH  12  13
ATOM     13  C   UNL     1      42.326  54.806  59.291  1.00  0.00    -0.000 C 
BRANCH  13  14
ATOM     14  C   UNL     1      42.647  56.281  58.991  1.00  0.00    -0.000 C 
BRANCH  14  15
ATOM     15  C   UNL     1      42.617  57.216  60.216  1.00  0.00    -0.000 C 
BRANCH  15  16
ATOM     16  C   UNL     1      43.991  57.755  60.664  1.00  0.00    -0.000 C 
BRANCH  16  17
ATOM     17  C   UNL     1      45.133  57.530  59.657  1.00  0.00    -0.003 C 
ATOM     18  C   UNL     1      46.455  58.144  60.113  1.00  0.00     0.004 C 
ENDBRANCH  16  17
ENDBRANCH  15  16
ENDBRANCH  14  15
ENDBRANCH  13  14
ENDBRANCH  12  13
ENDBRANCH  11  12
ENDBRANCH   1  11
TORSDOF 14
ENDMDL
MODEL 5
REMARK VINA RESULT:    -5.456      4.415      8.195
REMARK INTER + INTRA:         -11.026
REMARK INTER:                  -9.881
REMARK INTRA:                  -1.145
REMARK UNBOUND:                -1.105
REMARK SMILES CCCCCCCCCCCCCCCC(=O)[O-]
REMARK SMILES IDX 9 1 10 2 11 3 12 4 13 5 14 6 15 7 16 8 17 9 18 10 8 11 7 12
REMARK SMILES IDX 6 13 5 14 4 15 3 16 2 17 1 18
REMARK H PARENT
REMARK Flexibility Score: inf
ROOT
ATOM      1  C   UNL     1      38.527  55.405  60.413  1.00  0.00     0.000 C 
ENDROOT
BRANCH   1   2
ATOM      2  C   UNL     1      37.205  55.426  59.628  1.00  0.00     0.000 C 
BRANCH   2   3
ATOM      3  C   UNL     1      36.394  54.151  59.887  1.00  0.00     0.000 C 
BRANCH   3   4
ATOM      4  C   UNL     1      35.519  53.798  58.676  1.00  0.00     0.000 C 
BRANCH   4   5
ATOM      5  C   UNL     1      35.938  52.465  58.017  1.00  0.00     0.000 C 
BRANCH   5   6
ATOM      6  C   UNL     1      34.809  51.417  57.978  1.00  0.00     0.006 C 
BRANCH   6   7
ATOM      7  C   UNL     1      33.421  51.981  58.315  1.00  0.00     0.053 C 
BRANCH   7   8
ATOM      8  C   UNL     1      32.396  50.897  58.457  1.00  0.00     0.041 C 
ATOM      9  O   UNL     1      32.599  49.764  57.947  1.00  0.00    -0.550 OA
ATOM     10  O   UNL     1      31.207  51.143  59.133  1.00  0.00    -0.550 OA
ENDBRANCH   7   8
ENDBRANCH   6   7
ENDBRANCH   5   6
ENDBRANCH   4   5
ENDBRANCH   3   4
ENDBRANCH   2   3
ENDBRANCH   1   2
BRANCH   1  11
ATOM     11  C   UNL     1      39.185  56.790  60.502  1.00  0.00     0.000 C 
BRANCH  11  12
ATOM     12  C   UNL     1      39.190  57.531  59.156  1.00  0.00    -0.000 C 
BRANCH  12  13
ATOM     13  C   UNL     1      40.626  57.767  58.667  1.00  0.00    -0.000 C 
BRANCH  13  14
ATOM     14  C   UNL     1      41.653  57.791  59.813  1.00  0.00    -0.000 C 
BRANCH  14  15
ATOM     15  C   UNL     1      43.032  57.194  59.465  1.00  0.00    -0.000 C 
BRANCH  15  16
ATOM     16  C   UNL     1      43.489  56.032  60.369  1.00  0.00    -0.000 C 
BRANCH  16  17
ATOM     17  C   UNL     1      42.453  54.911  60.557  1.00  0.00    -0.003 C 
ATOM     18  C   UNL     1      41.952  54.336  59.233  1.00  0.00     0.004 C 
ENDBRANCH  16  17
ENDBRANCH  15  16
ENDBRANCH  14  15
ENDBRANCH  13  14
ENDBRANCH  12  13
ENDBRANCH  11  12
ENDBRANCH   1  11
TORSDOF 14
ENDMDL
MODEL 6
REMARK VINA RESULT:    -5.453      1.918      2.750
REMARK INTER + INTRA:         -11.021
REMARK INTER:                  -9.952
REMARK INTRA:                  -1.069
REMARK UNBOUND:                -1.105
REMARK SMILES CCCCCCCCCCCCCCCC(=O)[O-]
REMARK SMILES IDX 9 1 10 2 11 3 12 4 13 5 14 6 15 7 16 8 17 9 18 10 8 11 7 12
REMARK SMILES IDX 6 13 5 14 4 15 3 16 2 17 1 18
REMARK H PARENT
REMARK Flexibility Score: inf
ROOT
ATOM      1  C   UNL     1      38.742  56.539  59.695  1.00  0.00     0.000 C 
ENDROOT
BRANCH   1   2
ATOM      2  C   UNL     1      39.967  57.430  59.954  1.00  0.00     0.000 C 
BRANCH   2   3
ATOM      3  C   UNL     1      40.541  57.969  58.639  1.00  0.00     0.000 C 
BRANCH   3   4
ATOM      4  C   UNL     1      41.949  58.544  58.846  1.00  0.00     0.000 C 
BRANCH   4   5
ATOM      5  C   UNL     1      42.546  58.157  60.217  1.00  0.00     0.000 C 
BRANCH   5   6
ATOM      6  C   UNL     1      43.711  57.153  60.119  1.00  0.00     0.006 C 
BRANCH   6   7
ATOM      7  C   UNL     1      43.463  56.002  59.132  1.00  0.00     0.053 C 
BRANCH   7   8
ATOM      8  C   UNL     1      42.628  54.916  59.739  1.00  0.00     0.041 C 
ATOM      9  O   UNL     1      42.745  54.636  60.961  1.00  0.00    -0.550 OA
ATOM     10  O   UNL     1      41.737  54.197  58.953  1.00  0.00    -0.550 OA
ENDBRANCH   7   8
ENDBRANCH   6   7
ENDBRANCH   5   6
ENDBRANCH   4   5
ENDBRANCH   3   4
ENDBRANCH   2   3
ENDBRANCH   1   2
BRANCH   1  11
ATOM     11  C   UNL     1      38.731  55.277  60.570  1.00  0.00     0.000 C 
BRANCH  11  12
ATOM     12  C   UNL     1      37.620  54.291  60.175  1.00  0.00    -0.000 C 
BRANCH  12  13
ATOM     13  C   UNL     1      36.571  54.974  59.286  1.00  0.00    -0.000 C 
BRANCH  13  14
ATOM     14  C   UNL     1      35.539  53.988  58.712  1.00  0.00    -0.000 C 
BRANCH  14  15
ATOM     15  C   UNL     1      35.924  52.499  58.831  1.00  0.00    -0.000 C 
BRANCH  15  16
ATOM     16  C   UNL     1      35.088  51.535  57.967  1.00  0.00    -0.000 C 
BRANCH  16  17
ATOM     17  C   UNL     1      35.894  50.426  57.268  1.00  0.00    -0.003 C 
ATOM     18  C   UNL     1      35.064  49.175  56.987  1.00  0.00     0.004 C 
ENDBRANCH  16  17
ENDBRANCH  15  16
ENDBRANCH  14  15
ENDBRANCH  13  14
ENDBRANCH  12  13
ENDBRANCH  11  12
ENDBRANCH   1  11
TORSDOF 14
ENDMDL
MODEL 7
REMARK VINA RESULT:    -5.405      3.474      7.656
REMARK INTER + INTRA:         -10.933
REMARK INTER:                  -9.134
REMARK INTRA:                  -1.799
REMARK UNBOUND:                -1.105
REMARK SMILES CCCCCCCCCCCCCCCC(=O)[O-]
REMARK SMILES IDX 9 1 10 2 11 3 12 4 13 5 14 6 15 7 16 8 17 9 18 10 8 11 7 12
REMARK SMILES IDX 6 13 5 14 4 15 3 16 2 17 1 18
REMARK H PARENT
REMARK Flexibility Score: inf
ROOT
ATOM      1  C   UNL     1      43.040  56.121  59.731  1.00  0.00     0.000 C 
ENDROOT
BRANCH   1   2
ATOM      2  C   UNL     1      42.631  54.852  60.494  1.00  0.00     0.000 C 
BRANCH   2   3
ATOM      3  C   UNL     1      41.353  54.245  59.903  1.00  0.00     0.000 C 
BRANCH   3   4
ATOM      4  C   UNL     1      40.335  53.919  61.005  1.00  0.00     0.000 C 
BRANCH   4   5
ATOM      5  C   UNL     1      38.907  54.382  60.640  1.00  0.00     0.000 C 
BRANCH   5   6
ATOM      6  C   UNL     1      38.725  55.912  60.692  1.00  0.00     0.006 C 
BRANCH   6   7
ATOM      7  C   UNL     1      37.973  56.493  59.486  1.00  0.00     0.053 C 
BRANCH   7   8
ATOM      8  C   UNL     1      36.494  56.276  59.592  1.00  0.00     0.041 C 
ATOM      9  O   UNL     1      35.899  55.553  58.751  1.00  0.00    -0.550 OA
ATOM     10  O   UNL     1      35.768  56.890  60.605  1.00  0.00    -0.550 OA
ENDBRANCH   7   8
ENDBRANCH   6   7
ENDBRANCH   5   6
ENDBRANCH   4   5
ENDBRANCH   3   4
ENDBRANCH   2   3
ENDBRANCH   1   2
BRANCH   1  11
ATOM     11  C   UNL     1      42.256  57.363  60.182  1.00  0.00     0.000 C 
BRANCH  11  12
ATOM     12  C   UNL     1      41.390  57.958  59.061  1.00  0.00    -0.000 C 
BRANCH  12  13
ATOM     13  C   UNL     1      42.264  58.622  57.988  1.00  0.00    -0.000 C 
BRANCH  13  14
ATOM     14  C   UNL     1      42.829  59.983  58.433  1.00  0.00    -0.000 C 
BRANCH  14  15
ATOM     15  C   UNL     1      44.276  59.945  58.965  1.00  0.00    -0.000 C 
BRANCH  15  16
ATOM     16  C   UNL     1      45.271  59.148  58.098  1.00  0.00    -0.000 C 
BRANCH  16  17
ATOM     17  C   UNL     1      46.141  58.141  58.871  1.00  0.00    -0.003 C 
ATOM     18  C   UNL     1      45.988  58.265  60.386  1.00  0.00     0.004 C 
ENDBRANCH  16  17
ENDBRANCH  15  16
ENDBRANCH  14  15
ENDBRANCH  13  14
ENDBRANCH  12  13
ENDBRANCH  11  12
ENDBRANCH   1  11
TORSDOF 14
ENDMDL
MODEL 8
REMARK VINA RESULT:    -5.322      1.721      3.658
REMARK INTER + INTRA:         -10.782
REMARK INTER:                  -9.380
REMARK INTRA:                  -1.402
REMARK UNBOUND:                -1.105
REMARK SMILES CCCCCCCCCCCCCCCC(=O)[O-]
REMARK SMILES IDX 9 1 10 2 11 3 12 4 13 5 14 6 15 7 16 8 17 9 18 10 8 11 7 12
REMARK SMILES IDX 6 13 5 14 4 15 3 16 2 17 1 18
REMARK H PARENT
REMARK Flexibility Score: inf
ROOT
ATOM      1  C   UNL     1      41.746  54.537  59.706  1.00  0.00     0.000 C 
ENDROOT
BRANCH   1   2
ATOM      2  C   UNL     1      42.993  55.258  60.243  1.00  0.00     0.000 C 
BRANCH   2   3
ATOM      3  C   UNL     1      43.314  56.497  59.400  1.00  0.00     0.000 C 
BRANCH   3   4
ATOM      4  C   UNL     1      42.191  56.786  58.393  1.00  0.00     0.000 C 
BRANCH   4   5
ATOM      5  C   UNL     1      41.902  58.297  58.255  1.00  0.00     0.000 C 
BRANCH   5   6
ATOM      6  C   UNL     1      43.166  59.175  58.337  1.00  0.00     0.006 C 
BRANCH   6   7
ATOM      7  C   UNL     1      43.031  60.378  59.281  1.00  0.00     0.053 C 
BRANCH   7   8
ATOM      8  C   UNL     1      43.541  60.071  60.656  1.00  0.00     0.041 C 
ATOM      9  O   UNL     1      44.715  59.645  60.814  1.00  0.00    -0.550 OA
ATOM     10  O   UNL     1      42.715  60.234  61.760  1.00  0.00    -0.550 OA
ENDBRANCH   7   8
ENDBRANCH   6   7
ENDBRANCH   5   6
ENDBRANCH   4   5
ENDBRANCH   3   4
ENDBRANCH   2   3
ENDBRANCH   1   2
BRANCH   1  11
ATOM     11  C   UNL     1      40.771  54.130  60.821  1.00  0.00     0.000 C 
BRANCH  11  12
ATOM     12  C   UNL     1      39.328  54.575  60.539  1.00  0.00    -0.000 C 
BRANCH  12  13
ATOM     13  C   UNL     1      39.204  56.104  60.602  1.00  0.00    -0.000 C 
BRANCH  13  14
ATOM     14  C   UNL     1      38.155  56.660  59.622  1.00  0.00    -0.000 C 
BRANCH  14  15
ATOM     15  C   UNL     1      36.699  56.250  59.925  1.00  0.00    -0.000 C 
BRANCH  15  16
ATOM     16  C   UNL     1      36.028  55.375  58.848  1.00  0.00    -0.000 C 
BRANCH  16  17
ATOM     17  C   UNL     1      35.940  53.878  59.193  1.00  0.00    -0.003 C 
ATOM     18  C   UNL     1      35.113  53.083  58.184  1.00  0.00     0.004 C 
ENDBRANCH  16  17
ENDBRANCH  15  16
ENDBRANCH  14  15
ENDBRANCH  13  14
ENDBRANCH  12  13
ENDBRANCH  11  12
ENDBRANCH   1  11
TORSDOF 14
ENDMDL
MODEL 9
REMARK VINA RESULT:    -5.205      2.556      4.786
REMARK INTER + INTRA:         -10.569
REMARK INTER:                  -9.534
REMARK INTRA:                  -1.036
REMARK UNBOUND:                -1.105
REMARK SMILES CCCCCCCCCCCCCCCC(=O)[O-]
REMARK SMILES IDX 9 1 10 2 11 3 12 4 13 5 14 6 15 7 16 8 17 9 18 10 8 11 7 12
REMARK SMILES IDX 6 13 5 14 4 15 3 16 2 17 1 18
REMARK H PARENT
REMARK Flexibility Score: inf
ROOT
ATOM      1  C   UNL     1      43.205  55.946  59.703  1.00  0.00     0.000 C 
ENDROOT
BRANCH   1   2
ATOM      2  C   UNL     1      42.957  57.365  60.238  1.00  0.00     0.000 C 
BRANCH   2   3
ATOM      3  C   UNL     1      41.500  57.786  60.019  1.00  0.00     0.000 C 
BRANCH   3   4
ATOM      4  C   UNL     1      41.201  57.987  58.526  1.00  0.00     0.000 C 
BRANCH   4   5
ATOM      5  C   UNL     1      42.194  58.961  57.855  1.00  0.00     0.000 C 
BRANCH   5   6
ATOM      6  C   UNL     1      41.666  60.406  57.759  1.00  0.00     0.006 C 
BRANCH   6   7
ATOM      7  C   UNL     1      40.470  60.573  56.810  1.00  0.00     0.053 C 
BRANCH   7   8
ATOM      8  C   UNL     1      40.599  61.799  55.958  1.00  0.00     0.041 C 
ATOM      9  O   UNL     1      39.851  61.955  54.957  1.00  0.00    -0.550 OA
ATOM     10  O   UNL     1      41.558  62.760  56.255  1.00  0.00    -0.550 OA
ENDBRANCH   7   8
ENDBRANCH   6   7
ENDBRANCH   5   6
ENDBRANCH   4   5
ENDBRANCH   3   4
ENDBRANCH   2   3
ENDBRANCH   1   2
BRANCH   1  11
ATOM     11  C   UNL     1      42.632  54.858  60.624  1.00  0.00     0.000 C 
BRANCH  11  12
ATOM     12  C   UNL     1      41.428  54.131  60.004  1.00  0.00    -0.000 C 
BRANCH  12  13
ATOM     13  C   UNL     1      40.223  54.157  60.956  1.00  0.00    -0.000 C 
BRANCH  13  14
ATOM     14  C   UNL     1      38.948  54.707  60.293  1.00  0.00    -0.000 C 
BRANCH  14  15
ATOM     15  C   UNL     1      37.743  53.744  60.300  1.00  0.00    -0.000 C 
BRANCH  15  16
ATOM     16  C   UNL     1      36.460  54.296  59.648  1.00  0.00    -0.000 C 
BRANCH  16  17
ATOM     17  C   UNL     1      36.539  55.769  59.209  1.00  0.00    -0.003 C 
ATOM     18  C   UNL     1      35.998  56.733  60.263  1.00  0.00     0.004 C 
ENDBRANCH  16  17
ENDBRANCH  15  16
ENDBRANCH  14  15
ENDBRANCH  13  14
ENDBRANCH  12  13
ENDBRANCH  11  12
ENDBRANCH   1  11
TORSDOF 14
ENDMDL
