MODEL 1
REMARK VINA RESULT:    -7.014      0.000      0.000
REMARK INTER + INTRA:          -8.140
REMARK INTER:                  -7.629
REMARK INTRA:                  -0.511
REMARK UNBOUND:                -0.511
REMARK SMILES C=C(C)[C@@H]1CC[C@@]2(C)CC[C@]3(C)[C@H](CC[C@@H]4[C@@]5(C)CC[C@H](O)C(C)(C)[C@H]5CC[C@@]43C)[C@@H]12
REMARK SMILES IDX 4 1 5 2 6 3 7 4 31 5 13 6 14 7 15 8 16 9 17 10 19 11 20 12
REMARK SMILES IDX 21 13 23 14 26 15 27 16 28 17 29 18 11 19 10 20 9 21 12 22
REMARK SMILES IDX 30 23 24 24 25 25 18 26 8 27 2 28 3 29 1 30 22 31
REMARK H PARENT 22 32
REMARK Flexibility Score: inf
ROOT
ATOM      1  C   UNL     1      -4.987  -8.868 -47.537  1.00  0.00     0.018 C 
ATOM      2  C   UNL     1      -6.196  -9.492 -48.234  1.00  0.00     0.009 C 
ATOM      3  C   UNL     1      -7.262  -9.594 -47.153  1.00  0.00     0.008 C 
ATOM      4  C   UNL     1      -7.075  -8.346 -46.278  1.00  0.00    -0.029 C 
ATOM      5  C   UNL     1      -5.521  -8.120 -46.267  1.00  0.00     0.006 C 
ATOM      6  C   UNL     1      -4.767  -8.642 -44.986  1.00  0.00    -0.000 C 
ATOM      7  C   UNL     1      -3.361  -8.051 -44.926  1.00  0.00     0.005 C 
ATOM      8  C   UNL     1      -2.545  -8.732 -43.844  1.00  0.00     0.005 C 
ATOM      9  C   UNL     1      -3.133  -8.568 -42.398  1.00  0.00     0.002 C 
ATOM     10  C   UNL     1      -2.149  -9.249 -41.314  1.00  0.00    -0.026 C 
ATOM     11  C   UNL     1      -2.412  -8.733 -39.861  1.00  0.00     0.010 C 
ATOM     12  C   UNL     1      -1.576  -9.431 -38.774  1.00  0.00     0.033 C 
ATOM     13  C   UNL     1      -1.741 -10.961 -38.804  1.00  0.00     0.120 C 
ATOM     14  C   UNL     1      -1.459 -11.588 -40.207  1.00  0.00    -0.006 C 
ATOM     15  C   UNL     1      -2.287 -10.827 -41.344  1.00  0.00     0.003 C 
ATOM     16  C   UNL     1      -3.786 -11.249 -41.325  1.00  0.00     0.005 C 
ATOM     17  C   UNL     1      -4.669 -10.587 -42.392  1.00  0.00     0.008 C 
ATOM     18  C   UNL     1      -4.665  -9.030 -42.374  1.00  0.00    -0.024 C 
ATOM     19  C   UNL     1      -5.506  -8.422 -43.631  1.00  0.00    -0.024 C 
ATOM     20  C   UNL     1      -6.873  -9.160 -43.815  1.00  0.00     0.008 C 
ATOM     21  C   UNL     1      -7.753  -8.524 -44.885  1.00  0.00     0.007 C 
ATOM     22  C   UNL     1      -5.757  -6.889 -43.409  1.00  0.00     0.012 C 
ATOM     23  C   UNL     1      -5.380  -8.545 -41.062  1.00  0.00     0.012 C 
ATOM     24  C   UNL     1       0.070 -11.589 -40.517  1.00  0.00     0.014 C 
ATOM     25  C   UNL     1      -1.862 -13.091 -40.141  1.00  0.00     0.014 C 
ATOM     26  C   UNL     1      -0.691  -8.794 -41.668  1.00  0.00     0.012 C 
ATOM     27  C   UNL     1      -7.795  -7.152 -46.965  1.00  0.00     0.011 C 
ENDROOT
BRANCH   1  28
ATOM     28  C   UNL     1      -4.125  -8.016 -48.467  1.00  0.00    -0.077 C 
ATOM     29  C   UNL     1      -2.716  -8.446 -48.791  1.00  0.00     0.039 C 
ATOM     30  C   UNL     1      -4.580  -6.879 -49.018  1.00  0.00     0.008 C 
ENDBRANCH   1  28
BRANCH  13  31
ATOM     31  O   UNL     1      -0.897 -11.540 -37.839  1.00  0.00    -0.393 OA
ATOM     32  H   UNL     1      -0.631 -10.817 -37.212  1.00  0.00     0.210 HD
ENDBRANCH  13  31
TORSDOF 2
ENDMDL
MODEL 2
REMARK VINA RESULT:    -6.401      2.699      7.924
REMARK INTER + INTRA:          -7.473
REMARK INTER:                  -6.969
REMARK INTRA:                  -0.505
REMARK UNBOUND:                -0.511
REMARK SMILES C=C(C)[C@@H]1CC[C@@]2(C)CC[C@]3(C)[C@H](CC[C@@H]4[C@@]5(C)CC[C@H](O)C(C)(C)[C@H]5CC[C@@]43C)[C@@H]12
REMARK SMILES IDX 4 1 5 2 6 3 7 4 31 5 13 6 14 7 15 8 16 9 17 10 19 11 20 12
REMARK SMILES IDX 21 13 23 14 26 15 27 16 28 17 29 18 11 19 10 20 9 21 12 22
REMARK SMILES IDX 30 23 24 24 25 25 18 26 8 27 2 28 3 29 1 30 22 31
REMARK H PARENT 22 32
REMARK Flexibility Score: inf
ROOT
ATOM      1  C   UNL     1      -1.479 -12.301 -40.576  1.00  0.00     0.018 C 
ATOM      2  C   UNL     1       0.016 -11.992 -40.507  1.00  0.00     0.009 C 
ATOM      3  C   UNL     1       0.113 -10.485 -40.693  1.00  0.00     0.008 C 
ATOM      4  C   UNL     1      -1.120  -9.906 -39.982  1.00  0.00    -0.029 C 
ATOM      5  C   UNL     1      -2.243 -10.973 -40.244  1.00  0.00     0.006 C 
ATOM      6  C   UNL     1      -3.249 -10.632 -41.407  1.00  0.00    -0.000 C 
ATOM      7  C   UNL     1      -4.476 -11.534 -41.322  1.00  0.00     0.005 C 
ATOM      8  C   UNL     1      -5.329 -11.389 -42.568  1.00  0.00     0.005 C 
ATOM      9  C   UNL     1      -5.885  -9.940 -42.798  1.00  0.00     0.002 C 
ATOM     10  C   UNL     1      -6.848  -9.910 -44.096  1.00  0.00    -0.026 C 
ATOM     11  C   UNL     1      -7.786  -8.659 -44.114  1.00  0.00     0.010 C 
ATOM     12  C   UNL     1      -8.647  -8.525 -45.383  1.00  0.00     0.033 C 
ATOM     13  C   UNL     1      -7.798  -8.539 -46.667  1.00  0.00     0.120 C 
ATOM     14  C   UNL     1      -6.850  -9.777 -46.769  1.00  0.00    -0.006 C 
ATOM     15  C   UNL     1      -5.994  -9.948 -45.429  1.00  0.00     0.003 C 
ATOM     16  C   UNL     1      -4.832  -8.912 -45.368  1.00  0.00     0.005 C 
ATOM     17  C   UNL     1      -3.937  -9.001 -44.125  1.00  0.00     0.008 C 
ATOM     18  C   UNL     1      -4.686  -8.880 -42.765  1.00  0.00    -0.024 C 
ATOM     19  C   UNL     1      -3.679  -9.138 -41.510  1.00  0.00    -0.024 C 
ATOM     20  C   UNL     1      -2.333  -8.361 -41.688  1.00  0.00     0.008 C 
ATOM     21  C   UNL     1      -1.425  -8.456 -40.467  1.00  0.00     0.007 C 
ATOM     22  C   UNL     1      -4.373  -8.694 -40.173  1.00  0.00     0.012 C 
ATOM     23  C   UNL     1      -5.233  -7.414 -42.626  1.00  0.00     0.012 C 
ATOM     24  C   UNL     1      -7.657 -11.070 -47.101  1.00  0.00     0.014 C 
ATOM     25  C   UNL     1      -5.916  -9.555 -47.997  1.00  0.00     0.014 C 
ATOM     26  C   UNL     1      -7.800 -11.152 -43.988  1.00  0.00     0.012 C 
ATOM     27  C   UNL     1      -0.808  -9.802 -38.463  1.00  0.00     0.011 C 
ENDROOT
BRANCH   1  28
ATOM     28  C   UNL     1      -1.888 -13.505 -39.727  1.00  0.00    -0.077 C 
ATOM     29  C   UNL     1      -1.964 -13.376 -38.227  1.00  0.00     0.039 C 
ATOM     30  C   UNL     1      -2.188 -14.694 -40.274  1.00  0.00     0.008 C 
ENDBRANCH   1  28
BRANCH  13  31
ATOM     31  O   UNL     1      -8.647  -8.490 -47.788  1.00  0.00    -0.393 OA
ATOM     32  H   UNL     1      -8.209  -9.013 -48.509  1.00  0.00     0.210 HD
ENDBRANCH  13  31
TORSDOF 2
ENDMDL
MODEL 3
REMARK VINA RESULT:    -6.254      4.397      7.835
REMARK INTER + INTRA:          -7.313
REMARK INTER:                  -6.801
REMARK INTRA:                  -0.512
REMARK UNBOUND:                -0.511
REMARK SMILES C=C(C)[C@@H]1CC[C@@]2(C)CC[C@]3(C)[C@H](CC[C@@H]4[C@@]5(C)CC[C@H](O)C(C)(C)[C@H]5CC[C@@]43C)[C@@H]12
REMARK SMILES IDX 4 1 5 2 6 3 7 4 31 5 13 6 14 7 15 8 16 9 17 10 19 11 20 12
REMARK SMILES IDX 21 13 23 14 26 15 27 16 28 17 29 18 11 19 10 20 9 21 12 22
REMARK SMILES IDX 30 23 24 24 25 25 18 26 8 27 2 28 3 29 1 30 22 31
REMARK H PARENT 22 32
REMARK Flexibility Score: inf
ROOT
ATOM      1  C   UNL     1      -1.524 -10.021 -40.690  1.00  0.00     0.018 C 
ATOM      2  C   UNL     1      -1.133 -10.262 -42.148  1.00  0.00     0.009 C 
ATOM      3  C   UNL     1      -1.457 -11.726 -42.404  1.00  0.00     0.008 C 
ATOM      4  C   UNL     1      -2.728 -12.011 -41.590  1.00  0.00    -0.029 C 
ATOM      5  C   UNL     1      -2.553 -11.136 -40.297  1.00  0.00     0.006 C 
ATOM      6  C   UNL     1      -2.044 -11.904 -39.019  1.00  0.00    -0.000 C 
ATOM      7  C   UNL     1      -2.263 -11.053 -37.772  1.00  0.00     0.005 C 
ATOM      8  C   UNL     1      -1.558 -11.669 -36.578  1.00  0.00     0.005 C 
ATOM      9  C   UNL     1      -2.067 -13.105 -36.204  1.00  0.00     0.002 C 
ATOM     10  C   UNL     1      -1.319 -13.634 -34.873  1.00  0.00    -0.026 C 
ATOM     11  C   UNL     1      -2.084 -14.813 -34.187  1.00  0.00     0.010 C 
ATOM     12  C   UNL     1      -1.358 -15.426 -32.977  1.00  0.00     0.033 C 
ATOM     13  C   UNL     1       0.069 -15.886 -33.324  1.00  0.00     0.120 C 
ATOM     14  C   UNL     1       0.938 -14.765 -33.982  1.00  0.00    -0.006 C 
ATOM     15  C   UNL     1       0.161 -14.091 -35.206  1.00  0.00     0.003 C 
ATOM     16  C   UNL     1       0.184 -15.011 -36.462  1.00  0.00     0.005 C 
ATOM     17  C   UNL     1      -0.522 -14.449 -37.703  1.00  0.00     0.008 C 
ATOM     18  C   UNL     1      -2.014 -14.058 -37.489  1.00  0.00    -0.024 C 
ATOM     19  C   UNL     1      -2.632 -13.333 -38.812  1.00  0.00    -0.024 C 
ATOM     20  C   UNL     1      -2.244 -14.101 -40.118  1.00  0.00     0.008 C 
ATOM     21  C   UNL     1      -2.925 -13.540 -41.362  1.00  0.00     0.007 C 
ATOM     22  C   UNL     1      -4.194 -13.249 -38.690  1.00  0.00     0.012 C 
ATOM     23  C   UNL     1      -2.844 -15.370 -37.252  1.00  0.00     0.012 C 
ATOM     24  C   UNL     1       1.369 -13.704 -32.923  1.00  0.00     0.014 C 
ATOM     25  C   UNL     1       2.267 -15.421 -34.464  1.00  0.00     0.014 C 
ATOM     26  C   UNL     1      -1.337 -12.457 -33.838  1.00  0.00     0.012 C 
ATOM     27  C   UNL     1      -3.956 -11.530 -42.412  1.00  0.00     0.011 C 
ENDROOT
BRANCH   1  28
ATOM     28  C   UNL     1      -1.991  -8.592 -40.417  1.00  0.00    -0.077 C 
ATOM     29  C   UNL     1      -1.364  -7.796 -39.300  1.00  0.00     0.039 C 
ATOM     30  C   UNL     1      -2.956  -8.006 -41.144  1.00  0.00     0.008 C 
ENDBRANCH   1  28
BRANCH  13  31
ATOM     31  O   UNL     1       0.701 -16.365 -32.162  1.00  0.00    -0.393 OA
ATOM     32  H   UNL     1       0.004 -16.816 -31.617  1.00  0.00     0.210 HD
ENDBRANCH  13  31
TORSDOF 2
ENDMDL
MODEL 4
REMARK VINA RESULT:    -5.860      2.459      5.764
REMARK INTER + INTRA:          -6.885
REMARK INTER:                  -6.369
REMARK INTRA:                  -0.516
REMARK UNBOUND:                -0.511
REMARK SMILES C=C(C)[C@@H]1CC[C@@]2(C)CC[C@]3(C)[C@H](CC[C@@H]4[C@@]5(C)CC[C@H](O)C(C)(C)[C@H]5CC[C@@]43C)[C@@H]12
REMARK SMILES IDX 4 1 5 2 6 3 7 4 31 5 13 6 14 7 15 8 16 9 17 10 19 11 20 12
REMARK SMILES IDX 21 13 23 14 26 15 27 16 28 17 29 18 11 19 10 20 9 21 12 22
REMARK SMILES IDX 30 23 24 24 25 25 18 26 8 27 2 28 3 29 1 30 22 31
REMARK H PARENT 22 32
REMARK Flexibility Score: inf
ROOT
ATOM      1  C   UNL     1      -6.024  -8.956 -41.773  1.00  0.00     0.018 C 
ATOM      2  C   UNL     1      -5.894  -7.498 -42.212  1.00  0.00     0.009 C 
ATOM      3  C   UNL     1      -4.399  -7.267 -42.366  1.00  0.00     0.008 C 
ATOM      4  C   UNL     1      -3.835  -8.588 -42.910  1.00  0.00    -0.029 C 
ATOM      5  C   UNL     1      -4.707  -9.689 -42.208  1.00  0.00     0.006 C 
ATOM      6  C   UNL     1      -4.048 -10.385 -40.958  1.00  0.00    -0.000 C 
ATOM      7  C   UNL     1      -4.813 -11.656 -40.599  1.00  0.00     0.005 C 
ATOM      8  C   UNL     1      -4.346 -12.197 -39.261  1.00  0.00     0.005 C 
ATOM      9  C   UNL     1      -2.829 -12.594 -39.225  1.00  0.00     0.002 C 
ATOM     10  C   UNL     1      -2.454 -13.238 -37.791  1.00  0.00    -0.026 C 
ATOM     11  C   UNL     1      -1.128 -14.067 -37.838  1.00  0.00     0.010 C 
ATOM     12  C   UNL     1      -0.667 -14.611 -36.474  1.00  0.00     0.033 C 
ATOM     13  C   UNL     1      -0.531 -13.499 -35.418  1.00  0.00     0.120 C 
ATOM     14  C   UNL     1      -1.822 -12.632 -35.261  1.00  0.00    -0.006 C 
ATOM     15  C   UNL     1      -2.331 -12.112 -36.685  1.00  0.00     0.003 C 
ATOM     16  C   UNL     1      -1.456 -10.929 -37.197  1.00  0.00     0.005 C 
ATOM     17  C   UNL     1      -1.872 -10.342 -38.553  1.00  0.00     0.008 C 
ATOM     18  C   UNL     1      -1.929 -11.368 -39.723  1.00  0.00    -0.024 C 
ATOM     19  C   UNL     1      -2.524 -10.686 -41.079  1.00  0.00    -0.024 C 
ATOM     20  C   UNL     1      -1.876  -9.288 -41.347  1.00  0.00     0.008 C 
ATOM     21  C   UNL     1      -2.296  -8.684 -42.683  1.00  0.00     0.007 C 
ATOM     22  C   UNL     1      -2.267 -11.632 -42.305  1.00  0.00     0.012 C 
ATOM     23  C   UNL     1      -0.465 -11.837 -40.046  1.00  0.00     0.012 C 
ATOM     24  C   UNL     1      -2.935 -13.426 -34.510  1.00  0.00     0.014 C 
ATOM     25  C   UNL     1      -1.474 -11.435 -34.326  1.00  0.00     0.014 C 
ATOM     26  C   UNL     1      -3.584 -14.266 -37.441  1.00  0.00     0.012 C 
ATOM     27  C   UNL     1      -4.052  -8.618 -44.449  1.00  0.00     0.011 C 
ENDROOT
BRANCH   1  28
ATOM     28  C   UNL     1      -7.314  -9.621 -42.252  1.00  0.00    -0.077 C 
ATOM     29  C   UNL     1      -8.294 -10.173 -41.246  1.00  0.00     0.039 C 
ATOM     30  C   UNL     1      -7.617  -9.735 -43.555  1.00  0.00     0.008 C 
ENDBRANCH   1  28
BRANCH  13  31
ATOM     31  O   UNL     1      -0.181 -14.071 -34.182  1.00  0.00    -0.393 OA
ATOM     32  H   UNL     1      -0.812 -13.709 -33.505  1.00  0.00     0.210 HD
ENDBRANCH  13  31
TORSDOF 2
ENDMDL
MODEL 5
REMARK VINA RESULT:    -5.790     11.540     15.416
REMARK INTER + INTRA:          -6.808
REMARK INTER:                  -6.299
REMARK INTRA:                  -0.509
REMARK UNBOUND:                -0.511
REMARK SMILES C=C(C)[C@@H]1CC[C@@]2(C)CC[C@]3(C)[C@H](CC[C@@H]4[C@@]5(C)CC[C@H](O)C(C)(C)[C@H]5CC[C@@]43C)[C@@H]12
REMARK SMILES IDX 4 1 5 2 6 3 7 4 31 5 13 6 14 7 15 8 16 9 17 10 19 11 20 12
REMARK SMILES IDX 21 13 23 14 26 15 27 16 28 17 29 18 11 19 10 20 9 21 12 22
REMARK SMILES IDX 30 23 24 24 25 25 18 26 8 27 2 28 3 29 1 30 22 31
REMARK H PARENT 22 32
REMARK Flexibility Score: inf
ROOT
ATOM      1  C   UNL     1       4.128 -19.605 -41.459  1.00  0.00     0.018 C 
ATOM      2  C   UNL     1       4.229 -18.126 -41.832  1.00  0.00     0.009 C 
ATOM      3  C   UNL     1       2.789 -17.664 -41.995  1.00  0.00     0.008 C 
ATOM      4  C   UNL     1       1.990 -18.434 -40.933  1.00  0.00    -0.029 C 
ATOM      5  C   UNL     1       2.692 -19.838 -40.876  1.00  0.00     0.006 C 
ATOM      6  C   UNL     1       1.973 -20.990 -41.675  1.00  0.00    -0.000 C 
ATOM      7  C   UNL     1       2.528 -22.348 -41.252  1.00  0.00     0.005 C 
ATOM      8  C   UNL     1       2.028 -23.438 -42.182  1.00  0.00     0.005 C 
ATOM      9  C   UNL     1       0.468 -23.604 -42.194  1.00  0.00     0.002 C 
ATOM     10  C   UNL     1       0.045 -24.842 -43.143  1.00  0.00    -0.026 C 
ATOM     11  C   UNL     1      -1.402 -25.356 -42.844  1.00  0.00     0.010 C 
ATOM     12  C   UNL     1      -1.894 -26.462 -43.794  1.00  0.00     0.033 C 
ATOM     13  C   UNL     1      -1.801 -26.046 -45.273  1.00  0.00     0.120 C 
ATOM     14  C   UNL     1      -0.377 -25.553 -45.689  1.00  0.00    -0.006 C 
ATOM     15  C   UNL     1       0.157 -24.441 -44.671  1.00  0.00     0.003 C 
ATOM     16  C   UNL     1      -0.526 -23.066 -44.931  1.00  0.00     0.005 C 
ATOM     17  C   UNL     1      -0.070 -21.921 -44.016  1.00  0.00     0.008 C 
ATOM     18  C   UNL     1      -0.232 -22.195 -42.491  1.00  0.00    -0.024 C 
ATOM     19  C   UNL     1       0.417 -20.993 -41.602  1.00  0.00    -0.024 C 
ATOM     20  C   UNL     1       0.003 -19.588 -42.153  1.00  0.00     0.008 C 
ATOM     21  C   UNL     1       0.467 -18.440 -41.263  1.00  0.00     0.007 C 
ATOM     22  C   UNL     1      -0.042 -21.131 -40.108  1.00  0.00     0.012 C 
ATOM     23  C   UNL     1      -1.765 -22.245 -42.154  1.00  0.00     0.012 C 
ATOM     24  C   UNL     1       0.615 -26.752 -45.800  1.00  0.00     0.014 C 
ATOM     25  C   UNL     1      -0.482 -24.976 -47.133  1.00  0.00     0.014 C 
ATOM     26  C   UNL     1       1.000 -26.035 -42.791  1.00  0.00     0.012 C 
ATOM     27  C   UNL     1       2.140 -17.694 -39.574  1.00  0.00     0.011 C 
ENDROOT
BRANCH   1  28
ATOM     28  C   UNL     1       5.269 -20.082 -40.562  1.00  0.00    -0.077 C 
ATOM     29  C   UNL     1       5.576 -19.347 -39.280  1.00  0.00     0.039 C 
ATOM     30  C   UNL     1       6.023 -21.149 -40.873  1.00  0.00     0.008 C 
ENDBRANCH   1  28
BRANCH  13  31
ATOM     31  O   UNL     1      -2.193 -27.125 -46.086  1.00  0.00    -0.393 OA
ATOM     32  H   UNL     1      -1.364 -27.581 -46.386  1.00  0.00     0.210 HD
ENDBRANCH  13  31
TORSDOF 2
ENDMDL
MODEL 6
REMARK VINA RESULT:    -5.756     10.841     14.794
REMARK INTER + INTRA:          -6.771
REMARK INTER:                  -6.453
REMARK INTRA:                  -0.319
REMARK UNBOUND:                -0.511
REMARK SMILES C=C(C)[C@@H]1CC[C@@]2(C)CC[C@]3(C)[C@H](CC[C@@H]4[C@@]5(C)CC[C@H](O)C(C)(C)[C@H]5CC[C@@]43C)[C@@H]12
REMARK SMILES IDX 4 1 5 2 6 3 7 4 31 5 13 6 14 7 15 8 16 9 17 10 19 11 20 12
REMARK SMILES IDX 21 13 23 14 26 15 27 16 28 17 29 18 11 19 10 20 9 21 12 22
REMARK SMILES IDX 30 23 24 24 25 25 18 26 8 27 2 28 3 29 1 30 22 31
REMARK H PARENT 22 32
REMARK Flexibility Score: inf
ROOT
ATOM      1  C   UNL     1      -2.319 -25.347 -45.789  1.00  0.00     0.018 C 
ATOM      2  C   UNL     1      -1.923 -25.394 -47.265  1.00  0.00     0.009 C 
ATOM      3  C   UNL     1      -0.497 -24.864 -47.304  1.00  0.00     0.008 C 
ATOM      4  C   UNL     1       0.164 -25.376 -46.016  1.00  0.00    -0.029 C 
ATOM      5  C   UNL     1      -0.993 -25.333 -44.954  1.00  0.00     0.006 C 
ATOM      6  C   UNL     1      -0.984 -24.088 -43.989  1.00  0.00    -0.000 C 
ATOM      7  C   UNL     1      -1.906 -24.339 -42.799  1.00  0.00     0.005 C 
ATOM      8  C   UNL     1      -2.099 -23.064 -41.999  1.00  0.00     0.005 C 
ATOM      9  C   UNL     1      -0.775 -22.482 -41.392  1.00  0.00     0.002 C 
ATOM     10  C   UNL     1      -1.099 -21.181 -40.489  1.00  0.00    -0.026 C 
ATOM     11  C   UNL     1       0.063 -20.838 -39.499  1.00  0.00     0.010 C 
ATOM     12  C   UNL     1      -0.147 -19.544 -38.694  1.00  0.00     0.033 C 
ATOM     13  C   UNL     1      -0.414 -18.329 -39.601  1.00  0.00     0.120 C 
ATOM     14  C   UNL     1      -1.590 -18.552 -40.606  1.00  0.00    -0.006 C 
ATOM     15  C   UNL     1      -1.399 -19.924 -41.405  1.00  0.00     0.003 C 
ATOM     16  C   UNL     1      -0.317 -19.781 -42.517  1.00  0.00     0.005 C 
ATOM     17  C   UNL     1      -0.067 -21.041 -43.357  1.00  0.00     0.008 C 
ATOM     18  C   UNL     1       0.326 -22.308 -42.541  1.00  0.00    -0.024 C 
ATOM     19  C   UNL     1       0.420 -23.623 -43.499  1.00  0.00    -0.024 C 
ATOM     20  C   UNL     1       1.205 -23.315 -44.816  1.00  0.00     0.008 C 
ATOM     21  C   UNL     1       1.444 -24.556 -45.671  1.00  0.00     0.007 C 
ATOM     22  C   UNL     1       1.124 -24.794 -42.725  1.00  0.00     0.012 C 
ATOM     23  C   UNL     1       1.753 -22.081 -41.925  1.00  0.00     0.012 C 
ATOM     24  C   UNL     1      -2.965 -18.504 -39.872  1.00  0.00     0.014 C 
ATOM     25  C   UNL     1      -1.609 -17.340 -41.585  1.00  0.00     0.014 C 
ATOM     26  C   UNL     1      -2.330 -21.543 -39.589  1.00  0.00     0.012 C 
ATOM     27  C   UNL     1       0.634 -26.839 -46.252  1.00  0.00     0.011 C 
ENDROOT
BRANCH   1  28
ATOM     28  C   UNL     1      -3.313 -26.439 -45.395  1.00  0.00    -0.077 C 
ATOM     29  C   UNL     1      -4.465 -26.774 -46.309  1.00  0.00     0.039 C 
ATOM     30  C   UNL     1      -3.200 -27.125 -44.246  1.00  0.00     0.008 C 
ENDBRANCH   1  28
BRANCH  13  31
ATOM     31  O   UNL     1      -0.671 -17.199 -38.803  1.00  0.00    -0.393 OA
ATOM     32  H   UNL     1      -0.062 -16.478 -39.113  1.00  0.00     0.210 HD
ENDBRANCH  13  31
TORSDOF 2
ENDMDL
MODEL 7
REMARK VINA RESULT:    -5.635      4.259     10.295
REMARK INTER + INTRA:          -6.639
REMARK INTER:                  -6.141
REMARK INTRA:                  -0.499
REMARK UNBOUND:                -0.511
REMARK SMILES C=C(C)[C@@H]1CC[C@@]2(C)CC[C@]3(C)[C@H](CC[C@@H]4[C@@]5(C)CC[C@H](O)C(C)(C)[C@H]5CC[C@@]43C)[C@@H]12
REMARK SMILES IDX 4 1 5 2 6 3 7 4 31 5 13 6 14 7 15 8 16 9 17 10 19 11 20 12
REMARK SMILES IDX 21 13 23 14 26 15 27 16 28 17 29 18 11 19 10 20 9 21 12 22
REMARK SMILES IDX 30 23 24 24 25 25 18 26 8 27 2 28 3 29 1 30 22 31
REMARK H PARENT 22 32
REMARK Flexibility Score: inf
ROOT
ATOM      1  C   UNL     1      -2.941 -13.436 -33.518  1.00  0.00     0.018 C 
ATOM      2  C   UNL     1      -4.019 -14.296 -32.860  1.00  0.00     0.009 C 
ATOM      3  C   UNL     1      -4.429 -15.296 -33.930  1.00  0.00     0.008 C 
ATOM      4  C   UNL     1      -3.140 -15.623 -34.699  1.00  0.00    -0.029 C 
ATOM      5  C   UNL     1      -2.353 -14.264 -34.713  1.00  0.00     0.006 C 
ATOM      6  C   UNL     1      -2.461 -13.428 -36.044  1.00  0.00    -0.000 C 
ATOM      7  C   UNL     1      -1.388 -12.344 -36.073  1.00  0.00     0.005 C 
ATOM      8  C   UNL     1      -1.634 -11.383 -37.220  1.00  0.00     0.005 C 
ATOM      9  C   UNL     1      -1.594 -12.055 -38.638  1.00  0.00     0.002 C 
ATOM     10  C   UNL     1      -1.779 -10.937 -39.790  1.00  0.00    -0.026 C 
ATOM     11  C   UNL     1      -1.292 -11.437 -41.190  1.00  0.00     0.010 C 
ATOM     12  C   UNL     1      -1.547 -10.452 -42.344  1.00  0.00     0.033 C 
ATOM     13  C   UNL     1      -3.027 -10.039 -42.442  1.00  0.00     0.120 C 
ATOM     14  C   UNL     1      -3.605  -9.483 -41.101  1.00  0.00    -0.006 C 
ATOM     15  C   UNL     1      -3.293 -10.482 -39.892  1.00  0.00     0.003 C 
ATOM     16  C   UNL     1      -4.239 -11.718 -39.926  1.00  0.00     0.005 C 
ATOM     17  C   UNL     1      -4.034 -12.735 -38.795  1.00  0.00     0.008 C 
ATOM     18  C   UNL     1      -2.590 -13.307 -38.680  1.00  0.00    -0.024 C 
ATOM     19  C   UNL     1      -2.432 -14.256 -37.364  1.00  0.00    -0.024 C 
ATOM     20  C   UNL     1      -3.637 -15.244 -37.225  1.00  0.00     0.008 C 
ATOM     21  C   UNL     1      -3.454 -16.249 -36.092  1.00  0.00     0.007 C 
ATOM     22  C   UNL     1      -1.091 -15.065 -37.451  1.00  0.00     0.012 C 
ATOM     23  C   UNL     1      -2.310 -14.208 -39.936  1.00  0.00     0.012 C 
ATOM     24  C   UNL     1      -3.061  -8.049 -40.814  1.00  0.00     0.014 C 
ATOM     25  C   UNL     1      -5.142  -9.304 -41.289  1.00  0.00     0.014 C 
ATOM     26  C   UNL     1      -0.842  -9.736 -39.420  1.00  0.00     0.012 C 
ATOM     27  C   UNL     1      -2.354 -16.702 -33.903  1.00  0.00     0.011 C 
ENDROOT
BRANCH   1  28
ATOM     28  C   UNL     1      -1.900 -12.909 -32.531  1.00  0.00    -0.077 C 
ATOM     29  C   UNL     1      -0.644 -13.701 -32.269  1.00  0.00     0.039 C 
ATOM     30  C   UNL     1      -2.062 -11.749 -31.875  1.00  0.00     0.008 C 
ENDBRANCH   1  28
BRANCH  13  31
ATOM     31  O   UNL     1      -3.177  -9.084 -43.464  1.00  0.00    -0.393 OA
ATOM     32  H   UNL     1      -4.081  -8.685 -43.359  1.00  0.00     0.210 HD
ENDBRANCH  13  31
TORSDOF 2
ENDMDL
MODEL 8
REMARK VINA RESULT:    -5.610      9.313     15.046
REMARK INTER + INTRA:          -6.613
REMARK INTER:                  -6.097
REMARK INTRA:                  -0.516
REMARK UNBOUND:                -0.511
REMARK SMILES C=C(C)[C@@H]1CC[C@@]2(C)CC[C@]3(C)[C@H](CC[C@@H]4[C@@]5(C)CC[C@H](O)C(C)(C)[C@H]5CC[C@@]43C)[C@@H]12
REMARK SMILES IDX 4 1 5 2 6 3 7 4 31 5 13 6 14 7 15 8 16 9 17 10 19 11 20 12
REMARK SMILES IDX 21 13 23 14 26 15 27 16 28 17 29 18 11 19 10 20 9 21 12 22
REMARK SMILES IDX 30 23 24 24 25 25 18 26 8 27 2 28 3 29 1 30 22 31
REMARK H PARENT 22 32
REMARK Flexibility Score: inf
ROOT
ATOM      1  C   UNL     1       6.529 -17.752 -35.537  1.00  0.00     0.018 C 
ATOM      2  C   UNL     1       7.798 -17.399 -34.761  1.00  0.00     0.009 C 
ATOM      3  C   UNL     1       7.345 -17.246 -33.317  1.00  0.00     0.008 C 
ATOM      4  C   UNL     1       6.246 -18.300 -33.121  1.00  0.00    -0.029 C 
ATOM      5  C   UNL     1       5.504 -18.336 -34.504  1.00  0.00     0.006 C 
ATOM      6  C   UNL     1       4.156 -17.524 -34.575  1.00  0.00    -0.000 C 
ATOM      7  C   UNL     1       3.364 -17.926 -35.816  1.00  0.00     0.005 C 
ATOM      8  C   UNL     1       2.194 -16.984 -36.028  1.00  0.00     0.005 C 
ATOM      9  C   UNL     1       1.158 -16.974 -34.850  1.00  0.00     0.002 C 
ATOM     10  C   UNL     1      -0.088 -16.010 -35.210  1.00  0.00    -0.026 C 
ATOM     11  C   UNL     1      -1.346 -16.305 -34.329  1.00  0.00     0.010 C 
ATOM     12  C   UNL     1      -2.525 -15.343 -34.555  1.00  0.00     0.033 C 
ATOM     13  C   UNL     1      -2.117 -13.869 -34.377  1.00  0.00     0.120 C 
ATOM     14  C   UNL     1      -0.889 -13.456 -35.250  1.00  0.00    -0.006 C 
ATOM     15  C   UNL     1       0.318 -14.487 -35.055  1.00  0.00     0.003 C 
ATOM     16  C   UNL     1       1.049 -14.247 -33.701  1.00  0.00     0.005 C 
ATOM     17  C   UNL     1       2.238 -15.176 -33.421  1.00  0.00     0.008 C 
ATOM     18  C   UNL     1       1.907 -16.698 -33.463  1.00  0.00    -0.024 C 
ATOM     19  C   UNL     1       3.254 -17.601 -33.307  1.00  0.00    -0.024 C 
ATOM     20  C   UNL     1       4.167 -17.070 -32.153  1.00  0.00     0.008 C 
ATOM     21  C   UNL     1       5.364 -17.975 -31.877  1.00  0.00     0.007 C 
ATOM     22  C   UNL     1       2.862 -19.095 -33.027  1.00  0.00     0.012 C 
ATOM     23  C   UNL     1       0.978 -17.038 -32.243  1.00  0.00     0.012 C 
ATOM     24  C   UNL     1      -1.293 -13.326 -36.752  1.00  0.00     0.014 C 
ATOM     25  C   UNL     1      -0.465 -12.020 -34.817  1.00  0.00     0.014 C 
ATOM     26  C   UNL     1      -0.515 -16.343 -36.682  1.00  0.00     0.012 C 
ATOM     27  C   UNL     1       6.924 -19.668 -32.829  1.00  0.00     0.011 C 
ENDROOT
BRANCH   1  28
ATOM     28  C   UNL     1       6.790 -18.640 -36.753  1.00  0.00    -0.077 C 
ATOM     29  C   UNL     1       6.413 -18.158 -38.131  1.00  0.00     0.039 C 
ATOM     30  C   UNL     1       7.352 -19.855 -36.642  1.00  0.00     0.008 C 
ENDBRANCH   1  28
BRANCH  13  31
ATOM     31  O   UNL     1      -3.217 -13.043 -34.671  1.00  0.00    -0.393 OA
ATOM     32  H   UNL     1      -3.939 -13.279 -34.031  1.00  0.00     0.210 HD
ENDBRANCH  13  31
TORSDOF 2
ENDMDL
MODEL 9
REMARK VINA RESULT:    -5.549     10.648     13.481
REMARK INTER + INTRA:          -6.546
REMARK INTER:                  -6.125
REMARK INTRA:                  -0.421
REMARK UNBOUND:                -0.511
REMARK SMILES C=C(C)[C@@H]1CC[C@@]2(C)CC[C@]3(C)[C@H](CC[C@@H]4[C@@]5(C)CC[C@H](O)C(C)(C)[C@H]5CC[C@@]43C)[C@@H]12
REMARK SMILES IDX 4 1 5 2 6 3 7 4 31 5 13 6 14 7 15 8 16 9 17 10 19 11 20 12
REMARK SMILES IDX 21 13 23 14 26 15 27 16 28 17 29 18 11 19 10 20 9 21 12 22
REMARK SMILES IDX 30 23 24 24 25 25 18 26 8 27 2 28 3 29 1 30 22 31
REMARK H PARENT 22 32
REMARK Flexibility Score: inf
ROOT
ATOM      1  C   UNL     1       0.905 -16.523 -33.920  1.00  0.00     0.018 C 
ATOM      2  C   UNL     1       1.903 -16.086 -34.992  1.00  0.00     0.009 C 
ATOM      3  C   UNL     1       1.446 -14.697 -35.410  1.00  0.00     0.008 C 
ATOM      4  C   UNL     1       0.917 -14.038 -34.127  1.00  0.00    -0.029 C 
ATOM      5  C   UNL     1       0.248 -15.222 -33.342  1.00  0.00     0.006 C 
ATOM      6  C   UNL     1      -1.320 -15.319 -33.462  1.00  0.00    -0.000 C 
ATOM      7  C   UNL     1      -1.873 -16.254 -32.390  1.00  0.00     0.005 C 
ATOM      8  C   UNL     1      -3.338 -16.549 -32.647  1.00  0.00     0.005 C 
ATOM      9  C   UNL     1      -4.262 -15.281 -32.618  1.00  0.00     0.002 C 
ATOM     10  C   UNL     1      -5.807 -15.710 -32.814  1.00  0.00    -0.026 C 
ATOM     11  C   UNL     1      -6.800 -14.600 -32.338  1.00  0.00     0.010 C 
ATOM     12  C   UNL     1      -8.283 -14.913 -32.604  1.00  0.00     0.033 C 
ATOM     13  C   UNL     1      -8.556 -15.234 -34.085  1.00  0.00     0.120 C 
ATOM     14  C   UNL     1      -7.640 -16.366 -34.652  1.00  0.00    -0.006 C 
ATOM     15  C   UNL     1      -6.102 -16.066 -34.329  1.00  0.00     0.003 C 
ATOM     16  C   UNL     1      -5.533 -14.968 -35.275  1.00  0.00     0.005 C 
ATOM     17  C   UNL     1      -4.055 -14.616 -35.059  1.00  0.00     0.008 C 
ATOM     18  C   UNL     1      -3.691 -14.164 -33.613  1.00  0.00    -0.024 C 
ATOM     19  C   UNL     1      -2.083 -13.960 -33.443  1.00  0.00    -0.024 C 
ATOM     20  C   UNL     1      -1.478 -13.163 -34.646  1.00  0.00     0.008 C 
ATOM     21  C   UNL     1      -0.004 -12.823 -34.452  1.00  0.00     0.007 C 
ATOM     22  C   UNL     1      -1.783 -13.204 -32.101  1.00  0.00     0.012 C 
ATOM     23  C   UNL     1      -4.365 -12.771 -33.343  1.00  0.00     0.012 C 
ATOM     24  C   UNL     1      -8.078 -17.760 -34.107  1.00  0.00     0.014 C 
ATOM     25  C   UNL     1      -7.878 -16.437 -36.191  1.00  0.00     0.014 C 
ATOM     26  C   UNL     1      -6.064 -16.939 -31.875  1.00  0.00     0.012 C 
ATOM     27  C   UNL     1       2.126 -13.470 -33.333  1.00  0.00     0.011 C 
ENDROOT
BRANCH   1  28
ATOM     28  C   UNL     1       1.511 -17.455 -32.871  1.00  0.00    -0.077 C 
ATOM     29  C   UNL     1       2.932 -17.245 -32.411  1.00  0.00     0.039 C 
ATOM     30  C   UNL     1       0.817 -18.471 -32.334  1.00  0.00     0.008 C 
ENDBRANCH   1  28
BRANCH  13  31
ATOM     31  O   UNL     1      -9.909 -15.583 -34.245  1.00  0.00    -0.393 OA
ATOM     32  H   UNL     1      -9.949 -16.574 -34.305  1.00  0.00     0.210 HD
ENDBRANCH  13  31
TORSDOF 2
ENDMDL
