MODEL 1
REMARK VINA RESULT:    -2.344      0.000      0.000
REMARK INTER + INTRA:          -2.344
REMARK INTER:                  -2.344
REMARK INTRA:                   0.000
REMARK UNBOUND:                 0.000
REMARK SMILES CC(=O)[O-]
REMARK SMILES IDX 1 1 2 2 3 3 4 4
REMARK H PARENT
REMARK Flexibility Score: inf
ROOT
ATOM      1  C   UNL     1      44.703  32.457  27.858  1.00  0.00     0.063 C 
ATOM      2  C   UNL     1      44.918  33.492  28.909  1.00  0.00     0.038 C 
ATOM      3  O   UNL     1      44.998  33.158  30.120  1.00  0.00    -0.550 OA
ATOM      4  O   UNL     1      44.976  34.836  28.560  1.00  0.00    -0.550 OA
ENDROOT
TORSDOF 0
ENDMDL
MODEL 2
REMARK VINA RESULT:    -2.331     11.846     12.200
REMARK INTER + INTRA:          -2.331
REMARK INTER:                  -2.331
REMARK INTRA:                   0.000
REMARK UNBOUND:                 0.000
REMARK SMILES CC(=O)[O-]
REMARK SMILES IDX 1 1 2 2 3 3 4 4
REMARK H PARENT
REMARK Flexibility Score: inf
ROOT
ATOM      1  C   UNL     1      48.855  34.083  17.024  1.00  0.00     0.063 C 
ATOM      2  C   UNL     1      49.053  32.718  17.589  1.00  0.00     0.038 C 
ATOM      3  O   UNL     1      50.216  32.262  17.749  1.00  0.00    -0.550 OA
ATOM      4  O   UNL     1      47.954  31.922  17.891  1.00  0.00    -0.550 OA
ENDROOT
TORSDOF 0
ENDMDL
MODEL 3
REMARK VINA RESULT:    -2.316      1.669      2.246
REMARK INTER + INTRA:          -2.316
REMARK INTER:                  -2.316
REMARK INTRA:                   0.000
REMARK UNBOUND:                 0.000
REMARK SMILES CC(=O)[O-]
REMARK SMILES IDX 1 1 2 2 3 3 4 4
REMARK H PARENT
REMARK Flexibility Score: inf
ROOT
ATOM      1  C   UNL     1      44.396  33.742  29.661  1.00  0.00     0.063 C 
ATOM      2  C   UNL     1      44.957  33.157  28.410  1.00  0.00     0.038 C 
ATOM      3  O   UNL     1      45.983  33.659  27.881  1.00  0.00    -0.550 OA
ATOM      4  O   UNL     1      44.319  32.087  27.794  1.00  0.00    -0.550 OA
ENDROOT
TORSDOF 0
ENDMDL
MODEL 4
REMARK VINA RESULT:    -2.308     17.052     17.668
REMARK INTER + INTRA:          -2.308
REMARK INTER:                  -2.308
REMARK INTRA:                   0.000
REMARK UNBOUND:                 0.000
REMARK SMILES CC(=O)[O-]
REMARK SMILES IDX 1 1 2 2 3 3 4 4
REMARK H PARENT
REMARK Flexibility Score: inf
ROOT
ATOM      1  C   UNL     1      48.161  33.402  10.997  1.00  0.00     0.063 C 
ATOM      2  C   UNL     1      49.345  33.800  11.811  1.00  0.00     0.038 C 
ATOM      3  O   UNL     1      50.509  33.585  11.382  1.00  0.00    -0.550 OA
ATOM      4  O   UNL     1      49.168  34.361  13.070  1.00  0.00    -0.550 OA
ENDROOT
TORSDOF 0
ENDMDL
MODEL 5
REMARK VINA RESULT:    -2.285     15.316     15.935
REMARK INTER + INTRA:          -2.285
REMARK INTER:                  -2.285
REMARK INTRA:                   0.000
REMARK UNBOUND:                 0.000
REMARK SMILES CC(=O)[O-]
REMARK SMILES IDX 1 1 2 2 3 3 4 4
REMARK H PARENT
REMARK Flexibility Score: inf
ROOT
ATOM      1  C   UNL     1      43.896  36.197  12.495  1.00  0.00     0.063 C 
ATOM      2  C   UNL     1      45.107  35.656  13.176  1.00  0.00     0.038 C 
ATOM      3  O   UNL     1      45.057  35.328  14.390  1.00  0.00    -0.550 OA
ATOM      4  O   UNL     1      46.310  35.562  12.487  1.00  0.00    -0.550 OA
ENDROOT
TORSDOF 0
ENDMDL
MODEL 6
REMARK VINA RESULT:    -2.256     17.098     17.720
REMARK INTER + INTRA:          -2.256
REMARK INTER:                  -2.256
REMARK INTRA:                   0.000
REMARK UNBOUND:                 0.000
REMARK SMILES CC(=O)[O-]
REMARK SMILES IDX 1 1 2 2 3 3 4 4
REMARK H PARENT
REMARK Flexibility Score: inf
ROOT
ATOM      1  C   UNL     1      50.311  33.606  11.371  1.00  0.00     0.063 C 
ATOM      2  C   UNL     1      48.863  33.775  11.680  1.00  0.00     0.038 C 
ATOM      3  O   UNL     1      47.992  33.288  10.912  1.00  0.00    -0.550 OA
ATOM      4  O   UNL     1      48.468  34.516  12.787  1.00  0.00    -0.550 OA
ENDROOT
TORSDOF 0
ENDMDL
MODEL 7
REMARK VINA RESULT:    -2.251     17.092     17.490
REMARK INTER + INTRA:          -2.251
REMARK INTER:                  -2.251
REMARK INTRA:                   0.000
REMARK UNBOUND:                 0.000
REMARK SMILES CC(=O)[O-]
REMARK SMILES IDX 1 1 2 2 3 3 4 4
REMARK H PARENT
REMARK Flexibility Score: inf
ROOT
ATOM      1  C   UNL     1      48.814  34.355  13.251  1.00  0.00     0.063 C 
ATOM      2  C   UNL     1      49.180  33.659  11.985  1.00  0.00     0.038 C 
ATOM      3  O   UNL     1      48.318  32.990  11.358  1.00  0.00    -0.550 OA
ATOM      4  O   UNL     1      50.490  33.701  11.521  1.00  0.00    -0.550 OA
ENDROOT
TORSDOF 0
ENDMDL
MODEL 8
REMARK VINA RESULT:    -2.231     12.970     13.605
REMARK INTER + INTRA:          -2.231
REMARK INTER:                  -2.231
REMARK INTRA:                   0.000
REMARK UNBOUND:                 0.000
REMARK SMILES CC(=O)[O-]
REMARK SMILES IDX 1 1 2 2 3 3 4 4
REMARK H PARENT
REMARK Flexibility Score: inf
ROOT
ATOM      1  C   UNL     1      48.812  34.156  17.038  1.00  0.00     0.063 C 
ATOM      2  C   UNL     1      48.364  33.346  15.870  1.00  0.00     0.038 C 
ATOM      3  O   UNL     1      48.378  33.842  14.713  1.00  0.00    -0.550 OA
ATOM      4  O   UNL     1      47.879  32.057  16.060  1.00  0.00    -0.550 OA
ENDROOT
TORSDOF 0
ENDMDL
MODEL 9
REMARK VINA RESULT:    -2.214      6.958      7.403
REMARK INTER + INTRA:          -2.214
REMARK INTER:                  -2.214
REMARK INTRA:                   0.000
REMARK UNBOUND:                 0.000
REMARK SMILES CC(=O)[O-]
REMARK SMILES IDX 1 1 2 2 3 3 4 4
REMARK H PARENT
REMARK Flexibility Score: inf
ROOT
ATOM      1  C   UNL     1      41.681  36.963  22.608  1.00  0.00     0.063 C 
ATOM      2  C   UNL     1      42.721  37.703  23.379  1.00  0.00     0.038 C 
ATOM      3  O   UNL     1      43.800  38.040  22.824  1.00  0.00    -0.550 OA
ATOM      4  O   UNL     1      42.525  37.976  24.727  1.00  0.00    -0.550 OA
ENDROOT
TORSDOF 0
ENDMDL
