MODEL 1
REMARK VINA RESULT:    -4.049      0.000      0.000
REMARK INTER + INTRA:          -4.522
REMARK INTER:                  -4.522
REMARK INTRA:                   0.000
REMARK UNBOUND:                 0.000
REMARK SMILES Oc1cc(O)c2c(c1)CCc1cc(O)c(O)cc1-2
REMARK SMILES IDX 10 1 9 2 7 3 6 4 18 5 17 6 15 7 13 8 12 9 11 10 4 11 3 12
REMARK SMILES IDX 2 13 8 14 14 15 5 17 1 19 16 21
REMARK H PARENT 14 16 5 18 1 20 16 22
REMARK Flexibility Score: inf
ROOT
ATOM      1  C   UNL     1     149.955 155.414 147.860  1.00  0.00     0.041 C 
ATOM      2  C   UNL     1     150.384 156.359 148.990  1.00  0.00     0.041 C 
ATOM      3  C   UNL     1     151.857 156.667 148.893  1.00  0.00    -0.032 A 
ATOM      4  C   UNL     1     152.763 155.669 148.456  1.00  0.00     0.027 A 
ATOM      5  C   UNL     1     152.214 154.313 148.131  1.00  0.00    -0.007 A 
ATOM      6  C   UNL     1     152.994 153.141 148.204  1.00  0.00     0.059 A 
ATOM      7  C   UNL     1     152.442 151.892 147.887  1.00  0.00     0.158 A 
ATOM      8  C   UNL     1     151.093 151.796 147.519  1.00  0.00     0.157 A 
ATOM      9  C   UNL     1     150.296 152.943 147.500  1.00  0.00     0.054 A 
ATOM     10  C   UNL     1     150.837 154.192 147.836  1.00  0.00    -0.036 A 
ATOM     11  C   UNL     1     154.124 156.018 148.276  1.00  0.00     0.127 A 
ATOM     12  C   UNL     1     154.575 157.292 148.653  1.00  0.00     0.093 A 
ATOM     13  C   UNL     1     153.684 158.242 149.158  1.00  0.00     0.119 A 
ATOM     14  C   UNL     1     152.329 157.932 149.269  1.00  0.00     0.050 A 
ENDROOT
BRANCH   8  15
ATOM     15  O   UNL     1     150.522 150.570 147.181  1.00  0.00    -0.504 OA
ATOM     16  H   UNL     1     149.597 150.302 147.499  1.00  0.00     0.293 HD
ENDBRANCH   8  15
BRANCH  11  17
ATOM     17  O   UNL     1     155.025 155.130 147.689  1.00  0.00    -0.507 OA
ATOM     18  H   UNL     1     155.907 155.443 147.300  1.00  0.00     0.293 HD
ENDBRANCH  11  17
BRANCH  13  19
ATOM     19  O   UNL     1     154.132 159.506 149.539  1.00  0.00    -0.508 OA
ATOM     20  H   UNL     1     154.913 159.621 150.176  1.00  0.00     0.293 HD
ENDBRANCH  13  19
BRANCH   7  21
ATOM     21  O   UNL     1     153.231 150.744 147.946  1.00  0.00    -0.504 OA
ATOM     22  H   UNL     1     153.592 150.390 148.825  1.00  0.00     0.293 HD
ENDBRANCH   7  21
TORSDOF 4
ENDMDL
MODEL 2
REMARK VINA RESULT:    -4.031     11.690     13.632
REMARK INTER + INTRA:          -4.503
REMARK INTER:                  -4.503
REMARK INTRA:                   0.000
REMARK UNBOUND:                 0.000
REMARK SMILES Oc1cc(O)c2c(c1)CCc1cc(O)c(O)cc1-2
REMARK SMILES IDX 10 1 9 2 7 3 6 4 18 5 17 6 15 7 13 8 12 9 11 10 4 11 3 12
REMARK SMILES IDX 2 13 8 14 14 15 5 17 1 19 16 21
REMARK H PARENT 14 16 5 18 1 20 16 22
REMARK Flexibility Score: inf
ROOT
ATOM      1  C   UNL     1     164.533 150.051 148.015  1.00  0.00     0.041 C 
ATOM      2  C   UNL     1     163.610 150.534 149.142  1.00  0.00     0.041 C 
ATOM      3  C   UNL     1     163.323 152.008 148.997  1.00  0.00    -0.032 A 
ATOM      4  C   UNL     1     164.328 152.882 148.515  1.00  0.00     0.027 A 
ATOM      5  C   UNL     1     165.671 152.301 148.191  1.00  0.00    -0.007 A 
ATOM      6  C   UNL     1     166.855 153.064 148.221  1.00  0.00     0.059 A 
ATOM      7  C   UNL     1     168.092 152.482 147.906  1.00  0.00     0.158 A 
ATOM      8  C   UNL     1     168.162 151.120 147.584  1.00  0.00     0.157 A 
ATOM      9  C   UNL     1     167.003 150.340 147.609  1.00  0.00     0.054 A 
ATOM     10  C   UNL     1     165.768 150.913 147.944  1.00  0.00    -0.036 A 
ATOM     11  C   UNL     1     163.997 154.241 148.291  1.00  0.00     0.127 A 
ATOM     12  C   UNL     1     162.736 154.725 148.670  1.00  0.00     0.093 A 
ATOM     13  C   UNL     1     161.779 153.867 149.219  1.00  0.00     0.119 A 
ATOM     14  C   UNL     1     162.071 152.512 149.374  1.00  0.00     0.050 A 
ENDROOT
BRANCH   8  15
ATOM     15  O   UNL     1     169.375 150.518 147.251  1.00  0.00    -0.504 OA
ATOM     16  H   UNL     1     169.725 150.506 146.300  1.00  0.00     0.293 HD
ENDBRANCH   8  15
BRANCH  11  17
ATOM     17  O   UNL     1     164.891 155.107 147.662  1.00  0.00    -0.507 OA
ATOM     18  H   UNL     1     165.795 154.791 147.328  1.00  0.00     0.293 HD
ENDBRANCH  11  17
BRANCH  13  19
ATOM     19  O   UNL     1     160.529 154.348 149.602  1.00  0.00    -0.508 OA
ATOM     20  H   UNL     1     159.816 154.575 148.917  1.00  0.00     0.293 HD
ENDBRANCH  13  19
BRANCH   7  21
ATOM     21  O   UNL     1     169.252 153.255 147.921  1.00  0.00    -0.504 OA
ATOM     22  H   UNL     1     169.640 153.617 148.786  1.00  0.00     0.293 HD
ENDBRANCH   7  21
TORSDOF 4
ENDMDL
MODEL 3
REMARK VINA RESULT:    -4.008     15.267     19.228
REMARK INTER + INTRA:          -4.476
REMARK INTER:                  -4.476
REMARK INTRA:                   0.000
REMARK UNBOUND:                 0.000
REMARK SMILES Oc1cc(O)c2c(c1)CCc1cc(O)c(O)cc1-2
REMARK SMILES IDX 10 1 9 2 7 3 6 4 18 5 17 6 15 7 13 8 12 9 11 10 4 11 3 12
REMARK SMILES IDX 2 13 8 14 14 15 5 17 1 19 16 21
REMARK H PARENT 14 16 5 18 1 20 16 22
REMARK Flexibility Score: inf
ROOT
ATOM      1  C   UNL     1     169.912 164.525 148.005  1.00  0.00     0.041 C 
ATOM      2  C   UNL     1     169.416 163.592 149.116  1.00  0.00     0.041 C 
ATOM      3  C   UNL     1     167.941 163.315 148.958  1.00  0.00    -0.032 A 
ATOM      4  C   UNL     1     167.077 164.331 148.481  1.00  0.00     0.027 A 
ATOM      5  C   UNL     1     167.668 165.674 148.178  1.00  0.00    -0.007 A 
ATOM      6  C   UNL     1     166.910 166.862 148.216  1.00  0.00     0.059 A 
ATOM      7  C   UNL     1     167.502 168.099 147.921  1.00  0.00     0.158 A 
ATOM      8  C   UNL     1     168.867 168.165 147.610  1.00  0.00     0.157 A 
ATOM      9  C   UNL     1     169.640 167.001 147.626  1.00  0.00     0.054 A 
ATOM     10  C   UNL     1     169.058 165.765 147.942  1.00  0.00    -0.036 A 
ATOM     11  C   UNL     1     165.717 164.010 148.244  1.00  0.00     0.127 A 
ATOM     12  C   UNL     1     165.224 162.747 148.603  1.00  0.00     0.093 A 
ATOM     13  C   UNL     1     166.072 161.779 149.147  1.00  0.00     0.119 A 
ATOM     14  C   UNL     1     167.428 162.061 149.316  1.00  0.00     0.050 A 
ENDROOT
BRANCH   8  15
ATOM     15  O   UNL     1     169.478 169.378 147.295  1.00  0.00    -0.504 OA
ATOM     16  H   UNL     1     169.106 170.266 147.611  1.00  0.00     0.293 HD
ENDBRANCH   8  15
BRANCH  11  17
ATOM     17  O   UNL     1     164.861 164.916 147.619  1.00  0.00    -0.507 OA
ATOM     18  H   UNL     1     164.930 165.915 147.781  1.00  0.00     0.293 HD
ENDBRANCH  11  17
BRANCH  13  19
ATOM     19  O   UNL     1     165.581 160.527 149.511  1.00  0.00    -0.508 OA
ATOM     20  H   UNL     1     165.827 159.690 148.993  1.00  0.00     0.293 HD
ENDBRANCH  13  19
BRANCH   7  21
ATOM     21  O   UNL     1     166.736 169.263 147.944  1.00  0.00    -0.504 OA
ATOM     22  H   UNL     1     166.243 169.593 147.122  1.00  0.00     0.293 HD
ENDBRANCH   7  21
TORSDOF 4
ENDMDL
MODEL 4
REMARK VINA RESULT:    -3.868     11.252     13.363
REMARK INTER + INTRA:          -4.320
REMARK INTER:                  -4.320
REMARK INTRA:                   0.000
REMARK UNBOUND:                 0.000
REMARK SMILES Oc1cc(O)c2c(c1)CCc1cc(O)c(O)cc1-2
REMARK SMILES IDX 10 1 9 2 7 3 6 4 18 5 17 6 15 7 13 8 12 9 11 10 4 11 3 12
REMARK SMILES IDX 2 13 8 14 14 15 5 17 1 19 16 21
REMARK H PARENT 14 16 5 18 1 20 16 22
REMARK Flexibility Score: inf
ROOT
ATOM      1  C   UNL     1     155.115 169.721 147.732  1.00  0.00     0.041 C 
ATOM      2  C   UNL     1     156.027 169.261 148.877  1.00  0.00     0.041 C 
ATOM      3  C   UNL     1     156.263 167.773 148.801  1.00  0.00    -0.032 A 
ATOM      4  C   UNL     1     155.227 166.912 148.365  1.00  0.00     0.027 A 
ATOM      5  C   UNL     1     153.902 167.522 148.019  1.00  0.00    -0.007 A 
ATOM      6  C   UNL     1     152.693 166.801 148.090  1.00  0.00     0.059 A 
ATOM      7  C   UNL     1     151.476 167.409 147.753  1.00  0.00     0.158 A 
ATOM      8  C   UNL     1     151.449 168.757 147.367  1.00  0.00     0.157 A 
ATOM      9  C   UNL     1     152.634 169.497 147.350  1.00  0.00     0.054 A 
ATOM     10  C   UNL     1     153.851 168.899 147.707  1.00  0.00    -0.036 A 
ATOM     11  C   UNL     1     155.511 165.533 148.205  1.00  0.00     0.127 A 
ATOM     12  C   UNL     1     156.757 165.025 148.601  1.00  0.00     0.093 A 
ATOM     13  C   UNL     1     157.745 165.875 149.105  1.00  0.00     0.119 A 
ATOM     14  C   UNL     1     157.500 167.245 149.197  1.00  0.00     0.050 A 
ENDROOT
BRANCH   8  15
ATOM     15  O   UNL     1     150.256 169.383 147.010  1.00  0.00    -0.504 OA
ATOM     16  H   UNL     1     149.654 169.823 147.695  1.00  0.00     0.293 HD
ENDBRANCH   8  15
BRANCH  11  17
ATOM     17  O   UNL     1     154.585 164.669 147.621  1.00  0.00    -0.507 OA
ATOM     18  H   UNL     1     154.815 164.112 146.805  1.00  0.00     0.293 HD
ENDBRANCH  11  17
BRANCH  13  19
ATOM     19  O   UNL     1     158.981 165.371 149.505  1.00  0.00    -0.508 OA
ATOM     20  H   UNL     1     159.796 165.426 148.903  1.00  0.00     0.293 HD
ENDBRANCH  13  19
BRANCH   7  21
ATOM     21  O   UNL     1     150.290 166.678 147.809  1.00  0.00    -0.504 OA
ATOM     22  H   UNL     1     149.908 166.350 148.689  1.00  0.00     0.293 HD
ENDBRANCH   7  21
TORSDOF 4
ENDMDL
MODEL 5
REMARK VINA RESULT:    -3.862     11.876     13.980
REMARK INTER + INTRA:          -4.313
REMARK INTER:                  -4.313
REMARK INTRA:                   0.000
REMARK UNBOUND:                 0.000
REMARK SMILES Oc1cc(O)c2c(c1)CCc1cc(O)c(O)cc1-2
REMARK SMILES IDX 10 1 9 2 7 3 6 4 18 5 17 6 15 7 13 8 12 9 11 10 4 11 3 12
REMARK SMILES IDX 2 13 8 14 14 15 5 17 1 19 16 21
REMARK H PARENT 14 16 5 18 1 20 16 22
REMARK Flexibility Score: inf
ROOT
ATOM      1  C   UNL     1     164.490 152.994 147.965  1.00  0.00     0.041 C 
ATOM      2  C   UNL     1     163.709 153.887 148.937  1.00  0.00     0.041 C 
ATOM      3  C   UNL     1     164.075 155.336 148.738  1.00  0.00    -0.032 A 
ATOM      4  C   UNL     1     165.404 155.692 148.401  1.00  0.00     0.027 A 
ATOM      5  C   UNL     1     166.419 154.596 148.285  1.00  0.00    -0.007 A 
ATOM      6  C   UNL     1     167.797 154.814 148.483  1.00  0.00     0.059 A 
ATOM      7  C   UNL     1     168.714 153.761 148.361  1.00  0.00     0.158 A 
ATOM      8  C   UNL     1     168.260 152.468 148.066  1.00  0.00     0.157 A 
ATOM      9  C   UNL     1     166.890 152.229 147.926  1.00  0.00     0.054 A 
ATOM     10  C   UNL     1     165.968 153.274 148.069  1.00  0.00    -0.036 A 
ATOM     11  C   UNL     1     165.693 157.050 148.118  1.00  0.00     0.127 A 
ATOM     12  C   UNL     1     164.704 158.028 148.300  1.00  0.00     0.093 A 
ATOM     13  C   UNL     1     163.417 157.672 148.710  1.00  0.00     0.119 A 
ATOM     14  C   UNL     1     163.103 156.329 148.920  1.00  0.00     0.050 A 
ENDROOT
BRANCH   8  15
ATOM     15  O   UNL     1     169.150 151.405 147.921  1.00  0.00    -0.504 OA
ATOM     16  H   UNL     1     170.098 151.539 147.589  1.00  0.00     0.293 HD
ENDBRANCH   8  15
BRANCH  11  17
ATOM     17  O   UNL     1     166.937 157.433 147.619  1.00  0.00    -0.507 OA
ATOM     18  H   UNL     1     167.201 158.408 147.534  1.00  0.00     0.293 HD
ENDBRANCH  11  17
BRANCH  13  19
ATOM     19  O   UNL     1     162.436 158.644 148.899  1.00  0.00    -0.508 OA
ATOM     20  H   UNL     1     162.477 159.295 149.676  1.00  0.00     0.293 HD
ENDBRANCH  13  19
BRANCH   7  21
ATOM     21  O   UNL     1     170.077 153.996 148.540  1.00  0.00    -0.504 OA
ATOM     22  H   UNL     1     170.499 154.887 148.302  1.00  0.00     0.293 HD
ENDBRANCH   7  21
TORSDOF 4
ENDMDL
MODEL 6
REMARK VINA RESULT:    -3.824     13.716     17.851
REMARK INTER + INTRA:          -4.272
REMARK INTER:                  -4.272
REMARK INTRA:                   0.000
REMARK UNBOUND:                 0.000
REMARK SMILES Oc1cc(O)c2c(c1)CCc1cc(O)c(O)cc1-2
REMARK SMILES IDX 10 1 9 2 7 3 6 4 18 5 17 6 15 7 13 8 12 9 11 10 4 11 3 12
REMARK SMILES IDX 2 13 8 14 14 15 5 17 1 19 16 21
REMARK H PARENT 14 16 5 18 1 20 16 22
REMARK Flexibility Score: inf
ROOT
ATOM      1  C   UNL     1     167.070 164.527 147.997  1.00  0.00     0.041 C 
ATOM      2  C   UNL     1     166.199 163.739 148.983  1.00  0.00     0.041 C 
ATOM      3  C   UNL     1     164.741 164.072 148.786  1.00  0.00    -0.032 A 
ATOM      4  C   UNL     1     164.355 165.389 148.434  1.00  0.00     0.027 A 
ATOM      5  C   UNL     1     165.429 166.426 148.302  1.00  0.00    -0.007 A 
ATOM      6  C   UNL     1     165.183 167.801 148.483  1.00  0.00     0.059 A 
ATOM      7  C   UNL     1     166.216 168.739 148.345  1.00  0.00     0.158 A 
ATOM      8  C   UNL     1     167.517 168.309 148.050  1.00  0.00     0.157 A 
ATOM      9  C   UNL     1     167.784 166.943 147.926  1.00  0.00     0.054 A 
ATOM     10  C   UNL     1     166.759 166.000 148.084  1.00  0.00    -0.036 A 
ATOM     11  C   UNL     1     162.990 165.646 148.154  1.00  0.00     0.127 A 
ATOM     12  C   UNL     1     162.034 164.639 148.353  1.00  0.00     0.093 A 
ATOM     13  C   UNL     1     162.419 163.365 148.777  1.00  0.00     0.119 A 
ATOM     14  C   UNL     1     163.769 163.082 148.984  1.00  0.00     0.050 A 
ENDROOT
BRANCH   8  15
ATOM     15  O   UNL     1     168.560 169.219 147.890  1.00  0.00    -0.504 OA
ATOM     16  H   UNL     1     168.539 169.941 147.179  1.00  0.00     0.293 HD
ENDBRANCH   8  15
BRANCH  11  17
ATOM     17  O   UNL     1     162.579 166.876 147.643  1.00  0.00    -0.507 OA
ATOM     18  H   UNL     1     162.176 166.961 146.716  1.00  0.00     0.293 HD
ENDBRANCH  11  17
BRANCH  13  19
ATOM     19  O   UNL     1     161.469 162.366 148.982  1.00  0.00    -0.508 OA
ATOM     20  H   UNL     1     161.720 161.472 149.390  1.00  0.00     0.293 HD
ENDBRANCH  13  19
BRANCH   7  21
ATOM     21  O   UNL     1     165.952 170.098 148.509  1.00  0.00    -0.504 OA
ATOM     22  H   UNL     1     165.889 170.522 149.428  1.00  0.00     0.293 HD
ENDBRANCH   7  21
TORSDOF 4
ENDMDL
MODEL 7
REMARK VINA RESULT:    -3.783      2.200      2.972
REMARK INTER + INTRA:          -4.225
REMARK INTER:                  -4.225
REMARK INTRA:                   0.000
REMARK UNBOUND:                 0.000
REMARK SMILES Oc1cc(O)c2c(c1)CCc1cc(O)c(O)cc1-2
REMARK SMILES IDX 10 1 9 2 7 3 6 4 18 5 17 6 15 7 13 8 12 9 11 10 4 11 3 12
REMARK SMILES IDX 2 13 8 14 14 15 5 17 1 19 16 21
REMARK H PARENT 14 16 5 18 1 20 16 22
REMARK Flexibility Score: inf
ROOT
ATOM      1  C   UNL     1     152.888 155.503 147.983  1.00  0.00     0.041 C 
ATOM      2  C   UNL     1     153.760 156.298 148.962  1.00  0.00     0.041 C 
ATOM      3  C   UNL     1     155.218 155.961 148.768  1.00  0.00    -0.032 A 
ATOM      4  C   UNL     1     155.601 154.640 148.429  1.00  0.00     0.027 A 
ATOM      5  C   UNL     1     154.525 153.605 148.305  1.00  0.00    -0.007 A 
ATOM      6  C   UNL     1     154.770 152.230 148.498  1.00  0.00     0.059 A 
ATOM      7  C   UNL     1     153.735 151.293 148.369  1.00  0.00     0.158 A 
ATOM      8  C   UNL     1     152.434 151.723 148.069  1.00  0.00     0.157 A 
ATOM      9  C   UNL     1     152.170 153.088 147.933  1.00  0.00     0.054 A 
ATOM     10  C   UNL     1     153.196 154.031 148.083  1.00  0.00    -0.036 A 
ATOM     11  C   UNL     1     156.966 154.378 148.151  1.00  0.00     0.127 A 
ATOM     12  C   UNL     1     157.923 155.385 148.342  1.00  0.00     0.093 A 
ATOM     13  C   UNL     1     157.540 156.664 148.754  1.00  0.00     0.119 A 
ATOM     14  C   UNL     1     156.191 156.952 148.958  1.00  0.00     0.050 A 
ENDROOT
BRANCH   8  15
ATOM     15  O   UNL     1     151.390 150.813 147.917  1.00  0.00    -0.504 OA
ATOM     16  H   UNL     1     150.961 150.632 147.016  1.00  0.00     0.293 HD
ENDBRANCH   8  15
BRANCH  11  17
ATOM     17  O   UNL     1     157.375 153.144 147.650  1.00  0.00    -0.507 OA
ATOM     18  H   UNL     1     157.153 152.275 148.124  1.00  0.00     0.293 HD
ENDBRANCH  11  17
BRANCH  13  19
ATOM     19  O   UNL     1     158.492 157.663 148.950  1.00  0.00    -0.508 OA
ATOM     20  H   UNL     1     158.624 158.099 149.857  1.00  0.00     0.293 HD
ENDBRANCH  13  19
BRANCH   7  21
ATOM     21  O   UNL     1     153.996 149.935 148.544  1.00  0.00    -0.504 OA
ATOM     22  H   UNL     1     153.530 149.392 149.263  1.00  0.00     0.293 HD
ENDBRANCH   7  21
TORSDOF 4
ENDMDL
MODEL 8
REMARK VINA RESULT:    -3.737      8.181      9.831
REMARK INTER + INTRA:          -4.174
REMARK INTER:                  -4.174
REMARK INTRA:                   0.000
REMARK UNBOUND:                 0.000
REMARK SMILES Oc1cc(O)c2c(c1)CCc1cc(O)c(O)cc1-2
REMARK SMILES IDX 10 1 9 2 7 3 6 4 18 5 17 6 15 7 13 8 12 9 11 10 4 11 3 12
REMARK SMILES IDX 2 13 8 14 14 15 5 17 1 19 16 21
REMARK H PARENT 14 16 5 18 1 20 16 22
REMARK Flexibility Score: inf
ROOT
ATOM      1  C   UNL     1     162.610 160.021 148.614  1.00  0.00     0.041 C 
ATOM      2  C   UNL     1     162.340 161.176 147.642  1.00  0.00     0.041 C 
ATOM      3  C   UNL     1     160.858 161.424 147.511  1.00  0.00    -0.032 A 
ATOM      4  C   UNL     1     159.951 160.336 147.549  1.00  0.00     0.027 A 
ATOM      5  C   UNL     1     160.514 158.954 147.688  1.00  0.00    -0.007 A 
ATOM      6  C   UNL     1     159.836 157.809 147.225  1.00  0.00     0.059 A 
ATOM      7  C   UNL     1     160.396 156.533 147.380  1.00  0.00     0.158 A 
ATOM      8  C   UNL     1     161.657 156.390 147.976  1.00  0.00     0.157 A 
ATOM      9  C   UNL     1     162.363 157.523 148.386  1.00  0.00     0.054 A 
ATOM     10  C   UNL     1     161.817 158.803 148.214  1.00  0.00    -0.036 A 
ATOM     11  C   UNL     1     158.561 160.609 147.528  1.00  0.00     0.127 A 
ATOM     12  C   UNL     1     158.109 161.924 147.341  1.00  0.00     0.093 A 
ATOM     13  C   UNL     1     159.017 162.980 147.225  1.00  0.00     0.119 A 
ATOM     14  C   UNL     1     160.387 162.730 147.318  1.00  0.00     0.050 A 
ENDROOT
BRANCH   8  15
ATOM     15  O   UNL     1     162.231 155.133 148.159  1.00  0.00    -0.504 OA
ATOM     16  H   UNL     1     162.428 154.760 149.080  1.00  0.00     0.293 HD
ENDBRANCH   8  15
BRANCH  11  17
ATOM     17  O   UNL     1     157.624 159.597 147.732  1.00  0.00    -0.507 OA
ATOM     18  H   UNL     1     157.890 158.618 147.745  1.00  0.00     0.293 HD
ENDBRANCH  11  17
BRANCH  13  19
ATOM     19  O   UNL     1     158.570 164.285 147.032  1.00  0.00    -0.508 OA
ATOM     20  H   UNL     1     157.632 164.568 147.294  1.00  0.00     0.293 HD
ENDBRANCH  13  19
BRANCH   7  21
ATOM     21  O   UNL     1     159.705 155.407 146.934  1.00  0.00    -0.504 OA
ATOM     22  H   UNL     1     160.153 154.697 146.366  1.00  0.00     0.293 HD
ENDBRANCH   7  21
TORSDOF 4
ENDMDL
MODEL 9
REMARK VINA RESULT:    -3.601      7.743     11.326
REMARK INTER + INTRA:          -4.023
REMARK INTER:                  -4.023
REMARK INTRA:                   0.000
REMARK UNBOUND:                 0.000
REMARK SMILES Oc1cc(O)c2c(c1)CCc1cc(O)c(O)cc1-2
REMARK SMILES IDX 10 1 9 2 7 3 6 4 18 5 17 6 15 7 13 8 12 9 11 10 4 11 3 12
REMARK SMILES IDX 2 13 8 14 14 15 5 17 1 19 16 21
REMARK H PARENT 14 16 5 18 1 20 16 22
REMARK Flexibility Score: inf
ROOT
ATOM      1  C   UNL     1     160.613 162.851 148.405  1.00  0.00     0.041 C 
ATOM      2  C   UNL     1     159.489 162.645 147.383  1.00  0.00     0.041 C 
ATOM      3  C   UNL     1     159.053 161.201 147.357  1.00  0.00    -0.032 A 
ATOM      4  C   UNL     1     160.006 160.169 147.541  1.00  0.00     0.027 A 
ATOM      5  C   UNL     1     161.441 160.561 147.726  1.00  0.00    -0.007 A 
ATOM      6  C   UNL     1     162.509 159.703 147.397  1.00  0.00     0.059 A 
ATOM      7  C   UNL     1     163.838 160.107 147.590  1.00  0.00     0.158 A 
ATOM      8  C   UNL     1     164.115 161.387 148.090  1.00  0.00     0.157 A 
ATOM      9  C   UNL     1     163.065 162.266 148.364  1.00  0.00     0.054 A 
ATOM     10  C   UNL     1     161.735 161.875 148.152  1.00  0.00    -0.036 A 
ATOM     11  C   UNL     1     159.552 158.829 147.615  1.00  0.00     0.127 A 
ATOM     12  C   UNL     1     158.201 158.535 147.377  1.00  0.00     0.093 A 
ATOM     13  C   UNL     1     157.284 159.557 147.118  1.00  0.00     0.119 A 
ATOM     14  C   UNL     1     157.709 160.886 147.116  1.00  0.00     0.050 A 
ENDROOT
BRANCH   8  15
ATOM     15  O   UNL     1     165.425 161.809 148.309  1.00  0.00    -0.504 OA
ATOM     16  H   UNL     1     165.759 162.074 149.229  1.00  0.00     0.293 HD
ENDBRANCH   8  15
BRANCH  11  17
ATOM     17  O   UNL     1     160.417 157.793 147.961  1.00  0.00    -0.507 OA
ATOM     18  H   UNL     1     160.332 156.867 147.557  1.00  0.00     0.293 HD
ENDBRANCH  11  17
BRANCH  13  19
ATOM     19  O   UNL     1     155.943 159.265 146.875  1.00  0.00    -0.508 OA
ATOM     20  H   UNL     1     155.270 159.198 147.631  1.00  0.00     0.293 HD
ENDBRANCH  13  19
BRANCH   7  21
ATOM     21  O   UNL     1     164.884 159.240 147.278  1.00  0.00    -0.504 OA
ATOM     22  H   UNL     1     164.897 158.280 147.605  1.00  0.00     0.293 HD
ENDBRANCH   7  21
TORSDOF 4
ENDMDL
