MODEL 1
REMARK VINA RESULT:    -5.924      0.000      0.000
REMARK INTER + INTRA:          -6.471
REMARK INTER:                  -6.443
REMARK INTRA:                  -0.028
REMARK UNBOUND:                -0.028
REMARK SMILES O=C([O-])c1ccc(O)cc1
REMARK SMILES IDX 4 1 5 2 10 3 6 4 9 5 7 6 2 7 1 8 3 9 8 10
REMARK H PARENT 8 11
REMARK Flexibility Score: inf
ROOT
ATOM      1  C   UNL     1      13.100 -12.079  28.633  1.00  0.00    -0.003 A 
ATOM      2  C   UNL     1      14.025 -12.219  29.684  1.00  0.00     0.014 A 
ATOM      3  C   UNL     1      13.086 -13.037  27.604  1.00  0.00     0.014 A 
ATOM      4  C   UNL     1      14.918 -13.295  29.702  1.00  0.00     0.047 A 
ATOM      5  C   UNL     1      13.980 -14.113  27.627  1.00  0.00     0.047 A 
ATOM      6  C   UNL     1      14.898 -14.244  28.676  1.00  0.00     0.115 A 
ENDROOT
BRANCH   1   7
ATOM      7  C   UNL     1      12.153 -10.942  28.608  1.00  0.00     0.071 C 
ATOM      8  O   UNL     1      10.918 -11.132  28.762  1.00  0.00    -0.545 OA
ATOM      9  O   UNL     1      12.615  -9.645  28.415  1.00  0.00    -0.545 OA
ENDBRANCH   1   7
BRANCH   6  10
ATOM     10  O   UNL     1      15.793 -15.310  28.708  1.00  0.00    -0.508 OA
ATOM     11  H   UNL     1      15.547 -16.219  28.334  1.00  0.00     0.293 HD
ENDBRANCH   6  10
TORSDOF 2
ENDMDL
MODEL 2
REMARK VINA RESULT:    -5.886      1.299      4.504
REMARK INTER + INTRA:          -6.431
REMARK INTER:                  -6.403
REMARK INTRA:                  -0.027
REMARK UNBOUND:                -0.028
REMARK SMILES O=C([O-])c1ccc(O)cc1
REMARK SMILES IDX 4 1 5 2 10 3 6 4 9 5 7 6 2 7 1 8 3 9 8 10
REMARK H PARENT 8 11
REMARK Flexibility Score: inf
ROOT
ATOM      1  C   UNL     1      13.572 -13.365  27.983  1.00  0.00    -0.003 A 
ATOM      2  C   UNL     1      12.428 -13.362  27.164  1.00  0.00     0.014 A 
ATOM      3  C   UNL     1      13.583 -12.567  29.142  1.00  0.00     0.014 A 
ATOM      4  C   UNL     1      11.320 -12.577  27.497  1.00  0.00     0.047 A 
ATOM      5  C   UNL     1      12.473 -11.784  29.472  1.00  0.00     0.047 A 
ATOM      6  C   UNL     1      11.339 -11.787  28.651  1.00  0.00     0.115 A 
ENDROOT
BRANCH   1   7
ATOM      7  C   UNL     1      14.747 -14.193  27.635  1.00  0.00     0.071 C 
ATOM      8  O   UNL     1      15.575 -13.802  26.770  1.00  0.00    -0.545 OA
ATOM      9  O   UNL     1      14.956 -15.418  28.260  1.00  0.00    -0.545 OA
ENDBRANCH   1   7
BRANCH   6  10
ATOM     10  O   UNL     1      10.228 -11.010  28.970  1.00  0.00    -0.508 OA
ATOM     11  H   UNL     1      10.189 -10.469  29.827  1.00  0.00     0.293 HD
ENDBRANCH   6  10
TORSDOF 2
ENDMDL
MODEL 3
REMARK VINA RESULT:    -5.813     11.215     12.379
REMARK INTER + INTRA:          -6.351
REMARK INTER:                  -6.323
REMARK INTRA:                  -0.028
REMARK UNBOUND:                -0.028
REMARK SMILES O=C([O-])c1ccc(O)cc1
REMARK SMILES IDX 4 1 5 2 10 3 6 4 9 5 7 6 2 7 1 8 3 9 8 10
REMARK H PARENT 8 11
REMARK Flexibility Score: inf
ROOT
ATOM      1  C   UNL     1      16.699  -0.642  26.118  1.00  0.00    -0.003 A 
ATOM      2  C   UNL     1      17.968  -0.569  25.514  1.00  0.00     0.014 A 
ATOM      3  C   UNL     1      16.453  -1.650  27.067  1.00  0.00     0.014 A 
ATOM      4  C   UNL     1      18.967  -1.487  25.852  1.00  0.00     0.047 A 
ATOM      5  C   UNL     1      17.455  -2.565  27.404  1.00  0.00     0.047 A 
ATOM      6  C   UNL     1      18.715  -2.486  26.796  1.00  0.00     0.115 A 
ENDROOT
BRANCH   1   7
ATOM      7  C   UNL     1      15.638   0.326  25.764  1.00  0.00     0.071 C 
ATOM      8  O   UNL     1      14.652  -0.030  25.065  1.00  0.00    -0.545 OA
ATOM      9  O   UNL     1      15.714   1.645  26.198  1.00  0.00    -0.545 OA
ENDBRANCH   1   7
BRANCH   6  10
ATOM     10  O   UNL     1      19.720  -3.393  27.123  1.00  0.00    -0.508 OA
ATOM     11  H   UNL     1      19.510  -4.362  27.336  1.00  0.00     0.293 HD
ENDBRANCH   6  10
TORSDOF 2
ENDMDL
MODEL 4
REMARK VINA RESULT:    -5.811     11.190     12.343
REMARK INTER + INTRA:          -6.349
REMARK INTER:                  -6.322
REMARK INTRA:                  -0.027
REMARK UNBOUND:                -0.028
REMARK SMILES O=C([O-])c1ccc(O)cc1
REMARK SMILES IDX 4 1 5 2 10 3 6 4 9 5 7 6 2 7 1 8 3 9 8 10
REMARK H PARENT 8 11
REMARK Flexibility Score: inf
ROOT
ATOM      1  C   UNL     1      16.681  -0.658  26.128  1.00  0.00    -0.003 A 
ATOM      2  C   UNL     1      16.439  -1.667  27.080  1.00  0.00     0.014 A 
ATOM      3  C   UNL     1      17.948  -0.584  25.522  1.00  0.00     0.014 A 
ATOM      4  C   UNL     1      17.443  -2.580  27.416  1.00  0.00     0.047 A 
ATOM      5  C   UNL     1      18.949  -1.501  25.860  1.00  0.00     0.047 A 
ATOM      6  C   UNL     1      18.699  -2.500  26.808  1.00  0.00     0.115 A 
ENDROOT
BRANCH   1   7
ATOM      7  C   UNL     1      15.623   0.311  25.769  1.00  0.00     0.071 C 
ATOM      8  O   UNL     1      14.645  -0.041  25.058  1.00  0.00    -0.545 OA
ATOM      9  O   UNL     1      15.693   1.627  26.213  1.00  0.00    -0.545 OA
ENDBRANCH   1   7
BRANCH   6  10
ATOM     10  O   UNL     1      19.689  -3.417  27.153  1.00  0.00    -0.508 OA
ATOM     11  H   UNL     1      19.667  -3.911  28.038  1.00  0.00     0.293 HD
ENDBRANCH   6  10
TORSDOF 2
ENDMDL
MODEL 5
REMARK VINA RESULT:    -5.593      1.841      4.301
REMARK INTER + INTRA:          -6.112
REMARK INTER:                  -6.076
REMARK INTRA:                  -0.036
REMARK UNBOUND:                -0.028
REMARK SMILES O=C([O-])c1ccc(O)cc1
REMARK SMILES IDX 4 1 5 2 10 3 6 4 9 5 7 6 2 7 1 8 3 9 8 10
REMARK H PARENT 8 11
REMARK Flexibility Score: inf
ROOT
ATOM      1  C   UNL     1      12.806 -12.290  28.362  1.00  0.00    -0.003 A 
ATOM      2  C   UNL     1      11.724 -11.421  28.135  1.00  0.00     0.014 A 
ATOM      3  C   UNL     1      13.693 -12.015  29.419  1.00  0.00     0.014 A 
ATOM      4  C   UNL     1      11.534 -10.299  28.948  1.00  0.00     0.047 A 
ATOM      5  C   UNL     1      13.498 -10.892  30.230  1.00  0.00     0.047 A 
ATOM      6  C   UNL     1      12.419 -10.032  29.996  1.00  0.00     0.115 A 
ENDROOT
BRANCH   1   7
ATOM      7  C   UNL     1      13.013 -13.478  27.504  1.00  0.00     0.071 C 
ATOM      8  O   UNL     1      13.991 -14.247  27.698  1.00  0.00    -0.545 OA
ATOM      9  O   UNL     1      12.127 -13.763  26.470  1.00  0.00    -0.545 OA
ENDBRANCH   1   7
BRANCH   6  10
ATOM     10  O   UNL     1      12.216  -8.911  30.798  1.00  0.00    -0.508 OA
ATOM     11  H   UNL     1      12.615  -8.010  30.559  1.00  0.00     0.293 HD
ENDBRANCH   6  10
TORSDOF 2
ENDMDL
MODEL 6
REMARK VINA RESULT:    -5.563     11.004     12.447
REMARK INTER + INTRA:          -6.078
REMARK INTER:                  -6.045
REMARK INTRA:                  -0.033
REMARK UNBOUND:                -0.028
REMARK SMILES O=C([O-])c1ccc(O)cc1
REMARK SMILES IDX 4 1 5 2 10 3 6 4 9 5 7 6 2 7 1 8 3 9 8 10
REMARK H PARENT 8 11
REMARK Flexibility Score: inf
ROOT
ATOM      1  C   UNL     1      17.401  -1.937  26.903  1.00  0.00    -0.003 A 
ATOM      2  C   UNL     1      16.038  -2.150  27.180  1.00  0.00     0.014 A 
ATOM      3  C   UNL     1      17.759  -0.967  25.949  1.00  0.00     0.014 A 
ATOM      4  C   UNL     1      15.056  -1.408  26.517  1.00  0.00     0.047 A 
ATOM      5  C   UNL     1      16.773  -0.226  25.289  1.00  0.00     0.047 A 
ATOM      6  C   UNL     1      15.420  -0.446  25.571  1.00  0.00     0.115 A 
ENDROOT
BRANCH   1   7
ATOM      7  C   UNL     1      18.445  -2.719  27.601  1.00  0.00     0.071 C 
ATOM      8  O   UNL     1      19.529  -3.001  27.025  1.00  0.00    -0.545 OA
ATOM      9  O   UNL     1      18.244  -3.154  28.907  1.00  0.00    -0.545 OA
ENDBRANCH   1   7
BRANCH   6  10
ATOM     10  O   UNL     1      14.430   0.285  24.919  1.00  0.00    -0.508 OA
ATOM     11  H   UNL     1      14.287   1.271  25.110  1.00  0.00     0.293 HD
ENDBRANCH   6  10
TORSDOF 2
ENDMDL
MODEL 7
REMARK VINA RESULT:    -5.437     11.187     13.289
REMARK INTER + INTRA:          -5.942
REMARK INTER:                  -5.911
REMARK INTRA:                  -0.031
REMARK UNBOUND:                -0.028
REMARK SMILES O=C([O-])c1ccc(O)cc1
REMARK SMILES IDX 4 1 5 2 10 3 6 4 9 5 7 6 2 7 1 8 3 9 8 10
REMARK H PARENT 8 11
REMARK Flexibility Score: inf
ROOT
ATOM      1  C   UNL     1      15.672  -0.976  26.981  1.00  0.00    -0.003 A 
ATOM      2  C   UNL     1      15.425  -0.562  25.659  1.00  0.00     0.014 A 
ATOM      3  C   UNL     1      15.813  -0.001  27.986  1.00  0.00     0.014 A 
ATOM      4  C   UNL     1      15.322   0.798  25.350  1.00  0.00     0.047 A 
ATOM      5  C   UNL     1      15.708   1.358  27.672  1.00  0.00     0.047 A 
ATOM      6  C   UNL     1      15.463   1.760  26.354  1.00  0.00     0.115 A 
ENDROOT
BRANCH   1   7
ATOM      7  C   UNL     1      15.782  -2.413  27.313  1.00  0.00     0.071 C 
ATOM      8  O   UNL     1      14.975  -3.248  26.826  1.00  0.00    -0.545 OA
ATOM      9  O   UNL     1      16.781  -2.864  28.170  1.00  0.00    -0.545 OA
ENDBRANCH   1   7
BRANCH   6  10
ATOM     10  O   UNL     1      15.358   3.111  26.031  1.00  0.00    -0.508 OA
ATOM     11  H   UNL     1      16.158   3.640  25.701  1.00  0.00     0.293 HD
ENDBRANCH   6  10
TORSDOF 2
ENDMDL
MODEL 8
REMARK VINA RESULT:    -5.406     10.494     11.576
REMARK INTER + INTRA:          -5.908
REMARK INTER:                  -5.874
REMARK INTRA:                  -0.034
REMARK UNBOUND:                -0.028
REMARK SMILES O=C([O-])c1ccc(O)cc1
REMARK SMILES IDX 4 1 5 2 10 3 6 4 9 5 7 6 2 7 1 8 3 9 8 10
REMARK H PARENT 8 11
REMARK Flexibility Score: inf
ROOT
ATOM      1  C   UNL     1      16.624  -1.439  26.903  1.00  0.00    -0.003 A 
ATOM      2  C   UNL     1      15.758  -1.371  28.010  1.00  0.00     0.014 A 
ATOM      3  C   UNL     1      17.768  -2.255  26.981  1.00  0.00     0.014 A 
ATOM      4  C   UNL     1      16.032  -2.103  29.170  1.00  0.00     0.047 A 
ATOM      5  C   UNL     1      18.037  -2.986  28.143  1.00  0.00     0.047 A 
ATOM      6  C   UNL     1      17.170  -2.911  29.239  1.00  0.00     0.115 A 
ENDROOT
BRANCH   1   7
ATOM      7  C   UNL     1      16.340  -0.666  25.674  1.00  0.00     0.071 C 
ATOM      8  O   UNL     1      17.273  -0.332  24.897  1.00  0.00    -0.545 OA
ATOM      9  O   UNL     1      15.037  -0.298  25.359  1.00  0.00    -0.545 OA
ENDBRANCH   1   7
BRANCH   6  10
ATOM     10  O   UNL     1      17.429  -3.635  30.401  1.00  0.00    -0.508 OA
ATOM     11  H   UNL     1      17.173  -4.613  30.484  1.00  0.00     0.293 HD
ENDBRANCH   6  10
TORSDOF 2
ENDMDL
MODEL 9
REMARK VINA RESULT:    -5.404     10.925     12.889
REMARK INTER + INTRA:          -5.906
REMARK INTER:                  -5.876
REMARK INTRA:                  -0.030
REMARK UNBOUND:                -0.028
REMARK SMILES O=C([O-])c1ccc(O)cc1
REMARK SMILES IDX 4 1 5 2 10 3 6 4 9 5 7 6 2 7 1 8 3 9 8 10
REMARK H PARENT 8 11
REMARK Flexibility Score: inf
ROOT
ATOM      1  C   UNL     1      17.168  -1.557  27.009  1.00  0.00    -0.003 A 
ATOM      2  C   UNL     1      17.294  -0.630  25.957  1.00  0.00     0.014 A 
ATOM      3  C   UNL     1      16.168  -1.357  27.977  1.00  0.00     0.014 A 
ATOM      4  C   UNL     1      16.438   0.472  25.878  1.00  0.00     0.047 A 
ATOM      5  C   UNL     1      15.313  -0.254  27.894  1.00  0.00     0.047 A 
ATOM      6  C   UNL     1      15.446   0.664  26.844  1.00  0.00     0.115 A 
ENDROOT
BRANCH   1   7
ATOM      7  C   UNL     1      18.072  -2.725  27.098  1.00  0.00     0.071 C 
ATOM      8  O   UNL     1      17.606  -3.894  27.154  1.00  0.00    -0.545 OA
ATOM      9  O   UNL     1      19.451  -2.548  27.120  1.00  0.00    -0.545 OA
ENDBRANCH   1   7
BRANCH   6  10
ATOM     10  O   UNL     1      14.600   1.766  26.752  1.00  0.00    -0.508 OA
ATOM     11  H   UNL     1      14.960   2.695  26.561  1.00  0.00     0.293 HD
ENDBRANCH   6  10
TORSDOF 2
ENDMDL
