MODEL 1
REMARK VINA RESULT:    -3.697      0.000      0.000
REMARK INTER + INTRA:          -5.247
REMARK INTER:                  -4.994
REMARK INTRA:                  -0.253
REMARK UNBOUND:                -0.253
REMARK SMILES CCCCCCCC(=O)[O-]
REMARK SMILES IDX 5 1 6 2 7 3 8 4 9 5 10 6 4 7 3 8 2 9 1 10
REMARK H PARENT
REMARK Flexibility Score: inf
ROOT
ATOM      1  C   UNL     1       3.157   4.693   3.832  1.00  0.00     0.000 C 
ENDROOT
BRANCH   1   2
ATOM      2  C   UNL     1       3.890   4.526   5.172  1.00  0.00     0.006 C 
BRANCH   2   3
ATOM      3  C   UNL     1       5.352   4.095   4.996  1.00  0.00     0.053 C 
BRANCH   3   4
ATOM      4  C   UNL     1       5.882   3.515   6.270  1.00  0.00     0.041 C 
ATOM      5  O   UNL     1       6.092   4.258   7.264  1.00  0.00    -0.550 OA
ATOM      6  O   UNL     1       6.191   2.163   6.342  1.00  0.00    -0.550 OA
ENDBRANCH   3   4
ENDBRANCH   2   3
ENDBRANCH   1   2
BRANCH   1   7
ATOM      7  C   UNL     1       3.027   6.163   3.408  1.00  0.00     0.000 C 
BRANCH   7   8
ATOM      8  C   UNL     1       1.554   6.570   3.282  1.00  0.00    -0.000 C 
BRANCH   8   9
ATOM      9  C   UNL     1       1.263   7.842   4.087  1.00  0.00    -0.003 C 
ATOM     10  C   UNL     1       1.023   7.520   5.560  1.00  0.00     0.004 C 
ENDBRANCH   8   9
ENDBRANCH   7   8
ENDBRANCH   1   7
TORSDOF 6
ENDMDL
MODEL 2
REMARK VINA RESULT:    -3.655     12.423     13.522
REMARK INTER + INTRA:          -5.190
REMARK INTER:                  -4.915
REMARK INTRA:                  -0.275
REMARK UNBOUND:                -0.253
REMARK SMILES CCCCCCCC(=O)[O-]
REMARK SMILES IDX 5 1 6 2 7 3 8 4 9 5 10 6 4 7 3 8 2 9 1 10
REMARK H PARENT
REMARK Flexibility Score: inf
ROOT
ATOM      1  C   UNL     1      -3.296  -4.374   3.710  1.00  0.00     0.000 C 
ENDROOT
BRANCH   1   2
ATOM      2  C   UNL     1      -4.063  -4.405   5.042  1.00  0.00     0.006 C 
BRANCH   2   3
ATOM      3  C   UNL     1      -5.452  -3.763   4.939  1.00  0.00     0.053 C 
BRANCH   3   4
ATOM      4  C   UNL     1      -5.898  -3.266   6.278  1.00  0.00     0.041 C 
ATOM      5  O   UNL     1      -6.085  -2.036   6.467  1.00  0.00    -0.550 OA
ATOM      6  O   UNL     1      -6.060  -4.157   7.331  1.00  0.00    -0.550 OA
ENDBRANCH   3   4
ENDBRANCH   2   3
ENDBRANCH   1   2
BRANCH   1   7
ATOM      7  C   UNL     1      -3.096  -5.773   3.110  1.00  0.00     0.000 C 
BRANCH   7   8
ATOM      8  C   UNL     1      -1.640  -6.231   3.259  1.00  0.00    -0.000 C 
BRANCH   8   9
ATOM      9  C   UNL     1      -1.548  -7.508   4.102  1.00  0.00    -0.003 C 
ATOM     10  C   UNL     1      -1.162  -7.189   5.544  1.00  0.00     0.004 C 
ENDBRANCH   8   9
ENDBRANCH   7   8
ENDBRANCH   1   7
TORSDOF 6
ENDMDL
MODEL 3
REMARK VINA RESULT:    -3.648     14.189     15.355
REMARK INTER + INTRA:          -5.180
REMARK INTER:                  -4.935
REMARK INTRA:                  -0.245
REMARK UNBOUND:                -0.253
REMARK SMILES CCCCCCCC(=O)[O-]
REMARK SMILES IDX 5 1 6 2 7 3 8 4 9 5 10 6 4 7 3 8 2 9 1 10
REMARK H PARENT
REMARK Flexibility Score: inf
ROOT
ATOM      1  C   UNL     1      -2.108  -5.497  -1.605  1.00  0.00     0.000 C 
ENDROOT
BRANCH   1   2
ATOM      2  C   UNL     1      -3.085  -6.294  -2.484  1.00  0.00     0.006 C 
BRANCH   2   3
ATOM      3  C   UNL     1      -4.492  -6.375  -1.878  1.00  0.00     0.053 C 
BRANCH   3   4
ATOM      4  C   UNL     1      -5.526  -6.392  -2.960  1.00  0.00     0.041 C 
ATOM      5  O   UNL     1      -6.557  -7.104  -2.840  1.00  0.00    -0.550 OA
ATOM      6  O   UNL     1      -5.326  -5.659  -4.123  1.00  0.00    -0.550 OA
ENDBRANCH   3   4
ENDBRANCH   2   3
ENDBRANCH   1   2
BRANCH   1   7
ATOM      7  C   UNL     1      -2.805  -4.799  -0.428  1.00  0.00     0.000 C 
BRANCH   7   8
ATOM      8  C   UNL     1      -2.075  -5.084   0.890  1.00  0.00    -0.000 C 
BRANCH   8   9
ATOM      9  C   UNL     1      -2.998  -4.850   2.092  1.00  0.00    -0.003 C 
ATOM     10  C   UNL     1      -2.888  -5.990   3.100  1.00  0.00     0.004 C 
ENDBRANCH   8   9
ENDBRANCH   7   8
ENDBRANCH   1   7
TORSDOF 6
ENDMDL
MODEL 4
REMARK VINA RESULT:    -3.617      7.293      8.072
REMARK INTER + INTRA:          -5.139
REMARK INTER:                  -4.894
REMARK INTRA:                  -0.244
REMARK UNBOUND:                -0.253
REMARK SMILES CCCCCCCC(=O)[O-]
REMARK SMILES IDX 5 1 6 2 7 3 8 4 9 5 10 6 4 7 3 8 2 9 1 10
REMARK H PARENT
REMARK Flexibility Score: inf
ROOT
ATOM      1  C   UNL     1       4.670   6.486  -1.766  1.00  0.00     0.000 C 
ENDROOT
BRANCH   1   2
ATOM      2  C   UNL     1       5.958   6.566  -2.600  1.00  0.00     0.006 C 
BRANCH   2   3
ATOM      3  C   UNL     1       6.883   5.363  -2.374  1.00  0.00     0.053 C 
BRANCH   3   4
ATOM      4  C   UNL     1       7.882   5.256  -3.483  1.00  0.00     0.041 C 
ATOM      5  O   UNL     1       8.928   4.572  -3.330  1.00  0.00    -0.550 OA
ATOM      6  O   UNL     1       7.681   5.952  -4.668  1.00  0.00    -0.550 OA
ENDBRANCH   3   4
ENDBRANCH   2   3
ENDBRANCH   1   2
BRANCH   1   7
ATOM      7  C   UNL     1       3.402   6.556  -2.629  1.00  0.00     0.000 C 
BRANCH   7   8
ATOM      8  C   UNL     1       2.234   5.833  -1.946  1.00  0.00    -0.000 C 
BRANCH   8   9
ATOM      9  C   UNL     1       2.661   5.253  -0.593  1.00  0.00    -0.003 C 
ATOM     10  C   UNL     1       1.517   5.305   0.415  1.00  0.00     0.004 C 
ENDBRANCH   8   9
ENDBRANCH   7   8
ENDBRANCH   1   7
TORSDOF 6
ENDMDL
MODEL 5
REMARK VINA RESULT:    -3.614     15.425     16.605
REMARK INTER + INTRA:          -5.134
REMARK INTER:                  -4.807
REMARK INTRA:                  -0.328
REMARK UNBOUND:                -0.253
REMARK SMILES CCCCCCCC(=O)[O-]
REMARK SMILES IDX 5 1 6 2 7 3 8 4 9 5 10 6 4 7 3 8 2 9 1 10
REMARK H PARENT
REMARK Flexibility Score: inf
ROOT
ATOM      1  C   UNL     1      -4.658  -6.687  -1.810  1.00  0.00     0.000 C 
ENDROOT
BRANCH   1   2
ATOM      2  C   UNL     1      -5.830  -6.598  -2.800  1.00  0.00     0.006 C 
BRANCH   2   3
ATOM      3  C   UNL     1      -6.555  -5.247  -2.736  1.00  0.00     0.053 C 
BRANCH   3   4
ATOM      4  C   UNL     1      -7.789  -5.277  -3.581  1.00  0.00     0.041 C 
ATOM      5  O   UNL     1      -7.778  -5.858  -4.698  1.00  0.00    -0.550 OA
ATOM      6  O   UNL     1      -8.938  -4.621  -3.157  1.00  0.00    -0.550 OA
ENDBRANCH   3   4
ENDBRANCH   2   3
ENDBRANCH   1   2
BRANCH   1   7
ATOM      7  C   UNL     1      -3.342  -6.160  -2.401  1.00  0.00     0.000 C 
BRANCH   7   8
ATOM      8  C   UNL     1      -2.534  -5.396  -1.345  1.00  0.00    -0.000 C 
BRANCH   8   9
ATOM      9  C   UNL     1      -3.452  -4.815  -0.263  1.00  0.00    -0.003 C 
ATOM     10  C   UNL     1      -2.845  -4.989   1.126  1.00  0.00     0.004 C 
ENDBRANCH   8   9
ENDBRANCH   7   8
ENDBRANCH   1   7
TORSDOF 6
ENDMDL
MODEL 6
REMARK VINA RESULT:    -3.612      8.081      8.910
REMARK INTER + INTRA:          -5.131
REMARK INTER:                  -4.786
REMARK INTRA:                  -0.345
REMARK UNBOUND:                -0.253
REMARK SMILES CCCCCCCC(=O)[O-]
REMARK SMILES IDX 5 1 6 2 7 3 8 4 9 5 10 6 4 7 3 8 2 9 1 10
REMARK H PARENT
REMARK Flexibility Score: inf
ROOT
ATOM      1  C   UNL     1       5.813   6.631  -2.452  1.00  0.00     0.000 C 
ENDROOT
BRANCH   1   2
ATOM      2  C   UNL     1       6.669   5.355  -2.414  1.00  0.00     0.006 C 
BRANCH   2   3
ATOM      3  C   UNL     1       6.344   4.392  -3.564  1.00  0.00     0.053 C 
BRANCH   3   4
ATOM      4  C   UNL     1       6.594   5.052  -4.883  1.00  0.00     0.041 C 
ATOM      5  O   UNL     1       5.695   5.067  -5.764  1.00  0.00    -0.550 OA
ATOM      6  O   UNL     1       7.838   5.608  -5.158  1.00  0.00    -0.550 OA
ENDBRANCH   3   4
ENDBRANCH   2   3
ENDBRANCH   1   2
BRANCH   1   7
ATOM      7  C   UNL     1       4.518   6.499  -1.637  1.00  0.00     0.000 C 
BRANCH   7   8
ATOM      8  C   UNL     1       3.287   6.729  -2.521  1.00  0.00    -0.000 C 
BRANCH   8   9
ATOM      9  C   UNL     1       2.266   5.599  -2.348  1.00  0.00    -0.003 C 
ATOM     10  C   UNL     1       1.918   5.390  -0.877  1.00  0.00     0.004 C 
ENDBRANCH   8   9
ENDBRANCH   7   8
ENDBRANCH   1   7
TORSDOF 6
ENDMDL
MODEL 7
REMARK VINA RESULT:    -3.538      7.504      8.407
REMARK INTER + INTRA:          -5.032
REMARK INTER:                  -4.577
REMARK INTRA:                  -0.455
REMARK UNBOUND:                -0.253
REMARK SMILES CCCCCCCC(=O)[O-]
REMARK SMILES IDX 5 1 6 2 7 3 8 4 9 5 10 6 4 7 3 8 2 9 1 10
REMARK H PARENT
REMARK Flexibility Score: inf
ROOT
ATOM      1  C   UNL     1       4.401   6.545  -1.726  1.00  0.00     0.000 C 
ENDROOT
BRANCH   1   2
ATOM      2  C   UNL     1       5.647   6.619  -2.623  1.00  0.00     0.006 C 
BRANCH   2   3
ATOM      3  C   UNL     1       6.198   5.234  -2.984  1.00  0.00     0.053 C 
BRANCH   3   4
ATOM      4  C   UNL     1       5.664   4.789  -4.309  1.00  0.00     0.041 C 
ATOM      5  O   UNL     1       6.011   5.384  -5.363  1.00  0.00    -0.550 OA
ATOM      6  O   UNL     1       4.745   3.749  -4.375  1.00  0.00    -0.550 OA
ENDBRANCH   3   4
ENDBRANCH   2   3
ENDBRANCH   1   2
BRANCH   1   7
ATOM      7  C   UNL     1       3.096   6.750  -2.510  1.00  0.00     0.000 C 
BRANCH   7   8
ATOM      8  C   UNL     1       2.177   5.530  -2.373  1.00  0.00    -0.000 C 
BRANCH   8   9
ATOM      9  C   UNL     1       2.450   4.780  -1.064  1.00  0.00    -0.003 C 
ATOM     10  C   UNL     1       1.387   5.098  -0.016  1.00  0.00     0.004 C 
ENDBRANCH   8   9
ENDBRANCH   7   8
ENDBRANCH   1   7
TORSDOF 6
ENDMDL
MODEL 8
REMARK VINA RESULT:    -3.527      6.165      7.131
REMARK INTER + INTRA:          -5.016
REMARK INTER:                  -4.738
REMARK INTRA:                  -0.278
REMARK UNBOUND:                -0.253
REMARK SMILES CCCCCCCC(=O)[O-]
REMARK SMILES IDX 5 1 6 2 7 3 8 4 9 5 10 6 4 7 3 8 2 9 1 10
REMARK H PARENT
REMARK Flexibility Score: inf
ROOT
ATOM      1  C   UNL     1       2.383   5.471  -1.189  1.00  0.00     0.000 C 
ENDROOT
BRANCH   1   2
ATOM      2  C   UNL     1       2.996   6.407  -2.243  1.00  0.00     0.006 C 
BRANCH   2   3
ATOM      3  C   UNL     1       4.435   6.815  -1.904  1.00  0.00     0.053 C 
BRANCH   3   4
ATOM      4  C   UNL     1       5.378   6.327  -2.959  1.00  0.00     0.041 C 
ATOM      5  O   UNL     1       6.524   6.836  -3.068  1.00  0.00    -0.550 OA
ATOM      6  O   UNL     1       4.972   5.344  -3.852  1.00  0.00    -0.550 OA
ENDBRANCH   3   4
ENDBRANCH   2   3
ENDBRANCH   1   2
BRANCH   1   7
ATOM      7  C   UNL     1       3.350   5.165  -0.036  1.00  0.00     0.000 C 
BRANCH   7   8
ATOM      8  C   UNL     1       2.615   4.503   1.136  1.00  0.00    -0.000 C 
BRANCH   8   9
ATOM      9  C   UNL     1       1.963   5.553   2.042  1.00  0.00    -0.003 C 
ATOM     10  C   UNL     1       2.904   5.967   3.170  1.00  0.00     0.004 C 
ENDBRANCH   8   9
ENDBRANCH   7   8
ENDBRANCH   1   7
TORSDOF 6
ENDMDL
MODEL 9
REMARK VINA RESULT:    -3.449     15.534     16.793
REMARK INTER + INTRA:          -4.912
REMARK INTER:                  -4.551
REMARK INTRA:                  -0.361
REMARK UNBOUND:                -0.253
REMARK SMILES CCCCCCCC(=O)[O-]
REMARK SMILES IDX 5 1 6 2 7 3 8 4 9 5 10 6 4 7 3 8 2 9 1 10
REMARK H PARENT
REMARK Flexibility Score: inf
ROOT
ATOM      1  C   UNL     1      -5.092  -5.065  -1.662  1.00  0.00     0.000 C 
ENDROOT
BRANCH   1   2
ATOM      2  C   UNL     1      -6.533  -4.731  -2.078  1.00  0.00     0.006 C 
BRANCH   2   3
ATOM      3  C   UNL     1      -7.098  -5.725  -3.102  1.00  0.00     0.053 C 
BRANCH   3   4
ATOM      4  C   UNL     1      -7.323  -5.048  -4.417  1.00  0.00     0.041 C 
ATOM      5  O   UNL     1      -7.898  -5.660  -5.354  1.00  0.00    -0.550 OA
ATOM      6  O   UNL     1      -6.852  -3.757  -4.623  1.00  0.00    -0.550 OA
ENDBRANCH   3   4
ENDBRANCH   2   3
ENDBRANCH   1   2
BRANCH   1   7
ATOM      7  C   UNL     1      -4.675  -6.488  -2.063  1.00  0.00     0.000 C 
BRANCH   7   8
ATOM      8  C   UNL     1      -3.202  -6.529  -2.487  1.00  0.00    -0.000 C 
BRANCH   8   9
ATOM      9  C   UNL     1      -2.658  -5.115  -2.722  1.00  0.00    -0.003 C 
ATOM     10  C   UNL     1      -1.375  -4.880  -1.929  1.00  0.00     0.004 C 
ENDBRANCH   8   9
ENDBRANCH   7   8
ENDBRANCH   1   7
TORSDOF 6
ENDMDL
