MODEL 1
REMARK VINA RESULT:    -4.223      0.000      0.000
REMARK INTER + INTRA:          -7.093
REMARK INTER:                  -6.445
REMARK INTRA:                  -0.648
REMARK UNBOUND:                -0.648
REMARK SMILES O=C([O-])CCCCCCCCC(=O)[O-]
REMARK SMILES IDX 7 1 6 2 5 3 4 4 2 5 1 6 3 7 8 8 9 9 10 10 11 11 12 12 13 13
REMARK SMILES IDX 14 14
REMARK H PARENT
REMARK Flexibility Score: inf
ROOT
ATOM      1  C   UNL     1      38.425  22.218   4.286  1.00  0.00     0.000 C 
ENDROOT
BRANCH   1   2
ATOM      2  C   UNL     1      38.115  22.909   2.949  1.00  0.00     0.000 C 
BRANCH   2   3
ATOM      3  C   UNL     1      36.976  22.222   2.176  1.00  0.00     0.006 C 
BRANCH   3   4
ATOM      4  C   UNL     1      36.431  20.994   2.916  1.00  0.00     0.053 C 
BRANCH   4   5
ATOM      5  C   UNL     1      35.130  20.531   2.337  1.00  0.00     0.041 C 
ATOM      6  O   UNL     1      34.969  19.322   2.022  1.00  0.00    -0.550 OA
ATOM      7  O   UNL     1      34.105  21.442   2.114  1.00  0.00    -0.550 OA
ENDBRANCH   4   5
ENDBRANCH   3   4
ENDBRANCH   2   3
ENDBRANCH   1   2
BRANCH   1   8
ATOM      8  C   UNL     1      39.909  21.848   4.431  1.00  0.00     0.000 C 
BRANCH   8   9
ATOM      9  C   UNL     1      40.098  20.736   5.475  1.00  0.00     0.000 C 
BRANCH   9  10
ATOM     10  C   UNL     1      38.875  19.811   5.582  1.00  0.00     0.006 C 
BRANCH  10  11
ATOM     11  C   UNL     1      38.687  19.240   6.994  1.00  0.00     0.053 C 
BRANCH  11  12
ATOM     12  C   UNL     1      37.539  19.911   7.679  1.00  0.00     0.041 C 
ATOM     13  O   UNL     1      36.696  19.228   8.320  1.00  0.00    -0.550 OA
ATOM     14  O   UNL     1      37.425  21.295   7.652  1.00  0.00    -0.550 OA
ENDBRANCH  11  12
ENDBRANCH  10  11
ENDBRANCH   9  10
ENDBRANCH   8   9
ENDBRANCH   1   8
TORSDOF 9
ENDMDL
MODEL 2
REMARK VINA RESULT:    -4.149      0.929      5.014
REMARK INTER + INTRA:          -6.981
REMARK INTER:                  -6.259
REMARK INTRA:                  -0.722
REMARK UNBOUND:                -0.648
REMARK SMILES O=C([O-])CCCCCCCCC(=O)[O-]
REMARK SMILES IDX 7 1 6 2 5 3 4 4 2 5 1 6 3 7 8 8 9 9 10 10 11 11 12 12 13 13
REMARK SMILES IDX 14 14
REMARK H PARENT
REMARK Flexibility Score: inf
ROOT
ATOM      1  C   UNL     1      39.527  21.171   3.523  1.00  0.00     0.000 C 
ENDROOT
BRANCH   1   2
ATOM      2  C   UNL     1      39.291  19.910   4.368  1.00  0.00     0.000 C 
BRANCH   2   3
ATOM      3  C   UNL     1      39.581  20.134   5.863  1.00  0.00     0.006 C 
BRANCH   3   4
ATOM      4  C   UNL     1      38.734  19.222   6.760  1.00  0.00     0.053 C 
BRANCH   4   5
ATOM      5  C   UNL     1      37.682  19.993   7.496  1.00  0.00     0.041 C 
ATOM      6  O   UNL     1      37.646  21.250   7.420  1.00  0.00    -0.550 OA
ATOM      7  O   UNL     1      36.761  19.326   8.294  1.00  0.00    -0.550 OA
ENDBRANCH   4   5
ENDBRANCH   3   4
ENDBRANCH   2   3
ENDBRANCH   1   2
BRANCH   1   8
ATOM      8  C   UNL     1      38.701  22.372   4.007  1.00  0.00     0.000 C 
BRANCH   8   9
ATOM      9  C   UNL     1      37.904  22.993   2.849  1.00  0.00     0.000 C 
BRANCH   9  10
ATOM     10  C   UNL     1      37.320  21.936   1.898  1.00  0.00     0.006 C 
BRANCH  10  11
ATOM     11  C   UNL     1      35.813  21.728   2.099  1.00  0.00     0.053 C 
BRANCH  11  12
ATOM     12  C   UNL     1      35.549  20.391   2.716  1.00  0.00     0.041 C 
ATOM     13  O   UNL     1      35.003  19.479   2.040  1.00  0.00    -0.550 OA
ATOM     14  O   UNL     1      35.949  20.136   4.021  1.00  0.00    -0.550 OA
ENDBRANCH  11  12
ENDBRANCH  10  11
ENDBRANCH   9  10
ENDBRANCH   8   9
ENDBRANCH   1   8
TORSDOF 9
ENDMDL
MODEL 3
REMARK VINA RESULT:    -4.103      1.650      2.151
REMARK INTER + INTRA:          -6.909
REMARK INTER:                  -6.204
REMARK INTRA:                  -0.705
REMARK UNBOUND:                -0.648
REMARK SMILES O=C([O-])CCCCCCCCC(=O)[O-]
REMARK SMILES IDX 7 1 6 2 5 3 4 4 2 5 1 6 3 7 8 8 9 9 10 10 11 11 12 12 13 13
REMARK SMILES IDX 14 14
REMARK H PARENT
REMARK Flexibility Score: inf
ROOT
ATOM      1  C   UNL     1      38.140  21.869   3.991  1.00  0.00     0.000 C 
ENDROOT
BRANCH   1   2
ATOM      2  C   UNL     1      38.273  22.231   2.504  1.00  0.00     0.000 C 
BRANCH   2   3
ATOM      3  C   UNL     1      36.928  22.613   1.862  1.00  0.00     0.006 C 
BRANCH   3   4
ATOM      4  C   UNL     1      36.307  21.447   1.082  1.00  0.00     0.053 C 
BRANCH   4   5
ATOM      5  C   UNL     1      35.127  20.868   1.800  1.00  0.00     0.041 C 
ATOM      6  O   UNL     1      34.108  21.575   2.022  1.00  0.00    -0.550 OA
ATOM      7  O   UNL     1      35.164  19.555   2.254  1.00  0.00    -0.550 OA
ENDBRANCH   4   5
ENDBRANCH   3   4
ENDBRANCH   2   3
ENDBRANCH   1   2
BRANCH   1   8
ATOM      8  C   UNL     1      38.119  20.352   4.231  1.00  0.00     0.000 C 
BRANCH   8   9
ATOM      9  C   UNL     1      37.039  19.972   5.256  1.00  0.00     0.000 C 
BRANCH   9  10
ATOM     10  C   UNL     1      37.550  20.035   6.704  1.00  0.00     0.006 C 
BRANCH  10  11
ATOM     11  C   UNL     1      38.881  19.295   6.894  1.00  0.00     0.053 C 
BRANCH  11  12
ATOM     12  C   UNL     1      39.933  20.234   7.391  1.00  0.00     0.041 C 
ATOM     13  O   UNL     1      40.934  19.792   8.015  1.00  0.00    -0.550 OA
ATOM     14  O   UNL     1      39.836  21.593   7.120  1.00  0.00    -0.550 OA
ENDBRANCH  11  12
ENDBRANCH  10  11
ENDBRANCH   9  10
ENDBRANCH   8   9
ENDBRANCH   1   8
TORSDOF 9
ENDMDL
MODEL 4
REMARK VINA RESULT:    -4.076      1.840      5.803
REMARK INTER + INTRA:          -6.869
REMARK INTER:                  -6.197
REMARK INTRA:                  -0.672
REMARK UNBOUND:                -0.648
REMARK SMILES O=C([O-])CCCCCCCCC(=O)[O-]
REMARK SMILES IDX 7 1 6 2 5 3 4 4 2 5 1 6 3 7 8 8 9 9 10 10 11 11 12 12 13 13
REMARK SMILES IDX 14 14
REMARK H PARENT
REMARK Flexibility Score: inf
ROOT
ATOM      1  C   UNL     1      37.127  20.328   4.831  1.00  0.00     0.000 C 
ENDROOT
BRANCH   1   2
ATOM      2  C   UNL     1      37.904  19.744   6.021  1.00  0.00     0.000 C 
BRANCH   2   3
ATOM      3  C   UNL     1      37.726  20.568   7.308  1.00  0.00     0.006 C 
BRANCH   3   4
ATOM      4  C   UNL     1      38.439  21.925   7.230  1.00  0.00     0.053 C 
BRANCH   4   5
ATOM      5  C   UNL     1      39.893  21.768   6.908  1.00  0.00     0.041 C 
ATOM      6  O   UNL     1      40.380  22.323   5.888  1.00  0.00    -0.550 OA
ATOM      7  O   UNL     1      40.704  20.981   7.715  1.00  0.00    -0.550 OA
ENDBRANCH   4   5
ENDBRANCH   3   4
ENDBRANCH   2   3
ENDBRANCH   1   2
BRANCH   1   8
ATOM      8  C   UNL     1      38.046  20.766   3.681  1.00  0.00     0.000 C 
BRANCH   8   9
ATOM      9  C   UNL     1      37.861  22.259   3.369  1.00  0.00     0.000 C 
BRANCH   9  10
ATOM     10  C   UNL     1      36.959  22.501   2.148  1.00  0.00     0.006 C 
BRANCH  10  11
ATOM     11  C   UNL     1      36.585  21.202   1.422  1.00  0.00     0.053 C 
BRANCH  11  12
ATOM     12  C   UNL     1      35.162  20.838   1.704  1.00  0.00     0.041 C 
ATOM     13  O   UNL     1      34.253  21.703   1.596  1.00  0.00    -0.550 OA
ATOM     14  O   UNL     1      34.832  19.531   2.039  1.00  0.00    -0.550 OA
ENDBRANCH  11  12
ENDBRANCH  10  11
ENDBRANCH   9  10
ENDBRANCH   8   9
ENDBRANCH   1   8
TORSDOF 9
ENDMDL
MODEL 5
REMARK VINA RESULT:    -3.724      2.241      2.831
REMARK INTER + INTRA:          -6.332
REMARK INTER:                  -5.535
REMARK INTRA:                  -0.797
REMARK UNBOUND:                -0.648
REMARK SMILES O=C([O-])CCCCCCCCC(=O)[O-]
REMARK SMILES IDX 7 1 6 2 5 3 4 4 2 5 1 6 3 7 8 8 9 9 10 10 11 11 12 12 13 13
REMARK SMILES IDX 14 14
REMARK H PARENT
REMARK Flexibility Score: inf
ROOT
ATOM      1  C   UNL     1      36.635  20.307   4.186  1.00  0.00     0.000 C 
ENDROOT
BRANCH   1   2
ATOM      2  C   UNL     1      35.676  20.644   3.034  1.00  0.00     0.000 C 
BRANCH   2   3
ATOM      3  C   UNL     1      36.414  21.018   1.737  1.00  0.00     0.006 C 
BRANCH   3   4
ATOM      4  C   UNL     1      36.338  22.521   1.440  1.00  0.00     0.053 C 
BRANCH   4   5
ATOM      5  C   UNL     1      37.647  23.202   1.694  1.00  0.00     0.041 C 
ATOM      6  O   UNL     1      38.654  22.927   0.989  1.00  0.00    -0.550 OA
ATOM      7  O   UNL     1      37.765  24.117   2.733  1.00  0.00    -0.550 OA
ENDBRANCH   4   5
ENDBRANCH   3   4
ENDBRANCH   2   3
ENDBRANCH   1   2
BRANCH   1   8
ATOM      8  C   UNL     1      38.109  20.323   3.753  1.00  0.00     0.000 C 
BRANCH   8   9
ATOM      9  C   UNL     1      38.974  21.071   4.779  1.00  0.00     0.000 C 
BRANCH   9  10
ATOM     10  C   UNL     1      38.161  21.582   5.979  1.00  0.00     0.006 C 
BRANCH  10  11
ATOM     11  C   UNL     1      38.677  21.037   7.318  1.00  0.00     0.053 C 
BRANCH  11  12
ATOM     12  C   UNL     1      38.095  19.686   7.589  1.00  0.00     0.041 C 
ATOM     13  O   UNL     1      36.936  19.579   8.069  1.00  0.00    -0.550 OA
ATOM     14  O   UNL     1      38.814  18.542   7.266  1.00  0.00    -0.550 OA
ENDBRANCH  11  12
ENDBRANCH  10  11
ENDBRANCH   9  10
ENDBRANCH   8   9
ENDBRANCH   1   8
TORSDOF 9
ENDMDL
MODEL 6
REMARK VINA RESULT:    -3.623      2.692      3.725
REMARK INTER + INTRA:          -6.177
REMARK INTER:                  -5.335
REMARK INTRA:                  -0.842
REMARK UNBOUND:                -0.648
REMARK SMILES O=C([O-])CCCCCCCCC(=O)[O-]
REMARK SMILES IDX 7 1 6 2 5 3 4 4 2 5 1 6 3 7 8 8 9 9 10 10 11 11 12 12 13 13
REMARK SMILES IDX 14 14
REMARK H PARENT
REMARK Flexibility Score: inf
ROOT
ATOM      1  C   UNL     1      36.139  21.616   2.602  1.00  0.00     0.000 C 
ENDROOT
BRANCH   1   2
ATOM      2  C   UNL     1      37.098  21.693   1.404  1.00  0.00     0.000 C 
BRANCH   2   3
ATOM      3  C   UNL     1      38.018  22.926   1.457  1.00  0.00     0.006 C 
BRANCH   3   4
ATOM      4  C   UNL     1      38.502  23.226   2.881  1.00  0.00     0.053 C 
BRANCH   4   5
ATOM      5  C   UNL     1      39.884  22.697   3.118  1.00  0.00     0.041 C 
ATOM      6  O   UNL     1      40.415  22.796   4.256  1.00  0.00    -0.550 OA
ATOM      7  O   UNL     1      40.599  22.125   2.073  1.00  0.00    -0.550 OA
ENDBRANCH   4   5
ENDBRANCH   3   4
ENDBRANCH   2   3
ENDBRANCH   1   2
BRANCH   1   8
ATOM      8  C   UNL     1      35.944  20.181   3.113  1.00  0.00     0.000 C 
BRANCH   8   9
ATOM      9  C   UNL     1      36.317  20.072   4.600  1.00  0.00     0.000 C 
BRANCH   9  10
ATOM     10  C   UNL     1      37.836  20.101   4.833  1.00  0.00     0.006 C 
BRANCH  10  11
ATOM     11  C   UNL     1      38.217  20.750   6.170  1.00  0.00     0.053 C 
BRANCH  11  12
ATOM     12  C   UNL     1      38.248  19.723   7.258  1.00  0.00     0.041 C 
ATOM     13  O   UNL     1      39.308  19.087   7.499  1.00  0.00    -0.550 OA
ATOM     14  O   UNL     1      37.121  19.503   8.039  1.00  0.00    -0.550 OA
ENDBRANCH  11  12
ENDBRANCH  10  11
ENDBRANCH   9  10
ENDBRANCH   8   9
ENDBRANCH   1   8
TORSDOF 9
ENDMDL
MODEL 7
REMARK VINA RESULT:    -3.584      3.339      4.394
REMARK INTER + INTRA:          -6.117
REMARK INTER:                  -5.804
REMARK INTRA:                  -0.313
REMARK UNBOUND:                -0.648
REMARK SMILES O=C([O-])CCCCCCCCC(=O)[O-]
REMARK SMILES IDX 7 1 6 2 5 3 4 4 2 5 1 6 3 7 8 8 9 9 10 10 11 11 12 12 13 13
REMARK SMILES IDX 14 14
REMARK H PARENT
REMARK Flexibility Score: inf
ROOT
ATOM      1  C   UNL     1      37.824  21.960   3.124  1.00  0.00     0.000 C 
ENDROOT
BRANCH   1   2
ATOM      2  C   UNL     1      37.843  22.969   1.966  1.00  0.00     0.000 C 
BRANCH   2   3
ATOM      3  C   UNL     1      37.909  24.429   2.450  1.00  0.00     0.006 C 
BRANCH   3   4
ATOM      4  C   UNL     1      39.295  25.049   2.232  1.00  0.00     0.053 C 
BRANCH   4   5
ATOM      5  C   UNL     1      39.295  26.519   2.520  1.00  0.00     0.041 C 
ATOM      6  O   UNL     1      40.372  27.171   2.495  1.00  0.00    -0.550 OA
ATOM      7  O   UNL     1      38.109  27.163   2.849  1.00  0.00    -0.550 OA
ENDBRANCH   4   5
ENDBRANCH   3   4
ENDBRANCH   2   3
ENDBRANCH   1   2
BRANCH   1   8
ATOM      8  C   UNL     1      36.640  20.985   3.040  1.00  0.00     0.000 C 
BRANCH   8   9
ATOM      9  C   UNL     1      36.490  20.190   4.347  1.00  0.00     0.000 C 
BRANCH   9  10
ATOM     10  C   UNL     1      37.808  20.083   5.130  1.00  0.00     0.006 C 
BRANCH  10  11
ATOM     11  C   UNL     1      37.690  20.618   6.563  1.00  0.00     0.053 C 
BRANCH  11  12
ATOM     12  C   UNL     1      37.746  19.492   7.546  1.00  0.00     0.041 C 
ATOM     13  O   UNL     1      38.779  18.776   7.632  1.00  0.00    -0.550 OA
ATOM     14  O   UNL     1      36.677  19.261   8.403  1.00  0.00    -0.550 OA
ENDBRANCH  11  12
ENDBRANCH  10  11
ENDBRANCH   9  10
ENDBRANCH   8   9
ENDBRANCH   1   8
TORSDOF 9
ENDMDL
MODEL 8
REMARK VINA RESULT:    -3.533      2.992      6.317
REMARK INTER + INTRA:          -6.040
REMARK INTER:                  -5.745
REMARK INTRA:                  -0.295
REMARK UNBOUND:                -0.648
REMARK SMILES O=C([O-])CCCCCCCCC(=O)[O-]
REMARK SMILES IDX 7 1 6 2 5 3 4 4 2 5 1 6 3 7 8 8 9 9 10 10 11 11 12 12 13 13
REMARK SMILES IDX 14 14
REMARK H PARENT
REMARK Flexibility Score: inf
ROOT
ATOM      1  C   UNL     1      37.333  21.322   3.072  1.00  0.00     0.000 C 
ENDROOT
BRANCH   1   2
ATOM      2  C   UNL     1      36.856  20.368   4.177  1.00  0.00     0.000 C 
BRANCH   2   3
ATOM      3  C   UNL     1      37.980  19.981   5.154  1.00  0.00     0.006 C 
BRANCH   3   4
ATOM      4  C   UNL     1      37.731  20.524   6.567  1.00  0.00     0.053 C 
BRANCH   4   5
ATOM      5  C   UNL     1      37.722  19.428   7.588  1.00  0.00     0.041 C 
ATOM      6  O   UNL     1      38.699  18.639   7.682  1.00  0.00    -0.550 OA
ATOM      7  O   UNL     1      36.618  19.256   8.414  1.00  0.00    -0.550 OA
ENDBRANCH   4   5
ENDBRANCH   3   4
ENDBRANCH   2   3
ENDBRANCH   1   2
BRANCH   1   8
ATOM      8  C   UNL     1      36.250  21.595   2.017  1.00  0.00     0.000 C 
BRANCH   8   9
ATOM      9  C   UNL     1      36.580  22.856   1.204  1.00  0.00     0.000 C 
BRANCH   9  10
ATOM     10  C   UNL     1      37.484  23.834   1.971  1.00  0.00     0.006 C 
BRANCH  10  11
ATOM     11  C   UNL     1      37.874  25.060   1.134  1.00  0.00     0.053 C 
BRANCH  11  12
ATOM     12  C   UNL     1      37.860  26.295   1.978  1.00  0.00     0.041 C 
ATOM     13  O   UNL     1      36.834  27.026   2.014  1.00  0.00    -0.550 OA
ATOM     14  O   UNL     1      38.959  26.613   2.764  1.00  0.00    -0.550 OA
ENDBRANCH  11  12
ENDBRANCH  10  11
ENDBRANCH   9  10
ENDBRANCH   8   9
ENDBRANCH   1   8
TORSDOF 9
ENDMDL
MODEL 9
REMARK VINA RESULT:    -3.526      2.668      3.615
REMARK INTER + INTRA:          -6.029
REMARK INTER:                  -5.504
REMARK INTRA:                  -0.525
REMARK UNBOUND:                -0.648
REMARK SMILES O=C([O-])CCCCCCCCC(=O)[O-]
REMARK SMILES IDX 7 1 6 2 5 3 4 4 2 5 1 6 3 7 8 8 9 9 10 10 11 11 12 12 13 13
REMARK SMILES IDX 14 14
REMARK H PARENT
REMARK Flexibility Score: inf
ROOT
ATOM      1  C   UNL     1      36.963  19.670   5.484  1.00  0.00     0.000 C 
ENDROOT
BRANCH   1   2
ATOM      2  C   UNL     1      37.449  20.448   4.252  1.00  0.00     0.000 C 
BRANCH   2   3
ATOM      3  C   UNL     1      36.309  20.792   3.278  1.00  0.00     0.006 C 
BRANCH   3   4
ATOM      4  C   UNL     1      36.825  21.440   1.988  1.00  0.00     0.053 C 
BRANCH   4   5
ATOM      5  C   UNL     1      37.919  22.426   2.263  1.00  0.00     0.041 C 
ATOM      6  O   UNL     1      37.678  23.478   2.913  1.00  0.00    -0.550 OA
ATOM      7  O   UNL     1      39.199  22.199   1.774  1.00  0.00    -0.550 OA
ENDBRANCH   4   5
ENDBRANCH   3   4
ENDBRANCH   2   3
ENDBRANCH   1   2
BRANCH   1   8
ATOM      8  C   UNL     1      37.620  20.152   6.787  1.00  0.00     0.000 C 
BRANCH   8   9
ATOM      9  C   UNL     1      38.786  19.235   7.186  1.00  0.00     0.000 C 
BRANCH   9  10
ATOM     10  C   UNL     1      40.116  19.994   7.324  1.00  0.00     0.006 C 
BRANCH  10  11
ATOM     11  C   UNL     1      40.629  20.537   5.984  1.00  0.00     0.053 C 
BRANCH  11  12
ATOM     12  C   UNL     1      40.529  22.029   5.953  1.00  0.00     0.041 C 
ATOM     13  O   UNL     1      40.612  22.692   7.021  1.00  0.00    -0.550 OA
ATOM     14  O   UNL     1      40.394  22.692   4.740  1.00  0.00    -0.550 OA
ENDBRANCH  11  12
ENDBRANCH  10  11
ENDBRANCH   9  10
ENDBRANCH   8   9
ENDBRANCH   1   8
TORSDOF 9
ENDMDL
