MODEL 1
REMARK VINA RESULT:    -1.939      0.000      0.000
REMARK INTER + INTRA:          -1.939
REMARK INTER:                  -1.939
REMARK INTRA:                   0.000
REMARK UNBOUND:                 0.000
REMARK SMILES CC(=O)[O-]
REMARK SMILES IDX 1 1 2 2 3 3 4 4
REMARK H PARENT
REMARK Flexibility Score: inf
ROOT
ATOM      1  C   UNL     1      -9.718  -6.397   3.781  1.00  0.00     0.063 C 
ATOM      2  C   UNL     1      -8.340  -6.434   3.211  1.00  0.00     0.038 C 
ATOM      3  O   UNL     1      -7.369  -5.989   3.876  1.00  0.00    -0.550 OA
ATOM      4  O   UNL     1      -8.117  -7.007   1.965  1.00  0.00    -0.550 OA
ENDROOT
TORSDOF 0
ENDMDL
MODEL 2
REMARK VINA RESULT:    -1.929      1.562      1.750
REMARK INTER + INTRA:          -1.929
REMARK INTER:                  -1.929
REMARK INTRA:                   0.000
REMARK UNBOUND:                 0.000
REMARK SMILES CC(=O)[O-]
REMARK SMILES IDX 1 1 2 2 3 3 4 4
REMARK H PARENT
REMARK Flexibility Score: inf
ROOT
ATOM      1  C   UNL     1      -7.744  -5.273   4.344  1.00  0.00     0.063 C 
ATOM      2  C   UNL     1      -8.630  -6.057   3.436  1.00  0.00     0.038 C 
ATOM      3  O   UNL     1      -9.855  -6.178   3.698  1.00  0.00    -0.550 OA
ATOM      4  O   UNL     1      -8.117  -6.611   2.270  1.00  0.00    -0.550 OA
ENDROOT
TORSDOF 0
ENDMDL
MODEL 3
REMARK VINA RESULT:    -1.926      0.161      1.620
REMARK INTER + INTRA:          -1.926
REMARK INTER:                  -1.926
REMARK INTRA:                   0.000
REMARK UNBOUND:                 0.000
REMARK SMILES CC(=O)[O-]
REMARK SMILES IDX 1 1 2 2 3 3 4 4
REMARK H PARENT
REMARK Flexibility Score: inf
ROOT
ATOM      1  C   UNL     1      -9.636  -6.379   3.808  1.00  0.00     0.063 C 
ATOM      2  C   UNL     1      -8.270  -6.507   3.225  1.00  0.00     0.038 C 
ATOM      3  O   UNL     1      -8.122  -6.916   2.044  1.00  0.00    -0.550 OA
ATOM      4  O   UNL     1      -7.158  -6.126   3.966  1.00  0.00    -0.550 OA
ENDROOT
TORSDOF 0
ENDMDL
MODEL 4
REMARK VINA RESULT:    -1.798     15.577     16.192
REMARK INTER + INTRA:          -1.798
REMARK INTER:                  -1.798
REMARK INTRA:                   0.000
REMARK UNBOUND:                 0.000
REMARK SMILES CC(=O)[O-]
REMARK SMILES IDX 1 1 2 2 3 3 4 4
REMARK H PARENT
REMARK Flexibility Score: inf
ROOT
ATOM      1  C   UNL     1       6.511  -4.532   3.758  1.00  0.00     0.063 C 
ATOM      2  C   UNL     1       7.580  -4.593   4.796  1.00  0.00     0.038 C 
ATOM      3  O   UNL     1       8.792  -4.552   4.458  1.00  0.00    -0.550 OA
ATOM      4  O   UNL     1       7.241  -4.641   6.142  1.00  0.00    -0.550 OA
ENDROOT
TORSDOF 0
ENDMDL
MODEL 5
REMARK VINA RESULT:    -1.785     12.172     12.477
REMARK INTER + INTRA:          -1.785
REMARK INTER:                  -1.785
REMARK INTRA:                   0.000
REMARK UNBOUND:                 0.000
REMARK SMILES CC(=O)[O-]
REMARK SMILES IDX 1 1 2 2 3 3 4 4
REMARK H PARENT
REMARK Flexibility Score: inf
ROOT
ATOM      1  C   UNL     1      -6.403   6.192   4.468  1.00  0.00     0.063 C 
ATOM      2  C   UNL     1      -7.795   5.696   4.667  1.00  0.00     0.038 C 
ATOM      3  O   UNL     1      -8.541   5.489   3.674  1.00  0.00    -0.550 OA
ATOM      4  O   UNL     1      -8.256   5.409   5.946  1.00  0.00    -0.550 OA
ENDROOT
TORSDOF 0
ENDMDL
MODEL 6
REMARK VINA RESULT:    -1.757     11.157     11.713
REMARK INTER + INTRA:          -1.757
REMARK INTER:                  -1.757
REMARK INTRA:                   0.000
REMARK UNBOUND:                 0.000
REMARK SMILES CC(=O)[O-]
REMARK SMILES IDX 1 1 2 2 3 3 4 4
REMARK H PARENT
REMARK Flexibility Score: inf
ROOT
ATOM      1  C   UNL     1       0.127  -0.689   7.960  1.00  0.00     0.063 C 
ATOM      2  C   UNL     1      -0.611   0.606   7.911  1.00  0.00     0.038 C 
ATOM      3  O   UNL     1      -1.868   0.620   7.957  1.00  0.00    -0.550 OA
ATOM      4  O   UNL     1       0.090   1.805   7.866  1.00  0.00    -0.550 OA
ENDROOT
TORSDOF 0
ENDMDL
MODEL 7
REMARK VINA RESULT:    -1.741     15.044     15.488
REMARK INTER + INTRA:          -1.741
REMARK INTER:                  -1.741
REMARK INTRA:                   0.000
REMARK UNBOUND:                 0.000
REMARK SMILES CC(=O)[O-]
REMARK SMILES IDX 1 1 2 2 3 3 4 4
REMARK H PARENT
REMARK Flexibility Score: inf
ROOT
ATOM      1  C   UNL     1       5.508  -0.193  -3.632  1.00  0.00     0.063 C 
ATOM      2  C   UNL     1       4.577  -1.155  -2.976  1.00  0.00     0.038 C 
ATOM      3  O   UNL     1       3.361  -0.862  -2.833  1.00  0.00    -0.550 OA
ATOM      4  O   UNL     1       5.037  -2.401  -2.566  1.00  0.00    -0.550 OA
ENDROOT
TORSDOF 0
ENDMDL
MODEL 8
REMARK VINA RESULT:    -1.718     13.081     13.401
REMARK INTER + INTRA:          -1.718
REMARK INTER:                  -1.718
REMARK INTRA:                   0.000
REMARK UNBOUND:                 0.000
REMARK SMILES CC(=O)[O-]
REMARK SMILES IDX 1 1 2 2 3 3 4 4
REMARK H PARENT
REMARK Flexibility Score: inf
ROOT
ATOM      1  C   UNL     1      -3.387   5.445   0.219  1.00  0.00     0.063 C 
ATOM      2  C   UNL     1      -2.659   4.814  -0.919  1.00  0.00     0.038 C 
ATOM      3  O   UNL     1      -2.798   3.586  -1.156  1.00  0.00    -0.550 OA
ATOM      4  O   UNL     1      -1.867   5.592  -1.755  1.00  0.00    -0.550 OA
ENDROOT
TORSDOF 0
ENDMDL
MODEL 9
REMARK VINA RESULT:    -1.689      2.178      2.480
REMARK INTER + INTRA:          -1.689
REMARK INTER:                  -1.689
REMARK INTRA:                   0.000
REMARK UNBOUND:                 0.000
REMARK SMILES CC(=O)[O-]
REMARK SMILES IDX 1 1 2 2 3 3 4 4
REMARK H PARENT
REMARK Flexibility Score: inf
ROOT
ATOM      1  C   UNL     1      -7.908  -5.408   6.153  1.00  0.00     0.063 C 
ATOM      2  C   UNL     1      -7.469  -5.255   4.737  1.00  0.00     0.038 C 
ATOM      3  O   UNL     1      -7.656  -4.167   4.131  1.00  0.00    -0.550 OA
ATOM      4  O   UNL     1      -6.806  -6.294   4.097  1.00  0.00    -0.550 OA
ENDROOT
TORSDOF 0
ENDMDL
