MODEL 1
REMARK VINA RESULT:    -6.523      0.000      0.000
REMARK INTER + INTRA:          -9.495
REMARK INTER:                  -8.810
REMARK INTRA:                  -0.685
REMARK UNBOUND:                -0.685
REMARK SMILES O=c1c(-c2ccc(O)cc2)coc2c([C@H]3O[C@@H](CO)[C@@H](O)[C@H](O)[C@@H]3O)c(O)ccc12
REMARK SMILES IDX 3 1 11 2 12 3 13 4 30 5 2 6 1 7 29 8 28 9 26 10 14 11 4 12
REMARK SMILES IDX 5 13 6 14 7 15 10 16 9 17 8 18 15 20 24 21 16 22 22 23 17 24
REMARK SMILES IDX 20 25 25 26 23 28 18 30 19 31 21 33 27 35
REMARK H PARENT 8 19 25 27 23 29 19 32 21 34 27 36
REMARK Flexibility Score: inf
ROOT
ATOM      1  C   UNL     1      -2.380  25.161  29.673  1.00  0.00     0.065 A 
ATOM      2  C   UNL     1      -1.512  26.244  29.844  1.00  0.00     0.208 A 
ATOM      3  O   UNL     1      -0.245  26.170  29.459  1.00  0.00    -0.463 OA
ATOM      4  C   UNL     1       0.296  25.098  28.895  1.00  0.00     0.147 A 
ATOM      5  C   UNL     1      -0.515  23.953  28.689  1.00  0.00     0.066 A 
ATOM      6  C   UNL     1      -1.868  23.997  29.077  1.00  0.00     0.200 A 
ATOM      7  O   UNL     1      -2.623  23.006  28.873  1.00  0.00    -0.288 OA
ATOM      8  C   UNL     1       0.033  22.806  28.105  1.00  0.00     0.020 A 
ATOM      9  C   UNL     1       1.373  22.777  27.747  1.00  0.00     0.047 A 
ATOM     10  C   UNL     1       2.194  23.886  27.945  1.00  0.00     0.125 A 
ATOM     11  C   UNL     1       1.668  25.092  28.496  1.00  0.00     0.069 A 
ENDROOT
BRANCH   1  12
ATOM     12  C   UNL     1      -3.794  25.266  30.114  1.00  0.00    -0.011 A 
ATOM     13  C   UNL     1      -4.789  25.673  29.208  1.00  0.00     0.013 A 
ATOM     14  C   UNL     1      -6.121  25.781  29.622  1.00  0.00     0.047 A 
ATOM     15  C   UNL     1      -6.473  25.489  30.943  1.00  0.00     0.115 A 
ATOM     16  C   UNL     1      -4.154  24.980  31.442  1.00  0.00     0.013 A 
ATOM     17  C   UNL     1      -5.486  25.089  31.854  1.00  0.00     0.047 A 
BRANCH  15  18
ATOM     18  O   UNL     1      -7.803  25.601  31.341  1.00  0.00    -0.508 OA
ATOM     19  H   UNL     1      -8.081  26.226  32.090  1.00  0.00     0.293 HD
ENDBRANCH  15  18
ENDBRANCH   1  12
BRANCH  11  20
ATOM     20  C   UNL     1       2.616  26.305  28.612  1.00  0.00     0.188 C 
ATOM     21  C   UNL     1       2.186  27.601  29.370  1.00  0.00     0.179 C 
ATOM     22  O   UNL     1       3.243  26.594  27.364  1.00  0.00    -0.362 OA
ATOM     23  C   UNL     1       1.397  28.571  28.460  1.00  0.00     0.177 C 
ATOM     24  C   UNL     1       2.478  27.408  26.483  1.00  0.00     0.176 C 
ATOM     25  C   UNL     1       2.111  28.772  27.117  1.00  0.00     0.177 C 
BRANCH  21  26
ATOM     26  O   UNL     1       3.319  28.247  29.909  1.00  0.00    -0.387 OA
ATOM     27  H   UNL     1       3.069  28.641  30.783  1.00  0.00     0.211 HD
ENDBRANCH  21  26
BRANCH  23  28
ATOM     28  O   UNL     1       1.169  29.799  29.109  1.00  0.00    -0.387 OA
ATOM     29  H   UNL     1       1.772  30.480  28.710  1.00  0.00     0.211 HD
ENDBRANCH  23  28
BRANCH  24  30
ATOM     30  C   UNL     1       1.292  26.644  25.854  1.00  0.00     0.191 C 
BRANCH  30  31
ATOM     31  O   UNL     1       0.825  27.325  24.721  1.00  0.00    -0.394 OA
ATOM     32  H   UNL     1      -0.095  26.991  24.558  1.00  0.00     0.210 HD
ENDBRANCH  30  31
ENDBRANCH  24  30
BRANCH  25  33
ATOM     33  O   UNL     1       1.291  29.524  26.259  1.00  0.00    -0.388 OA
ATOM     34  H   UNL     1       1.663  30.444  26.240  1.00  0.00     0.211 HD
ENDBRANCH  25  33
ENDBRANCH  11  20
BRANCH  10  35
ATOM     35  O   UNL     1       3.538  23.741  27.582  1.00  0.00    -0.507 OA
ATOM     36  H   UNL     1       3.989  22.857  27.392  1.00  0.00     0.293 HD
ENDBRANCH  10  35
TORSDOF 9
ENDMDL
MODEL 2
REMARK VINA RESULT:    -6.349      2.070      3.753
REMARK INTER + INTRA:          -9.261
REMARK INTER:                  -8.896
REMARK INTRA:                  -0.365
REMARK UNBOUND:                -0.685
REMARK SMILES O=c1c(-c2ccc(O)cc2)coc2c([C@H]3O[C@@H](CO)[C@@H](O)[C@H](O)[C@@H]3O)c(O)ccc12
REMARK SMILES IDX 3 1 11 2 12 3 13 4 30 5 2 6 1 7 29 8 28 9 26 10 14 11 4 12
REMARK SMILES IDX 5 13 6 14 7 15 10 16 9 17 8 18 15 20 24 21 16 22 22 23 17 24
REMARK SMILES IDX 20 25 25 26 23 28 18 30 19 31 21 33 27 35
REMARK H PARENT 8 19 25 27 23 29 19 32 21 34 27 36
REMARK Flexibility Score: inf
ROOT
ATOM      1  C   UNL     1      -2.056  24.188  29.499  1.00  0.00     0.065 A 
ATOM      2  C   UNL     1      -0.760  23.742  29.222  1.00  0.00     0.208 A 
ATOM      3  O   UNL     1      -0.029  24.317  28.277  1.00  0.00    -0.463 OA
ATOM      4  C   UNL     1      -0.446  25.333  27.532  1.00  0.00     0.147 A 
ATOM      5  C   UNL     1      -1.752  25.843  27.746  1.00  0.00     0.066 A 
ATOM      6  C   UNL     1      -2.554  25.265  28.747  1.00  0.00     0.200 A 
ATOM      7  O   UNL     1      -3.708  25.721  28.984  1.00  0.00    -0.288 OA
ATOM      8  C   UNL     1      -2.220  26.908  26.968  1.00  0.00     0.020 A 
ATOM      9  C   UNL     1      -1.419  27.452  25.974  1.00  0.00     0.047 A 
ATOM     10  C   UNL     1      -0.134  26.964  25.739  1.00  0.00     0.125 A 
ATOM     11  C   UNL     1       0.401  25.909  26.537  1.00  0.00     0.069 A 
ENDROOT
BRANCH   1  12
ATOM     12  C   UNL     1      -2.858  23.528  30.560  1.00  0.00    -0.011 A 
ATOM     13  C   UNL     1      -3.321  24.269  31.661  1.00  0.00     0.013 A 
ATOM     14  C   UNL     1      -4.068  23.649  32.668  1.00  0.00     0.047 A 
ATOM     15  C   UNL     1      -4.358  22.284  32.589  1.00  0.00     0.115 A 
ATOM     16  C   UNL     1      -3.147  22.154  30.490  1.00  0.00     0.013 A 
ATOM     17  C   UNL     1      -3.895  21.536  31.498  1.00  0.00     0.047 A 
BRANCH  15  18
ATOM     18  O   UNL     1      -5.104  21.680  33.598  1.00  0.00    -0.508 OA
ATOM     19  H   UNL     1      -4.694  21.455  34.498  1.00  0.00     0.293 HD
ENDBRANCH  15  18
ENDBRANCH   1  12
BRANCH  11  20
ATOM     20  C   UNL     1       1.859  25.475  26.272  1.00  0.00     0.188 C 
ATOM     21  C   UNL     1       2.579  24.443  27.198  1.00  0.00     0.179 C 
ATOM     22  O   UNL     1       2.687  26.595  25.968  1.00  0.00    -0.362 OA
ATOM     23  C   UNL     1       3.225  25.121  28.430  1.00  0.00     0.177 C 
ATOM     24  C   UNL     1       3.206  27.281  27.102  1.00  0.00     0.176 C 
ATOM     25  C   UNL     1       4.042  26.353  28.016  1.00  0.00     0.177 C 
BRANCH  21  26
ATOM     26  O   UNL     1       3.549  23.728  26.466  1.00  0.00    -0.387 OA
ATOM     27  H   UNL     1       4.018  23.112  27.085  1.00  0.00     0.211 HD
ENDBRANCH  21  26
BRANCH  23  28
ATOM     28  O   UNL     1       4.009  24.205  29.156  1.00  0.00    -0.387 OA
ATOM     29  H   UNL     1       4.462  23.601  28.510  1.00  0.00     0.211 HD
ENDBRANCH  23  28
BRANCH  24  30
ATOM     30  C   UNL     1       2.129  28.115  27.832  1.00  0.00     0.191 C 
BRANCH  30  31
ATOM     31  O   UNL     1       2.679  29.320  28.289  1.00  0.00    -0.394 OA
ATOM     32  H   UNL     1       2.792  29.893  27.488  1.00  0.00     0.210 HD
ENDBRANCH  30  31
ENDBRANCH  24  30
BRANCH  25  33
ATOM     33  O   UNL     1       4.477  27.033  29.166  1.00  0.00    -0.388 OA
ATOM     34  H   UNL     1       5.220  26.499  29.550  1.00  0.00     0.211 HD
ENDBRANCH  25  33
ENDBRANCH  11  20
BRANCH  10  35
ATOM     35  O   UNL     1       0.577  27.558  24.690  1.00  0.00    -0.507 OA
ATOM     36  H   UNL     1       1.337  28.212  24.810  1.00  0.00     0.293 HD
ENDBRANCH  10  35
TORSDOF 9
ENDMDL
MODEL 3
REMARK VINA RESULT:    -6.306      2.572      7.425
REMARK INTER + INTRA:          -9.203
REMARK INTER:                  -9.830
REMARK INTRA:                   0.626
REMARK UNBOUND:                -0.685
REMARK SMILES O=c1c(-c2ccc(O)cc2)coc2c([C@H]3O[C@@H](CO)[C@@H](O)[C@H](O)[C@@H]3O)c(O)ccc12
REMARK SMILES IDX 3 1 11 2 12 3 13 4 30 5 2 6 1 7 29 8 28 9 26 10 14 11 4 12
REMARK SMILES IDX 5 13 6 14 7 15 10 16 9 17 8 18 15 20 24 21 16 22 22 23 17 24
REMARK SMILES IDX 20 25 25 26 23 28 18 30 19 31 21 33 27 35
REMARK H PARENT 8 19 25 27 23 29 19 32 21 34 27 36
REMARK Flexibility Score: inf
ROOT
ATOM      1  C   UNL     1      -0.358  26.576  26.912  1.00  0.00     0.065 A 
ATOM      2  C   UNL     1      -0.694  27.095  28.167  1.00  0.00     0.208 A 
ATOM      3  O   UNL     1      -1.273  26.333  29.086  1.00  0.00    -0.463 OA
ATOM      4  C   UNL     1      -1.575  25.054  28.905  1.00  0.00     0.147 A 
ATOM      5  C   UNL     1      -1.271  24.452  27.658  1.00  0.00     0.066 A 
ATOM      6  C   UNL     1      -0.648  25.225  26.661  1.00  0.00     0.200 A 
ATOM      7  O   UNL     1      -0.333  24.706  25.554  1.00  0.00    -0.288 OA
ATOM      8  C   UNL     1      -1.588  23.106  27.438  1.00  0.00     0.020 A 
ATOM      9  C   UNL     1      -2.218  22.367  28.427  1.00  0.00     0.047 A 
ATOM     10  C   UNL     1      -2.535  22.937  29.660  1.00  0.00     0.125 A 
ATOM     11  C   UNL     1      -2.191  24.292  29.945  1.00  0.00     0.069 A 
ENDROOT
BRANCH   1  12
ATOM     12  C   UNL     1       0.288  27.447  25.898  1.00  0.00    -0.011 A 
ATOM     13  C   UNL     1      -0.389  28.573  25.398  1.00  0.00     0.013 A 
ATOM     14  C   UNL     1       0.212  29.392  24.437  1.00  0.00     0.047 A 
ATOM     15  C   UNL     1       1.493  29.094  23.961  1.00  0.00     0.115 A 
ATOM     16  C   UNL     1       1.573  27.150  25.412  1.00  0.00     0.013 A 
ATOM     17  C   UNL     1       2.172  27.970  24.450  1.00  0.00     0.047 A 
BRANCH  15  18
ATOM     18  O   UNL     1       2.080  29.918  23.004  1.00  0.00    -0.508 OA
ATOM     19  H   UNL     1       2.702  29.546  22.294  1.00  0.00     0.293 HD
ENDBRANCH  15  18
ENDBRANCH   1  12
BRANCH  11  20
ATOM     20  C   UNL     1      -2.500  24.832  31.358  1.00  0.00     0.188 C 
ATOM     21  C   UNL     1      -2.959  23.879  32.507  1.00  0.00     0.179 C 
ATOM     22  O   UNL     1      -3.283  26.022  31.300  1.00  0.00    -0.362 OA
ATOM     23  C   UNL     1      -4.488  23.645  32.491  1.00  0.00     0.177 C 
ATOM     24  C   UNL     1      -4.686  25.810  31.186  1.00  0.00     0.176 C 
ATOM     25  C   UNL     1      -5.248  24.972  32.360  1.00  0.00     0.177 C 
BRANCH  21  26
ATOM     26  O   UNL     1      -2.556  24.395  33.756  1.00  0.00    -0.387 OA
ATOM     27  H   UNL     1      -1.710  24.896  33.630  1.00  0.00     0.211 HD
ENDBRANCH  21  26
BRANCH  23  28
ATOM     28  O   UNL     1      -4.901  22.926  33.629  1.00  0.00    -0.387 OA
ATOM     29  H   UNL     1      -5.799  22.544  33.447  1.00  0.00     0.211 HD
ENDBRANCH  23  28
BRANCH  24  30
ATOM     30  C   UNL     1      -5.098  25.319  29.781  1.00  0.00     0.191 C 
BRANCH  30  31
ATOM     31  O   UNL     1      -6.378  25.793  29.460  1.00  0.00    -0.394 OA
ATOM     32  H   UNL     1      -6.722  26.234  30.279  1.00  0.00     0.210 HD
ENDBRANCH  30  31
ENDBRANCH  24  30
BRANCH  25  33
ATOM     33  O   UNL     1      -6.618  24.712  32.186  1.00  0.00    -0.388 OA
ATOM     34  H   UNL     1      -6.693  23.774  31.869  1.00  0.00     0.211 HD
ENDBRANCH  25  33
ENDBRANCH  11  20
BRANCH  10  35
ATOM     35  O   UNL     1      -3.202  22.114  30.575  1.00  0.00    -0.507 OA
ATOM     36  H   UNL     1      -3.349  21.122  30.455  1.00  0.00     0.293 HD
ENDBRANCH  10  35
TORSDOF 9
ENDMDL
MODEL 4
REMARK VINA RESULT:    -6.123      2.654      7.429
REMARK INTER + INTRA:          -8.956
REMARK INTER:                  -8.735
REMARK INTRA:                  -0.221
REMARK UNBOUND:                -0.685
REMARK SMILES O=c1c(-c2ccc(O)cc2)coc2c([C@H]3O[C@@H](CO)[C@@H](O)[C@H](O)[C@@H]3O)c(O)ccc12
REMARK SMILES IDX 3 1 11 2 12 3 13 4 30 5 2 6 1 7 29 8 28 9 26 10 14 11 4 12
REMARK SMILES IDX 5 13 6 14 7 15 10 16 9 17 8 18 15 20 24 21 16 22 22 23 17 24
REMARK SMILES IDX 20 25 25 26 23 28 18 30 19 31 21 33 27 35
REMARK H PARENT 8 19 25 27 23 29 19 32 21 34 27 36
REMARK Flexibility Score: inf
ROOT
ATOM      1  C   UNL     1       3.058  27.651  29.839  1.00  0.00     0.065 A 
ATOM      2  C   UNL     1       1.799  27.362  30.376  1.00  0.00     0.208 A 
ATOM      3  O   UNL     1       0.756  27.146  29.585  1.00  0.00    -0.463 OA
ATOM      4  C   UNL     1       0.809  27.184  28.260  1.00  0.00     0.147 A 
ATOM      5  C   UNL     1       2.049  27.475  27.636  1.00  0.00     0.066 A 
ATOM      6  C   UNL     1       3.181  27.701  28.441  1.00  0.00     0.200 A 
ATOM      7  O   UNL     1       4.306  27.927  27.913  1.00  0.00    -0.288 OA
ATOM      8  C   UNL     1       2.130  27.531  26.240  1.00  0.00     0.020 A 
ATOM      9  C   UNL     1       0.998  27.323  25.466  1.00  0.00     0.047 A 
ATOM     10  C   UNL     1      -0.234  27.042  26.055  1.00  0.00     0.125 A 
ATOM     11  C   UNL     1      -0.355  26.932  27.472  1.00  0.00     0.069 A 
ENDROOT
BRANCH   1  12
ATOM     12  C   UNL     1       4.212  27.891  30.743  1.00  0.00    -0.011 A 
ATOM     13  C   UNL     1       4.138  28.882  31.737  1.00  0.00     0.013 A 
ATOM     14  C   UNL     1       5.226  29.116  32.584  1.00  0.00     0.047 A 
ATOM     15  C   UNL     1       6.399  28.369  32.447  1.00  0.00     0.115 A 
ATOM     16  C   UNL     1       5.397  27.147  30.605  1.00  0.00     0.013 A 
ATOM     17  C   UNL     1       6.483  27.384  31.453  1.00  0.00     0.047 A 
BRANCH  15  18
ATOM     18  O   UNL     1       7.474  28.613  33.298  1.00  0.00    -0.508 OA
ATOM     19  H   UNL     1       7.892  29.534  33.374  1.00  0.00     0.293 HD
ENDBRANCH  15  18
ENDBRANCH   1  12
BRANCH  11  20
ATOM     20  C   UNL     1      -1.732  26.539  28.049  1.00  0.00     0.188 C 
ATOM     21  C   UNL     1      -1.910  26.195  29.562  1.00  0.00     0.179 C 
ATOM     22  O   UNL     1      -2.403  25.609  27.202  1.00  0.00    -0.362 OA
ATOM     23  C   UNL     1      -1.596  24.710  29.859  1.00  0.00     0.177 C 
ATOM     24  C   UNL     1      -2.045  24.247  27.407  1.00  0.00     0.176 C 
ATOM     25  C   UNL     1      -2.306  23.785  28.861  1.00  0.00     0.177 C 
BRANCH  21  26
ATOM     26  O   UNL     1      -3.218  26.513  29.982  1.00  0.00    -0.387 OA
ATOM     27  H   UNL     1      -3.439  25.955  30.771  1.00  0.00     0.211 HD
ENDBRANCH  21  26
BRANCH  23  28
ATOM     28  O   UNL     1      -1.925  24.381  31.188  1.00  0.00    -0.387 OA
ATOM     29  H   UNL     1      -2.720  23.786  31.174  1.00  0.00     0.211 HD
ENDBRANCH  23  28
BRANCH  24  30
ATOM     30  C   UNL     1      -0.636  23.919  26.864  1.00  0.00     0.191 C 
BRANCH  30  31
ATOM     31  O   UNL     1      -0.680  23.758  25.472  1.00  0.00    -0.394 OA
ATOM     32  H   UNL     1       0.236  23.496  25.196  1.00  0.00     0.210 HD
ENDBRANCH  30  31
ENDBRANCH  24  30
BRANCH  25  33
ATOM     33  O   UNL     1      -1.873  22.463  29.058  1.00  0.00    -0.388 OA
ATOM     34  H   UNL     1      -2.554  22.020  29.628  1.00  0.00     0.211 HD
ENDBRANCH  25  33
ENDBRANCH  11  20
BRANCH  10  35
ATOM     35  O   UNL     1      -1.320  26.885  25.185  1.00  0.00    -0.507 OA
ATOM     36  H   UNL     1      -1.710  25.995  24.910  1.00  0.00     0.293 HD
ENDBRANCH  10  35
TORSDOF 9
ENDMDL
MODEL 5
REMARK VINA RESULT:    -6.021      2.832      6.931
REMARK INTER + INTRA:          -8.818
REMARK INTER:                  -8.658
REMARK INTRA:                  -0.160
REMARK UNBOUND:                -0.685
REMARK SMILES O=c1c(-c2ccc(O)cc2)coc2c([C@H]3O[C@@H](CO)[C@@H](O)[C@H](O)[C@@H]3O)c(O)ccc12
REMARK SMILES IDX 3 1 11 2 12 3 13 4 30 5 2 6 1 7 29 8 28 9 26 10 14 11 4 12
REMARK SMILES IDX 5 13 6 14 7 15 10 16 9 17 8 18 15 20 24 21 16 22 22 23 17 24
REMARK SMILES IDX 20 25 25 26 23 28 18 30 19 31 21 33 27 35
REMARK H PARENT 8 19 25 27 23 29 19 32 21 34 27 36
REMARK Flexibility Score: inf
ROOT
ATOM      1  C   UNL     1      -0.580  26.882  26.620  1.00  0.00     0.065 A 
ATOM      2  C   UNL     1      -1.320  27.512  27.627  1.00  0.00     0.208 A 
ATOM      3  O   UNL     1      -1.993  26.801  28.522  1.00  0.00    -0.463 OA
ATOM      4  C   UNL     1      -2.026  25.475  28.544  1.00  0.00     0.147 A 
ATOM      5  C   UNL     1      -1.305  24.760  27.554  1.00  0.00     0.066 A 
ATOM      6  C   UNL     1      -0.571  25.478  26.592  1.00  0.00     0.200 A 
ATOM      7  O   UNL     1       0.110  24.867  25.721  1.00  0.00    -0.288 OA
ATOM      8  C   UNL     1      -1.331  23.360  27.549  1.00  0.00     0.020 A 
ATOM      9  C   UNL     1      -2.075  22.672  28.495  1.00  0.00     0.047 A 
ATOM     10  C   UNL     1      -2.799  23.352  29.474  1.00  0.00     0.125 A 
ATOM     11  C   UNL     1      -2.767  24.777  29.545  1.00  0.00     0.069 A 
ENDROOT
BRANCH   1  12
ATOM     12  C   UNL     1       0.165  27.697  25.627  1.00  0.00    -0.011 A 
ATOM     13  C   UNL     1      -0.430  28.836  25.057  1.00  0.00     0.013 A 
ATOM     14  C   UNL     1       0.265  29.601  24.116  1.00  0.00     0.047 A 
ATOM     15  C   UNL     1       1.558  29.237  23.729  1.00  0.00     0.115 A 
ATOM     16  C   UNL     1       1.463  27.332  25.230  1.00  0.00     0.013 A 
ATOM     17  C   UNL     1       2.156  28.099  24.287  1.00  0.00     0.047 A 
BRANCH  15  18
ATOM     18  O   UNL     1       2.239  30.008  22.791  1.00  0.00    -0.508 OA
ATOM     19  H   UNL     1       3.156  30.396  22.988  1.00  0.00     0.293 HD
ENDBRANCH  15  18
ENDBRANCH   1  12
BRANCH  11  20
ATOM     20  C   UNL     1      -3.526  25.457  30.704  1.00  0.00     0.188 C 
ATOM     21  C   UNL     1      -3.593  27.013  30.828  1.00  0.00     0.179 C 
ATOM     22  O   UNL     1      -3.239  24.829  31.952  1.00  0.00    -0.362 OA
ATOM     23  C   UNL     1      -2.366  27.588  31.572  1.00  0.00     0.177 C 
ATOM     24  C   UNL     1      -2.056  25.289  32.595  1.00  0.00     0.176 C 
ATOM     25  C   UNL     1      -2.092  26.812  32.867  1.00  0.00     0.177 C 
BRANCH  21  26
ATOM     26  O   UNL     1      -4.785  27.397  31.476  1.00  0.00    -0.387 OA
ATOM     27  H   UNL     1      -5.542  27.250  30.854  1.00  0.00     0.211 HD
ENDBRANCH  21  26
BRANCH  23  28
ATOM     28  O   UNL     1      -2.527  28.964  31.822  1.00  0.00    -0.387 OA
ATOM     29  H   UNL     1      -3.274  29.298  31.258  1.00  0.00     0.211 HD
ENDBRANCH  23  28
BRANCH  24  30
ATOM     30  C   UNL     1      -0.771  24.783  31.901  1.00  0.00     0.191 C 
BRANCH  30  31
ATOM     31  O   UNL     1      -0.601  23.412  32.139  1.00  0.00    -0.394 OA
ATOM     32  H   UNL     1      -0.986  22.946  31.352  1.00  0.00     0.210 HD
ENDBRANCH  30  31
ENDBRANCH  24  30
BRANCH  25  33
ATOM     33  O   UNL     1      -0.883  27.254  33.431  1.00  0.00    -0.388 OA
ATOM     34  H   UNL     1      -1.078  27.500  34.372  1.00  0.00     0.211 HD
ENDBRANCH  25  33
ENDBRANCH  11  20
BRANCH  10  35
ATOM     35  O   UNL     1      -3.545  22.564  30.358  1.00  0.00    -0.507 OA
ATOM     36  H   UNL     1      -3.155  22.033  31.124  1.00  0.00     0.293 HD
ENDBRANCH  10  35
TORSDOF 9
ENDMDL
MODEL 6
REMARK VINA RESULT:    -5.936      4.400      7.460
REMARK INTER + INTRA:          -8.702
REMARK INTER:                  -9.570
REMARK INTRA:                   0.868
REMARK UNBOUND:                -0.685
REMARK SMILES O=c1c(-c2ccc(O)cc2)coc2c([C@H]3O[C@@H](CO)[C@@H](O)[C@H](O)[C@@H]3O)c(O)ccc12
REMARK SMILES IDX 3 1 11 2 12 3 13 4 30 5 2 6 1 7 29 8 28 9 26 10 14 11 4 12
REMARK SMILES IDX 5 13 6 14 7 15 10 16 9 17 8 18 15 20 24 21 16 22 22 23 17 24
REMARK SMILES IDX 20 25 25 26 23 28 18 30 19 31 21 33 27 35
REMARK H PARENT 8 19 25 27 23 29 19 32 21 34 27 36
REMARK Flexibility Score: inf
ROOT
ATOM      1  C   UNL     1       4.095  28.147  29.934  1.00  0.00     0.065 A 
ATOM      2  C   UNL     1       3.279  29.222  29.567  1.00  0.00     0.208 A 
ATOM      3  O   UNL     1       2.375  29.094  28.604  1.00  0.00    -0.463 OA
ATOM      4  C   UNL     1       2.170  27.974  27.925  1.00  0.00     0.147 A 
ATOM      5  C   UNL     1       2.960  26.836  28.232  1.00  0.00     0.066 A 
ATOM      6  C   UNL     1       3.922  26.930  29.255  1.00  0.00     0.200 A 
ATOM      7  O   UNL     1       4.615  25.924  29.575  1.00  0.00    -0.288 OA
ATOM      8  C   UNL     1       2.770  25.644  27.524  1.00  0.00     0.020 A 
ATOM      9  C   UNL     1       1.828  25.578  26.508  1.00  0.00     0.047 A 
ATOM     10  C   UNL     1       1.044  26.684  26.181  1.00  0.00     0.125 A 
ATOM     11  C   UNL     1       1.172  27.906  26.906  1.00  0.00     0.069 A 
ENDROOT
BRANCH   1  12
ATOM     12  C   UNL     1       5.100  28.314  31.014  1.00  0.00    -0.011 A 
ATOM     13  C   UNL     1       4.701  28.302  32.361  1.00  0.00     0.013 A 
ATOM     14  C   UNL     1       5.644  28.467  33.381  1.00  0.00     0.047 A 
ATOM     15  C   UNL     1       6.994  28.650  33.067  1.00  0.00     0.115 A 
ATOM     16  C   UNL     1       6.459  28.504  30.705  1.00  0.00     0.013 A 
ATOM     17  C   UNL     1       7.400  28.669  31.726  1.00  0.00     0.047 A 
BRANCH  15  18
ATOM     18  O   UNL     1       7.923  28.812  34.093  1.00  0.00    -0.508 OA
ATOM     19  H   UNL     1       8.284  28.019  34.611  1.00  0.00     0.293 HD
ENDBRANCH  15  18
ENDBRANCH   1  12
BRANCH  11  20
ATOM     20  C   UNL     1       0.215  29.062  26.542  1.00  0.00     0.188 C 
ATOM     21  C   UNL     1      -1.181  28.787  25.897  1.00  0.00     0.179 C 
ATOM     22  O   UNL     1       0.909  30.125  25.892  1.00  0.00    -0.362 OA
ATOM     23  C   UNL     1      -1.093  28.655  24.358  1.00  0.00     0.177 C 
ATOM     24  C   UNL     1       1.077  29.960  24.489  1.00  0.00     0.176 C 
ATOM     25  C   UNL     1      -0.275  29.803  23.752  1.00  0.00     0.177 C 
BRANCH  21  26
ATOM     26  O   UNL     1      -2.088  29.807  26.250  1.00  0.00    -0.387 OA
ATOM     27  H   UNL     1      -2.615  29.501  27.032  1.00  0.00     0.211 HD
ENDBRANCH  21  26
BRANCH  23  28
ATOM     28  O   UNL     1      -2.376  28.578  23.785  1.00  0.00    -0.387 OA
ATOM     29  H   UNL     1      -3.039  28.871  24.464  1.00  0.00     0.211 HD
ENDBRANCH  23  28
BRANCH  24  30
ATOM     30  C   UNL     1       2.135  28.889  24.142  1.00  0.00     0.191 C 
BRANCH  30  31
ATOM     31  O   UNL     1       2.524  29.010  22.801  1.00  0.00    -0.394 OA
ATOM     32  H   UNL     1       2.052  28.288  22.310  1.00  0.00     0.210 HD
ENDBRANCH  30  31
ENDBRANCH  24  30
BRANCH  25  33
ATOM     33  O   UNL     1      -0.079  29.565  22.381  1.00  0.00    -0.388 OA
ATOM     34  H   UNL     1       0.401  28.700  22.306  1.00  0.00     0.211 HD
ENDBRANCH  25  33
ENDBRANCH  11  20
BRANCH  10  35
ATOM     35  O   UNL     1       0.149  26.522  25.117  1.00  0.00    -0.507 OA
ATOM     36  H   UNL     1      -0.033  25.646  24.649  1.00  0.00     0.293 HD
ENDBRANCH  10  35
TORSDOF 9
ENDMDL
MODEL 7
REMARK VINA RESULT:    -5.893      2.120      4.224
REMARK INTER + INTRA:          -8.645
REMARK INTER:                  -8.117
REMARK INTRA:                  -0.528
REMARK UNBOUND:                -0.685
REMARK SMILES O=c1c(-c2ccc(O)cc2)coc2c([C@H]3O[C@@H](CO)[C@@H](O)[C@H](O)[C@@H]3O)c(O)ccc12
REMARK SMILES IDX 3 1 11 2 12 3 13 4 30 5 2 6 1 7 29 8 28 9 26 10 14 11 4 12
REMARK SMILES IDX 5 13 6 14 7 15 10 16 9 17 8 18 15 20 24 21 16 22 22 23 17 24
REMARK SMILES IDX 20 25 25 26 23 28 18 30 19 31 21 33 27 35
REMARK H PARENT 8 19 25 27 23 29 19 32 21 34 27 36
REMARK Flexibility Score: inf
ROOT
ATOM      1  C   UNL     1      -3.599  26.022  29.771  1.00  0.00     0.065 A 
ATOM      2  C   UNL     1      -2.966  24.918  29.191  1.00  0.00     0.208 A 
ATOM      3  O   UNL     1      -2.126  25.071  28.175  1.00  0.00    -0.463 OA
ATOM      4  C   UNL     1      -1.819  26.244  27.637  1.00  0.00     0.147 A 
ATOM      5  C   UNL     1      -2.422  27.414  28.164  1.00  0.00     0.066 A 
ATOM      6  C   UNL     1      -3.312  27.293  29.248  1.00  0.00     0.200 A 
ATOM      7  O   UNL     1      -3.836  28.322  29.762  1.00  0.00    -0.288 OA
ATOM      8  C   UNL     1      -2.123  28.663  27.608  1.00  0.00     0.020 A 
ATOM      9  C   UNL     1      -1.257  28.758  26.529  1.00  0.00     0.047 A 
ATOM     10  C   UNL     1      -0.657  27.622  25.987  1.00  0.00     0.125 A 
ATOM     11  C   UNL     1      -0.898  26.333  26.549  1.00  0.00     0.069 A 
ENDROOT
BRANCH   1  12
ATOM     12  C   UNL     1      -4.537  25.828  30.905  1.00  0.00    -0.011 A 
ATOM     13  C   UNL     1      -5.909  25.634  30.664  1.00  0.00     0.013 A 
ATOM     14  C   UNL     1      -6.797  25.458  31.730  1.00  0.00     0.047 A 
ATOM     15  C   UNL     1      -6.328  25.479  33.046  1.00  0.00     0.115 A 
ATOM     16  C   UNL     1      -4.073  25.854  32.232  1.00  0.00     0.013 A 
ATOM     17  C   UNL     1      -4.964  25.679  33.296  1.00  0.00     0.047 A 
BRANCH  15  18
ATOM     18  O   UNL     1      -7.224  25.303  34.099  1.00  0.00    -0.508 OA
ATOM     19  H   UNL     1      -7.897  26.020  34.347  1.00  0.00     0.293 HD
ENDBRANCH  15  18
ENDBRANCH   1  12
BRANCH  11  20
ATOM     20  C   UNL     1      -0.136  25.132  25.949  1.00  0.00     0.188 C 
ATOM     21  C   UNL     1      -0.184  23.723  26.621  1.00  0.00     0.179 C 
ATOM     22  O   UNL     1       1.185  25.498  25.558  1.00  0.00    -0.362 OA
ATOM     23  C   UNL     1       0.882  23.574  27.732  1.00  0.00     0.177 C 
ATOM     24  C   UNL     1       2.151  25.456  26.602  1.00  0.00     0.176 C 
ATOM     25  C   UNL     1       2.257  24.052  27.245  1.00  0.00     0.177 C 
BRANCH  21  26
ATOM     26  O   UNL     1      -0.022  22.715  25.648  1.00  0.00    -0.387 OA
ATOM     27  H   UNL     1       0.870  22.823  25.230  1.00  0.00     0.211 HD
ENDBRANCH  21  26
BRANCH  23  28
ATOM     28  O   UNL     1       0.936  22.249  28.205  1.00  0.00    -0.387 OA
ATOM     29  H   UNL     1       0.120  22.078  28.745  1.00  0.00     0.211 HD
ENDBRANCH  23  28
BRANCH  24  30
ATOM     30  C   UNL     1       1.990  26.620  27.604  1.00  0.00     0.191 C 
BRANCH  30  31
ATOM     31  O   UNL     1       2.543  27.794  27.075  1.00  0.00    -0.394 OA
ATOM     32  H   UNL     1       2.099  27.938  26.199  1.00  0.00     0.210 HD
ENDBRANCH  30  31
ENDBRANCH  24  30
BRANCH  25  33
ATOM     33  O   UNL     1       3.159  24.055  28.322  1.00  0.00    -0.388 OA
ATOM     34  H   UNL     1       2.618  24.135  29.149  1.00  0.00     0.211 HD
ENDBRANCH  25  33
ENDBRANCH  11  20
BRANCH  10  35
ATOM     35  O   UNL     1       0.172  27.824  24.877  1.00  0.00    -0.507 OA
ATOM     36  H   UNL     1       0.091  27.326  24.002  1.00  0.00     0.293 HD
ENDBRANCH  10  35
TORSDOF 9
ENDMDL
MODEL 8
REMARK VINA RESULT:    -5.864      2.294      7.597
REMARK INTER + INTRA:          -8.606
REMARK INTER:                  -7.929
REMARK INTRA:                  -0.677
REMARK UNBOUND:                -0.685
REMARK SMILES O=c1c(-c2ccc(O)cc2)coc2c([C@H]3O[C@@H](CO)[C@@H](O)[C@H](O)[C@@H]3O)c(O)ccc12
REMARK SMILES IDX 3 1 11 2 12 3 13 4 30 5 2 6 1 7 29 8 28 9 26 10 14 11 4 12
REMARK SMILES IDX 5 13 6 14 7 15 10 16 9 17 8 18 15 20 24 21 16 22 22 23 17 24
REMARK SMILES IDX 20 25 25 26 23 28 18 30 19 31 21 33 27 35
REMARK H PARENT 8 19 25 27 23 29 19 32 21 34 27 36
REMARK Flexibility Score: inf
ROOT
ATOM      1  C   UNL     1      -0.628  26.376  27.976  1.00  0.00     0.065 A 
ATOM      2  C   UNL     1      -2.019  26.463  27.852  1.00  0.00     0.208 A 
ATOM      3  O   UNL     1      -2.819  25.921  28.761  1.00  0.00    -0.463 OA
ATOM      4  C   UNL     1      -2.388  25.270  29.833  1.00  0.00     0.147 A 
ATOM      5  C   UNL     1      -0.991  25.133  30.031  1.00  0.00     0.066 A 
ATOM      6  C   UNL     1      -0.109  25.702  29.093  1.00  0.00     0.200 A 
ATOM      7  O   UNL     1       1.140  25.627  29.263  1.00  0.00    -0.288 OA
ATOM      8  C   UNL     1      -0.510  24.442  31.150  1.00  0.00     0.020 A 
ATOM      9  C   UNL     1      -1.395  23.873  32.053  1.00  0.00     0.047 A 
ATOM     10  C   UNL     1      -2.774  23.987  31.877  1.00  0.00     0.125 A 
ATOM     11  C   UNL     1      -3.309  24.720  30.776  1.00  0.00     0.069 A 
ENDROOT
BRANCH   1  12
ATOM     12  C   UNL     1       0.248  26.988  26.945  1.00  0.00    -0.011 A 
ATOM     13  C   UNL     1       0.871  26.182  25.976  1.00  0.00     0.013 A 
ATOM     14  C   UNL     1       1.704  26.754  25.009  1.00  0.00     0.047 A 
ATOM     15  C   UNL     1       1.927  28.134  25.000  1.00  0.00     0.115 A 
ATOM     16  C   UNL     1       0.482  28.374  26.934  1.00  0.00     0.013 A 
ATOM     17  C   UNL     1       1.315  28.944  25.966  1.00  0.00     0.047 A 
BRANCH  15  18
ATOM     18  O   UNL     1       2.759  28.690  24.031  1.00  0.00    -0.508 OA
ATOM     19  H   UNL     1       2.400  28.979  23.127  1.00  0.00     0.293 HD
ENDBRANCH  15  18
ENDBRANCH   1  12
BRANCH  11  20
ATOM     20  C   UNL     1      -4.843  24.872  30.690  1.00  0.00     0.188 C 
ATOM     21  C   UNL     1      -5.513  25.694  29.543  1.00  0.00     0.179 C 
ATOM     22  O   UNL     1      -5.407  25.168  31.966  1.00  0.00    -0.362 OA
ATOM     23  C   UNL     1      -5.593  27.202  29.880  1.00  0.00     0.177 C 
ATOM     24  C   UNL     1      -5.394  26.546  32.321  1.00  0.00     0.176 C 
ATOM     25  C   UNL     1      -6.149  27.423  31.293  1.00  0.00     0.177 C 
BRANCH  21  26
ATOM     26  O   UNL     1      -6.799  25.185  29.269  1.00  0.00    -0.387 OA
ATOM     27  H   UNL     1      -6.700  24.336  28.766  1.00  0.00     0.211 HD
ENDBRANCH  21  26
BRANCH  23  28
ATOM     28  O   UNL     1      -6.349  27.895  28.916  1.00  0.00    -0.387 OA
ATOM     29  H   UNL     1      -5.995  27.663  28.017  1.00  0.00     0.211 HD
ENDBRANCH  23  28
BRANCH  24  30
ATOM     30  C   UNL     1      -3.980  27.047  32.690  1.00  0.00     0.191 C 
BRANCH  30  31
ATOM     31  O   UNL     1      -4.066  28.126  33.581  1.00  0.00    -0.394 OA
ATOM     32  H   UNL     1      -4.954  28.051  34.019  1.00  0.00     0.210 HD
ENDBRANCH  30  31
ENDBRANCH  24  30
BRANCH  25  33
ATOM     33  O   UNL     1      -6.055  28.785  31.625  1.00  0.00    -0.388 OA
ATOM     34  H   UNL     1      -6.859  29.005  32.163  1.00  0.00     0.211 HD
ENDBRANCH  25  33
ENDBRANCH  11  20
BRANCH  10  35
ATOM     35  O   UNL     1      -3.579  23.346  32.826  1.00  0.00    -0.507 OA
ATOM     36  H   UNL     1      -3.555  23.532  33.819  1.00  0.00     0.293 HD
ENDBRANCH  10  35
TORSDOF 9
ENDMDL
MODEL 9
REMARK VINA RESULT:    -5.785      2.019      4.302
REMARK INTER + INTRA:          -8.499
REMARK INTER:                  -8.322
REMARK INTRA:                  -0.177
REMARK UNBOUND:                -0.685
REMARK SMILES O=c1c(-c2ccc(O)cc2)coc2c([C@H]3O[C@@H](CO)[C@@H](O)[C@H](O)[C@@H]3O)c(O)ccc12
REMARK SMILES IDX 3 1 11 2 12 3 13 4 30 5 2 6 1 7 29 8 28 9 26 10 14 11 4 12
REMARK SMILES IDX 5 13 6 14 7 15 10 16 9 17 8 18 15 20 24 21 16 22 22 23 17 24
REMARK SMILES IDX 20 25 25 26 23 28 18 30 19 31 21 33 27 35
REMARK H PARENT 8 19 25 27 23 29 19 32 21 34 27 36
REMARK Flexibility Score: inf
ROOT
ATOM      1  C   UNL     1      -3.130  24.995  30.815  1.00  0.00     0.065 A 
ATOM      2  C   UNL     1      -2.575  24.391  29.682  1.00  0.00     0.208 A 
ATOM      3  O   UNL     1      -1.721  25.049  28.909  1.00  0.00    -0.463 OA
ATOM      4  C   UNL     1      -1.327  26.296  29.132  1.00  0.00     0.147 A 
ATOM      5  C   UNL     1      -1.847  26.982  30.259  1.00  0.00     0.066 A 
ATOM      6  C   UNL     1      -2.749  26.315  31.108  1.00  0.00     0.200 A 
ATOM      7  O   UNL     1      -3.200  26.889  32.139  1.00  0.00    -0.288 OA
ATOM      8  C   UNL     1      -1.456  28.302  30.512  1.00  0.00     0.020 A 
ATOM      9  C   UNL     1      -0.579  28.948  29.653  1.00  0.00     0.047 A 
ATOM     10  C   UNL     1      -0.060  28.298  28.534  1.00  0.00     0.125 A 
ATOM     11  C   UNL     1      -0.396  26.938  28.261  1.00  0.00     0.069 A 
ENDROOT
BRANCH   1  12
ATOM     12  C   UNL     1      -4.086  24.241  31.664  1.00  0.00    -0.011 A 
ATOM     13  C   UNL     1      -3.763  22.951  32.120  1.00  0.00     0.013 A 
ATOM     14  C   UNL     1      -4.664  22.235  32.914  1.00  0.00     0.047 A 
ATOM     15  C   UNL     1      -5.898  22.794  33.257  1.00  0.00     0.115 A 
ATOM     16  C   UNL     1      -5.331  24.796  32.008  1.00  0.00     0.013 A 
ATOM     17  C   UNL     1      -6.231  24.077  32.801  1.00  0.00     0.047 A 
BRANCH  15  18
ATOM     18  O   UNL     1      -6.786  22.069  34.048  1.00  0.00    -0.508 OA
ATOM     19  H   UNL     1      -7.106  22.421  34.944  1.00  0.00     0.293 HD
ENDBRANCH  15  18
ENDBRANCH   1  12
BRANCH  11  20
ATOM     20  C   UNL     1       0.280  26.259  27.050  1.00  0.00     0.188 C 
ATOM     21  C   UNL     1       0.145  24.722  26.803  1.00  0.00     0.179 C 
ATOM     22  O   UNL     1       1.619  26.716  26.879  1.00  0.00    -0.362 OA
ATOM     23  C   UNL     1       1.208  23.913  27.583  1.00  0.00     0.177 C 
ATOM     24  C   UNL     1       2.589  26.038  27.670  1.00  0.00     0.176 C 
ATOM     25  C   UNL     1       2.607  24.515  27.395  1.00  0.00     0.177 C 
BRANCH  21  26
ATOM     26  O   UNL     1       0.232  24.443  25.423  1.00  0.00    -0.387 OA
ATOM     27  H   UNL     1       0.192  23.461  25.298  1.00  0.00     0.211 HD
ENDBRANCH  21  26
BRANCH  23  28
ATOM     28  O   UNL     1       1.178  22.555  27.216  1.00  0.00    -0.387 OA
ATOM     29  H   UNL     1       1.262  22.007  28.040  1.00  0.00     0.211 HD
ENDBRANCH  23  28
BRANCH  24  30
ATOM     30  C   UNL     1       2.512  26.428  29.163  1.00  0.00     0.191 C 
BRANCH  30  31
ATOM     31  O   UNL     1       3.152  27.657  29.375  1.00  0.00    -0.394 OA
ATOM     32  H   UNL     1       4.009  27.447  29.829  1.00  0.00     0.210 HD
ENDBRANCH  30  31
ENDBRANCH  24  30
BRANCH  25  33
ATOM     33  O   UNL     1       3.516  23.858  28.241  1.00  0.00    -0.388 OA
ATOM     34  H   UNL     1       3.579  22.921  27.922  1.00  0.00     0.211 HD
ENDBRANCH  25  33
ENDBRANCH  11  20
BRANCH  10  35
ATOM     35  O   UNL     1       0.788  29.050  27.712  1.00  0.00    -0.507 OA
ATOM     36  H   UNL     1       1.271  29.889  28.001  1.00  0.00     0.293 HD
ENDBRANCH  10  35
TORSDOF 9
ENDMDL
