MODEL 1
REMARK VINA RESULT:    -2.804      0.000      0.000
REMARK INTER + INTRA:          -3.412
REMARK INTER:                  -3.295
REMARK INTRA:                  -0.117
REMARK UNBOUND:                -0.117
REMARK SMILES O=C([O-])CCC(=O)[O-]
REMARK SMILES IDX 4 1 2 2 1 3 3 4 5 5 6 6 7 7 8 8
REMARK H PARENT
REMARK Flexibility Score: inf
ROOT
ATOM      1  C   UNL     1       3.793   8.256  27.251  1.00  0.00     0.059 C 
ENDROOT
BRANCH   1   2
ATOM      2  C   UNL     1       3.669   8.962  25.938  1.00  0.00     0.042 C 
ATOM      3  O   UNL     1       4.130  10.124  25.797  1.00  0.00    -0.550 OA
ATOM      4  O   UNL     1       2.999   8.355  24.884  1.00  0.00    -0.550 OA
ENDBRANCH   1   2
BRANCH   1   5
ATOM      5  C   UNL     1       2.580   8.553  28.135  1.00  0.00     0.059 C 
BRANCH   5   6
ATOM      6  C   UNL     1       2.956   9.482  29.245  1.00  0.00     0.042 C 
ATOM      7  O   UNL     1       4.107   9.989  29.285  1.00  0.00    -0.550 OA
ATOM      8  O   UNL     1       2.019   9.827  30.210  1.00  0.00    -0.550 OA
ENDBRANCH   5   6
ENDBRANCH   1   5
TORSDOF 3
ENDMDL
MODEL 2
REMARK VINA RESULT:    -2.801      0.755      3.826
REMARK INTER + INTRA:          -3.409
REMARK INTER:                  -3.301
REMARK INTRA:                  -0.108
REMARK UNBOUND:                -0.117
REMARK SMILES O=C([O-])CCC(=O)[O-]
REMARK SMILES IDX 4 1 2 2 1 3 3 4 5 5 6 6 7 7 8 8
REMARK H PARENT
REMARK Flexibility Score: inf
ROOT
ATOM      1  C   UNL     1       2.755   8.686  27.967  1.00  0.00     0.059 C 
ENDROOT
BRANCH   1   2
ATOM      2  C   UNL     1       2.962   9.641  29.099  1.00  0.00     0.042 C 
ATOM      3  O   UNL     1       4.102  10.124  29.321  1.00  0.00    -0.550 OA
ATOM      4  O   UNL     1       1.904   9.961  29.940  1.00  0.00    -0.550 OA
ENDBRANCH   1   2
BRANCH   1   5
ATOM      5  C   UNL     1       2.072   9.387  26.792  1.00  0.00     0.059 C 
BRANCH   5   6
ATOM      6  C   UNL     1       3.024   9.541  25.649  1.00  0.00     0.042 C 
ATOM      7  O   UNL     1       4.126  10.125  25.816  1.00  0.00    -0.550 OA
ATOM      8  O   UNL     1       2.716   8.996  24.409  1.00  0.00    -0.550 OA
ENDBRANCH   5   6
ENDBRANCH   1   5
TORSDOF 3
ENDMDL
MODEL 3
REMARK VINA RESULT:    -2.784      0.590      3.742
REMARK INTER + INTRA:          -3.389
REMARK INTER:                  -3.283
REMARK INTRA:                  -0.106
REMARK UNBOUND:                -0.117
REMARK SMILES O=C([O-])CCC(=O)[O-]
REMARK SMILES IDX 4 1 2 2 1 3 3 4 5 5 6 6 7 7 8 8
REMARK H PARENT
REMARK Flexibility Score: inf
ROOT
ATOM      1  C   UNL     1       2.605   8.230  28.458  1.00  0.00     0.059 C 
ENDROOT
BRANCH   1   2
ATOM      2  C   UNL     1       2.790   9.505  29.219  1.00  0.00     0.042 C 
ATOM      3  O   UNL     1       1.803  10.075  29.750  1.00  0.00    -0.550 OA
ATOM      4  O   UNL     1       4.048  10.090  29.299  1.00  0.00    -0.550 OA
ENDBRANCH   1   2
BRANCH   1   5
ATOM      5  C   UNL     1       3.603   8.147  27.301  1.00  0.00     0.059 C 
BRANCH   5   6
ATOM      6  C   UNL     1       3.234   9.112  26.220  1.00  0.00     0.042 C 
ATOM      7  O   UNL     1       2.109   9.039  25.662  1.00  0.00    -0.550 OA
ATOM      8  O   UNL     1       4.115  10.125  25.863  1.00  0.00    -0.550 OA
ENDBRANCH   5   6
ENDBRANCH   1   5
TORSDOF 3
ENDMDL
MODEL 4
REMARK VINA RESULT:    -2.765     10.567     12.620
REMARK INTER + INTRA:          -3.367
REMARK INTER:                  -3.246
REMARK INTRA:                  -0.121
REMARK UNBOUND:                -0.117
REMARK SMILES O=C([O-])CCC(=O)[O-]
REMARK SMILES IDX 4 1 2 2 1 3 3 4 5 5 6 6 7 7 8 8
REMARK H PARENT
REMARK Flexibility Score: inf
ROOT
ATOM      1  C   UNL     1      -2.298   9.261  38.474  1.00  0.00     0.059 C 
ENDROOT
BRANCH   1   2
ATOM      2  C   UNL     1      -1.700   8.791  37.187  1.00  0.00     0.042 C 
ATOM      3  O   UNL     1      -1.653   9.560  36.191  1.00  0.00    -0.550 OA
ATOM      4  O   UNL     1      -1.239   7.486  37.071  1.00  0.00    -0.550 OA
ENDBRANCH   1   2
BRANCH   1   5
ATOM      5  C   UNL     1      -1.767   8.433  39.646  1.00  0.00     0.059 C 
BRANCH   5   6
ATOM      6  C   UNL     1      -2.875   7.658  40.285  1.00  0.00     0.042 C 
ATOM      7  O   UNL     1      -3.311   7.992  41.417  1.00  0.00    -0.550 OA
ATOM      8  O   UNL     1      -3.461   6.596  39.607  1.00  0.00    -0.550 OA
ENDBRANCH   5   6
ENDBRANCH   1   5
TORSDOF 3
ENDMDL
MODEL 5
REMARK VINA RESULT:    -2.757     10.484     13.000
REMARK INTER + INTRA:          -3.357
REMARK INTER:                  -3.238
REMARK INTRA:                  -0.119
REMARK UNBOUND:                -0.117
REMARK SMILES O=C([O-])CCC(=O)[O-]
REMARK SMILES IDX 4 1 2 2 1 3 3 4 5 5 6 6 7 7 8 8
REMARK H PARENT
REMARK Flexibility Score: inf
ROOT
ATOM      1  C   UNL     1      -1.795   8.443  39.600  1.00  0.00     0.059 C 
ENDROOT
BRANCH   1   2
ATOM      2  C   UNL     1      -2.913   7.676  40.232  1.00  0.00     0.042 C 
ATOM      3  O   UNL     1      -3.335   7.996  41.373  1.00  0.00    -0.550 OA
ATOM      4  O   UNL     1      -3.456   6.576  39.581  1.00  0.00    -0.550 OA
ENDBRANCH   1   2
BRANCH   1   5
ATOM      5  C   UNL     1      -2.307   9.248  38.404  1.00  0.00     0.059 C 
BRANCH   5   6
ATOM      6  C   UNL     1      -1.656   8.781  37.141  1.00  0.00     0.042 C 
ATOM      7  O   UNL     1      -1.197   7.612  37.059  1.00  0.00    -0.550 OA
ATOM      8  O   UNL     1      -1.599   9.621  36.036  1.00  0.00    -0.550 OA
ENDBRANCH   5   6
ENDBRANCH   1   5
TORSDOF 3
ENDMDL
MODEL 6
REMARK VINA RESULT:    -2.739     11.499     13.046
REMARK INTER + INTRA:          -3.336
REMARK INTER:                  -3.236
REMARK INTRA:                  -0.100
REMARK UNBOUND:                -0.117
REMARK SMILES O=C([O-])CCC(=O)[O-]
REMARK SMILES IDX 4 1 2 2 1 3 3 4 5 5 6 6 7 7 8 8
REMARK H PARENT
REMARK Flexibility Score: inf
ROOT
ATOM      1  C   UNL     1      -2.153   9.268  38.649  1.00  0.00     0.059 C 
ENDROOT
BRANCH   1   2
ATOM      2  C   UNL     1      -0.753   9.784  38.759  1.00  0.00     0.042 C 
ATOM      3  O   UNL     1      -0.113  10.105  37.724  1.00  0.00    -0.550 OA
ATOM      4  O   UNL     1      -0.138   9.865  40.001  1.00  0.00    -0.550 OA
ENDBRANCH   1   2
BRANCH   1   5
ATOM      5  C   UNL     1      -2.159   7.738  38.625  1.00  0.00     0.059 C 
BRANCH   5   6
ATOM      6  C   UNL     1      -3.011   7.202  39.732  1.00  0.00     0.042 C 
ATOM      7  O   UNL     1      -3.568   6.080  39.615  1.00  0.00    -0.550 OA
ATOM      8  O   UNL     1      -3.149   7.919  40.913  1.00  0.00    -0.550 OA
ENDBRANCH   5   6
ENDBRANCH   1   5
TORSDOF 3
ENDMDL
MODEL 7
REMARK VINA RESULT:    -2.729     10.095     11.601
REMARK INTER + INTRA:          -3.324
REMARK INTER:                  -3.139
REMARK INTRA:                  -0.185
REMARK UNBOUND:                -0.117
REMARK SMILES O=C([O-])CCC(=O)[O-]
REMARK SMILES IDX 4 1 2 2 1 3 3 4 5 5 6 6 7 7 8 8
REMARK H PARENT
REMARK Flexibility Score: inf
ROOT
ATOM      1  C   UNL     1      -2.265   9.894  37.876  1.00  0.00     0.059 C 
ENDROOT
BRANCH   1   2
ATOM      2  C   UNL     1      -1.468   9.462  36.686  1.00  0.00     0.042 C 
ATOM      3  O   UNL     1      -1.840   8.476  35.999  1.00  0.00    -0.550 OA
ATOM      4  O   UNL     1      -0.288  10.120  36.364  1.00  0.00    -0.550 OA
ENDBRANCH   1   2
BRANCH   1   5
ATOM      5  C   UNL     1      -2.300   8.784  38.929  1.00  0.00     0.059 C 
BRANCH   5   6
ATOM      6  C   UNL     1      -0.938   8.570  39.508  1.00  0.00     0.042 C 
ATOM      7  O   UNL     1      -0.359   7.460  39.374  1.00  0.00    -0.550 OA
ATOM      8  O   UNL     1      -0.286   9.611  40.156  1.00  0.00    -0.550 OA
ENDBRANCH   5   6
ENDBRANCH   1   5
TORSDOF 3
ENDMDL
MODEL 8
REMARK VINA RESULT:    -2.716     12.186     13.721
REMARK INTER + INTRA:          -3.310
REMARK INTER:                  -3.182
REMARK INTRA:                  -0.127
REMARK UNBOUND:                -0.117
REMARK SMILES O=C([O-])CCC(=O)[O-]
REMARK SMILES IDX 4 1 2 2 1 3 3 4 5 5 6 6 7 7 8 8
REMARK H PARENT
REMARK Flexibility Score: inf
ROOT
ATOM      1  C   UNL     1      -1.970   8.014  38.944  1.00  0.00     0.059 C 
ENDROOT
BRANCH   1   2
ATOM      2  C   UNL     1      -1.733   9.474  38.726  1.00  0.00     0.042 C 
ATOM      3  O   UNL     1      -2.436  10.114  37.900  1.00  0.00    -0.550 OA
ATOM      4  O   UNL     1      -0.703  10.119  39.398  1.00  0.00    -0.550 OA
ENDBRANCH   1   2
BRANCH   1   5
ATOM      5  C   UNL     1      -3.081   7.799  39.974  1.00  0.00     0.059 C 
BRANCH   5   6
ATOM      6  C   UNL     1      -2.502   7.636  41.343  1.00  0.00     0.042 C 
ATOM      7  O   UNL     1      -3.221   7.812  42.360  1.00  0.00    -0.550 OA
ATOM      8  O   UNL     1      -1.179   7.241  41.495  1.00  0.00    -0.550 OA
ENDBRANCH   5   6
ENDBRANCH   1   5
TORSDOF 3
ENDMDL
MODEL 9
REMARK VINA RESULT:    -2.711      9.027     11.637
REMARK INTER + INTRA:          -3.303
REMARK INTER:                  -3.180
REMARK INTRA:                  -0.122
REMARK UNBOUND:                -0.117
REMARK SMILES O=C([O-])CCC(=O)[O-]
REMARK SMILES IDX 4 1 2 2 1 3 3 4 5 5 6 6 7 7 8 8
REMARK H PARENT
REMARK Flexibility Score: inf
ROOT
ATOM      1  C   UNL     1      -2.143   9.584  37.962  1.00  0.00     0.059 C 
ENDROOT
BRANCH   1   2
ATOM      2  C   UNL     1      -2.086   8.573  39.064  1.00  0.00     0.042 C 
ATOM      3  O   UNL     1      -3.110   8.330  39.754  1.00  0.00    -0.550 OA
ATOM      4  O   UNL     1      -0.889   7.936  39.360  1.00  0.00    -0.550 OA
ENDBRANCH   1   2
BRANCH   1   5
ATOM      5  C   UNL     1      -1.614   8.984  36.658  1.00  0.00     0.059 C 
BRANCH   5   6
ATOM      6  C   UNL     1      -0.365   9.687  36.228  1.00  0.00     0.042 C 
ATOM      7  O   UNL     1       0.444  10.125  37.087  1.00  0.00    -0.550 OA
ATOM      8  O   UNL     1      -0.071   9.816  34.877  1.00  0.00    -0.550 OA
ENDBRANCH   5   6
ENDBRANCH   1   5
TORSDOF 3
ENDMDL
