MODEL 1
REMARK VINA RESULT:    -6.043      0.000      0.000
REMARK INTER + INTRA:         -11.704
REMARK INTER:                  -9.223
REMARK INTRA:                  -2.481
REMARK UNBOUND:                -2.481
REMARK SMILES CC(=O)CCC=C(C)CCC=C(C)CCC=C(C)C
REMARK SMILES IDX 10 1 11 2 12 3 13 4 14 5 15 6 16 7 18 8 17 9 19 10 9 11 7 12
REMARK SMILES IDX 6 13 8 14 5 15 4 16 2 17 3 18 1 19
REMARK H PARENT
REMARK Flexibility Score: inf
ROOT
ATOM      1  C   UNL     1     -10.097 -18.970  30.899  1.00  0.00     0.032 C 
ENDROOT
BRANCH   1   2
ATOM      2  C   UNL     1     -11.413 -19.128  30.175  1.00  0.00    -0.028 C 
ATOM      3  C   UNL     1     -12.495 -19.764  30.679  1.00  0.00    -0.077 C 
ATOM      4  C   UNL     1     -12.509 -20.327  32.081  1.00  0.00     0.039 C 
BRANCH   3   5
ATOM      5  C   UNL     1     -13.739 -19.880  29.824  1.00  0.00     0.034 C 
BRANCH   5   6
ATOM      6  C   UNL     1     -13.580 -19.086  28.522  1.00  0.00     0.032 C 
BRANCH   6   7
ATOM      7  C   UNL     1     -13.814 -17.615  28.760  1.00  0.00    -0.028 C 
ATOM      8  C   UNL     1     -13.469 -15.198  28.485  1.00  0.00     0.039 C 
ATOM      9  C   UNL     1     -13.157 -16.625  28.116  1.00  0.00    -0.080 C 
ATOM     10  C   UNL     1     -12.142 -16.910  27.034  1.00  0.00     0.039 C 
ENDBRANCH   6   7
ENDBRANCH   5   6
ENDBRANCH   3   5
ENDBRANCH   1   2
BRANCH   1  11
ATOM     11  C   UNL     1     -10.098 -17.753  31.836  1.00  0.00     0.034 C 
BRANCH  11  12
ATOM     12  C   UNL     1     -10.760 -16.542  31.202  1.00  0.00    -0.077 C 
ATOM     13  C   UNL     1     -11.937 -16.039  31.638  1.00  0.00    -0.028 C 
ATOM     14  C   UNL     1     -10.087 -15.874  30.031  1.00  0.00     0.039 C 
BRANCH  13  15
ATOM     15  C   UNL     1     -12.694 -16.577  32.831  1.00  0.00     0.035 C 
BRANCH  15  16
ATOM     16  C   UNL     1     -14.097 -17.067  32.449  1.00  0.00     0.079 C 
BRANCH  16  17
ATOM     17  C   UNL     1     -15.163 -16.075  32.844  1.00  0.00     0.130 C 
ATOM     18  O   UNL     1     -16.055 -16.422  33.604  1.00  0.00    -0.300 OA
ATOM     19  C   UNL     1     -15.158 -14.672  32.315  1.00  0.00     0.087 C 
ENDBRANCH  16  17
ENDBRANCH  15  16
ENDBRANCH  13  15
ENDBRANCH  11  12
ENDBRANCH   1  11
TORSDOF 9
ENDMDL
MODEL 2
REMARK VINA RESULT:    -5.719      1.258      2.905
REMARK INTER + INTRA:         -11.210
REMARK INTER:                  -8.853
REMARK INTRA:                  -2.357
REMARK UNBOUND:                -2.481
REMARK SMILES CC(=O)CCC=C(C)CCC=C(C)CCC=C(C)C
REMARK SMILES IDX 10 1 11 2 12 3 13 4 14 5 15 6 16 7 18 8 17 9 19 10 9 11 7 12
REMARK SMILES IDX 6 13 8 14 5 15 4 16 2 17 3 18 1 19
REMARK H PARENT
REMARK Flexibility Score: inf
ROOT
ATOM      1  C   UNL     1     -11.058 -19.565  31.694  1.00  0.00     0.032 C 
ENDROOT
BRANCH   1   2
ATOM      2  C   UNL     1     -10.663 -18.566  30.632  1.00  0.00    -0.028 C 
ATOM      3  C   UNL     1     -10.208 -17.317  30.884  1.00  0.00    -0.077 C 
ATOM      4  C   UNL     1      -9.979 -16.820  32.292  1.00  0.00     0.039 C 
BRANCH   3   5
ATOM      5  C   UNL     1      -9.885 -16.408  29.718  1.00  0.00     0.034 C 
BRANCH   5   6
ATOM      6  C   UNL     1     -10.983 -16.482  28.650  1.00  0.00     0.032 C 
BRANCH   6   7
ATOM      7  C   UNL     1     -12.121 -15.552  28.988  1.00  0.00    -0.028 C 
ATOM      8  C   UNL     1     -14.335 -14.512  28.756  1.00  0.00     0.039 C 
ATOM      9  C   UNL     1     -13.302 -15.523  28.331  1.00  0.00    -0.080 C 
ATOM     10  C   UNL     1     -13.616 -16.482  27.206  1.00  0.00     0.039 C 
ENDBRANCH   6   7
ENDBRANCH   5   6
ENDBRANCH   3   5
ENDBRANCH   1   2
BRANCH   1  11
ATOM     11  C   UNL     1     -12.480 -20.104  31.476  1.00  0.00     0.034 C 
BRANCH  11  12
ATOM     12  C   UNL     1     -13.297 -19.212  30.559  1.00  0.00    -0.077 C 
ATOM     13  C   UNL     1     -13.886 -18.071  30.982  1.00  0.00    -0.028 C 
ATOM     14  C   UNL     1     -13.471 -19.614  29.117  1.00  0.00     0.039 C 
BRANCH  13  15
ATOM     15  C   UNL     1     -13.753 -17.523  32.385  1.00  0.00     0.035 C 
BRANCH  15  16
ATOM     16  C   UNL     1     -13.462 -16.017  32.388  1.00  0.00     0.079 C 
BRANCH  16  17
ATOM     17  C   UNL     1     -14.413 -15.265  33.286  1.00  0.00     0.130 C 
ATOM     18  O   UNL     1     -13.968 -14.589  34.202  1.00  0.00    -0.300 OA
ATOM     19  C   UNL     1     -15.897 -15.336  33.085  1.00  0.00     0.087 C 
ENDBRANCH  16  17
ENDBRANCH  15  16
ENDBRANCH  13  15
ENDBRANCH  11  12
ENDBRANCH   1  11
TORSDOF 9
ENDMDL
MODEL 3
REMARK VINA RESULT:    -5.717      1.106      3.105
REMARK INTER + INTRA:         -11.206
REMARK INTER:                  -9.809
REMARK INTRA:                  -1.397
REMARK UNBOUND:                -2.481
REMARK SMILES CC(=O)CCC=C(C)CCC=C(C)CCC=C(C)C
REMARK SMILES IDX 10 1 11 2 12 3 13 4 14 5 15 6 16 7 18 8 17 9 19 10 9 11 7 12
REMARK SMILES IDX 6 13 8 14 5 15 4 16 2 17 3 18 1 19
REMARK H PARENT
REMARK Flexibility Score: inf
ROOT
ATOM      1  C   UNL     1     -10.516 -15.711  30.296  1.00  0.00     0.032 C 
ENDROOT
BRANCH   1   2
ATOM      2  C   UNL     1     -11.125 -16.379  29.086  1.00  0.00    -0.028 C 
ATOM      3  C   UNL     1     -12.348 -16.093  28.584  1.00  0.00    -0.077 C 
ATOM      4  C   UNL     1     -13.211 -14.997  29.164  1.00  0.00     0.039 C 
BRANCH   3   5
ATOM      5  C   UNL     1     -12.847 -16.871  27.386  1.00  0.00     0.034 C 
BRANCH   5   6
ATOM      6  C   UNL     1     -13.754 -18.027  27.826  1.00  0.00     0.032 C 
BRANCH   6   7
ATOM      7  C   UNL     1     -13.302 -18.585  29.152  1.00  0.00    -0.028 C 
ATOM      8  C   UNL     1     -13.065 -20.256  30.938  1.00  0.00     0.039 C 
ATOM      9  C   UNL     1     -13.545 -19.848  29.570  1.00  0.00    -0.080 C 
ATOM     10  C   UNL     1     -14.264 -20.854  28.700  1.00  0.00     0.039 C 
ENDBRANCH   6   7
ENDBRANCH   5   6
ENDBRANCH   3   5
ENDBRANCH   1   2
BRANCH   1  11
ATOM     11  C   UNL     1     -10.335 -16.692  31.464  1.00  0.00     0.034 C 
BRANCH  11  12
ATOM     12  C   UNL     1     -10.854 -16.125  32.774  1.00  0.00    -0.077 C 
ATOM     13  C   UNL     1     -12.161 -16.151  33.117  1.00  0.00    -0.028 C 
ATOM     14  C   UNL     1      -9.875 -15.495  33.732  1.00  0.00     0.039 C 
BRANCH  13  15
ATOM     15  C   UNL     1     -13.240 -16.794  32.277  1.00  0.00     0.035 C 
BRANCH  15  16
ATOM     16  C   UNL     1     -14.499 -17.105  33.098  1.00  0.00     0.079 C 
BRANCH  16  17
ATOM     17  C   UNL     1     -15.485 -15.965  33.065  1.00  0.00     0.130 C 
ATOM     18  O   UNL     1     -16.592 -16.112  33.562  1.00  0.00    -0.300 OA
ATOM     19  C   UNL     1     -15.141 -14.653  32.425  1.00  0.00     0.087 C 
ENDBRANCH  16  17
ENDBRANCH  15  16
ENDBRANCH  13  15
ENDBRANCH  11  12
ENDBRANCH   1  11
TORSDOF 9
ENDMDL
MODEL 4
REMARK VINA RESULT:    -5.683      1.730      3.733
REMARK INTER + INTRA:         -11.155
REMARK INTER:                  -9.787
REMARK INTRA:                  -1.367
REMARK UNBOUND:                -2.481
REMARK SMILES CC(=O)CCC=C(C)CCC=C(C)CCC=C(C)C
REMARK SMILES IDX 10 1 11 2 12 3 13 4 14 5 15 6 16 7 18 8 17 9 19 10 9 11 7 12
REMARK SMILES IDX 6 13 8 14 5 15 4 16 2 17 3 18 1 19
REMARK H PARENT
REMARK Flexibility Score: inf
ROOT
ATOM      1  C   UNL     1     -12.390 -18.117  27.784  1.00  0.00     0.032 C 
ENDROOT
BRANCH   1   2
ATOM      2  C   UNL     1     -12.263 -18.800  29.126  1.00  0.00    -0.028 C 
ATOM      3  C   UNL     1     -13.120 -19.735  29.596  1.00  0.00    -0.077 C 
ATOM      4  C   UNL     1     -14.275 -20.247  28.769  1.00  0.00     0.039 C 
BRANCH   3   5
ATOM      5  C   UNL     1     -12.890 -20.308  30.978  1.00  0.00     0.034 C 
BRANCH   5   6
ATOM      6  C   UNL     1     -12.470 -19.208  31.960  1.00  0.00     0.032 C 
BRANCH   6   7
ATOM      7  C   UNL     1     -13.624 -18.283  32.253  1.00  0.00    -0.028 C 
ATOM      8  C   UNL     1     -14.735 -16.218  32.987  1.00  0.00     0.039 C 
ATOM      9  C   UNL     1     -13.489 -17.014  32.701  1.00  0.00    -0.080 C 
ATOM     10  C   UNL     1     -12.134 -16.376  32.901  1.00  0.00     0.039 C 
ENDBRANCH   6   7
ENDBRANCH   5   6
ENDBRANCH   3   5
ENDBRANCH   1   2
BRANCH   1  11
ATOM     11  C   UNL     1     -11.427 -16.928  27.651  1.00  0.00     0.034 C 
BRANCH  11  12
ATOM     12  C   UNL     1     -11.391 -16.076  28.907  1.00  0.00    -0.077 C 
ATOM     13  C   UNL     1     -12.468 -15.400  29.365  1.00  0.00    -0.028 C 
ATOM     14  C   UNL     1     -10.098 -15.965  29.674  1.00  0.00     0.039 C 
BRANCH  13  15
ATOM     15  C   UNL     1     -13.836 -15.461  28.724  1.00  0.00     0.035 C 
BRANCH  15  16
ATOM     16  C   UNL     1     -14.401 -14.062  28.441  1.00  0.00     0.079 C 
BRANCH  16  17
ATOM     17  C   UNL     1     -15.384 -13.630  29.499  1.00  0.00     0.130 C 
ATOM     18  O   UNL     1     -15.213 -13.979  30.658  1.00  0.00    -0.300 OA
ATOM     19  C   UNL     1     -16.577 -12.788  29.158  1.00  0.00     0.087 C 
ENDBRANCH  16  17
ENDBRANCH  15  16
ENDBRANCH  13  15
ENDBRANCH  11  12
ENDBRANCH   1  11
TORSDOF 9
ENDMDL
MODEL 5
REMARK VINA RESULT:    -5.674      1.349      4.587
REMARK INTER + INTRA:         -11.141
REMARK INTER:                  -8.946
REMARK INTRA:                  -2.194
REMARK UNBOUND:                -2.481
REMARK SMILES CC(=O)CCC=C(C)CCC=C(C)CCC=C(C)C
REMARK SMILES IDX 10 1 11 2 12 3 13 4 14 5 15 6 16 7 18 8 17 9 19 10 9 11 7 12
REMARK SMILES IDX 6 13 8 14 5 15 4 16 2 17 3 18 1 19
REMARK H PARENT
REMARK Flexibility Score: inf
ROOT
ATOM      1  C   UNL     1     -10.857 -15.923  29.130  1.00  0.00     0.032 C 
ENDROOT
BRANCH   1   2
ATOM      2  C   UNL     1     -11.214 -15.996  30.596  1.00  0.00    -0.028 C 
ATOM      3  C   UNL     1     -10.904 -17.030  31.412  1.00  0.00    -0.077 C 
ATOM      4  C   UNL     1     -10.087 -18.206  30.934  1.00  0.00     0.039 C 
BRANCH   3   5
ATOM      5  C   UNL     1     -11.361 -16.985  32.854  1.00  0.00     0.034 C 
BRANCH   5   6
ATOM      6  C   UNL     1     -12.067 -15.658  33.161  1.00  0.00     0.032 C 
BRANCH   6   7
ATOM      7  C   UNL     1     -13.500 -15.898  33.568  1.00  0.00    -0.028 C 
ATOM      8  C   UNL     1     -15.945 -15.905  33.333  1.00  0.00     0.039 C 
ATOM      9  C   UNL     1     -14.568 -15.652  32.777  1.00  0.00    -0.080 C 
ATOM     10  C   UNL     1     -14.416 -15.152  31.359  1.00  0.00     0.039 C 
ENDBRANCH   6   7
ENDBRANCH   5   6
ENDBRANCH   3   5
ENDBRANCH   1   2
BRANCH   1  11
ATOM     11  C   UNL     1     -12.102 -15.970  28.232  1.00  0.00     0.034 C 
BRANCH  11  12
ATOM     12  C   UNL     1     -12.161 -17.238  27.398  1.00  0.00    -0.077 C 
ATOM     13  C   UNL     1     -12.834 -18.342  27.791  1.00  0.00    -0.028 C 
ATOM     14  C   UNL     1     -11.430 -17.277  26.081  1.00  0.00     0.039 C 
BRANCH  13  15
ATOM     15  C   UNL     1     -13.650 -18.425  29.061  1.00  0.00     0.035 C 
BRANCH  15  16
ATOM     16  C   UNL     1     -13.579 -19.818  29.700  1.00  0.00     0.079 C 
BRANCH  16  17
ATOM     17  C   UNL     1     -13.414 -19.740  31.197  1.00  0.00     0.130 C 
ATOM     18  O   UNL     1     -13.918 -18.811  31.810  1.00  0.00    -0.300 OA
ATOM     19  C   UNL     1     -12.636 -20.776  31.952  1.00  0.00     0.087 C 
ENDBRANCH  16  17
ENDBRANCH  15  16
ENDBRANCH  13  15
ENDBRANCH  11  12
ENDBRANCH   1  11
TORSDOF 9
ENDMDL
MODEL 6
REMARK VINA RESULT:    -5.665      1.935      5.314
REMARK INTER + INTRA:         -11.126
REMARK INTER:                  -9.410
REMARK INTRA:                  -1.716
REMARK UNBOUND:                -2.481
REMARK SMILES CC(=O)CCC=C(C)CCC=C(C)CCC=C(C)C
REMARK SMILES IDX 10 1 11 2 12 3 13 4 14 5 15 6 16 7 18 8 17 9 19 10 9 11 7 12
REMARK SMILES IDX 6 13 8 14 5 15 4 16 2 17 3 18 1 19
REMARK H PARENT
REMARK Flexibility Score: inf
ROOT
ATOM      1  C   UNL     1     -13.734 -15.001  27.964  1.00  0.00     0.032 C 
ENDROOT
BRANCH   1   2
ATOM      2  C   UNL     1     -13.851 -15.299  29.440  1.00  0.00    -0.028 C 
ATOM      3  C   UNL     1     -14.639 -14.616  30.302  1.00  0.00    -0.077 C 
ATOM      4  C   UNL     1     -15.553 -13.507  29.840  1.00  0.00     0.039 C 
BRANCH   3   5
ATOM      5  C   UNL     1     -14.627 -15.002  31.765  1.00  0.00     0.034 C 
BRANCH   5   6
ATOM      6  C   UNL     1     -14.032 -16.403  31.955  1.00  0.00     0.032 C 
BRANCH   6   7
ATOM      7  C   UNL     1     -12.878 -16.366  32.926  1.00  0.00    -0.028 C 
ATOM      8  C   UNL     1     -10.528 -16.314  33.643  1.00  0.00     0.039 C 
ATOM      9  C   UNL     1     -11.577 -16.305  32.562  1.00  0.00    -0.080 C 
ATOM     10  C   UNL     1     -11.155 -16.213  31.114  1.00  0.00     0.039 C 
ENDBRANCH   6   7
ENDBRANCH   5   6
ENDBRANCH   3   5
ENDBRANCH   1   2
BRANCH   1  11
ATOM     11  C   UNL     1     -13.939 -16.257  27.105  1.00  0.00     0.034 C 
BRANCH  11  12
ATOM     12  C   UNL     1     -12.696 -17.128  27.057  1.00  0.00    -0.077 C 
ATOM     13  C   UNL     1     -12.505 -18.179  27.884  1.00  0.00    -0.028 C 
ATOM     14  C   UNL     1     -11.620 -16.805  26.051  1.00  0.00     0.039 C 
BRANCH  13  15
ATOM     15  C   UNL     1     -13.520 -18.645  28.903  1.00  0.00     0.035 C 
BRANCH  15  16
ATOM     16  C   UNL     1     -13.134 -19.994  29.524  1.00  0.00     0.079 C 
BRANCH  16  17
ATOM     17  C   UNL     1     -12.269 -19.821  30.747  1.00  0.00     0.130 C 
ATOM     18  O   UNL     1     -11.104 -19.476  30.616  1.00  0.00    -0.300 OA
ATOM     19  C   UNL     1     -12.806 -20.073  32.124  1.00  0.00     0.087 C 
ENDBRANCH  16  17
ENDBRANCH  15  16
ENDBRANCH  13  15
ENDBRANCH  11  12
ENDBRANCH   1  11
TORSDOF 9
ENDMDL
MODEL 7
REMARK VINA RESULT:    -5.596      2.012      4.974
REMARK INTER + INTRA:         -11.022
REMARK INTER:                  -9.501
REMARK INTRA:                  -1.521
REMARK UNBOUND:                -2.481
REMARK SMILES CC(=O)CCC=C(C)CCC=C(C)CCC=C(C)C
REMARK SMILES IDX 10 1 11 2 12 3 13 4 14 5 15 6 16 7 18 8 17 9 19 10 9 11 7 12
REMARK SMILES IDX 6 13 8 14 5 15 4 16 2 17 3 18 1 19
REMARK H PARENT
REMARK Flexibility Score: inf
ROOT
ATOM      1  C   UNL     1     -15.551 -14.253  31.997  1.00  0.00     0.032 C 
ENDROOT
BRANCH   1   2
ATOM      2  C   UNL     1     -14.833 -14.565  30.706  1.00  0.00    -0.028 C 
ATOM      3  C   UNL     1     -15.099 -13.977  29.517  1.00  0.00    -0.077 C 
ATOM      4  C   UNL     1     -16.119 -12.872  29.384  1.00  0.00     0.039 C 
BRANCH   3   5
ATOM      5  C   UNL     1     -14.323 -14.418  28.294  1.00  0.00     0.034 C 
BRANCH   5   6
ATOM      6  C   UNL     1     -13.207 -15.395  28.680  1.00  0.00     0.032 C 
BRANCH   6   7
ATOM      7  C   UNL     1     -12.741 -16.176  27.477  1.00  0.00    -0.028 C 
ATOM      8  C   UNL     1     -11.261 -17.633  26.162  1.00  0.00     0.039 C 
ATOM      9  C   UNL     1     -11.624 -16.938  27.449  1.00  0.00    -0.080 C 
ATOM     10  C   UNL     1     -10.750 -17.123  28.668  1.00  0.00     0.039 C 
ENDBRANCH   6   7
ENDBRANCH   5   6
ENDBRANCH   3   5
ENDBRANCH   1   2
BRANCH   1  11
ATOM     11  C   UNL     1     -15.451 -15.407  33.005  1.00  0.00     0.034 C 
BRANCH  11  12
ATOM     12  C   UNL     1     -14.033 -15.607  33.510  1.00  0.00    -0.077 C 
ATOM     13  C   UNL     1     -13.245 -16.624  33.096  1.00  0.00    -0.028 C 
ATOM     14  C   UNL     1     -13.478 -14.639  34.523  1.00  0.00     0.039 C 
BRANCH  13  15
ATOM     15  C   UNL     1     -13.654 -17.636  32.050  1.00  0.00     0.035 C 
BRANCH  15  16
ATOM     16  C   UNL     1     -12.447 -18.395  31.482  1.00  0.00     0.079 C 
BRANCH  16  17
ATOM     17  C   UNL     1     -12.851 -19.711  30.866  1.00  0.00     0.130 C 
ATOM     18  O   UNL     1     -12.811 -20.728  31.542  1.00  0.00    -0.300 OA
ATOM     19  C   UNL     1     -13.294 -19.800  29.437  1.00  0.00     0.087 C 
ENDBRANCH  16  17
ENDBRANCH  15  16
ENDBRANCH  13  15
ENDBRANCH  11  12
ENDBRANCH   1  11
TORSDOF 9
ENDMDL
MODEL 8
REMARK VINA RESULT:    -5.519      3.227      6.346
REMARK INTER + INTRA:         -10.904
REMARK INTER:                  -9.411
REMARK INTRA:                  -1.492
REMARK UNBOUND:                -2.481
REMARK SMILES CC(=O)CCC=C(C)CCC=C(C)CCC=C(C)C
REMARK SMILES IDX 10 1 11 2 12 3 13 4 14 5 15 6 16 7 18 8 17 9 19 10 9 11 7 12
REMARK SMILES IDX 6 13 8 14 5 15 4 16 2 17 3 18 1 19
REMARK H PARENT
REMARK Flexibility Score: inf
ROOT
ATOM      1  C   UNL     1     -13.317 -17.186  32.748  1.00  0.00     0.032 C 
ENDROOT
BRANCH   1   2
ATOM      2  C   UNL     1     -12.371 -16.084  33.165  1.00  0.00    -0.028 C 
ATOM      3  C   UNL     1     -11.046 -16.248  33.379  1.00  0.00    -0.077 C 
ATOM      4  C   UNL     1     -10.359 -17.573  33.145  1.00  0.00     0.039 C 
BRANCH   3   5
ATOM      5  C   UNL     1     -10.226 -15.060  33.831  1.00  0.00     0.034 C 
BRANCH   5   6
ATOM      6  C   UNL     1     -10.182 -14.979  35.362  1.00  0.00     0.032 C 
BRANCH   6   7
ATOM      7  C   UNL     1     -10.353 -13.554  35.826  1.00  0.00    -0.028 C 
ATOM      8  C   UNL     1     -11.562 -11.554  36.585  1.00  0.00     0.039 C 
ATOM      9  C   UNL     1     -11.537 -13.004  36.177  1.00  0.00    -0.080 C 
ATOM     10  C   UNL     1     -12.819 -13.803  36.185  1.00  0.00     0.039 C 
ENDBRANCH   6   7
ENDBRANCH   5   6
ENDBRANCH   3   5
ENDBRANCH   1   2
BRANCH   1  11
ATOM     11  C   UNL     1     -13.547 -17.203  31.230  1.00  0.00     0.034 C 
BRANCH  11  12
ATOM     12  C   UNL     1     -12.854 -18.376  30.559  1.00  0.00    -0.077 C 
ATOM     13  C   UNL     1     -11.823 -18.222  29.699  1.00  0.00    -0.028 C 
ATOM     14  C   UNL     1     -13.338 -19.773  30.851  1.00  0.00     0.039 C 
BRANCH  13  15
ATOM     15  C   UNL     1     -11.204 -16.886  29.354  1.00  0.00     0.035 C 
BRANCH  15  16
ATOM     16  C   UNL     1     -12.154 -16.009  28.527  1.00  0.00     0.079 C 
BRANCH  16  17
ATOM     17  C   UNL     1     -12.618 -16.712  27.276  1.00  0.00     0.130 C 
ATOM     18  O   UNL     1     -13.815 -16.841  27.067  1.00  0.00    -0.300 OA
ATOM     19  C   UNL     1     -11.640 -17.266  26.284  1.00  0.00     0.087 C 
ENDBRANCH  16  17
ENDBRANCH  15  16
ENDBRANCH  13  15
ENDBRANCH  11  12
ENDBRANCH   1  11
TORSDOF 9
ENDMDL
MODEL 9
REMARK VINA RESULT:    -5.518      2.814      3.462
REMARK INTER + INTRA:         -10.903
REMARK INTER:                  -9.704
REMARK INTRA:                  -1.198
REMARK UNBOUND:                -2.481
REMARK SMILES CC(=O)CCC=C(C)CCC=C(C)CCC=C(C)C
REMARK SMILES IDX 10 1 11 2 12 3 13 4 14 5 15 6 16 7 18 8 17 9 19 10 9 11 7 12
REMARK SMILES IDX 6 13 8 14 5 15 4 16 2 17 3 18 1 19
REMARK H PARENT
REMARK Flexibility Score: inf
ROOT
ATOM      1  C   UNL     1     -13.330 -17.460  32.743  1.00  0.00     0.032 C 
ENDROOT
BRANCH   1   2
ATOM      2  C   UNL     1     -13.614 -17.955  31.345  1.00  0.00    -0.028 C 
ATOM      3  C   UNL     1     -13.298 -19.188  30.887  1.00  0.00    -0.077 C 
ATOM      4  C   UNL     1     -12.680 -20.236  31.781  1.00  0.00     0.039 C 
BRANCH   3   5
ATOM      5  C   UNL     1     -13.608 -19.534  29.447  1.00  0.00     0.034 C 
BRANCH   5   6
ATOM      6  C   UNL     1     -13.389 -18.320  28.535  1.00  0.00     0.032 C 
BRANCH   6   7
ATOM      7  C   UNL     1     -12.073 -17.651  28.845  1.00  0.00    -0.028 C 
ATOM      8  C   UNL     1     -10.520 -15.783  29.219  1.00  0.00     0.039 C 
ATOM      9  C   UNL     1     -11.903 -16.313  28.942  1.00  0.00    -0.080 C 
ATOM     10  C   UNL     1     -13.057 -15.348  28.798  1.00  0.00     0.039 C 
ENDBRANCH   6   7
ENDBRANCH   5   6
ENDBRANCH   3   5
ENDBRANCH   1   2
BRANCH   1  11
ATOM     11  C   UNL     1     -12.443 -16.206  32.742  1.00  0.00     0.034 C 
BRANCH  11  12
ATOM     12  C   UNL     1     -11.029 -16.503  33.209  1.00  0.00    -0.077 C 
ATOM     13  C   UNL     1     -10.370 -15.719  34.091  1.00  0.00    -0.028 C 
ATOM     14  C   UNL     1     -10.322 -17.716  32.663  1.00  0.00     0.039 C 
BRANCH  13  15
ATOM     15  C   UNL     1     -10.975 -14.502  34.754  1.00  0.00     0.035 C 
BRANCH  15  16
ATOM     16  C   UNL     1     -10.792 -14.528  36.278  1.00  0.00     0.079 C 
BRANCH  16  17
ATOM     17  C   UNL     1     -11.785 -13.634  36.977  1.00  0.00     0.130 C 
ATOM     18  O   UNL     1     -12.554 -14.114  37.796  1.00  0.00    -0.300 OA
ATOM     19  C   UNL     1     -11.857 -12.166  36.680  1.00  0.00     0.087 C 
ENDBRANCH  16  17
ENDBRANCH  15  16
ENDBRANCH  13  15
ENDBRANCH  11  12
ENDBRANCH   1  11
TORSDOF 9
ENDMDL
