MODEL 1
REMARK VINA RESULT:    -3.869      0.000      0.000
REMARK INTER + INTRA:          -4.264
REMARK INTER:                  -4.773
REMARK INTRA:                   0.509
REMARK UNBOUND:                 0.509
REMARK SMILES C=C1[C@H]2CC[C@@H]3[C@@H]2C(C)(C)CCC[C@]13C
REMARK SMILES IDX 14 1 6 2 7 3 3 4 2 5 1 6 4 7 5 8 15 9 8 10 9 11 10 12 11 13
REMARK SMILES IDX 13 15 12 16
REMARK H PARENT
REMARK Flexibility Score: 80.00
ROOT
ATOM      1  C   UNL     1      20.211  64.425  15.599  1.00  0.00    -0.008 C 
ATOM      2  C   UNL     1      21.667  64.841  15.743  1.00  0.00     0.003 C 
ATOM      3  C   UNL     1      22.315  63.444  15.767  1.00  0.00     0.006 C 
ATOM      4  C   UNL     1      21.910  63.108  14.341  1.00  0.00     0.019 C 
ATOM      5  C   UNL     1      20.392  63.356  14.509  1.00  0.00    -0.068 C 
ATOM      6  C   UNL     1      19.422  62.699  13.870  1.00  0.00     0.009 C 
ATOM      7  C   UNL     1      22.476  64.267  13.531  1.00  0.00     0.008 C 
ATOM      8  C   UNL     1      22.295  65.461  14.471  1.00  0.00     0.005 C 
ATOM      9  C   UNL     1      19.297  65.567  15.105  1.00  0.00     0.016 C 
ENDROOT
BRANCH   3  10
ATOM     10  C   UNL     1      23.172  63.265  17.039  1.00  0.00    -0.032 C 
ATOM     11  C   UNL     1      23.780  61.838  17.126  1.00  0.00     0.011 C 
ATOM     12  C   UNL     1      24.348  64.267  17.063  1.00  0.00     0.011 C 
BRANCH  10  13
ATOM     13  C   UNL     1      22.181  63.525  18.265  1.00  0.00     0.007 CG0
ATOM     14  G   UNL     1      20.656  63.126  18.051  1.00  0.00     0.000 G0
ENDBRANCH  10  13
ENDBRANCH   3  10
BRANCH   1  15
ATOM     15  C   UNL     1      19.726  63.936  17.040  1.00  0.00     0.011 C 
BRANCH  15  16
ATOM     16  C   UNL     1      20.655  63.127  18.056  1.00  0.00     0.001 CG0
ATOM     17  G   UNL     1      22.181  63.522  18.265  1.00  0.00     0.000 G0
ENDBRANCH  15  16
ENDBRANCH   1  15
TORSDOF 0
ENDMDL
MODEL 2
REMARK VINA RESULT:    -3.343      1.868      4.361
REMARK INTER + INTRA:          -3.615
REMARK INTER:                  -4.136
REMARK INTRA:                   0.521
REMARK UNBOUND:                 0.509
REMARK SMILES C=C1[C@H]2CC[C@@H]3[C@@H]2C(C)(C)CCC[C@]13C
REMARK SMILES IDX 14 1 6 2 7 3 3 4 2 5 1 6 4 7 5 8 15 9 8 10 9 11 10 12 11 13
REMARK SMILES IDX 13 15 12 16
REMARK H PARENT
REMARK Flexibility Score: 80.00
ROOT
ATOM      1  C   UNL     1      22.745  64.614  16.712  1.00  0.00    -0.008 C 
ATOM      2  C   UNL     1      21.271  64.985  16.643  1.00  0.00     0.003 C 
ATOM      3  C   UNL     1      20.730  63.699  15.990  1.00  0.00     0.006 C 
ATOM      4  C   UNL     1      21.086  62.814  17.173  1.00  0.00     0.019 C 
ATOM      5  C   UNL     1      22.588  63.179  17.241  1.00  0.00    -0.068 C 
ATOM      6  C   UNL     1      23.570  62.358  17.622  1.00  0.00     0.009 C 
ATOM      7  C   UNL     1      20.395  63.498  18.345  1.00  0.00     0.008 C 
ATOM      8  C   UNL     1      20.535  64.984  18.005  1.00  0.00     0.005 C 
ATOM      9  C   UNL     1      23.545  65.483  17.706  1.00  0.00     0.016 C 
ENDROOT
BRANCH   3  10
ATOM     10  C   UNL     1      19.955  64.033  14.696  1.00  0.00    -0.032 C 
ATOM     11  C   UNL     1      19.481  62.747  13.963  1.00  0.00     0.011 C 
ATOM     12  C   UNL     1      18.697  64.875  15.004  1.00  0.00     0.011 C 
BRANCH  10  13
ATOM     13  C   UNL     1      20.977  64.852  13.782  1.00  0.00     0.007 CG0
ATOM     14  G   UNL     1      22.516  64.471  13.907  1.00  0.00     0.000 G0
ENDBRANCH  10  13
ENDBRANCH   3  10
BRANCH   1  15
ATOM     15  C   UNL     1      23.337  64.798  15.241  1.00  0.00     0.011 C 
BRANCH  15  16
ATOM     16  C   UNL     1      22.516  64.470  13.911  1.00  0.00     0.001 CG0
ATOM     17  G   UNL     1      20.978  64.856  13.781  1.00  0.00     0.000 G0
ENDBRANCH  15  16
ENDBRANCH   1  15
TORSDOF 0
ENDMDL
MODEL 3
REMARK VINA RESULT:    -3.304      1.470      3.040
REMARK INTER + INTRA:          -3.568
REMARK INTER:                  -4.077
REMARK INTRA:                   0.509
REMARK UNBOUND:                 0.509
REMARK SMILES C=C1[C@H]2CC[C@@H]3[C@@H]2C(C)(C)CCC[C@]13C
REMARK SMILES IDX 14 1 6 2 7 3 3 4 2 5 1 6 4 7 5 8 15 9 8 10 9 11 10 12 11 13
REMARK SMILES IDX 13 15 12 16
REMARK H PARENT
REMARK Flexibility Score: 80.00
ROOT
ATOM      1  C   UNL     1      20.930  63.497  14.628  1.00  0.00    -0.008 C 
ATOM      2  C   UNL     1      20.859  63.301  16.136  1.00  0.00     0.003 C 
ATOM      3  C   UNL     1      21.907  64.346  16.564  1.00  0.00     0.006 C 
ATOM      4  C   UNL     1      21.099  65.529  16.059  1.00  0.00     0.019 C 
ATOM      5  C   UNL     1      20.921  65.034  14.604  1.00  0.00    -0.068 C 
ATOM      6  C   UNL     1      20.850  65.813  13.522  1.00  0.00     0.009 C 
ATOM      7  C   UNL     1      19.759  65.368  16.764  1.00  0.00     0.008 C 
ATOM      8  C   UNL     1      19.574  63.849  16.803  1.00  0.00     0.005 C 
ATOM      9  C   UNL     1      19.706  62.927  13.881  1.00  0.00     0.016 C 
ENDROOT
BRANCH   3  10
ATOM     10  C   UNL     1      23.004  63.688  17.430  1.00  0.00    -0.032 C 
ATOM     11  C   UNL     1      24.113  64.705  17.820  1.00  0.00     0.011 C 
ATOM     12  C   UNL     1      22.413  63.128  18.743  1.00  0.00     0.011 C 
BRANCH  10  13
ATOM     13  C   UNL     1      23.613  62.514  16.535  1.00  0.00     0.007 CG0
ATOM     14  G   UNL     1      23.614  62.739  14.961  1.00  0.00     0.000 G0
ENDBRANCH  10  13
ENDBRANCH   3  10
BRANCH   1  15
ATOM     15  C   UNL     1      22.255  62.758  14.129  1.00  0.00     0.011 C 
BRANCH  15  16
ATOM     16  C   UNL     1      23.619  62.735  14.959  1.00  0.00     0.001 CG0
ATOM     17  G   UNL     1      23.617  62.518  16.535  1.00  0.00     0.000 G0
ENDBRANCH  15  16
ENDBRANCH   1  15
TORSDOF 0
ENDMDL
MODEL 4
REMARK VINA RESULT:    -3.197      2.374      4.443
REMARK INTER + INTRA:          -3.435
REMARK INTER:                  -3.926
REMARK INTRA:                   0.490
REMARK UNBOUND:                 0.509
REMARK SMILES C=C1[C@H]2CC[C@@H]3[C@@H]2C(C)(C)CCC[C@]13C
REMARK SMILES IDX 14 1 6 2 7 3 3 4 2 5 1 6 4 7 5 8 15 9 8 10 9 11 10 12 11 13
REMARK SMILES IDX 13 15 12 16
REMARK H PARENT
REMARK Flexibility Score: 80.00
ROOT
ATOM      1  C   UNL     1      23.708  64.775  13.922  1.00  0.00    -0.008 C 
ATOM      2  C   UNL     1      22.784  64.481  15.095  1.00  0.00     0.003 C 
ATOM      3  C   UNL     1      21.958  63.341  14.470  1.00  0.00     0.006 C 
ATOM      4  C   UNL     1      23.139  62.391  14.365  1.00  0.00     0.019 C 
ATOM      5  C   UNL     1      24.067  63.326  13.554  1.00  0.00    -0.068 C 
ATOM      6  C   UNL     1      24.962  62.934  12.644  1.00  0.00     0.009 C 
ATOM      7  C   UNL     1      23.676  62.337  15.789  1.00  0.00     0.008 C 
ATOM      8  C   UNL     1      23.459  63.766  16.291  1.00  0.00     0.005 C 
ATOM      9  C   UNL     1      24.968  65.570  14.324  1.00  0.00     0.016 C 
ENDROOT
BRANCH   3  10
ATOM     10  C   UNL     1      20.450  63.672  14.523  1.00  0.00    -0.032 C 
ATOM     11  C   UNL     1      19.592  62.549  13.876  1.00  0.00     0.011 C 
ATOM     12  C   UNL     1      19.968  63.835  15.982  1.00  0.00     0.011 C 
BRANCH  10  13
ATOM     13  C   UNL     1      20.282  65.040  13.714  1.00  0.00     0.007 CG0
ATOM     14  G   UNL     1      21.325  65.314  12.544  1.00  0.00     0.000 G0
ENDBRANCH  10  13
ENDBRANCH   3  10
BRANCH   1  15
ATOM     15  C   UNL     1      22.857  65.617  12.865  1.00  0.00     0.011 C 
BRANCH  15  16
ATOM     16  C   UNL     1      21.317  65.336  12.546  1.00  0.00     0.001 CG0
ATOM     17  G   UNL     1      20.278  65.044  13.715  1.00  0.00     0.000 G0
ENDBRANCH  15  16
ENDBRANCH   1  15
TORSDOF 0
ENDMDL
MODEL 5
REMARK VINA RESULT:    -3.114      1.693      3.870
REMARK INTER + INTRA:          -3.332
REMARK INTER:                  -3.842
REMARK INTRA:                   0.509
REMARK UNBOUND:                 0.509
REMARK SMILES C=C1[C@H]2CC[C@@H]3[C@@H]2C(C)(C)CCC[C@]13C
REMARK SMILES IDX 14 1 6 2 7 3 3 4 2 5 1 6 4 7 5 8 15 9 8 10 9 11 10 12 11 13
REMARK SMILES IDX 13 15 12 16
REMARK H PARENT
REMARK Flexibility Score: 80.00
ROOT
ATOM      1  C   UNL     1      23.833  63.243  14.941  1.00  0.00    -0.008 C 
ATOM      2  C   UNL     1      23.416  64.292  15.963  1.00  0.00     0.003 C 
ATOM      3  C   UNL     1      22.554  63.404  16.880  1.00  0.00     0.006 C 
ATOM      4  C   UNL     1      23.721  62.540  17.328  1.00  0.00     0.019 C 
ATOM      5  C   UNL     1      24.198  62.115  15.919  1.00  0.00    -0.068 C 
ATOM      6  C   UNL     1      24.756  60.942  15.610  1.00  0.00     0.009 C 
ATOM      7  C   UNL     1      24.724  63.553  17.865  1.00  0.00     0.008 C 
ATOM      8  C   UNL     1      24.540  64.747  16.925  1.00  0.00     0.005 C 
ATOM      9  C   UNL     1      25.059  63.664  14.103  1.00  0.00     0.016 C 
ENDROOT
BRANCH   3  10
ATOM     10  C   UNL     1      21.133  63.992  17.024  1.00  0.00    -0.032 C 
ATOM     11  C   UNL     1      20.219  63.078  17.888  1.00  0.00     0.011 C 
ATOM     12  C   UNL     1      21.172  65.378  17.706  1.00  0.00     0.011 C 
BRANCH  10  13
ATOM     13  C   UNL     1      20.562  64.106  15.537  1.00  0.00     0.007 CG0
ATOM     14  G   UNL     1      21.058  63.014  14.492  1.00  0.00     0.000 G0
ENDBRANCH  10  13
ENDBRANCH   3  10
BRANCH   1  15
ATOM     15  C   UNL     1      22.580  63.011  13.980  1.00  0.00     0.011 C 
BRANCH  15  16
ATOM     16  C   UNL     1      21.065  63.029  14.484  1.00  0.00     0.001 CG0
ATOM     17  G   UNL     1      20.564  64.107  15.541  1.00  0.00     0.000 G0
ENDBRANCH  15  16
ENDBRANCH   1  15
TORSDOF 0
ENDMDL
MODEL 6
REMARK VINA RESULT:    -3.099      0.859      3.684
REMARK INTER + INTRA:          -3.315
REMARK INTER:                  -3.813
REMARK INTRA:                   0.498
REMARK UNBOUND:                 0.509
REMARK SMILES C=C1[C@H]2CC[C@@H]3[C@@H]2C(C)(C)CCC[C@]13C
REMARK SMILES IDX 14 1 6 2 7 3 3 4 2 5 1 6 4 7 5 8 15 9 8 10 9 11 10 12 11 13
REMARK SMILES IDX 13 15 12 16
REMARK H PARENT
REMARK Flexibility Score: 80.00
ROOT
ATOM      1  C   UNL     1      23.285  62.883  16.453  1.00  0.00    -0.008 C 
ATOM      2  C   UNL     1      22.196  62.856  15.391  1.00  0.00     0.003 C 
ATOM      3  C   UNL     1      21.689  64.304  15.529  1.00  0.00     0.006 C 
ATOM      4  C   UNL     1      22.993  64.924  15.056  1.00  0.00     0.019 C 
ATOM      5  C   UNL     1      23.919  64.234  16.085  1.00  0.00    -0.068 C 
ATOM      6  C   UNL     1      25.028  64.763  16.609  1.00  0.00     0.009 C 
ATOM      7  C   UNL     1      23.231  64.258  13.707  1.00  0.00     0.008 C 
ATOM      8  C   UNL     1      22.711  62.837  13.932  1.00  0.00     0.005 C 
ATOM      9  C   UNL     1      24.308  61.737  16.306  1.00  0.00     0.016 C 
ENDROOT
BRANCH   3  10
ATOM     10  C   UNL     1      20.170  64.322  15.809  1.00  0.00    -0.032 C 
ATOM     11  C   UNL     1      19.638  65.771  15.997  1.00  0.00     0.011 C 
ATOM     12  C   UNL     1      19.382  63.692  14.640  1.00  0.00     0.011 C 
BRANCH  10  13
ATOM     13  C   UNL     1      19.970  63.476  17.150  1.00  0.00     0.007 CG0
ATOM     14  G   UNL     1      21.173  63.486  18.190  1.00  0.00     0.000 G0
ENDBRANCH  10  13
ENDBRANCH   3  10
BRANCH   1  15
ATOM     15  C   UNL     1      22.553  62.771  17.868  1.00  0.00     0.011 C 
BRANCH  15  16
ATOM     16  C   UNL     1      21.159  63.476  18.199  1.00  0.00     0.001 CG0
ATOM     17  G   UNL     1      19.962  63.457  17.152  1.00  0.00     0.000 G0
ENDBRANCH  15  16
ENDBRANCH   1  15
TORSDOF 0
ENDMDL
MODEL 7
REMARK VINA RESULT:    -2.994      1.784      3.930
REMARK INTER + INTRA:          -3.185
REMARK INTER:                  -3.707
REMARK INTRA:                   0.521
REMARK UNBOUND:                 0.509
REMARK SMILES C=C1[C@H]2CC[C@@H]3[C@@H]2C(C)(C)CCC[C@]13C
REMARK SMILES IDX 14 1 6 2 7 3 3 4 2 5 1 6 4 7 5 8 15 9 8 10 9 11 10 12 11 13
REMARK SMILES IDX 13 15 12 16
REMARK H PARENT
REMARK Flexibility Score: 80.00
ROOT
ATOM      1  C   UNL     1      21.819  63.747  17.311  1.00  0.00    -0.008 C 
ATOM      2  C   UNL     1      22.641  62.776  16.477  1.00  0.00     0.003 C 
ATOM      3  C   UNL     1      23.365  63.789  15.571  1.00  0.00     0.006 C 
ATOM      4  C   UNL     1      24.139  64.426  16.713  1.00  0.00     0.019 C 
ATOM      5  C   UNL     1      22.921  64.780  17.598  1.00  0.00    -0.068 C 
ATOM      6  C   UNL     1      22.829  65.839  18.406  1.00  0.00     0.009 C 
ATOM      7  C   UNL     1      24.849  63.244  17.361  1.00  0.00     0.008 C 
ATOM      8  C   UNL     1      23.824  62.115  17.225  1.00  0.00     0.005 C 
ATOM      9  C   UNL     1      21.289  63.128  18.622  1.00  0.00     0.016 C 
ENDROOT
BRANCH   3  10
ATOM     10  C   UNL     1      23.116  63.460  14.082  1.00  0.00    -0.032 C 
ATOM     11  C   UNL     1      23.753  64.525  13.145  1.00  0.00     0.011 C 
ATOM     12  C   UNL     1      23.728  62.093  13.706  1.00  0.00     0.011 C 
BRANCH  10  13
ATOM     13  C   UNL     1      21.529  63.440  13.906  1.00  0.00     0.007 CG0
ATOM     14  G   UNL     1      20.692  64.430  14.828  1.00  0.00     0.000 G0
ENDBRANCH  10  13
ENDBRANCH   3  10
BRANCH   1  15
ATOM     15  C   UNL     1      20.591  64.211  16.402  1.00  0.00     0.011 C 
BRANCH  15  16
ATOM     16  C   UNL     1      20.693  64.430  14.824  1.00  0.00     0.001 CG0
ATOM     17  G   UNL     1      21.543  63.442  13.912  1.00  0.00     0.000 G0
ENDBRANCH  15  16
ENDBRANCH   1  15
TORSDOF 0
ENDMDL
MODEL 8
REMARK VINA RESULT:    -2.977      1.454      3.485
REMARK INTER + INTRA:          -3.163
REMARK INTER:                  -3.676
REMARK INTRA:                   0.512
REMARK UNBOUND:                 0.509
REMARK SMILES C=C1[C@H]2CC[C@@H]3[C@@H]2C(C)(C)CCC[C@]13C
REMARK SMILES IDX 14 1 6 2 7 3 3 4 2 5 1 6 4 7 5 8 15 9 8 10 9 11 10 12 11 13
REMARK SMILES IDX 13 15 12 16
REMARK H PARENT
REMARK Flexibility Score: 80.00
ROOT
ATOM      1  C   UNL     1      23.618  62.718  14.719  1.00  0.00    -0.008 C 
ATOM      2  C   UNL     1      22.165  62.838  15.155  1.00  0.00     0.003 C 
ATOM      3  C   UNL     1      22.242  64.198  15.875  1.00  0.00     0.006 C 
ATOM      4  C   UNL     1      22.570  64.975  14.611  1.00  0.00     0.019 C 
ATOM      5  C   UNL     1      23.811  64.150  14.195  1.00  0.00    -0.068 C 
ATOM      6  C   UNL     1      24.884  64.628  13.560  1.00  0.00     0.009 C 
ATOM      7  C   UNL     1      21.436  64.605  13.665  1.00  0.00     0.008 C 
ATOM      8  C   UNL     1      21.166  63.139  14.012  1.00  0.00     0.005 C 
ATOM      9  C   UNL     1      23.832  61.685  13.592  1.00  0.00     0.016 C 
ENDROOT
BRANCH   3  10
ATOM     10  C   UNL     1      21.734  64.070  17.328  1.00  0.00    -0.032 C 
ATOM     11  C   UNL     1      21.873  65.410  18.104  1.00  0.00     0.011 C 
ATOM     12  C   UNL     1      20.241  63.673  17.362  1.00  0.00     0.011 C 
BRANCH  10  13
ATOM     13  C   UNL     1      22.638  62.939  18.002  1.00  0.00     0.007 CG0
ATOM     14  G   UNL     1      24.134  62.810  17.479  1.00  0.00     0.000 G0
ENDBRANCH  10  13
ENDBRANCH   3  10
BRANCH   1  15
ATOM     15  C   UNL     1      24.453  62.284  16.009  1.00  0.00     0.011 C 
BRANCH  15  16
ATOM     16  C   UNL     1      24.132  62.805  17.484  1.00  0.00     0.001 CG0
ATOM     17  G   UNL     1      22.633  62.943  17.997  1.00  0.00     0.000 G0
ENDBRANCH  15  16
ENDBRANCH   1  15
TORSDOF 0
ENDMDL
MODEL 9
REMARK VINA RESULT:    -2.930      1.690      4.287
REMARK INTER + INTRA:          -3.106
REMARK INTER:                  -3.607
REMARK INTRA:                   0.500
REMARK UNBOUND:                 0.509
REMARK SMILES C=C1[C@H]2CC[C@@H]3[C@@H]2C(C)(C)CCC[C@]13C
REMARK SMILES IDX 14 1 6 2 7 3 3 4 2 5 1 6 4 7 5 8 15 9 8 10 9 11 10 12 11 13
REMARK SMILES IDX 13 15 12 16
REMARK H PARENT
REMARK Flexibility Score: 80.00
ROOT
ATOM      1  C   UNL     1      22.140  64.063  19.324  1.00  0.00    -0.008 C 
ATOM      2  C   UNL     1      21.843  63.245  18.076  1.00  0.00     0.003 C 
ATOM      3  C   UNL     1      21.944  64.365  17.024  1.00  0.00     0.006 C 
ATOM      4  C   UNL     1      23.425  64.608  17.261  1.00  0.00     0.019 C 
ATOM      5  C   UNL     1      23.337  64.863  18.785  1.00  0.00    -0.068 C 
ATOM      6  C   UNL     1      24.120  65.691  19.480  1.00  0.00     0.009 C 
ATOM      7  C   UNL     1      24.045  63.231  17.063  1.00  0.00     0.008 C 
ATOM      8  C   UNL     1      22.981  62.292  17.637  1.00  0.00     0.005 C 
ATOM      9  C   UNL     1      22.555  63.200  20.534  1.00  0.00     0.016 C 
ENDROOT
BRANCH   3  10
ATOM     10  C   UNL     1      20.645  64.447  16.193  1.00  0.00    -0.032 C 
ATOM     11  C   UNL     1      20.698  65.604  15.156  1.00  0.00     0.011 C 
ATOM     12  C   UNL     1      20.405  63.138  15.407  1.00  0.00     0.011 C 
BRANCH  10  13
ATOM     13  C   UNL     1      19.473  64.698  17.249  1.00  0.00     0.007 CG0
ATOM     14  G   UNL     1      19.855  65.506  18.565  1.00  0.00     0.000 G0
ENDBRANCH  10  13
ENDBRANCH   3  10
BRANCH   1  15
ATOM     15  C   UNL     1      20.808  64.872  19.674  1.00  0.00     0.011 C 
BRANCH  15  16
ATOM     16  C   UNL     1      19.837  65.494  18.569  1.00  0.00     0.001 CG0
ATOM     17  G   UNL     1      19.477  64.687  17.246  1.00  0.00     0.000 G0
ENDBRANCH  15  16
ENDBRANCH   1  15
TORSDOF 0
ENDMDL
