MODEL 1
REMARK VINA RESULT:   132.175      0.000      0.000
REMARK INTER + INTRA:         143.296
REMARK INTER:                 143.765
REMARK INTRA:                  -0.469
REMARK UNBOUND:                -0.469
REMARK SMILES C=C(C)[C@@H]1CC[C@@]2(C)CC[C@@]3(C)[C@H](CC[C@H]4[C@@]5(C)CC[C@H](O)C(C)(C)[C@@H]5CC[C@]43C)[C@H]12
REMARK SMILES IDX 4 1 5 2 6 3 7 4 31 5 13 6 14 7 15 8 16 9 17 10 19 11 20 12
REMARK SMILES IDX 21 13 23 14 26 15 27 16 28 17 29 18 11 19 10 20 9 21 12 22
REMARK SMILES IDX 30 23 24 24 25 25 18 26 8 27 2 28 3 29 1 30 22 31
REMARK H PARENT 22 32
REMARK Flexibility Score: inf
ROOT
ATOM      1  C   UNL     1      -3.680  -9.749  19.321  1.00  0.00     0.018 C 
ATOM      2  C   UNL     1      -3.005 -10.125  17.976  1.00  0.00     0.009 C 
ATOM      3  C   UNL     1      -3.873  -9.500  16.865  1.00  0.00     0.008 C 
ATOM      4  C   UNL     1      -4.515  -8.250  17.505  1.00  0.00    -0.029 C 
ATOM      5  C   UNL     1      -4.833  -8.806  18.902  1.00  0.00     0.006 C 
ATOM      6  C   UNL     1      -5.604  -7.847  19.849  1.00  0.00    -0.000 C 
ATOM      7  C   UNL     1      -4.809  -6.650  20.348  1.00  0.00     0.005 C 
ATOM      8  C   UNL     1      -5.603  -5.839  21.355  1.00  0.00     0.005 C 
ATOM      9  C   UNL     1      -7.068  -5.421  20.951  1.00  0.00     0.002 C 
ATOM     10  C   UNL     1      -7.347  -3.870  21.259  1.00  0.00    -0.026 C 
ATOM     11  C   UNL     1      -6.838  -3.471  22.698  1.00  0.00     0.010 C 
ATOM     12  C   UNL     1      -6.791  -1.956  22.946  1.00  0.00     0.033 C 
ATOM     13  C   UNL     1      -5.969  -1.232  21.866  1.00  0.00     0.120 C 
ATOM     14  C   UNL     1      -6.502  -1.469  20.413  1.00  0.00    -0.006 C 
ATOM     15  C   UNL     1      -6.592  -3.031  20.156  1.00  0.00     0.003 C 
ATOM     16  C   UNL     1      -7.051  -3.429  18.725  1.00  0.00     0.005 C 
ATOM     17  C   UNL     1      -6.871  -4.932  18.421  1.00  0.00     0.008 C 
ATOM     18  C   UNL     1      -7.479  -5.913  19.481  1.00  0.00    -0.024 C 
ATOM     19  C   UNL     1      -7.025  -7.460  19.224  1.00  0.00    -0.024 C 
ATOM     20  C   UNL     1      -7.116  -7.860  17.676  1.00  0.00     0.008 C 
ATOM     21  C   UNL     1      -5.827  -7.765  16.810  1.00  0.00     0.007 C 
ATOM     22  C   UNL     1      -8.034  -8.419  19.951  1.00  0.00     0.012 C 
ATOM     23  C   UNL     1      -9.037  -5.842  19.290  1.00  0.00     0.012 C 
ATOM     24  C   UNL     1      -7.847  -0.732  20.178  1.00  0.00     0.014 C 
ATOM     25  C   UNL     1      -5.467  -0.841  19.439  1.00  0.00     0.014 C 
ATOM     26  C   UNL     1      -8.890  -3.586  21.292  1.00  0.00     0.012 C 
ATOM     27  C   UNL     1      -3.455  -7.108  17.471  1.00  0.00     0.011 C 
ENDROOT
BRANCH   1  28
ATOM     28  C   UNL     1      -2.777  -9.282  20.465  1.00  0.00    -0.077 C 
ATOM     29  C   UNL     1      -1.428  -8.698  20.120  1.00  0.00     0.039 C 
ATOM     30  C   UNL     1      -3.114  -9.335  21.768  1.00  0.00     0.008 C 
ENDBRANCH   1  28
BRANCH  13  31
ATOM     31  O   UNL     1      -5.853   0.139  22.170  1.00  0.00    -0.393 OA
ATOM     32  H   UNL     1      -6.748   0.557  22.069  1.00  0.00     0.210 HD
ENDBRANCH  13  31
TORSDOF 2
ENDMDL
MODEL 2
REMARK VINA RESULT:   132.789     10.566     13.118
REMARK INTER + INTRA:         143.965
REMARK INTER:                 142.696
REMARK INTRA:                   1.269
REMARK UNBOUND:                -0.469
REMARK SMILES C=C(C)[C@@H]1CC[C@@]2(C)CC[C@@]3(C)[C@H](CC[C@H]4[C@@]5(C)CC[C@H](O)C(C)(C)[C@@H]5CC[C@]43C)[C@H]12
REMARK SMILES IDX 4 1 5 2 6 3 7 4 31 5 13 6 14 7 15 8 16 9 17 10 19 11 20 12
REMARK SMILES IDX 21 13 23 14 26 15 27 16 28 17 29 18 11 19 10 20 9 21 12 22
REMARK SMILES IDX 30 23 24 24 25 25 18 26 8 27 2 28 3 29 1 30 22 31
REMARK H PARENT 22 32
REMARK Flexibility Score: inf
ROOT
ATOM      1  C   UNL     1       7.489  -9.109  12.960  1.00  0.00     0.018 C 
ATOM      2  C   UNL     1       7.752 -10.094  11.791  1.00  0.00     0.009 C 
ATOM      3  C   UNL     1       6.458 -10.125  10.952  1.00  0.00     0.008 C 
ATOM      4  C   UNL     1       5.813  -8.736  11.146  1.00  0.00    -0.029 C 
ATOM      5  C   UNL     1       6.091  -8.525  12.642  1.00  0.00     0.006 C 
ATOM      6  C   UNL     1       5.488  -7.237  13.264  1.00  0.00    -0.000 C 
ATOM      7  C   UNL     1       6.133  -5.935  12.813  1.00  0.00     0.005 C 
ATOM      8  C   UNL     1       5.559  -4.745  13.559  1.00  0.00     0.005 C 
ATOM      9  C   UNL     1       3.990  -4.615  13.612  1.00  0.00     0.002 C 
ATOM     10  C   UNL     1       3.507  -3.123  13.262  1.00  0.00    -0.026 C 
ATOM     11  C   UNL     1       4.362  -2.048  14.039  1.00  0.00     0.010 C 
ATOM     12  C   UNL     1       4.169  -0.611  13.531  1.00  0.00     0.033 C 
ATOM     13  C   UNL     1       4.423  -0.508  12.017  1.00  0.00     0.120 C 
ATOM     14  C   UNL     1       3.507  -1.451  11.166  1.00  0.00    -0.006 C 
ATOM     15  C   UNL     1       3.668  -2.934  11.704  1.00  0.00     0.003 C 
ATOM     16  C   UNL     1       2.862  -4.003  10.914  1.00  0.00     0.005 C 
ATOM     17  C   UNL     1       3.244  -5.453  11.284  1.00  0.00     0.008 C 
ATOM     18  C   UNL     1       3.235  -5.784  12.815  1.00  0.00    -0.024 C 
ATOM     19  C   UNL     1       3.894  -7.243  13.137  1.00  0.00    -0.024 C 
ATOM     20  C   UNL     1       3.390  -8.365  12.111  1.00  0.00     0.008 C 
ATOM     21  C   UNL     1       4.275  -8.690  10.875  1.00  0.00     0.007 C 
ATOM     22  C   UNL     1       3.402  -7.729  14.546  1.00  0.00     0.012 C 
ATOM     23  C   UNL     1       1.721  -5.849  13.233  1.00  0.00     0.012 C 
ATOM     24  C   UNL     1       2.036  -0.957  11.162  1.00  0.00     0.014 C 
ATOM     25  C   UNL     1       4.013  -1.374   9.698  1.00  0.00     0.014 C 
ATOM     26  C   UNL     1       2.036  -2.892  13.757  1.00  0.00     0.012 C 
ATOM     27  C   UNL     1       6.540  -7.743  10.189  1.00  0.00     0.011 C 
ENDROOT
BRANCH   1  28
ATOM     28  C   UNL     1       8.596  -8.114  13.317  1.00  0.00    -0.077 C 
ATOM     29  C   UNL     1       9.882  -8.653  13.897  1.00  0.00     0.039 C 
ATOM     30  C   UNL     1       8.511  -6.783  13.128  1.00  0.00     0.008 C 
ENDBRANCH   1  28
BRANCH  13  31
ATOM     31  O   UNL     1       4.341   0.833  11.593  1.00  0.00    -0.393 OA
ATOM     32  H   UNL     1       4.158   1.400  12.387  1.00  0.00     0.210 HD
ENDBRANCH  13  31
TORSDOF 2
ENDMDL
MODEL 3
REMARK VINA RESULT:   133.780      1.234      1.884
REMARK INTER + INTRA:         145.042
REMARK INTER:                 145.608
REMARK INTRA:                  -0.566
REMARK UNBOUND:                -0.469
REMARK SMILES C=C(C)[C@@H]1CC[C@@]2(C)CC[C@@]3(C)[C@H](CC[C@H]4[C@@]5(C)CC[C@H](O)C(C)(C)[C@@H]5CC[C@]43C)[C@H]12
REMARK SMILES IDX 4 1 5 2 6 3 7 4 31 5 13 6 14 7 15 8 16 9 17 10 19 11 20 12
REMARK SMILES IDX 21 13 23 14 26 15 27 16 28 17 29 18 11 19 10 20 9 21 12 22
REMARK SMILES IDX 30 23 24 24 25 25 18 26 8 27 2 28 3 29 1 30 22 31
REMARK H PARENT 22 32
REMARK Flexibility Score: inf
ROOT
ATOM      1  C   UNL     1      -4.898  -9.625  17.851  1.00  0.00     0.018 C 
ATOM      2  C   UNL     1      -5.317 -10.012  16.408  1.00  0.00     0.009 C 
ATOM      3  C   UNL     1      -6.771  -9.529  16.235  1.00  0.00     0.008 C 
ATOM      4  C   UNL     1      -6.909  -8.309  17.170  1.00  0.00    -0.029 C 
ATOM      5  C   UNL     1      -6.106  -8.814  18.379  1.00  0.00     0.006 C 
ATOM      6  C   UNL     1      -6.092  -7.878  19.617  1.00  0.00    -0.000 C 
ATOM      7  C   UNL     1      -5.302  -6.589  19.447  1.00  0.00     0.005 C 
ATOM      8  C   UNL     1      -5.249  -5.798  20.741  1.00  0.00     0.005 C 
ATOM      9  C   UNL     1      -6.613  -5.537  21.485  1.00  0.00     0.002 C 
ATOM     10  C   UNL     1      -6.756  -4.002  21.937  1.00  0.00    -0.026 C 
ATOM     11  C   UNL     1      -5.433  -3.481  22.621  1.00  0.00     0.010 C 
ATOM     12  C   UNL     1      -5.382  -1.956  22.801  1.00  0.00     0.033 C 
ATOM     13  C   UNL     1      -5.625  -1.222  21.472  1.00  0.00     0.120 C 
ATOM     14  C   UNL     1      -6.991  -1.585  20.799  1.00  0.00    -0.006 C 
ATOM     15  C   UNL     1      -7.074  -3.160  20.640  1.00  0.00     0.003 C 
ATOM     16  C   UNL     1      -8.355  -3.676  19.928  1.00  0.00     0.005 C 
ATOM     17  C   UNL     1      -8.285  -5.171  19.549  1.00  0.00     0.008 C 
ATOM     18  C   UNL     1      -7.878  -6.143  20.709  1.00  0.00    -0.024 C 
ATOM     19  C   UNL     1      -7.576  -7.655  20.171  1.00  0.00    -0.024 C 
ATOM     20  C   UNL     1      -8.678  -8.146  19.117  1.00  0.00     0.008 C 
ATOM     21  C   UNL     1      -8.376  -7.983  17.600  1.00  0.00     0.007 C 
ATOM     22  C   UNL     1      -7.688  -8.659  21.373  1.00  0.00     0.012 C 
ATOM     23  C   UNL     1      -9.125  -6.223  21.662  1.00  0.00     0.012 C 
ATOM     24  C   UNL     1      -8.186  -0.985  21.587  1.00  0.00     0.014 C 
ATOM     25  C   UNL     1      -6.999  -0.921  19.394  1.00  0.00     0.014 C 
ATOM     26  C   UNL     1      -7.858  -3.857  23.045  1.00  0.00     0.012 C 
ATOM     27  C   UNL     1      -6.297  -7.080  16.433  1.00  0.00     0.011 C 
ENDROOT
BRANCH   1  28
ATOM     28  C   UNL     1      -3.508  -9.017  18.051  1.00  0.00    -0.077 C 
ATOM     29  C   UNL     1      -2.972  -8.092  16.984  1.00  0.00     0.039 C 
ATOM     30  C   UNL     1      -2.732  -9.233  19.130  1.00  0.00     0.008 C 
ENDBRANCH   1  28
BRANCH  13  31
ATOM     31  O   UNL     1      -5.471   0.169  21.641  1.00  0.00    -0.393 OA
ATOM     32  H   UNL     1      -5.221   0.562  20.765  1.00  0.00     0.210 HD
ENDBRANCH  13  31
TORSDOF 2
ENDMDL
MODEL 4
REMARK VINA RESULT:   134.861      1.404      2.143
REMARK INTER + INTRA:         146.218
REMARK INTER:                 146.267
REMARK INTRA:                  -0.049
REMARK UNBOUND:                -0.469
REMARK SMILES C=C(C)[C@@H]1CC[C@@]2(C)CC[C@@]3(C)[C@H](CC[C@H]4[C@@]5(C)CC[C@H](O)C(C)(C)[C@@H]5CC[C@]43C)[C@H]12
REMARK SMILES IDX 4 1 5 2 6 3 7 4 31 5 13 6 14 7 15 8 16 9 17 10 19 11 20 12
REMARK SMILES IDX 21 13 23 14 26 15 27 16 28 17 29 18 11 19 10 20 9 21 12 22
REMARK SMILES IDX 30 23 24 24 25 25 18 26 8 27 2 28 3 29 1 30 22 31
REMARK H PARENT 22 32
REMARK Flexibility Score: inf
ROOT
ATOM      1  C   UNL     1      -1.242  -9.249  20.637  1.00  0.00     0.018 C 
ATOM      2  C   UNL     1      -0.600  -9.902  19.385  1.00  0.00     0.009 C 
ATOM      3  C   UNL     1      -1.742 -10.110  18.371  1.00  0.00     0.008 C 
ATOM      4  C   UNL     1      -2.764  -8.993  18.673  1.00  0.00    -0.029 C 
ATOM      5  C   UNL     1      -2.707  -8.995  20.208  1.00  0.00     0.006 C 
ATOM      6  C   UNL     1      -3.704  -8.042  20.921  1.00  0.00    -0.000 C 
ATOM      7  C   UNL     1      -3.403  -6.558  20.768  1.00  0.00     0.005 C 
ATOM      8  C   UNL     1      -4.357  -5.712  21.591  1.00  0.00     0.005 C 
ATOM      9  C   UNL     1      -5.898  -6.002  21.433  1.00  0.00     0.002 C 
ATOM     10  C   UNL     1      -6.739  -4.646  21.242  1.00  0.00    -0.026 C 
ATOM     11  C   UNL     1      -6.299  -3.548  22.287  1.00  0.00     0.010 C 
ATOM     12  C   UNL     1      -6.831  -2.141  21.976  1.00  0.00     0.033 C 
ATOM     13  C   UNL     1      -6.465  -1.701  20.549  1.00  0.00     0.120 C 
ATOM     14  C   UNL     1      -6.992  -2.675  19.441  1.00  0.00    -0.006 C 
ATOM     15  C   UNL     1      -6.481  -4.139  19.770  1.00  0.00     0.003 C 
ATOM     16  C   UNL     1      -6.875  -5.216  18.721  1.00  0.00     0.005 C 
ATOM     17  C   UNL     1      -6.144  -6.562  18.922  1.00  0.00     0.008 C 
ATOM     18  C   UNL     1      -6.215  -7.159  20.369  1.00  0.00    -0.024 C 
ATOM     19  C   UNL     1      -5.212  -8.433  20.562  1.00  0.00    -0.024 C 
ATOM     20  C   UNL     1      -5.279  -9.440  19.319  1.00  0.00     0.008 C 
ATOM     21  C   UNL     1      -4.219  -9.295  18.190  1.00  0.00     0.007 C 
ATOM     22  C   UNL     1      -5.689  -9.279  21.796  1.00  0.00     0.012 C 
ATOM     23  C   UNL     1      -7.685  -7.685  20.547  1.00  0.00     0.012 C 
ATOM     24  C   UNL     1      -8.535  -2.583  19.297  1.00  0.00     0.014 C 
ATOM     25  C   UNL     1      -6.384  -2.204  18.091  1.00  0.00     0.014 C 
ATOM     26  C   UNL     1      -8.258  -4.895  21.546  1.00  0.00     0.012 C 
ATOM     27  C   UNL     1      -2.249  -7.689  17.992  1.00  0.00     0.011 C 
ENDROOT
BRANCH   1  28
ATOM     28  C   UNL     1      -0.496  -8.086  21.296  1.00  0.00    -0.077 C 
ATOM     29  C   UNL     1       0.726  -7.535  20.602  1.00  0.00     0.039 C 
ATOM     30  C   UNL     1      -0.870  -7.501  22.450  1.00  0.00     0.008 C 
ENDBRANCH   1  28
BRANCH  13  31
ATOM     31  O   UNL     1      -6.873  -0.372  20.321  1.00  0.00    -0.393 OA
ATOM     32  H   UNL     1      -6.398  -0.034  19.518  1.00  0.00     0.210 HD
ENDBRANCH  13  31
TORSDOF 2
ENDMDL
