MODEL 1
REMARK VINA RESULT:    -3.685      0.000      0.000
REMARK INTER + INTRA:          -5.854
REMARK INTER:                  -5.408
REMARK INTRA:                  -0.445
REMARK UNBOUND:                -0.445
REMARK SMILES O=C([O-])CCCCCCCC(=O)[O-]
REMARK SMILES IDX 7 1 6 2 5 3 4 4 2 5 1 6 3 7 8 8 9 9 10 10 11 11 12 12 13 13
REMARK H PARENT
REMARK Flexibility Score: inf
ROOT
ATOM      1  C   UNL     1      60.118  23.856  23.394  1.00  0.00     0.000 C 
ENDROOT
BRANCH   1   2
ATOM      2  C   UNL     1      61.092  23.134  22.445  1.00  0.00     0.000 C 
BRANCH   2   3
ATOM      3  C   UNL     1      60.377  22.409  21.295  1.00  0.00     0.006 C 
BRANCH   3   4
ATOM      4  C   UNL     1      61.301  21.377  20.640  1.00  0.00     0.053 C 
BRANCH   4   5
ATOM      5  C   UNL     1      62.251  22.048  19.700  1.00  0.00     0.041 C 
ATOM      6  O   UNL     1      61.848  22.462  18.581  1.00  0.00    -0.550 OA
ATOM      7  O   UNL     1      63.570  22.263  20.078  1.00  0.00    -0.550 OA
ENDBRANCH   4   5
ENDBRANCH   3   4
ENDBRANCH   2   3
ENDBRANCH   1   2
BRANCH   1   8
ATOM      8  C   UNL     1      59.498  22.970  24.494  1.00  0.00     0.000 C 
BRANCH   8   9
ATOM      9  C   UNL     1      57.964  22.847  24.444  1.00  0.00     0.006 C 
BRANCH   9  10
ATOM     10  C   UNL     1      57.489  21.666  23.588  1.00  0.00     0.053 C 
BRANCH  10  11
ATOM     11  C   UNL     1      56.129  21.943  23.027  1.00  0.00     0.041 C 
ATOM     12  O   UNL     1      55.970  22.854  22.175  1.00  0.00    -0.550 OA
ATOM     13  O   UNL     1      55.030  21.225  23.483  1.00  0.00    -0.550 OA
ENDBRANCH  10  11
ENDBRANCH   9  10
ENDBRANCH   8   9
ENDBRANCH   1   8
TORSDOF 8
ENDMDL
MODEL 2
REMARK VINA RESULT:    -3.604      1.494      1.771
REMARK INTER + INTRA:          -5.734
REMARK INTER:                  -5.299
REMARK INTRA:                  -0.435
REMARK UNBOUND:                -0.445
REMARK SMILES O=C([O-])CCCCCCCC(=O)[O-]
REMARK SMILES IDX 7 1 6 2 5 3 4 4 2 5 1 6 3 7 8 8 9 9 10 10 11 11 12 12 13 13
REMARK H PARENT
REMARK Flexibility Score: inf
ROOT
ATOM      1  C   UNL     1      59.738  22.505  21.961  1.00  0.00     0.000 C 
ENDROOT
BRANCH   1   2
ATOM      2  C   UNL     1      60.386  21.601  20.896  1.00  0.00     0.000 C 
BRANCH   2   3
ATOM      3  C   UNL     1      61.323  22.370  19.952  1.00  0.00     0.006 C 
BRANCH   3   4
ATOM      4  C   UNL     1      62.726  21.754  19.951  1.00  0.00     0.053 C 
BRANCH   4   5
ATOM      5  C   UNL     1      63.440  22.075  21.225  1.00  0.00     0.041 C 
ATOM      6  O   UNL     1      63.540  23.269  21.611  1.00  0.00    -0.550 OA
ATOM      7  O   UNL     1      63.951  21.052  22.014  1.00  0.00    -0.550 OA
ENDBRANCH   4   5
ENDBRANCH   3   4
ENDBRANCH   2   3
ENDBRANCH   1   2
BRANCH   1   8
ATOM      8  C   UNL     1      59.641  21.888  23.371  1.00  0.00     0.000 C 
BRANCH   8   9
ATOM      9  C   UNL     1      58.236  21.916  24.000  1.00  0.00     0.006 C 
BRANCH   9  10
ATOM     10  C   UNL     1      57.224  21.054  23.236  1.00  0.00     0.053 C 
BRANCH  10  11
ATOM     11  C   UNL     1      55.950  21.810  23.023  1.00  0.00     0.041 C 
ATOM     12  O   UNL     1      55.958  22.899  22.393  1.00  0.00    -0.550 OA
ATOM     13  O   UNL     1      54.761  21.335  23.563  1.00  0.00    -0.550 OA
ENDBRANCH  10  11
ENDBRANCH   9  10
ENDBRANCH   8   9
ENDBRANCH   1   8
TORSDOF 8
ENDMDL
MODEL 3
REMARK VINA RESULT:    -3.591      2.542      3.258
REMARK INTER + INTRA:          -5.716
REMARK INTER:                  -4.965
REMARK INTRA:                  -0.750
REMARK UNBOUND:                -0.445
REMARK SMILES O=C([O-])CCCCCCCC(=O)[O-]
REMARK SMILES IDX 7 1 6 2 5 3 4 4 2 5 1 6 3 7 8 8 9 9 10 10 11 11 12 12 13 13
REMARK H PARENT
REMARK Flexibility Score: inf
ROOT
ATOM      1  C   UNL     1      58.457  20.988  22.716  1.00  0.00     0.000 C 
ENDROOT
BRANCH   1   2
ATOM      2  C   UNL     1      59.849  20.986  22.060  1.00  0.00     0.000 C 
BRANCH   2   3
ATOM      3  C   UNL     1      60.043  22.143  21.067  1.00  0.00     0.006 C 
BRANCH   3   4
ATOM      4  C   UNL     1      61.515  22.561  20.994  1.00  0.00     0.053 C 
BRANCH   4   5
ATOM      5  C   UNL     1      62.161  21.991  19.771  1.00  0.00     0.041 C 
ATOM      6  O   UNL     1      61.831  22.406  18.629  1.00  0.00    -0.550 OA
ATOM      7  O   UNL     1      63.164  21.039  19.894  1.00  0.00    -0.550 OA
ENDBRANCH   4   5
ENDBRANCH   3   4
ENDBRANCH   2   3
ENDBRANCH   1   2
BRANCH   1   8
ATOM      8  C   UNL     1      57.957  22.369  23.185  1.00  0.00     0.000 C 
BRANCH   8   9
ATOM      9  C   UNL     1      58.257  22.705  24.657  1.00  0.00     0.006 C 
BRANCH   9  10
ATOM     10  C   UNL     1      58.886  24.092  24.835  1.00  0.00     0.053 C 
BRANCH  10  11
ATOM     11  C   UNL     1      60.269  24.115  24.264  1.00  0.00     0.041 C 
ATOM     12  O   UNL     1      61.082  23.196  24.539  1.00  0.00    -0.550 OA
ATOM     13  O   UNL     1      60.673  25.178  23.466  1.00  0.00    -0.550 OA
ENDBRANCH  10  11
ENDBRANCH   9  10
ENDBRANCH   8   9
ENDBRANCH   1   8
TORSDOF 8
ENDMDL
MODEL 4
REMARK VINA RESULT:    -3.591      0.919      6.236
REMARK INTER + INTRA:          -5.715
REMARK INTER:                  -5.360
REMARK INTRA:                  -0.355
REMARK UNBOUND:                -0.445
REMARK SMILES O=C([O-])CCCCCCCC(=O)[O-]
REMARK SMILES IDX 7 1 6 2 5 3 4 4 2 5 1 6 3 7 8 8 9 9 10 10 11 11 12 12 13 13
REMARK H PARENT
REMARK Flexibility Score: inf
ROOT
ATOM      1  C   UNL     1      60.032  22.612  23.189  1.00  0.00     0.000 C 
ENDROOT
BRANCH   1   2
ATOM      2  C   UNL     1      59.505  21.324  23.847  1.00  0.00     0.000 C 
BRANCH   2   3
ATOM      3  C   UNL     1      58.038  21.032  23.496  1.00  0.00     0.006 C 
BRANCH   3   4
ATOM      4  C   UNL     1      57.129  22.181  23.943  1.00  0.00     0.053 C 
BRANCH   4   5
ATOM      5  C   UNL     1      55.888  22.222  23.109  1.00  0.00     0.041 C 
ATOM      6  O   UNL     1      54.858  21.596  23.475  1.00  0.00    -0.550 OA
ATOM      7  O   UNL     1      55.851  22.992  21.953  1.00  0.00    -0.550 OA
ENDBRANCH   4   5
ENDBRANCH   3   4
ENDBRANCH   2   3
ENDBRANCH   1   2
BRANCH   1   8
ATOM      8  C   UNL     1      59.954  22.640  21.650  1.00  0.00     0.000 C 
BRANCH   8   9
ATOM      9  C   UNL     1      60.836  21.601  20.933  1.00  0.00     0.006 C 
BRANCH   9  10
ATOM     10  C   UNL     1      61.126  21.972  19.473  1.00  0.00     0.053 C 
BRANCH  10  11
ATOM     11  C   UNL     1      62.601  22.085  19.247  1.00  0.00     0.041 C 
ATOM     12  O   UNL     1      63.041  22.494  18.141  1.00  0.00    -0.550 OA
ATOM     13  O   UNL     1      63.489  21.693  20.240  1.00  0.00    -0.550 OA
ENDBRANCH  10  11
ENDBRANCH   9  10
ENDBRANCH   8   9
ENDBRANCH   1   8
TORSDOF 8
ENDMDL
MODEL 5
REMARK VINA RESULT:    -3.569      1.976      6.216
REMARK INTER + INTRA:          -5.684
REMARK INTER:                  -5.179
REMARK INTRA:                  -0.504
REMARK UNBOUND:                -0.445
REMARK SMILES O=C([O-])CCCCCCCC(=O)[O-]
REMARK SMILES IDX 7 1 6 2 5 3 4 4 2 5 1 6 3 7 8 8 9 9 10 10 11 11 12 12 13 13
REMARK H PARENT
REMARK Flexibility Score: inf
ROOT
ATOM      1  C   UNL     1      60.386  21.623  20.600  1.00  0.00     0.000 C 
ENDROOT
BRANCH   1   2
ATOM      2  C   UNL     1      59.772  22.374  21.796  1.00  0.00     0.000 C 
BRANCH   2   3
ATOM      3  C   UNL     1      59.303  21.432  22.915  1.00  0.00     0.006 C 
BRANCH   3   4
ATOM      4  C   UNL     1      57.829  21.058  22.734  1.00  0.00     0.053 C 
BRANCH   4   5
ATOM      5  C   UNL     1      56.946  22.195  23.142  1.00  0.00     0.041 C 
ATOM      6  O   UNL     1      57.158  22.804  24.222  1.00  0.00    -0.550 OA
ATOM      7  O   UNL     1      55.920  22.614  22.305  1.00  0.00    -0.550 OA
ENDBRANCH   4   5
ENDBRANCH   3   4
ENDBRANCH   2   3
ENDBRANCH   1   2
BRANCH   1   8
ATOM      8  C   UNL     1      61.524  22.367  19.874  1.00  0.00     0.000 C 
BRANCH   8   9
ATOM      9  C   UNL     1      62.892  21.662  19.911  1.00  0.00     0.006 C 
BRANCH   9  10
ATOM     10  C   UNL     1      63.982  22.510  20.579  1.00  0.00     0.053 C 
BRANCH  10  11
ATOM     11  C   UNL     1      63.547  22.934  21.947  1.00  0.00     0.041 C 
ATOM     12  O   UNL     1      63.513  24.155  22.250  1.00  0.00    -0.550 OA
ATOM     13  O   UNL     1      63.227  21.978  22.903  1.00  0.00    -0.550 OA
ENDBRANCH  10  11
ENDBRANCH   9  10
ENDBRANCH   8   9
ENDBRANCH   1   8
TORSDOF 8
ENDMDL
MODEL 6
REMARK VINA RESULT:    -3.526      2.652      5.084
REMARK INTER + INTRA:          -5.621
REMARK INTER:                  -4.772
REMARK INTRA:                  -0.849
REMARK UNBOUND:                -0.445
REMARK SMILES O=C([O-])CCCCCCCC(=O)[O-]
REMARK SMILES IDX 7 1 6 2 5 3 4 4 2 5 1 6 3 7 8 8 9 9 10 10 11 11 12 12 13 13
REMARK H PARENT
REMARK Flexibility Score: inf
ROOT
ATOM      1  C   UNL     1      57.653  22.164  22.735  1.00  0.00     0.000 C 
ENDROOT
BRANCH   1   2
ATOM      2  C   UNL     1      57.337  22.750  24.123  1.00  0.00     0.000 C 
BRANCH   2   3
ATOM      3  C   UNL     1      58.568  22.807  25.040  1.00  0.00     0.006 C 
BRANCH   3   4
ATOM      4  C   UNL     1      59.186  24.209  25.042  1.00  0.00     0.053 C 
BRANCH   4   5
ATOM      5  C   UNL     1      60.481  24.211  24.293  1.00  0.00     0.041 C 
ATOM      6  O   UNL     1      61.280  23.245  24.409  1.00  0.00    -0.550 OA
ATOM      7  O   UNL     1      60.784  25.255  23.429  1.00  0.00    -0.550 OA
ENDBRANCH   4   5
ENDBRANCH   3   4
ENDBRANCH   2   3
ENDBRANCH   1   2
BRANCH   1   8
ATOM      8  C   UNL     1      58.539  20.902  22.743  1.00  0.00     0.000 C 
BRANCH   8   9
ATOM      9  C   UNL     1      59.847  21.017  21.939  1.00  0.00     0.006 C 
BRANCH   9  10
ATOM     10  C   UNL     1      59.987  22.365  21.221  1.00  0.00     0.053 C 
BRANCH  10  11
ATOM     11  C   UNL     1      61.332  22.474  20.574  1.00  0.00     0.041 C 
ATOM     12  O   UNL     1      62.289  23.010  21.190  1.00  0.00    -0.550 OA
ATOM     13  O   UNL     1      61.515  22.027  19.271  1.00  0.00    -0.550 OA
ENDBRANCH  10  11
ENDBRANCH   9  10
ENDBRANCH   8   9
ENDBRANCH   1   8
TORSDOF 8
ENDMDL
MODEL 7
REMARK VINA RESULT:    -3.497      2.197      2.925
REMARK INTER + INTRA:          -5.577
REMARK INTER:                  -5.062
REMARK INTRA:                  -0.515
REMARK UNBOUND:                -0.445
REMARK SMILES O=C([O-])CCCCCCCC(=O)[O-]
REMARK SMILES IDX 7 1 6 2 5 3 4 4 2 5 1 6 3 7 8 8 9 9 10 10 11 11 12 12 13 13
REMARK H PARENT
REMARK Flexibility Score: inf
ROOT
ATOM      1  C   UNL     1      60.325  21.057  21.720  1.00  0.00     0.000 C 
ENDROOT
BRANCH   1   2
ATOM      2  C   UNL     1      60.699  22.202  20.761  1.00  0.00     0.000 C 
BRANCH   2   3
ATOM      3  C   UNL     1      61.987  22.929  21.174  1.00  0.00     0.006 C 
BRANCH   3   4
ATOM      4  C   UNL     1      61.987  23.235  22.675  1.00  0.00     0.053 C 
BRANCH   4   5
ATOM      5  C   UNL     1      61.630  24.667  22.918  1.00  0.00     0.041 C 
ATOM      6  O   UNL     1      62.260  25.585  22.329  1.00  0.00    -0.550 OA
ATOM      7  O   UNL     1      60.569  24.988  23.755  1.00  0.00    -0.550 OA
ENDBRANCH   4   5
ENDBRANCH   3   4
ENDBRANCH   2   3
ENDBRANCH   1   2
BRANCH   1   8
ATOM      8  C   UNL     1      58.866  21.072  22.219  1.00  0.00     0.000 C 
BRANCH   8   9
ATOM      9  C   UNL     1      58.391  22.415  22.803  1.00  0.00     0.006 C 
BRANCH   9  10
ATOM     10  C   UNL     1      57.229  22.257  23.792  1.00  0.00     0.053 C 
BRANCH  10  11
ATOM     11  C   UNL     1      55.921  22.467  23.097  1.00  0.00     0.041 C 
ATOM     12  O   UNL     1      55.892  22.933  21.929  1.00  0.00    -0.550 OA
ATOM     13  O   UNL     1      54.730  22.195  23.759  1.00  0.00    -0.550 OA
ENDBRANCH  10  11
ENDBRANCH   9  10
ENDBRANCH   8   9
ENDBRANCH   1   8
TORSDOF 8
ENDMDL
MODEL 8
REMARK VINA RESULT:    -3.367      2.098      5.863
REMARK INTER + INTRA:          -5.387
REMARK INTER:                  -4.762
REMARK INTRA:                  -0.624
REMARK UNBOUND:                -0.445
REMARK SMILES O=C([O-])CCCCCCCC(=O)[O-]
REMARK SMILES IDX 7 1 6 2 5 3 4 4 2 5 1 6 3 7 8 8 9 9 10 10 11 11 12 12 13 13
REMARK H PARENT
REMARK Flexibility Score: inf
ROOT
ATOM      1  C   UNL     1      59.621  21.023  21.593  1.00  0.00     0.000 C 
ENDROOT
BRANCH   1   2
ATOM      2  C   UNL     1      59.252  21.313  23.059  1.00  0.00     0.000 C 
BRANCH   2   3
ATOM      3  C   UNL     1      58.683  22.725  23.263  1.00  0.00     0.006 C 
BRANCH   3   4
ATOM      4  C   UNL     1      57.370  22.678  24.051  1.00  0.00     0.053 C 
BRANCH   4   5
ATOM      5  C   UNL     1      56.242  22.254  23.164  1.00  0.00     0.041 C 
ATOM      6  O   UNL     1      55.986  22.900  22.114  1.00  0.00    -0.550 OA
ATOM      7  O   UNL     1      55.506  21.117  23.470  1.00  0.00    -0.550 OA
ENDBRANCH   4   5
ENDBRANCH   3   4
ENDBRANCH   2   3
ENDBRANCH   1   2
BRANCH   1   8
ATOM      8  C   UNL     1      61.102  21.255  21.233  1.00  0.00     0.000 C 
BRANCH   8   9
ATOM      9  C   UNL     1      61.453  22.692  20.806  1.00  0.00     0.006 C 
BRANCH   9  10
ATOM     10  C   UNL     1      62.647  23.268  21.578  1.00  0.00     0.053 C 
BRANCH  10  11
ATOM     11  C   UNL     1      62.177  24.007  22.791  1.00  0.00     0.041 C 
ATOM     12  O   UNL     1      62.091  23.416  23.898  1.00  0.00    -0.550 OA
ATOM     13  O   UNL     1      61.787  25.337  22.687  1.00  0.00    -0.550 OA
ENDBRANCH  10  11
ENDBRANCH   9  10
ENDBRANCH   8   9
ENDBRANCH   1   8
TORSDOF 8
ENDMDL
MODEL 9
REMARK VINA RESULT:    -3.274      2.149      3.397
REMARK INTER + INTRA:          -5.251
REMARK INTER:                  -4.747
REMARK INTRA:                  -0.503
REMARK UNBOUND:                -0.445
REMARK SMILES O=C([O-])CCCCCCCC(=O)[O-]
REMARK SMILES IDX 7 1 6 2 5 3 4 4 2 5 1 6 3 7 8 8 9 9 10 10 11 11 12 12 13 13
REMARK H PARENT
REMARK Flexibility Score: inf
ROOT
ATOM      1  C   UNL     1      61.467  22.362  19.957  1.00  0.00     0.000 C 
ENDROOT
BRANCH   1   2
ATOM      2  C   UNL     1      62.835  21.658  19.938  1.00  0.00     0.000 C 
BRANCH   2   3
ATOM      3  C   UNL     1      63.912  22.423  20.723  1.00  0.00     0.006 C 
BRANCH   3   4
ATOM      4  C   UNL     1      63.873  22.051  22.208  1.00  0.00     0.053 C 
BRANCH   4   5
ATOM      5  C   UNL     1      63.243  23.149  23.006  1.00  0.00     0.041 C 
ATOM      6  O   UNL     1      62.922  22.953  24.208  1.00  0.00    -0.550 OA
ATOM      7  O   UNL     1      63.055  24.402  22.439  1.00  0.00    -0.550 OA
ENDBRANCH   4   5
ENDBRANCH   3   4
ENDBRANCH   2   3
ENDBRANCH   1   2
BRANCH   1   8
ATOM      8  C   UNL     1      60.358  21.616  20.725  1.00  0.00     0.000 C 
BRANCH   8   9
ATOM      9  C   UNL     1      59.699  22.417  21.863  1.00  0.00     0.006 C 
BRANCH   9  10
ATOM     10  C   UNL     1      58.719  21.579  22.692  1.00  0.00     0.053 C 
BRANCH  10  11
ATOM     11  C   UNL     1      57.584  22.428  23.174  1.00  0.00     0.041 C 
ATOM     12  O   UNL     1      57.639  22.972  24.307  1.00  0.00    -0.550 OA
ATOM     13  O   UNL     1      56.447  22.578  22.391  1.00  0.00    -0.550 OA
ENDBRANCH  10  11
ENDBRANCH   9  10
ENDBRANCH   8   9
ENDBRANCH   1   8
TORSDOF 8
ENDMDL
