MODEL 1
REMARK VINA RESULT:    -5.022      0.000      0.000
REMARK INTER + INTRA:          -8.353
REMARK INTER:                  -7.664
REMARK INTRA:                  -0.689
REMARK UNBOUND:                -0.689
REMARK SMILES O=C([O-])CCCCCCCCC(=O)[O-]
REMARK SMILES IDX 7 1 6 2 5 3 4 4 2 5 1 6 3 7 8 8 9 9 10 10 11 11 12 12 13 13
REMARK SMILES IDX 14 14
REMARK H PARENT
REMARK Flexibility Score: inf
ROOT
ATOM      1  C   UNL     1       6.162  54.360  22.939  1.00  0.00     0.000 C 
ENDROOT
BRANCH   1   2
ATOM      2  C   UNL     1       6.209  55.857  22.596  1.00  0.00     0.000 C 
BRANCH   2   3
ATOM      3  C   UNL     1       7.036  56.104  21.326  1.00  0.00     0.006 C 
BRANCH   3   4
ATOM      4  C   UNL     1       7.686  54.818  20.796  1.00  0.00     0.053 C 
BRANCH   4   5
ATOM      5  C   UNL     1       7.008  54.323  19.556  1.00  0.00     0.041 C 
ATOM      6  O   UNL     1       6.506  53.169  19.524  1.00  0.00    -0.550 OA
ATOM      7  O   UNL     1       6.960  55.126  18.422  1.00  0.00    -0.550 OA
ENDBRANCH   4   5
ENDBRANCH   3   4
ENDBRANCH   2   3
ENDBRANCH   1   2
BRANCH   1   8
ATOM      8  C   UNL     1       7.023  54.007  24.163  1.00  0.00     0.000 C 
BRANCH   8   9
ATOM      9  C   UNL     1       7.989  52.842  23.891  1.00  0.00     0.000 C 
BRANCH   9  10
ATOM     10  C   UNL     1       9.456  53.296  23.821  1.00  0.00     0.006 C 
BRANCH  10  11
ATOM     11  C   UNL     1       9.654  54.727  24.336  1.00  0.00     0.053 C 
BRANCH  11  12
ATOM     12  C   UNL     1      10.130  54.709  25.755  1.00  0.00     0.041 C 
ATOM     13  O   UNL     1      11.314  54.376  26.021  1.00  0.00    -0.550 OA
ATOM     14  O   UNL     1       9.251  55.014  26.786  1.00  0.00    -0.550 OA
ENDBRANCH  11  12
ENDBRANCH  10  11
ENDBRANCH   9  10
ENDBRANCH   8   9
ENDBRANCH   1   8
TORSDOF 9
ENDMDL
MODEL 2
REMARK VINA RESULT:    -4.901      2.140      2.699
REMARK INTER + INTRA:          -8.168
REMARK INTER:                  -7.319
REMARK INTRA:                  -0.849
REMARK UNBOUND:                -0.689
REMARK SMILES O=C([O-])CCCCCCCCC(=O)[O-]
REMARK SMILES IDX 7 1 6 2 5 3 4 4 2 5 1 6 3 7 8 8 9 9 10 10 11 11 12 12 13 13
REMARK SMILES IDX 14 14
REMARK H PARENT
REMARK Flexibility Score: inf
ROOT
ATOM      1  C   UNL     1       8.496  54.248  22.318  1.00  0.00     0.000 C 
ENDROOT
BRANCH   1   2
ATOM      2  C   UNL     1       7.804  54.360  20.952  1.00  0.00     0.000 C 
BRANCH   2   3
ATOM      3  C   UNL     1       7.311  55.793  20.702  1.00  0.00     0.006 C 
BRANCH   3   4
ATOM      4  C   UNL     1       7.140  56.585  22.006  1.00  0.00     0.053 C 
BRANCH   4   5
ATOM      5  C   UNL     1       5.711  56.618  22.452  1.00  0.00     0.041 C 
ATOM      6  O   UNL     1       5.178  55.592  22.950  1.00  0.00    -0.550 OA
ATOM      7  O   UNL     1       4.956  57.773  22.286  1.00  0.00    -0.550 OA
ENDBRANCH   4   5
ENDBRANCH   3   4
ENDBRANCH   2   3
ENDBRANCH   1   2
BRANCH   1   8
ATOM      8  C   UNL     1       7.866  53.168  23.213  1.00  0.00     0.000 C 
BRANCH   8   9
ATOM      9  C   UNL     1       7.461  53.707  24.596  1.00  0.00     0.000 C 
BRANCH   9  10
ATOM     10  C   UNL     1       8.284  54.937  25.013  1.00  0.00     0.006 C 
BRANCH  10  11
ATOM     11  C   UNL     1       9.011  54.733  26.348  1.00  0.00     0.053 C 
BRANCH  11  12
ATOM     12  C   UNL     1      10.467  54.481  26.116  1.00  0.00     0.041 C 
ATOM     13  O   UNL     1      11.290  54.600  27.061  1.00  0.00    -0.550 OA
ATOM     14  O   UNL     1      10.922  54.161  24.842  1.00  0.00    -0.550 OA
ENDBRANCH  11  12
ENDBRANCH  10  11
ENDBRANCH   9  10
ENDBRANCH   8   9
ENDBRANCH   1   8
TORSDOF 9
ENDMDL
MODEL 3
REMARK VINA RESULT:    -4.873      0.639      5.985
REMARK INTER + INTRA:          -8.126
REMARK INTER:                  -7.409
REMARK INTRA:                  -0.717
REMARK UNBOUND:                -0.689
REMARK SMILES O=C([O-])CCCCCCCCC(=O)[O-]
REMARK SMILES IDX 7 1 6 2 5 3 4 4 2 5 1 6 3 7 8 8 9 9 10 10 11 11 12 12 13 13
REMARK SMILES IDX 14 14
REMARK H PARENT
REMARK Flexibility Score: inf
ROOT
ATOM      1  C   UNL     1       7.492  52.968  23.691  1.00  0.00     0.000 C 
ENDROOT
BRANCH   1   2
ATOM      2  C   UNL     1       9.019  52.951  23.527  1.00  0.00     0.000 C 
BRANCH   2   3
ATOM      3  C   UNL     1       9.618  54.334  23.822  1.00  0.00     0.006 C 
BRANCH   3   4
ATOM      4  C   UNL     1      10.747  54.269  24.860  1.00  0.00     0.053 C 
BRANCH   4   5
ATOM      5  C   UNL     1      10.271  54.661  26.225  1.00  0.00     0.041 C 
ATOM      6  O   UNL     1      11.057  54.621  27.207  1.00  0.00    -0.550 OA
ATOM      7  O   UNL     1       8.947  55.038  26.418  1.00  0.00    -0.550 OA
ENDBRANCH   4   5
ENDBRANCH   3   4
ENDBRANCH   2   3
ENDBRANCH   1   2
BRANCH   1   8
ATOM      8  C   UNL     1       6.923  54.394  23.779  1.00  0.00     0.000 C 
BRANCH   8   9
ATOM      9  C   UNL     1       5.964  54.720  22.621  1.00  0.00     0.000 C 
BRANCH   9  10
ATOM     10  C   UNL     1       6.557  55.737  21.633  1.00  0.00     0.006 C 
BRANCH  10  11
ATOM     11  C   UNL     1       7.650  55.127  20.746  1.00  0.00     0.053 C 
BRANCH  11  12
ATOM     12  C   UNL     1       7.037  54.407  19.586  1.00  0.00     0.041 C 
ATOM     13  O   UNL     1       6.676  53.207  19.704  1.00  0.00    -0.550 OA
ATOM     14  O   UNL     1       6.909  55.047  18.359  1.00  0.00    -0.550 OA
ENDBRANCH  11  12
ENDBRANCH  10  11
ENDBRANCH   9  10
ENDBRANCH   8   9
ENDBRANCH   1   8
TORSDOF 9
ENDMDL
MODEL 4
REMARK VINA RESULT:    -4.778      1.101      1.854
REMARK INTER + INTRA:          -7.981
REMARK INTER:                  -7.339
REMARK INTRA:                  -0.642
REMARK UNBOUND:                -0.689
REMARK SMILES O=C([O-])CCCCCCCCC(=O)[O-]
REMARK SMILES IDX 7 1 6 2 5 3 4 4 2 5 1 6 3 7 8 8 9 9 10 10 11 11 12 12 13 13
REMARK SMILES IDX 14 14
REMARK H PARENT
REMARK Flexibility Score: inf
ROOT
ATOM      1  C   UNL     1       5.776  55.550  22.713  1.00  0.00     0.000 C 
ENDROOT
BRANCH   1   2
ATOM      2  C   UNL     1       7.047  56.395  22.552  1.00  0.00     0.000 C 
BRANCH   2   3
ATOM      3  C   UNL     1       7.590  56.302  21.118  1.00  0.00     0.006 C 
BRANCH   3   4
ATOM      4  C   UNL     1       7.938  54.860  20.721  1.00  0.00     0.053 C 
BRANCH   4   5
ATOM      5  C   UNL     1       7.066  54.364  19.610  1.00  0.00     0.041 C 
ATOM      6  O   UNL     1       6.961  55.024  18.542  1.00  0.00    -0.550 OA
ATOM      7  O   UNL     1       6.341  53.189  19.765  1.00  0.00    -0.550 OA
ENDBRANCH   4   5
ENDBRANCH   3   4
ENDBRANCH   2   3
ENDBRANCH   1   2
BRANCH   1   8
ATOM      8  C   UNL     1       6.043  54.207  23.412  1.00  0.00     0.000 C 
BRANCH   8   9
ATOM      9  C   UNL     1       7.119  54.314  24.507  1.00  0.00     0.000 C 
BRANCH   9  10
ATOM     10  C   UNL     1       7.887  52.998  24.709  1.00  0.00     0.006 C 
BRANCH  10  11
ATOM     11  C   UNL     1       8.900  52.730  23.589  1.00  0.00     0.053 C 
BRANCH  11  12
ATOM     12  C   UNL     1      10.152  53.517  23.818  1.00  0.00     0.041 C 
ATOM     13  O   UNL     1      10.939  53.748  22.863  1.00  0.00    -0.550 OA
ATOM     14  O   UNL     1      10.474  53.952  25.098  1.00  0.00    -0.550 OA
ENDBRANCH  11  12
ENDBRANCH  10  11
ENDBRANCH   9  10
ENDBRANCH   8   9
ENDBRANCH   1   8
TORSDOF 9
ENDMDL
MODEL 5
REMARK VINA RESULT:    -4.774      2.219      2.888
REMARK INTER + INTRA:          -7.975
REMARK INTER:                  -7.283
REMARK INTRA:                  -0.692
REMARK UNBOUND:                -0.689
REMARK SMILES O=C([O-])CCCCCCCCC(=O)[O-]
REMARK SMILES IDX 7 1 6 2 5 3 4 4 2 5 1 6 3 7 8 8 9 9 10 10 11 11 12 12 13 13
REMARK SMILES IDX 14 14
REMARK H PARENT
REMARK Flexibility Score: inf
ROOT
ATOM      1  C   UNL     1       7.988  53.926  22.340  1.00  0.00     0.000 C 
ENDROOT
BRANCH   1   2
ATOM      2  C   UNL     1       7.836  54.727  21.039  1.00  0.00     0.000 C 
BRANCH   2   3
ATOM      3  C   UNL     1       7.848  56.237  21.320  1.00  0.00     0.006 C 
BRANCH   3   4
ATOM      4  C   UNL     1       7.165  56.587  22.649  1.00  0.00     0.053 C 
BRANCH   4   5
ATOM      5  C   UNL     1       5.673  56.612  22.517  1.00  0.00     0.041 C 
ATOM      6  O   UNL     1       5.086  57.666  22.157  1.00  0.00    -0.550 OA
ATOM      7  O   UNL     1       4.928  55.480  22.824  1.00  0.00    -0.550 OA
ENDBRANCH   4   5
ENDBRANCH   3   4
ENDBRANCH   2   3
ENDBRANCH   1   2
BRANCH   1   8
ATOM      8  C   UNL     1       9.318  53.158  22.410  1.00  0.00     0.000 C 
BRANCH   8   9
ATOM      9  C   UNL     1      10.460  54.006  22.998  1.00  0.00     0.000 C 
BRANCH   9  10
ATOM     10  C   UNL     1      10.614  53.817  24.515  1.00  0.00     0.006 C 
BRANCH  10  11
ATOM     11  C   UNL     1      10.208  55.065  25.309  1.00  0.00     0.053 C 
BRANCH  11  12
ATOM     12  C   UNL     1       9.217  54.708  26.371  1.00  0.00     0.041 C 
ATOM     13  O   UNL     1       9.554  54.721  27.583  1.00  0.00    -0.550 OA
ATOM     14  O   UNL     1       7.932  54.312  26.017  1.00  0.00    -0.550 OA
ENDBRANCH  11  12
ENDBRANCH  10  11
ENDBRANCH   9  10
ENDBRANCH   8   9
ENDBRANCH   1   8
TORSDOF 9
ENDMDL
MODEL 6
REMARK VINA RESULT:    -4.687      2.059      5.696
REMARK INTER + INTRA:          -7.842
REMARK INTER:                  -7.300
REMARK INTRA:                  -0.542
REMARK UNBOUND:                -0.689
REMARK SMILES O=C([O-])CCCCCCCCC(=O)[O-]
REMARK SMILES IDX 7 1 6 2 5 3 4 4 2 5 1 6 3 7 8 8 9 9 10 10 11 11 12 12 13 13
REMARK SMILES IDX 14 14
REMARK H PARENT
REMARK Flexibility Score: inf
ROOT
ATOM      1  C   UNL     1       9.406  52.655  23.783  1.00  0.00     0.000 C 
ENDROOT
BRANCH   1   2
ATOM      2  C   UNL     1       7.978  52.905  24.288  1.00  0.00     0.000 C 
BRANCH   2   3
ATOM      3  C   UNL     1       7.994  53.613  25.651  1.00  0.00     0.006 C 
BRANCH   3   4
ATOM      4  C   UNL     1       8.891  54.858  25.649  1.00  0.00     0.053 C 
BRANCH   4   5
ATOM      5  C   UNL     1      10.066  54.699  26.564  1.00  0.00     0.041 C 
ATOM      6  O   UNL     1       9.906  54.732  27.813  1.00  0.00    -0.550 OA
ATOM      7  O   UNL     1      11.343  54.546  26.038  1.00  0.00    -0.550 OA
ENDBRANCH   4   5
ENDBRANCH   3   4
ENDBRANCH   2   3
ENDBRANCH   1   2
BRANCH   1   8
ATOM      8  C   UNL     1       9.786  53.569  22.606  1.00  0.00     0.000 C 
BRANCH   8   9
ATOM      9  C   UNL     1       8.559  54.056  21.816  1.00  0.00     0.000 C 
BRANCH   9  10
ATOM     10  C   UNL     1       8.371  55.579  21.900  1.00  0.00     0.006 C 
BRANCH  10  11
ATOM     11  C   UNL     1       7.045  56.043  21.283  1.00  0.00     0.053 C 
BRANCH  11  12
ATOM     12  C   UNL     1       5.994  56.171  22.341  1.00  0.00     0.041 C 
ATOM     13  O   UNL     1       5.676  55.175  23.042  1.00  0.00    -0.550 OA
ATOM     14  O   UNL     1       5.332  57.379  22.519  1.00  0.00    -0.550 OA
ENDBRANCH  11  12
ENDBRANCH  10  11
ENDBRANCH   9  10
ENDBRANCH   8   9
ENDBRANCH   1   8
TORSDOF 9
ENDMDL
MODEL 7
REMARK VINA RESULT:    -4.593      1.844      2.457
REMARK INTER + INTRA:          -7.698
REMARK INTER:                  -6.921
REMARK INTRA:                  -0.777
REMARK UNBOUND:                -0.689
REMARK SMILES O=C([O-])CCCCCCCCC(=O)[O-]
REMARK SMILES IDX 7 1 6 2 5 3 4 4 2 5 1 6 3 7 8 8 9 9 10 10 11 11 12 12 13 13
REMARK SMILES IDX 14 14
REMARK H PARENT
REMARK Flexibility Score: inf
ROOT
ATOM      1  C   UNL     1       6.847  53.670  24.015  1.00  0.00     0.000 C 
ENDROOT
BRANCH   1   2
ATOM      2  C   UNL     1       6.132  54.160  22.748  1.00  0.00     0.000 C 
BRANCH   2   3
ATOM      3  C   UNL     1       5.345  55.450  23.025  1.00  0.00     0.006 C 
BRANCH   3   4
ATOM      4  C   UNL     1       5.732  56.584  22.066  1.00  0.00     0.053 C 
BRANCH   4   5
ATOM      5  C   UNL     1       7.218  56.729  21.946  1.00  0.00     0.041 C 
ATOM      6  O   UNL     1       7.785  56.551  20.836  1.00  0.00    -0.550 OA
ATOM      7  O   UNL     1       7.981  57.027  23.068  1.00  0.00    -0.550 OA
ENDBRANCH   4   5
ENDBRANCH   3   4
ENDBRANCH   2   3
ENDBRANCH   1   2
BRANCH   1   8
ATOM      8  C   UNL     1       8.060  52.778  23.702  1.00  0.00     0.000 C 
BRANCH   8   9
ATOM      9  C   UNL     1       8.990  53.395  22.643  1.00  0.00     0.000 C 
BRANCH   9  10
ATOM     10  C   UNL     1      10.058  54.313  23.259  1.00  0.00     0.006 C 
BRANCH  10  11
ATOM     11  C   UNL     1      10.628  53.755  24.569  1.00  0.00     0.053 C 
BRANCH  11  12
ATOM     12  C   UNL     1      10.391  54.716  25.692  1.00  0.00     0.041 C 
ATOM     13  O   UNL     1      11.007  54.582  26.782  1.00  0.00    -0.550 OA
ATOM     14  O   UNL     1       9.454  55.733  25.550  1.00  0.00    -0.550 OA
ENDBRANCH  11  12
ENDBRANCH  10  11
ENDBRANCH   9  10
ENDBRANCH   8   9
ENDBRANCH   1   8
TORSDOF 9
ENDMDL
MODEL 8
REMARK VINA RESULT:    -4.511      3.134      3.726
REMARK INTER + INTRA:          -7.573
REMARK INTER:                  -7.185
REMARK INTRA:                  -0.388
REMARK UNBOUND:                -0.689
REMARK SMILES O=C([O-])CCCCCCCCC(=O)[O-]
REMARK SMILES IDX 7 1 6 2 5 3 4 4 2 5 1 6 3 7 8 8 9 9 10 10 11 11 12 12 13 13
REMARK SMILES IDX 14 14
REMARK H PARENT
REMARK Flexibility Score: inf
ROOT
ATOM      1  C   UNL     1       6.818  55.336  21.807  1.00  0.00     0.000 C 
ENDROOT
BRANCH   1   2
ATOM      2  C   UNL     1       6.613  56.793  22.249  1.00  0.00     0.000 C 
BRANCH   2   3
ATOM      3  C   UNL     1       5.150  57.045  22.644  1.00  0.00     0.006 C 
BRANCH   3   4
ATOM      4  C   UNL     1       4.498  58.140  21.788  1.00  0.00     0.053 C 
BRANCH   4   5
ATOM      5  C   UNL     1       3.138  58.506  22.296  1.00  0.00     0.041 C 
ATOM      6  O   UNL     1       2.107  58.055  21.732  1.00  0.00    -0.550 OA
ATOM      7  O   UNL     1       3.007  59.374  23.374  1.00  0.00    -0.550 OA
ENDBRANCH   4   5
ENDBRANCH   3   4
ENDBRANCH   2   3
ENDBRANCH   1   2
BRANCH   1   8
ATOM      8  C   UNL     1       6.621  54.336  22.958  1.00  0.00     0.000 C 
BRANCH   8   9
ATOM      9  C   UNL     1       7.827  53.399  23.141  1.00  0.00     0.000 C 
BRANCH   9  10
ATOM     10  C   UNL     1       9.170  54.137  23.019  1.00  0.00     0.006 C 
BRANCH  10  11
ATOM     11  C   UNL     1      10.195  53.671  24.061  1.00  0.00     0.053 C 
BRANCH  11  12
ATOM     12  C   UNL     1      10.240  54.628  25.212  1.00  0.00     0.041 C 
ATOM     13  O   UNL     1       9.442  55.600  25.259  1.00  0.00    -0.550 OA
ATOM     14  O   UNL     1      11.198  54.472  26.206  1.00  0.00    -0.550 OA
ENDBRANCH  11  12
ENDBRANCH  10  11
ENDBRANCH   9  10
ENDBRANCH   8   9
ENDBRANCH   1   8
TORSDOF 9
ENDMDL
MODEL 9
REMARK VINA RESULT:    -4.506      1.965      4.935
REMARK INTER + INTRA:          -7.565
REMARK INTER:                  -6.705
REMARK INTRA:                  -0.860
REMARK UNBOUND:                -0.689
REMARK SMILES O=C([O-])CCCCCCCCC(=O)[O-]
REMARK SMILES IDX 7 1 6 2 5 3 4 4 2 5 1 6 3 7 8 8 9 9 10 10 11 11 12 12 13 13
REMARK SMILES IDX 14 14
REMARK H PARENT
REMARK Flexibility Score: inf
ROOT
ATOM      1  C   UNL     1       8.563  55.290  25.122  1.00  0.00     0.000 C 
ENDROOT
BRANCH   1   2
ATOM      2  C   UNL     1      10.014  55.152  25.606  1.00  0.00     0.000 C 
BRANCH   2   3
ATOM      3  C   UNL     1      10.687  53.921  24.982  1.00  0.00     0.006 C 
BRANCH   3   4
ATOM      4  C   UNL     1      10.644  53.950  23.448  1.00  0.00     0.053 C 
BRANCH   4   5
ATOM      5  C   UNL     1      10.235  52.627  22.878  1.00  0.00     0.041 C 
ATOM      6  O   UNL     1       9.962  52.520  21.654  1.00  0.00    -0.550 OA
ATOM      7  O   UNL     1      10.121  51.517  23.707  1.00  0.00    -0.550 OA
ENDBRANCH   4   5
ENDBRANCH   3   4
ENDBRANCH   2   3
ENDBRANCH   1   2
BRANCH   1   8
ATOM      8  C   UNL     1       7.736  54.017  25.362  1.00  0.00     0.000 C 
BRANCH   8   9
ATOM      9  C   UNL     1       6.895  53.618  24.137  1.00  0.00     0.000 C 
BRANCH   9  10
ATOM     10  C   UNL     1       6.944  54.672  23.020  1.00  0.00     0.006 C 
BRANCH  10  11
ATOM     11  C   UNL     1       6.892  54.049  21.620  1.00  0.00     0.053 C 
BRANCH  11  12
ATOM     12  C   UNL     1       7.168  55.086  20.576  1.00  0.00     0.041 C 
ATOM     13  O   UNL     1       7.012  54.815  19.357  1.00  0.00    -0.550 OA
ATOM     14  O   UNL     1       7.645  56.336  20.949  1.00  0.00    -0.550 OA
ENDBRANCH  11  12
ENDBRANCH  10  11
ENDBRANCH   9  10
ENDBRANCH   8   9
ENDBRANCH   1   8
TORSDOF 9
ENDMDL
