MODEL 1
REMARK VINA RESULT:    -2.729      0.000      0.000
REMARK INTER + INTRA:          -3.196
REMARK INTER:                  -2.968
REMARK INTRA:                  -0.228
REMARK UNBOUND:                -0.228
REMARK SMILES O=C([O-])c1ccccc1O
REMARK SMILES IDX 4 1 9 2 5 3 8 4 6 5 7 6 2 7 1 8 3 9 10 10
REMARK H PARENT 10 11
REMARK Flexibility Score: inf
ROOT
ATOM      1  C   UNL     1       0.867  -1.571   0.406  1.00  0.00     0.039 A 
ATOM      2  C   UNL     1      -0.109  -2.418   0.993  1.00  0.00     0.124 A 
ATOM      3  C   UNL     1       0.876  -1.413  -0.993  1.00  0.00     0.014 A 
ATOM      4  C   UNL     1      -0.998  -3.125   0.173  1.00  0.00     0.047 A 
ATOM      5  C   UNL     1      -0.032  -2.109  -1.795  1.00  0.00     0.001 A 
ATOM      6  C   UNL     1      -0.961  -2.971  -1.213  1.00  0.00     0.004 A 
ENDROOT
BRANCH   1   7
ATOM      7  C   UNL     1       1.900  -0.877   1.205  1.00  0.00     0.075 C 
ATOM      8  O   UNL     1       1.669  -0.568   2.405  1.00  0.00    -0.545 OA
ATOM      9  O   UNL     1       3.105  -0.494   0.631  1.00  0.00    -0.545 OA
ENDBRANCH   1   7
BRANCH   2  10
ATOM     10  O   UNL     1      -0.250  -2.555   2.376  1.00  0.00    -0.507 OA
ATOM     11  H   UNL     1       0.133  -1.898   3.042  1.00  0.00     0.293 HD
ENDBRANCH   2  10
TORSDOF 2
ENDMDL
MODEL 2
REMARK VINA RESULT:    -2.153      0.383      0.383
REMARK INTER + INTRA:          -2.569
REMARK INTER:                  -2.394
REMARK INTRA:                  -0.175
REMARK UNBOUND:                -0.228
REMARK SMILES O=C([O-])c1ccccc1O
REMARK SMILES IDX 4 1 9 2 5 3 8 4 6 5 7 6 2 7 1 8 3 9 10 10
REMARK H PARENT 10 11
REMARK Flexibility Score: inf
ROOT
ATOM      1  C   UNL     1       1.004  -1.500   0.422  1.00  0.00     0.039 A 
ATOM      2  C   UNL     1       0.002  -2.151   1.187  1.00  0.00     0.124 A 
ATOM      3  C   UNL     1       0.966  -1.608  -0.981  1.00  0.00     0.014 A 
ATOM      4  C   UNL     1      -0.963  -2.935   0.542  1.00  0.00     0.047 A 
ATOM      5  C   UNL     1      -0.016  -2.376  -1.610  1.00  0.00     0.001 A 
ATOM      6  C   UNL     1      -0.973  -3.047  -0.849  1.00  0.00     0.004 A 
ENDROOT
BRANCH   1   7
ATOM      7  C   UNL     1       2.112  -0.742   1.045  1.00  0.00     0.075 C 
ATOM      8  O   UNL     1       2.100  -0.509   2.283  1.00  0.00    -0.545 OA
ATOM      9  O   UNL     1       3.139  -0.217   0.270  1.00  0.00    -0.545 OA
ENDBRANCH   1   7
BRANCH   2  10
ATOM     10  O   UNL     1      -0.090  -2.016   2.574  1.00  0.00    -0.507 OA
ATOM     11  H   UNL     1      -0.650  -1.307   3.028  1.00  0.00     0.293 HD
ENDBRANCH   2  10
TORSDOF 2
ENDMDL
MODEL 3
REMARK VINA RESULT:    -1.975      2.118      3.386
REMARK INTER + INTRA:          -2.376
REMARK INTER:                  -2.187
REMARK INTRA:                  -0.189
REMARK UNBOUND:                -0.228
REMARK SMILES O=C([O-])c1ccccc1O
REMARK SMILES IDX 4 1 9 2 5 3 8 4 6 5 7 6 2 7 1 8 3 9 10 10
REMARK H PARENT 10 11
REMARK Flexibility Score: inf
ROOT
ATOM      1  C   UNL     1       0.466  -1.949  -0.259  1.00  0.00     0.039 A 
ATOM      2  C   UNL     1       0.120  -2.223   1.090  1.00  0.00     0.124 A 
ATOM      3  C   UNL     1       1.560  -1.104  -0.522  1.00  0.00     0.014 A 
ATOM      4  C   UNL     1       0.828  -1.601   2.126  1.00  0.00     0.047 A 
ATOM      5  C   UNL     1       2.269  -0.509   0.524  1.00  0.00     0.001 A 
ATOM      6  C   UNL     1       1.898  -0.750   1.846  1.00  0.00     0.004 A 
ENDROOT
BRANCH   1   7
ATOM      7  C   UNL     1      -0.304  -2.489  -1.401  1.00  0.00     0.075 C 
ATOM      8  O   UNL     1      -1.374  -3.123  -1.198  1.00  0.00    -0.545 OA
ATOM      9  O   UNL     1       0.173  -2.369  -2.700  1.00  0.00    -0.545 OA
ENDBRANCH   1   7
BRANCH   2  10
ATOM     10  O   UNL     1      -0.887  -3.125   1.439  1.00  0.00    -0.507 OA
ATOM     11  H   UNL     1      -1.036  -4.004   0.963  1.00  0.00     0.293 HD
ENDBRANCH   2  10
TORSDOF 2
ENDMDL
MODEL 4
REMARK VINA RESULT:    -1.668      1.385      2.476
REMARK INTER + INTRA:          -2.042
REMARK INTER:                  -1.867
REMARK INTRA:                  -0.175
REMARK UNBOUND:                -0.228
REMARK SMILES O=C([O-])c1ccccc1O
REMARK SMILES IDX 4 1 9 2 5 3 8 4 6 5 7 6 2 7 1 8 3 9 10 10
REMARK H PARENT 10 11
REMARK Flexibility Score: inf
ROOT
ATOM      1  C   UNL     1       1.279  -1.485   0.717  1.00  0.00     0.039 A 
ATOM      2  C   UNL     1       0.876  -1.762  -0.614  1.00  0.00     0.124 A 
ATOM      3  C   UNL     1       0.568  -2.074   1.779  1.00  0.00     0.014 A 
ATOM      4  C   UNL     1      -0.253  -2.559  -0.845  1.00  0.00     0.047 A 
ATOM      5  C   UNL     1      -0.543  -2.884   1.531  1.00  0.00     0.001 A 
ATOM      6  C   UNL     1      -0.958  -3.119   0.221  1.00  0.00     0.004 A 
ENDROOT
BRANCH   1   7
ATOM      7  C   UNL     1       2.397  -0.570   1.034  1.00  0.00     0.075 C 
ATOM      8  O   UNL     1       3.134  -0.130   0.111  1.00  0.00    -0.545 OA
ATOM      9  O   UNL     1       2.695  -0.239   2.350  1.00  0.00    -0.545 OA
ENDBRANCH   1   7
BRANCH   2  10
ATOM     10  O   UNL     1       1.583  -1.298  -1.726  1.00  0.00    -0.507 OA
ATOM     11  H   UNL     1       1.550  -1.745  -2.632  1.00  0.00     0.293 HD
ENDBRANCH   2  10
TORSDOF 2
ENDMDL
MODEL 5
REMARK VINA RESULT:    -0.763      1.973      3.429
REMARK INTER + INTRA:          -1.057
REMARK INTER:                  -0.823
REMARK INTRA:                  -0.234
REMARK UNBOUND:                -0.228
REMARK SMILES O=C([O-])c1ccccc1O
REMARK SMILES IDX 4 1 9 2 5 3 8 4 6 5 7 6 2 7 1 8 3 9 10 10
REMARK H PARENT 10 11
REMARK Flexibility Score: inf
ROOT
ATOM      1  C   UNL     1       0.793  -1.669   0.041  1.00  0.00     0.039 A 
ATOM      2  C   UNL     1       0.523  -1.465   1.419  1.00  0.00     0.124 A 
ATOM      3  C   UNL     1       2.037  -1.260  -0.475  1.00  0.00     0.014 A 
ATOM      4  C   UNL     1       1.466  -0.810   2.221  1.00  0.00     0.047 A 
ATOM      5  C   UNL     1       2.975  -0.627   0.344  1.00  0.00     0.001 A 
ATOM      6  C   UNL     1       2.686  -0.394   1.688  1.00  0.00     0.004 A 
ENDROOT
BRANCH   1   7
ATOM      7  C   UNL     1      -0.199  -2.260  -0.884  1.00  0.00     0.075 C 
ATOM      8  O   UNL     1      -1.018  -3.120  -0.465  1.00  0.00    -0.545 OA
ATOM      9  O   UNL     1      -0.197  -1.932  -2.234  1.00  0.00    -0.545 OA
ENDBRANCH   1   7
BRANCH   2  10
ATOM     10  O   UNL     1      -0.644  -1.927   2.032  1.00  0.00    -0.507 OA
ATOM     11  H   UNL     1      -1.366  -2.436   1.540  1.00  0.00     0.293 HD
ENDBRANCH   2  10
TORSDOF 2
ENDMDL
MODEL 6
REMARK VINA RESULT:    -0.613      2.616      4.003
REMARK INTER + INTRA:          -0.894
REMARK INTER:                  -0.745
REMARK INTRA:                  -0.150
REMARK UNBOUND:                -0.228
REMARK SMILES O=C([O-])c1ccccc1O
REMARK SMILES IDX 4 1 9 2 5 3 8 4 6 5 7 6 2 7 1 8 3 9 10 10
REMARK H PARENT 10 11
REMARK Flexibility Score: inf
ROOT
ATOM      1  C   UNL     1      -0.116  -2.211  -0.935  1.00  0.00     0.039 A 
ATOM      2  C   UNL     1       1.009  -1.488  -0.462  1.00  0.00     0.124 A 
ATOM      3  C   UNL     1      -0.980  -2.812  -0.001  1.00  0.00     0.014 A 
ATOM      4  C   UNL     1       1.273  -1.438   0.913  1.00  0.00     0.047 A 
ATOM      5  C   UNL     1      -0.714  -2.735   1.368  1.00  0.00     0.001 A 
ATOM      6  C   UNL     1       0.416  -2.057   1.824  1.00  0.00     0.004 A 
ENDROOT
BRANCH   1   7
ATOM      7  C   UNL     1      -0.395  -2.390  -2.377  1.00  0.00     0.075 C 
ATOM      8  O   UNL     1       0.354  -3.121  -3.079  1.00  0.00    -0.545 OA
ATOM      9  O   UNL     1      -1.435  -1.704  -2.991  1.00  0.00    -0.545 OA
ENDBRANCH   1   7
BRANCH   2  10
ATOM     10  O   UNL     1       1.861  -0.781  -1.313  1.00  0.00    -0.507 OA
ATOM     11  H   UNL     1       2.750  -1.141  -1.636  1.00  0.00     0.293 HD
ENDBRANCH   2  10
TORSDOF 2
ENDMDL
MODEL 7
REMARK VINA RESULT:    -0.290      1.953      3.925
REMARK INTER + INTRA:          -0.543
REMARK INTER:                  -0.311
REMARK INTRA:                  -0.232
REMARK UNBOUND:                -0.228
REMARK SMILES O=C([O-])c1ccccc1O
REMARK SMILES IDX 4 1 9 2 5 3 8 4 6 5 7 6 2 7 1 8 3 9 10 10
REMARK H PARENT 10 11
REMARK Flexibility Score: inf
ROOT
ATOM      1  C   UNL     1       0.821  -1.610   0.940  1.00  0.00     0.039 A 
ATOM      2  C   UNL     1       1.525  -1.294  -0.250  1.00  0.00     0.124 A 
ATOM      3  C   UNL     1       1.339  -1.173   2.174  1.00  0.00     0.014 A 
ATOM      4  C   UNL     1       2.746  -0.611  -0.172  1.00  0.00     0.047 A 
ATOM      5  C   UNL     1       2.547  -0.475   2.232  1.00  0.00     0.001 A 
ATOM      6  C   UNL     1       3.255  -0.203   1.061  1.00  0.00     0.004 A 
ENDROOT
BRANCH   1   7
ATOM      7  C   UNL     1      -0.419  -2.417   0.938  1.00  0.00     0.075 C 
ATOM      8  O   UNL     1      -0.715  -3.124   1.938  1.00  0.00    -0.545 OA
ATOM      9  O   UNL     1      -1.235  -2.464  -0.185  1.00  0.00    -0.545 OA
ENDBRANCH   1   7
BRANCH   2  10
ATOM     10  O   UNL     1       1.032  -1.604  -1.520  1.00  0.00    -0.507 OA
ATOM     11  H   UNL     1       1.281  -2.445  -2.023  1.00  0.00     0.293 HD
ENDBRANCH   2  10
TORSDOF 2
ENDMDL
