MODEL 1
REMARK VINA RESULT:    19.659      0.000      0.000
REMARK INTER + INTRA:          28.249
REMARK INTER:                  26.554
REMARK INTRA:                   1.695
REMARK UNBOUND:                 1.695
REMARK SMILES O=c1c(-c2ccc(O)cc2)coc2c([C@H]3O[C@@H](CO)[C@H](O)[C@@H](O)[C@@H]3O)c(O)ccc12
REMARK SMILES IDX 3 1 11 2 12 3 13 4 30 5 2 6 1 7 29 8 28 9 26 10 14 11 4 12
REMARK SMILES IDX 5 13 6 14 7 15 10 16 9 17 8 18 15 20 24 21 16 22 22 23 17 24
REMARK SMILES IDX 20 25 25 26 23 28 18 30 19 31 21 33 27 35
REMARK H PARENT 8 19 25 27 23 29 19 32 21 34 27 36
REMARK Flexibility Score: inf
ROOT
ATOM      1  C   UNL     1      -9.029  -2.821  17.870  1.00  0.00     0.065 A 
ATOM      2  C   UNL     1      -9.034  -4.216  17.153  1.00  0.00     0.208 A 
ATOM      3  O   UNL     1      -9.260  -4.209  15.848  1.00  0.00    -0.463 OA
ATOM      4  C   UNL     1      -9.492  -3.129  15.095  1.00  0.00     0.147 A 
ATOM      5  C   UNL     1      -9.607  -1.825  15.665  1.00  0.00     0.066 A 
ATOM      6  C   UNL     1      -9.360  -1.626  17.033  1.00  0.00     0.200 A 
ATOM      7  O   UNL     1      -9.346  -0.463  17.527  1.00  0.00    -0.288 OA
ATOM      8  C   UNL     1      -9.932  -0.737  14.835  1.00  0.00     0.020 A 
ATOM      9  C   UNL     1     -10.125  -0.919  13.471  1.00  0.00     0.047 A 
ATOM     10  C   UNL     1      -9.958  -2.178  12.890  1.00  0.00     0.125 A 
ATOM     11  C   UNL     1      -9.616  -3.292  13.688  1.00  0.00     0.069 A 
ENDROOT
BRANCH   1  12
ATOM     12  C   UNL     1      -8.538  -2.470  19.378  1.00  0.00    -0.011 A 
ATOM     13  C   UNL     1      -8.238  -3.474  20.316  1.00  0.00     0.013 A 
ATOM     14  C   UNL     1      -7.900  -3.130  21.627  1.00  0.00     0.047 A 
ATOM     15  C   UNL     1      -7.810  -1.781  22.003  1.00  0.00     0.115 A 
ATOM     16  C   UNL     1      -8.431  -1.124  19.755  1.00  0.00     0.013 A 
ATOM     17  C   UNL     1      -8.075  -0.781  21.062  1.00  0.00     0.047 A 
BRANCH  15  18
ATOM     18  O   UNL     1      -7.451  -1.427  23.302  1.00  0.00    -0.508 OA
ATOM     19  H   UNL     1      -6.479  -1.332  23.570  1.00  0.00     0.293 HD
ENDBRANCH  15  18
ENDBRANCH   1  12
BRANCH  11  20
ATOM     20  C   UNL     1      -9.352  -4.636  13.011  1.00  0.00     0.188 C 
ATOM     21  C   UNL     1      -8.990  -5.726  14.044  1.00  0.00     0.179 C 
ATOM     22  O   UNL     1      -8.300  -4.524  12.067  1.00  0.00    -0.362 OA
ATOM     23  C   UNL     1      -8.318  -6.957  13.359  1.00  0.00     0.177 C 
ATOM     24  C   UNL     1      -8.301  -5.612  11.151  1.00  0.00     0.176 C 
ATOM     25  C   UNL     1      -8.573  -6.998  11.829  1.00  0.00     0.177 C 
BRANCH  21  26
ATOM     26  O   UNL     1     -10.124  -6.115  14.780  1.00  0.00    -0.387 OA
ATOM     27  H   UNL     1     -10.180  -5.525  15.579  1.00  0.00     0.211 HD
ENDBRANCH  21  26
BRANCH  23  28
ATOM     28  O   UNL     1      -6.937  -6.996  13.635  1.00  0.00    -0.387 OA
ATOM     29  H   UNL     1      -6.770  -7.794  14.199  1.00  0.00     0.211 HD
ENDBRANCH  23  28
BRANCH  24  30
ATOM     30  C   UNL     1      -6.958  -5.623  10.399  1.00  0.00     0.191 C 
BRANCH  30  31
ATOM     31  O   UNL     1      -5.887  -5.438  11.292  1.00  0.00    -0.394 OA
ATOM     32  H   UNL     1      -6.125  -5.935  12.120  1.00  0.00     0.210 HD
ENDBRANCH  30  31
ENDBRANCH  24  30
BRANCH  25  33
ATOM     33  O   UNL     1      -9.913  -7.357  11.592  1.00  0.00    -0.388 OA
ATOM     34  H   UNL     1     -10.401  -6.528  11.340  1.00  0.00     0.211 HD
ENDBRANCH  25  33
ENDBRANCH  11  20
BRANCH  10  35
ATOM     35  O   UNL     1     -10.125  -2.324  11.511  1.00  0.00    -0.507 OA
ATOM     36  H   UNL     1      -9.364  -2.158  10.861  1.00  0.00     0.293 HD
ENDBRANCH  10  35
TORSDOF 9
ENDMDL
