MODEL 1
REMARK VINA RESULT:    -3.514      0.000      0.000
REMARK INTER + INTRA:          -8.465
REMARK INTER:                  -6.596
REMARK INTRA:                  -1.869
REMARK UNBOUND:                -1.869
REMARK SMILES O=C([O-])CCCCCCCCCCCCCCC(=O)[O-]
REMARK SMILES IDX 10 1 9 2 8 3 7 4 6 5 5 6 4 7 2 8 1 9 3 10 11 11 12 12 13 13
REMARK SMILES IDX 14 14 15 15 16 16 17 17 18 18 19 19 20 20
REMARK H PARENT
REMARK Flexibility Score: inf
ROOT
ATOM      1  C   UNL     1     -46.844 -22.573  26.855  1.00  0.00     0.000 C 
ENDROOT
BRANCH   1   2
ATOM      2  C   UNL     1     -47.944 -21.508  26.669  1.00  0.00     0.000 C 
BRANCH   2   3
ATOM      3  C   UNL     1     -47.857 -20.349  27.679  1.00  0.00     0.000 C 
BRANCH   3   4
ATOM      4  C   UNL     1     -47.100 -19.134  27.120  1.00  0.00     0.000 C 
BRANCH   4   5
ATOM      5  C   UNL     1     -46.943 -19.239  25.595  1.00  0.00     0.000 C 
BRANCH   5   6
ATOM      6  C   UNL     1     -45.522 -18.906  25.109  1.00  0.00     0.006 C 
BRANCH   6   7
ATOM      7  C   UNL     1     -44.661 -18.173  26.152  1.00  0.00     0.053 C 
BRANCH   7   8
ATOM      8  C   UNL     1     -44.532 -16.707  25.865  1.00  0.00     0.041 C 
ATOM      9  O   UNL     1     -43.403 -16.208  25.611  1.00  0.00    -0.550 OA
ATOM     10  O   UNL     1     -45.650 -15.884  25.914  1.00  0.00    -0.550 OA
ENDBRANCH   7   8
ENDBRANCH   6   7
ENDBRANCH   5   6
ENDBRANCH   4   5
ENDBRANCH   3   4
ENDBRANCH   2   3
ENDBRANCH   1   2
BRANCH   1  11
ATOM     11  C   UNL     1     -46.222 -22.578  28.268  1.00  0.00     0.000 C 
BRANCH  11  12
ATOM     12  C   UNL     1     -44.709 -22.281  28.293  1.00  0.00     0.000 C 
BRANCH  12  13
ATOM     13  C   UNL     1     -44.141 -21.796  26.944  1.00  0.00     0.000 C 
BRANCH  13  14
ATOM     14  C   UNL     1     -42.648 -21.431  27.034  1.00  0.00     0.000 C 
BRANCH  14  15
ATOM     15  C   UNL     1     -41.784 -22.593  27.551  1.00  0.00     0.000 C 
BRANCH  15  16
ATOM     16  C   UNL     1     -41.053 -22.251  28.860  1.00  0.00     0.006 C 
BRANCH  16  17
ATOM     17  C   UNL     1     -40.404 -20.862  28.813  1.00  0.00     0.053 C 
BRANCH  17  18
ATOM     18  C   UNL     1     -39.039 -20.905  28.197  1.00  0.00     0.041 C 
ATOM     19  O   UNL     1     -38.772 -20.187  27.199  1.00  0.00    -0.550 OA
ATOM     20  O   UNL     1     -38.054 -21.719  28.742  1.00  0.00    -0.550 OA
ENDBRANCH  17  18
ENDBRANCH  16  17
ENDBRANCH  15  16
ENDBRANCH  14  15
ENDBRANCH  13  14
ENDBRANCH  12  13
ENDBRANCH  11  12
ENDBRANCH   1  11
TORSDOF 15
ENDMDL
MODEL 2
REMARK VINA RESULT:    -3.501      2.580      6.270
REMARK INTER + INTRA:          -8.440
REMARK INTER:                  -6.929
REMARK INTRA:                  -1.511
REMARK UNBOUND:                -1.869
REMARK SMILES O=C([O-])CCCCCCCCCCCCCCC(=O)[O-]
REMARK SMILES IDX 10 1 9 2 8 3 7 4 6 5 5 6 4 7 2 8 1 9 3 10 11 11 12 12 13 13
REMARK SMILES IDX 14 14 15 15 16 16 17 17 18 18 19 19 20 20
REMARK H PARENT
REMARK Flexibility Score: inf
ROOT
ATOM      1  C   UNL     1     -40.236 -20.789  28.908  1.00  0.00     0.000 C 
ENDROOT
BRANCH   1   2
ATOM      2  C   UNL     1     -38.922 -21.478  28.487  1.00  0.00     0.000 C 
BRANCH   2   3
ATOM      3  C   UNL     1     -38.180 -20.751  27.351  1.00  0.00     0.000 C 
BRANCH   3   4
ATOM      4  C   UNL     1     -39.104 -20.395  26.175  1.00  0.00     0.000 C 
BRANCH   4   5
ATOM      5  C   UNL     1     -39.078 -18.885  25.894  1.00  0.00     0.000 C 
BRANCH   5   6
ATOM      6  C   UNL     1     -40.260 -18.131  26.529  1.00  0.00     0.006 C 
BRANCH   6   7
ATOM      7  C   UNL     1     -41.561 -18.207  25.710  1.00  0.00     0.053 C 
BRANCH   7   8
ATOM      8  C   UNL     1     -42.161 -16.857  25.459  1.00  0.00     0.041 C 
ATOM      9  O   UNL     1     -41.464 -15.940  24.947  1.00  0.00    -0.550 OA
ATOM     10  O   UNL     1     -43.476 -16.596  25.824  1.00  0.00    -0.550 OA
ENDBRANCH   7   8
ENDBRANCH   6   7
ENDBRANCH   5   6
ENDBRANCH   4   5
ENDBRANCH   3   4
ENDBRANCH   2   3
ENDBRANCH   1   2
BRANCH   1  11
ATOM     11  C   UNL     1     -41.367 -21.779  29.258  1.00  0.00     0.000 C 
BRANCH  11  12
ATOM     12  C   UNL     1     -41.952 -22.526  28.043  1.00  0.00     0.000 C 
BRANCH  12  13
ATOM     13  C   UNL     1     -42.528 -21.600  26.953  1.00  0.00     0.000 C 
BRANCH  13  14
ATOM     14  C   UNL     1     -44.060 -21.472  27.041  1.00  0.00     0.000 C 
BRANCH  14  15
ATOM     15  C   UNL     1     -44.660 -22.306  28.185  1.00  0.00     0.000 C 
BRANCH  15  16
ATOM     16  C   UNL     1     -46.187 -22.452  28.074  1.00  0.00     0.006 C 
BRANCH  16  17
ATOM     17  C   UNL     1     -46.781 -21.512  27.017  1.00  0.00     0.053 C 
BRANCH  17  18
ATOM     18  C   UNL     1     -47.433 -20.315  27.638  1.00  0.00     0.041 C 
ATOM     19  O   UNL     1     -48.219 -20.455  28.611  1.00  0.00    -0.550 OA
ATOM     20  O   UNL     1     -47.151 -19.041  27.159  1.00  0.00    -0.550 OA
ENDBRANCH  17  18
ENDBRANCH  16  17
ENDBRANCH  15  16
ENDBRANCH  14  15
ENDBRANCH  13  14
ENDBRANCH  12  13
ENDBRANCH  11  12
ENDBRANCH   1  11
TORSDOF 15
ENDMDL
MODEL 3
REMARK VINA RESULT:    -3.499      1.578      6.106
REMARK INTER + INTRA:          -8.435
REMARK INTER:                  -6.844
REMARK INTRA:                  -1.591
REMARK UNBOUND:                -1.869
REMARK SMILES O=C([O-])CCCCCCCCCCCCCCC(=O)[O-]
REMARK SMILES IDX 10 1 9 2 8 3 7 4 6 5 5 6 4 7 2 8 1 9 3 10 11 11 12 12 13 13
REMARK SMILES IDX 14 14 15 15 16 16 17 17 18 18 19 19 20 20
REMARK H PARENT
REMARK Flexibility Score: inf
ROOT
ATOM      1  C   UNL     1     -43.970 -22.255  27.063  1.00  0.00     0.000 C 
ENDROOT
BRANCH   1   2
ATOM      2  C   UNL     1     -42.598 -21.554  27.015  1.00  0.00     0.000 C 
BRANCH   2   3
ATOM      3  C   UNL     1     -41.417 -22.520  26.807  1.00  0.00     0.000 C 
BRANCH   3   4
ATOM      4  C   UNL     1     -40.358 -22.404  27.914  1.00  0.00     0.000 C 
BRANCH   4   5
ATOM      5  C   UNL     1     -40.527 -21.094  28.700  1.00  0.00     0.000 C 
BRANCH   5   6
ATOM      6  C   UNL     1     -39.419 -20.067  28.410  1.00  0.00     0.006 C 
BRANCH   6   7
ATOM      7  C   UNL     1     -38.942 -20.059  26.947  1.00  0.00     0.053 C 
BRANCH   7   8
ATOM      8  C   UNL     1     -39.439 -18.866  26.188  1.00  0.00     0.041 C 
ATOM      9  O   UNL     1     -38.853 -18.496  25.136  1.00  0.00    -0.550 OA
ATOM     10  O   UNL     1     -40.525 -18.139  26.659  1.00  0.00    -0.550 OA
ENDBRANCH   7   8
ENDBRANCH   6   7
ENDBRANCH   5   6
ENDBRANCH   4   5
ENDBRANCH   3   4
ENDBRANCH   2   3
ENDBRANCH   1   2
BRANCH   1  11
ATOM     11  C   UNL     1     -44.496 -22.485  28.497  1.00  0.00     0.000 C 
BRANCH  11  12
ATOM     12  C   UNL     1     -46.023 -22.687  28.585  1.00  0.00     0.000 C 
BRANCH  12  13
ATOM     13  C   UNL     1     -46.819 -21.941  27.495  1.00  0.00     0.000 C 
BRANCH  13  14
ATOM     14  C   UNL     1     -47.631 -20.763  28.064  1.00  0.00     0.000 C 
BRANCH  14  15
ATOM     15  C   UNL     1     -47.362 -19.444  27.321  1.00  0.00     0.000 C 
BRANCH  15  16
ATOM     16  C   UNL     1     -46.425 -19.624  26.115  1.00  0.00     0.006 C 
BRANCH  16  17
ATOM     17  C   UNL     1     -45.176 -18.738  26.217  1.00  0.00     0.053 C 
BRANCH  17  18
ATOM     18  C   UNL     1     -45.518 -17.282  26.136  1.00  0.00     0.041 C 
ATOM     19  O   UNL     1     -45.406 -16.548  27.152  1.00  0.00    -0.550 OA
ATOM     20  O   UNL     1     -45.933 -16.730  24.930  1.00  0.00    -0.550 OA
ENDBRANCH  17  18
ENDBRANCH  16  17
ENDBRANCH  15  16
ENDBRANCH  14  15
ENDBRANCH  13  14
ENDBRANCH  12  13
ENDBRANCH  11  12
ENDBRANCH   1  11
TORSDOF 15
ENDMDL
MODEL 4
REMARK VINA RESULT:    -3.481      2.050      6.378
REMARK INTER + INTRA:          -8.403
REMARK INTER:                  -6.982
REMARK INTRA:                  -1.421
REMARK UNBOUND:                -1.869
REMARK SMILES O=C([O-])CCCCCCCCCCCCCCC(=O)[O-]
REMARK SMILES IDX 10 1 9 2 8 3 7 4 6 5 5 6 4 7 2 8 1 9 3 10 11 11 12 12 13 13
REMARK SMILES IDX 14 14 15 15 16 16 17 17 18 18 19 19 20 20
REMARK H PARENT
REMARK Flexibility Score: inf
ROOT
ATOM      1  C   UNL     1     -42.226 -21.743  27.060  1.00  0.00     0.000 C 
ENDROOT
BRANCH   1   2
ATOM      2  C   UNL     1     -41.414 -22.225  28.279  1.00  0.00     0.000 C 
BRANCH   2   3
ATOM      3  C   UNL     1     -40.437 -21.168  28.826  1.00  0.00     0.000 C 
BRANCH   3   4
ATOM      4  C   UNL     1     -40.322 -19.939  27.910  1.00  0.00     0.000 C 
BRANCH   4   5
ATOM      5  C   UNL     1     -38.866 -19.715  27.473  1.00  0.00     0.000 C 
BRANCH   5   6
ATOM      6  C   UNL     1     -38.517 -20.418  26.150  1.00  0.00     0.006 C 
BRANCH   6   7
ATOM      7  C   UNL     1     -39.308 -19.895  24.937  1.00  0.00     0.053 C 
BRANCH   7   8
ATOM      8  C   UNL     1     -39.027 -18.451  24.647  1.00  0.00     0.041 C 
ATOM      9  O   UNL     1     -37.912 -18.105  24.174  1.00  0.00    -0.550 OA
ATOM     10  O   UNL     1     -39.980 -17.481  24.936  1.00  0.00    -0.550 OA
ENDBRANCH   7   8
ENDBRANCH   6   7
ENDBRANCH   5   6
ENDBRANCH   4   5
ENDBRANCH   3   4
ENDBRANCH   2   3
ENDBRANCH   1   2
BRANCH   1  11
ATOM     11  C   UNL     1     -43.745 -21.658  27.325  1.00  0.00     0.000 C 
BRANCH  11  12
ATOM     12  C   UNL     1     -44.219 -22.468  28.549  1.00  0.00     0.000 C 
BRANCH  12  13
ATOM     13  C   UNL     1     -45.713 -22.847  28.513  1.00  0.00     0.000 C 
BRANCH  13  14
ATOM     14  C   UNL     1     -46.528 -21.930  27.583  1.00  0.00     0.000 C 
BRANCH  14  15
ATOM     15  C   UNL     1     -47.476 -20.995  28.353  1.00  0.00     0.000 C 
BRANCH  15  16
ATOM     16  C   UNL     1     -48.016 -19.850  27.480  1.00  0.00     0.006 C 
BRANCH  16  17
ATOM     17  C   UNL     1     -47.054 -19.489  26.340  1.00  0.00     0.053 C 
BRANCH  17  18
ATOM     18  C   UNL     1     -46.266 -18.252  26.646  1.00  0.00     0.041 C 
ATOM     19  O   UNL     1     -45.039 -18.198  26.371  1.00  0.00    -0.550 OA
ATOM     20  O   UNL     1     -46.894 -17.148  27.211  1.00  0.00    -0.550 OA
ENDBRANCH  17  18
ENDBRANCH  16  17
ENDBRANCH  15  16
ENDBRANCH  14  15
ENDBRANCH  13  14
ENDBRANCH  12  13
ENDBRANCH  11  12
ENDBRANCH   1  11
TORSDOF 15
ENDMDL
MODEL 5
REMARK VINA RESULT:    -3.477      1.837      3.476
REMARK INTER + INTRA:          -8.395
REMARK INTER:                  -7.170
REMARK INTRA:                  -1.226
REMARK UNBOUND:                -1.869
REMARK SMILES O=C([O-])CCCCCCCCCCCCCCC(=O)[O-]
REMARK SMILES IDX 10 1 9 2 8 3 7 4 6 5 5 6 4 7 2 8 1 9 3 10 11 11 12 12 13 13
REMARK SMILES IDX 14 14 15 15 16 16 17 17 18 18 19 19 20 20
REMARK H PARENT
REMARK Flexibility Score: inf
ROOT
ATOM      1  C   UNL     1     -43.489 -21.680  27.397  1.00  0.00     0.000 C 
ENDROOT
BRANCH   1   2
ATOM      2  C   UNL     1     -44.683 -22.282  28.164  1.00  0.00     0.000 C 
BRANCH   2   3
ATOM      3  C   UNL     1     -46.041 -22.042  27.480  1.00  0.00     0.000 C 
BRANCH   3   4
ATOM      4  C   UNL     1     -47.085 -21.440  28.435  1.00  0.00     0.000 C 
BRANCH   4   5
ATOM      5  C   UNL     1     -47.920 -20.363  27.726  1.00  0.00     0.000 C 
BRANCH   5   6
ATOM      6  C   UNL     1     -47.154 -19.646  26.601  1.00  0.00     0.006 C 
BRANCH   6   7
ATOM      7  C   UNL     1     -46.820 -18.176  26.910  1.00  0.00     0.053 C 
BRANCH   7   8
ATOM      8  C   UNL     1     -45.466 -17.776  26.407  1.00  0.00     0.041 C 
ATOM      9  O   UNL     1     -44.687 -18.642  25.928  1.00  0.00    -0.550 OA
ATOM     10  O   UNL     1     -45.047 -16.454  26.502  1.00  0.00    -0.550 OA
ENDBRANCH   7   8
ENDBRANCH   6   7
ENDBRANCH   5   6
ENDBRANCH   4   5
ENDBRANCH   3   4
ENDBRANCH   2   3
ENDBRANCH   1   2
BRANCH   1  11
ATOM     11  C   UNL     1     -42.150 -22.398  27.676  1.00  0.00     0.000 C 
BRANCH  11  12
ATOM     12  C   UNL     1     -41.424 -21.908  28.945  1.00  0.00     0.000 C 
BRANCH  12  13
ATOM     13  C   UNL     1     -40.483 -20.710  28.708  1.00  0.00     0.000 C 
BRANCH  13  14
ATOM     14  C   UNL     1     -39.004 -21.131  28.634  1.00  0.00     0.000 C 
BRANCH  14  15
ATOM     15  C   UNL     1     -38.334 -20.716  27.314  1.00  0.00     0.000 C 
BRANCH  15  16
ATOM     16  C   UNL     1     -39.352 -20.285  26.244  1.00  0.00     0.006 C 
BRANCH  16  17
ATOM     17  C   UNL     1     -39.056 -18.881  25.698  1.00  0.00     0.053 C 
BRANCH  17  18
ATOM     18  C   UNL     1     -40.259 -17.991  25.769  1.00  0.00     0.041 C 
ATOM     19  O   UNL     1     -40.478 -17.304  26.801  1.00  0.00    -0.550 OA
ATOM     20  O   UNL     1     -41.124 -17.900  24.686  1.00  0.00    -0.550 OA
ENDBRANCH  17  18
ENDBRANCH  16  17
ENDBRANCH  15  16
ENDBRANCH  14  15
ENDBRANCH  13  14
ENDBRANCH  12  13
ENDBRANCH  11  12
ENDBRANCH   1  11
TORSDOF 15
ENDMDL
MODEL 6
REMARK VINA RESULT:    -3.398      1.260      6.492
REMARK INTER + INTRA:          -8.246
REMARK INTER:                  -6.993
REMARK INTRA:                  -1.253
REMARK UNBOUND:                -1.869
REMARK SMILES O=C([O-])CCCCCCCCCCCCCCC(=O)[O-]
REMARK SMILES IDX 10 1 9 2 8 3 7 4 6 5 5 6 4 7 2 8 1 9 3 10 11 11 12 12 13 13
REMARK SMILES IDX 14 14 15 15 16 16 17 17 18 18 19 19 20 20
REMARK H PARENT
REMARK Flexibility Score: inf
ROOT
ATOM      1  C   UNL     1     -44.464 -21.507  27.358  1.00  0.00     0.000 C 
ENDROOT
BRANCH   1   2
ATOM      2  C   UNL     1     -43.816 -22.314  28.500  1.00  0.00     0.000 C 
BRANCH   2   3
ATOM      3  C   UNL     1     -42.293 -22.487  28.347  1.00  0.00     0.000 C 
BRANCH   3   4
ATOM      4  C   UNL     1     -41.745 -21.802  27.085  1.00  0.00     0.000 C 
BRANCH   4   5
ATOM      5  C   UNL     1     -40.801 -20.647  27.454  1.00  0.00     0.000 C 
BRANCH   5   6
ATOM      6  C   UNL     1     -40.175 -20.800  28.851  1.00  0.00     0.006 C 
BRANCH   6   7
ATOM      7  C   UNL     1     -38.642 -20.934  28.838  1.00  0.00     0.053 C 
BRANCH   7   8
ATOM      8  C   UNL     1     -38.177 -22.140  28.079  1.00  0.00     0.041 C 
ATOM      9  O   UNL     1     -37.501 -22.004  27.025  1.00  0.00    -0.550 OA
ATOM     10  O   UNL     1     -38.522 -23.415  28.512  1.00  0.00    -0.550 OA
ENDBRANCH   7   8
ENDBRANCH   6   7
ENDBRANCH   5   6
ENDBRANCH   4   5
ENDBRANCH   3   4
ENDBRANCH   2   3
ENDBRANCH   1   2
BRANCH   1  11
ATOM     11  C   UNL     1     -45.895 -21.972  27.008  1.00  0.00     0.000 C 
BRANCH  11  12
ATOM     12  C   UNL     1     -46.920 -21.769  28.142  1.00  0.00     0.000 C 
BRANCH  12  13
ATOM     13  C   UNL     1     -47.655 -20.415  28.090  1.00  0.00     0.000 C 
BRANCH  13  14
ATOM     14  C   UNL     1     -47.447 -19.685  26.751  1.00  0.00     0.000 C 
BRANCH  14  15
ATOM     15  C   UNL     1     -46.918 -18.253  26.931  1.00  0.00     0.000 C 
BRANCH  15  16
ATOM     16  C   UNL     1     -45.551 -18.038  26.260  1.00  0.00     0.006 C 
BRANCH  16  17
ATOM     17  C   UNL     1     -45.072 -16.586  26.377  1.00  0.00     0.053 C 
BRANCH  17  18
ATOM     18  C   UNL     1     -43.847 -16.334  25.553  1.00  0.00     0.041 C 
ATOM     19  O   UNL     1     -43.781 -15.323  24.807  1.00  0.00    -0.550 OA
ATOM     20  O   UNL     1     -42.765 -17.204  25.629  1.00  0.00    -0.550 OA
ENDBRANCH  17  18
ENDBRANCH  16  17
ENDBRANCH  15  16
ENDBRANCH  14  15
ENDBRANCH  13  14
ENDBRANCH  12  13
ENDBRANCH  11  12
ENDBRANCH   1  11
TORSDOF 15
ENDMDL
MODEL 7
REMARK VINA RESULT:    -3.360      1.391      2.260
REMARK INTER + INTRA:          -8.175
REMARK INTER:                  -6.714
REMARK INTRA:                  -1.462
REMARK UNBOUND:                -1.869
REMARK SMILES O=C([O-])CCCCCCCCCCCCCCC(=O)[O-]
REMARK SMILES IDX 10 1 9 2 8 3 7 4 6 5 5 6 4 7 2 8 1 9 3 10 11 11 12 12 13 13
REMARK SMILES IDX 14 14 15 15 16 16 17 17 18 18 19 19 20 20
REMARK H PARENT
REMARK Flexibility Score: inf
ROOT
ATOM      1  C   UNL     1     -44.647 -22.276  28.375  1.00  0.00     0.000 C 
ENDROOT
BRANCH   1   2
ATOM      2  C   UNL     1     -46.132 -22.627  28.595  1.00  0.00     0.000 C 
BRANCH   2   3
ATOM      3  C   UNL     1     -47.099 -21.498  28.195  1.00  0.00     0.000 C 
BRANCH   3   4
ATOM      4  C   UNL     1     -47.567 -21.611  26.735  1.00  0.00     0.000 C 
BRANCH   4   5
ATOM      5  C   UNL     1     -47.527 -20.242  26.039  1.00  0.00     0.000 C 
BRANCH   5   6
ATOM      6  C   UNL     1     -47.034 -19.110  26.957  1.00  0.00     0.006 C 
BRANCH   6   7
ATOM      7  C   UNL     1     -45.830 -18.330  26.399  1.00  0.00     0.053 C 
BRANCH   7   8
ATOM      8  C   UNL     1     -46.048 -16.847  26.417  1.00  0.00     0.041 C 
ATOM      9  O   UNL     1     -45.121 -16.076  26.784  1.00  0.00    -0.550 OA
ATOM     10  O   UNL     1     -47.283 -16.316  26.069  1.00  0.00    -0.550 OA
ENDBRANCH   7   8
ENDBRANCH   6   7
ENDBRANCH   5   6
ENDBRANCH   4   5
ENDBRANCH   3   4
ENDBRANCH   2   3
ENDBRANCH   1   2
BRANCH   1  11
ATOM     11  C   UNL     1     -44.023 -22.974  27.146  1.00  0.00     0.000 C 
BRANCH  11  12
ATOM     12  C   UNL     1     -44.000 -22.106  25.871  1.00  0.00     0.000 C 
BRANCH  12  13
ATOM     13  C   UNL     1     -43.464 -20.677  26.093  1.00  0.00     0.000 C 
BRANCH  13  14
ATOM     14  C   UNL     1     -41.997 -20.666  26.558  1.00  0.00     0.000 C 
BRANCH  14  15
ATOM     15  C   UNL     1     -41.241 -19.406  26.107  1.00  0.00     0.000 C 
BRANCH  15  16
ATOM     16  C   UNL     1     -40.153 -18.978  27.106  1.00  0.00     0.006 C 
BRANCH  16  17
ATOM     17  C   UNL     1     -39.005 -19.993  27.179  1.00  0.00     0.053 C 
BRANCH  17  18
ATOM     18  C   UNL     1     -38.989 -20.723  28.487  1.00  0.00     0.041 C 
ATOM     19  O   UNL     1     -38.127 -21.614  28.704  1.00  0.00    -0.550 OA
ATOM     20  O   UNL     1     -39.909 -20.401  29.477  1.00  0.00    -0.550 OA
ENDBRANCH  17  18
ENDBRANCH  16  17
ENDBRANCH  15  16
ENDBRANCH  14  15
ENDBRANCH  13  14
ENDBRANCH  12  13
ENDBRANCH  11  12
ENDBRANCH   1  11
TORSDOF 15
ENDMDL
MODEL 8
REMARK VINA RESULT:    -3.331      2.579      3.904
REMARK INTER + INTRA:          -8.121
REMARK INTER:                  -6.179
REMARK INTRA:                  -1.942
REMARK UNBOUND:                -1.869
REMARK SMILES O=C([O-])CCCCCCCCCCCCCCC(=O)[O-]
REMARK SMILES IDX 10 1 9 2 8 3 7 4 6 5 5 6 4 7 2 8 1 9 3 10 11 11 12 12 13 13
REMARK SMILES IDX 14 14 15 15 16 16 17 17 18 18 19 19 20 20
REMARK H PARENT
REMARK Flexibility Score: inf
ROOT
ATOM      1  C   UNL     1     -43.527 -20.335  25.925  1.00  0.00     0.000 C 
ENDROOT
BRANCH   1   2
ATOM      2  C   UNL     1     -44.562 -20.676  24.835  1.00  0.00     0.000 C 
BRANCH   2   3
ATOM      3  C   UNL     1     -45.831 -19.807  24.894  1.00  0.00     0.000 C 
BRANCH   3   4
ATOM      4  C   UNL     1     -45.677 -18.601  25.833  1.00  0.00     0.000 C 
BRANCH   4   5
ATOM      5  C   UNL     1     -46.778 -18.596  26.906  1.00  0.00     0.000 C 
BRANCH   5   6
ATOM      6  C   UNL     1     -47.665 -19.853  26.868  1.00  0.00     0.006 C 
BRANCH   6   7
ATOM      7  C   UNL     1     -47.618 -20.690  28.159  1.00  0.00     0.053 C 
BRANCH   7   8
ATOM      8  C   UNL     1     -46.850 -21.966  27.989  1.00  0.00     0.041 C 
ATOM      9  O   UNL     1     -46.833 -22.550  26.873  1.00  0.00    -0.550 OA
ATOM     10  O   UNL     1     -46.185 -22.532  29.069  1.00  0.00    -0.550 OA
ENDBRANCH   7   8
ENDBRANCH   6   7
ENDBRANCH   5   6
ENDBRANCH   4   5
ENDBRANCH   3   4
ENDBRANCH   2   3
ENDBRANCH   1   2
BRANCH   1  11
ATOM     11  C   UNL     1     -43.343 -21.453  26.974  1.00  0.00     0.000 C 
BRANCH  11  12
ATOM     12  C   UNL     1     -42.232 -22.466  26.630  1.00  0.00     0.000 C 
BRANCH  12  13
ATOM     13  C   UNL     1     -41.334 -22.844  27.825  1.00  0.00     0.000 C 
BRANCH  13  14
ATOM     14  C   UNL     1     -41.587 -21.954  29.055  1.00  0.00     0.000 C 
BRANCH  14  15
ATOM     15  C   UNL     1     -40.498 -20.886  29.249  1.00  0.00     0.000 C 
BRANCH  15  16
ATOM     16  C   UNL     1     -39.264 -21.132  28.363  1.00  0.00     0.006 C 
BRANCH  16  17
ATOM     17  C   UNL     1     -38.830 -19.865  27.614  1.00  0.00     0.053 C 
BRANCH  17  18
ATOM     18  C   UNL     1     -39.804 -19.492  26.539  1.00  0.00     0.041 C 
ATOM     19  O   UNL     1     -40.548 -18.487  26.678  1.00  0.00    -0.550 OA
ATOM     20  O   UNL     1     -39.871 -20.240  25.369  1.00  0.00    -0.550 OA
ENDBRANCH  17  18
ENDBRANCH  16  17
ENDBRANCH  15  16
ENDBRANCH  14  15
ENDBRANCH  13  14
ENDBRANCH  12  13
ENDBRANCH  11  12
ENDBRANCH   1  11
TORSDOF 15
ENDMDL
MODEL 9
REMARK VINA RESULT:    -3.315      1.860      2.778
REMARK INTER + INTRA:          -8.091
REMARK INTER:                  -6.606
REMARK INTRA:                  -1.484
REMARK UNBOUND:                -1.869
REMARK SMILES O=C([O-])CCCCCCCCCCCCCCC(=O)[O-]
REMARK SMILES IDX 10 1 9 2 8 3 7 4 6 5 5 6 4 7 2 8 1 9 3 10 11 11 12 12 13 13
REMARK SMILES IDX 14 14 15 15 16 16 17 17 18 18 19 19 20 20
REMARK H PARENT
REMARK Flexibility Score: inf
ROOT
ATOM      1  C   UNL     1     -43.977 -20.300  26.131  1.00  0.00     0.000 C 
ENDROOT
BRANCH   1   2
ATOM      2  C   UNL     1     -45.338 -20.732  26.712  1.00  0.00     0.000 C 
BRANCH   2   3
ATOM      3  C   UNL     1     -46.535 -19.974  26.109  1.00  0.00     0.000 C 
BRANCH   3   4
ATOM      4  C   UNL     1     -47.099 -18.907  27.061  1.00  0.00     0.000 C 
BRANCH   4   5
ATOM      5  C   UNL     1     -46.900 -17.497  26.485  1.00  0.00     0.000 C 
BRANCH   5   6
ATOM      6  C   UNL     1     -45.668 -16.777  27.060  1.00  0.00     0.006 C 
BRANCH   6   7
ATOM      7  C   UNL     1     -44.938 -15.879  26.045  1.00  0.00     0.053 C 
BRANCH   7   8
ATOM      8  C   UNL     1     -43.839 -16.601  25.326  1.00  0.00     0.041 C 
ATOM      9  O   UNL     1     -44.090 -17.254  24.278  1.00  0.00    -0.550 OA
ATOM     10  O   UNL     1     -42.545 -16.587  25.831  1.00  0.00    -0.550 OA
ENDBRANCH   7   8
ENDBRANCH   6   7
ENDBRANCH   5   6
ENDBRANCH   4   5
ENDBRANCH   3   4
ENDBRANCH   2   3
ENDBRANCH   1   2
BRANCH   1  11
ATOM     11  C   UNL     1     -42.793 -21.154  26.634  1.00  0.00     0.000 C 
BRANCH  11  12
ATOM     12  C   UNL     1     -43.174 -22.193  27.709  1.00  0.00     0.000 C 
BRANCH  12  13
ATOM     13  C   UNL     1     -42.214 -22.232  28.915  1.00  0.00     0.000 C 
BRANCH  13  14
ATOM     14  C   UNL     1     -40.743 -22.050  28.500  1.00  0.00     0.000 C 
BRANCH  14  15
ATOM     15  C   UNL     1     -40.169 -20.689  28.929  1.00  0.00     0.000 C 
BRANCH  15  16
ATOM     16  C   UNL     1     -38.863 -20.339  28.195  1.00  0.00     0.006 C 
BRANCH  16  17
ATOM     17  C   UNL     1     -39.039 -20.339  26.671  1.00  0.00     0.053 C 
BRANCH  17  18
ATOM     18  C   UNL     1     -39.706 -19.089  26.187  1.00  0.00     0.041 C 
ATOM     19  O   UNL     1     -39.708 -18.054  26.904  1.00  0.00    -0.550 OA
ATOM     20  O   UNL     1     -40.301 -19.057  24.932  1.00  0.00    -0.550 OA
ENDBRANCH  17  18
ENDBRANCH  16  17
ENDBRANCH  15  16
ENDBRANCH  14  15
ENDBRANCH  13  14
ENDBRANCH  12  13
ENDBRANCH  11  12
ENDBRANCH   1  11
TORSDOF 15
ENDMDL
