MODEL 1
REMARK VINA RESULT:     3.864      0.000      0.000
REMARK INTER + INTRA:           5.981
REMARK INTER:                   6.800
REMARK INTRA:                  -0.819
REMARK UNBOUND:                -0.819
REMARK SMILES CCCCCCCCCCCCCCC(=O)[O-]
REMARK SMILES IDX 9 1 10 2 11 3 12 4 13 5 14 6 15 7 16 8 17 9 8 10 7 11 6 12
REMARK SMILES IDX 5 13 4 14 3 15 2 16 1 17
REMARK H PARENT
REMARK Flexibility Score: inf
ROOT
ATOM      1  C   UNL     1      21.115 -19.856  26.359  1.00  0.00     0.000 C 
ENDROOT
BRANCH   1   2
ATOM      2  C   UNL     1      19.627 -19.857  26.744  1.00  0.00     0.000 C 
BRANCH   2   3
ATOM      3  C   UNL     1      18.765 -19.041  25.764  1.00  0.00     0.000 C 
BRANCH   3   4
ATOM      4  C   UNL     1      17.336 -18.815  26.281  1.00  0.00     0.000 C 
BRANCH   4   5
ATOM      5  C   UNL     1      16.873 -19.923  27.242  1.00  0.00     0.006 C 
BRANCH   5   6
ATOM      6  C   UNL     1      15.979 -19.380  28.364  1.00  0.00     0.053 C 
BRANCH   6   7
ATOM      7  C   UNL     1      16.602 -18.206  29.056  1.00  0.00     0.041 C 
ATOM      8  O   UNL     1      17.650 -18.356  29.737  1.00  0.00    -0.550 OA
ATOM      9  O   UNL     1      16.010 -16.952  28.971  1.00  0.00    -0.550 OA
ENDBRANCH   6   7
ENDBRANCH   5   6
ENDBRANCH   4   5
ENDBRANCH   3   4
ENDBRANCH   2   3
ENDBRANCH   1   2
BRANCH   1  10
ATOM     10  C   UNL     1      21.550 -21.164  25.680  1.00  0.00     0.000 C 
BRANCH  10  11
ATOM     11  C   UNL     1      21.935 -20.971  24.203  1.00  0.00    -0.000 C 
BRANCH  11  12
ATOM     12  C   UNL     1      23.422 -20.615  23.997  1.00  0.00    -0.000 C 
BRANCH  12  13
ATOM     13  C   UNL     1      24.225 -21.790  23.411  1.00  0.00    -0.000 C 
BRANCH  13  14
ATOM     14  C   UNL     1      25.144 -22.455  24.448  1.00  0.00    -0.000 C 
BRANCH  14  15
ATOM     15  C   UNL     1      25.012 -21.831  25.844  1.00  0.00    -0.000 C 
BRANCH  15  16
ATOM     16  C   UNL     1      25.910 -22.554  26.855  1.00  0.00    -0.003 C 
ATOM     17  C   UNL     1      27.098 -23.216  26.163  1.00  0.00     0.004 C 
ENDBRANCH  15  16
ENDBRANCH  14  15
ENDBRANCH  13  14
ENDBRANCH  12  13
ENDBRANCH  11  12
ENDBRANCH  10  11
ENDBRANCH   1  10
TORSDOF 13
ENDMDL
MODEL 2
REMARK VINA RESULT:     4.485      3.539      8.576
REMARK INTER + INTRA:           7.074
REMARK INTER:                   7.703
REMARK INTRA:                  -0.629
REMARK UNBOUND:                -0.819
REMARK SMILES CCCCCCCCCCCCCCC(=O)[O-]
REMARK SMILES IDX 9 1 10 2 11 3 12 4 13 5 14 6 15 7 16 8 17 9 8 10 7 11 6 12
REMARK SMILES IDX 5 13 4 14 3 15 2 16 1 17
REMARK H PARENT
REMARK Flexibility Score: inf
ROOT
ATOM      1  C   UNL     1      21.635 -20.992  25.941  1.00  0.00     0.000 C 
ENDROOT
BRANCH   1   2
ATOM      2  C   UNL     1      21.950 -21.034  24.438  1.00  0.00     0.000 C 
BRANCH   2   3
ATOM      3  C   UNL     1      23.392 -20.597  24.126  1.00  0.00     0.000 C 
BRANCH   3   4
ATOM      4  C   UNL     1      24.128 -21.592  23.213  1.00  0.00     0.000 C 
BRANCH   4   5
ATOM      5  C   UNL     1      24.485 -22.902  23.935  1.00  0.00     0.006 C 
BRANCH   5   6
ATOM      6  C   UNL     1      25.952 -22.934  24.385  1.00  0.00     0.053 C 
BRANCH   6   7
ATOM      7  C   UNL     1      26.085 -22.773  25.869  1.00  0.00     0.041 C 
ATOM      8  O   UNL     1      25.219 -22.125  26.514  1.00  0.00    -0.550 OA
ATOM      9  O   UNL     1      27.178 -23.313  26.533  1.00  0.00    -0.550 OA
ENDBRANCH   6   7
ENDBRANCH   5   6
ENDBRANCH   4   5
ENDBRANCH   3   4
ENDBRANCH   2   3
ENDBRANCH   1   2
BRANCH   1  10
ATOM     10  C   UNL     1      20.931 -19.691  26.360  1.00  0.00     0.000 C 
BRANCH  10  11
ATOM     11  C   UNL     1      19.427 -19.882  26.617  1.00  0.00    -0.000 C 
BRANCH  11  12
ATOM     12  C   UNL     1      18.535 -18.949  25.771  1.00  0.00    -0.000 C 
BRANCH  12  13
ATOM     13  C   UNL     1      17.149 -18.739  26.404  1.00  0.00    -0.000 C 
BRANCH  13  14
ATOM     14  C   UNL     1      16.678 -19.954  27.219  1.00  0.00    -0.000 C 
BRANCH  14  15
ATOM     15  C   UNL     1      16.213 -19.576  28.632  1.00  0.00    -0.000 C 
BRANCH  15  16
ATOM     16  C   UNL     1      16.861 -18.264  29.089  1.00  0.00    -0.003 C 
ATOM     17  C   UNL     1      15.875 -17.102  29.004  1.00  0.00     0.004 C 
ENDBRANCH  15  16
ENDBRANCH  14  15
ENDBRANCH  13  14
ENDBRANCH  12  13
ENDBRANCH  11  12
ENDBRANCH  10  11
ENDBRANCH   1  10
TORSDOF 13
ENDMDL
MODEL 3
REMARK VINA RESULT:     5.946     13.224     14.533
REMARK INTER + INTRA:           9.645
REMARK INTER:                  10.184
REMARK INTRA:                  -0.539
REMARK UNBOUND:                -0.819
REMARK SMILES CCCCCCCCCCCCCCC(=O)[O-]
REMARK SMILES IDX 9 1 10 2 11 3 12 4 13 5 14 6 15 7 16 8 17 9 8 10 7 11 6 12
REMARK SMILES IDX 5 13 4 14 3 15 2 16 1 17
REMARK H PARENT
REMARK Flexibility Score: inf
ROOT
ATOM      1  C   UNL     1      25.726 -20.115  13.853  1.00  0.00     0.000 C 
ENDROOT
BRANCH   1   2
ATOM      2  C   UNL     1      26.574 -18.900  14.259  1.00  0.00     0.000 C 
BRANCH   2   3
ATOM      3  C   UNL     1      27.338 -18.291  13.069  1.00  0.00     0.000 C 
BRANCH   3   4
ATOM      4  C   UNL     1      28.322 -17.191  13.499  1.00  0.00     0.000 C 
BRANCH   4   5
ATOM      5  C   UNL     1      27.749 -16.282  14.600  1.00  0.00     0.006 C 
BRANCH   5   6
ATOM      6  C   UNL     1      28.794 -15.298  15.141  1.00  0.00     0.053 C 
BRANCH   6   7
ATOM      7  C   UNL     1      28.940 -15.401  16.629  1.00  0.00     0.041 C 
ATOM      8  O   UNL     1      28.935 -16.529  17.189  1.00  0.00    -0.550 OA
ATOM      9  O   UNL     1      29.052 -14.251  17.399  1.00  0.00    -0.550 OA
ENDBRANCH   6   7
ENDBRANCH   5   6
ENDBRANCH   4   5
ENDBRANCH   3   4
ENDBRANCH   2   3
ENDBRANCH   1   2
BRANCH   1  10
ATOM     10  C   UNL     1      25.671 -21.190  14.950  1.00  0.00     0.000 C 
BRANCH  10  11
ATOM     11  C   UNL     1      25.005 -22.493  14.477  1.00  0.00    -0.000 C 
BRANCH  11  12
ATOM     12  C   UNL     1      25.800 -23.762  14.853  1.00  0.00    -0.000 C 
BRANCH  12  13
ATOM     13  C   UNL     1      27.249 -23.712  14.341  1.00  0.00    -0.000 C 
BRANCH  13  14
ATOM     14  C   UNL     1      27.875 -25.108  14.195  1.00  0.00    -0.000 C 
BRANCH  14  15
ATOM     15  C   UNL     1      29.072 -25.123  13.234  1.00  0.00    -0.000 C 
BRANCH  15  16
ATOM     16  C   UNL     1      30.367 -24.751  13.965  1.00  0.00    -0.003 C 
ATOM     17  C   UNL     1      31.531 -24.610  12.989  1.00  0.00     0.004 C 
ENDBRANCH  15  16
ENDBRANCH  14  15
ENDBRANCH  13  14
ENDBRANCH  12  13
ENDBRANCH  11  12
ENDBRANCH  10  11
ENDBRANCH   1  10
TORSDOF 13
ENDMDL
MODEL 4
REMARK VINA RESULT:     6.046      3.572      8.035
REMARK INTER + INTRA:           9.822
REMARK INTER:                  10.767
REMARK INTRA:                  -0.946
REMARK UNBOUND:                -0.819
REMARK SMILES CCCCCCCCCCCCCCC(=O)[O-]
REMARK SMILES IDX 9 1 10 2 11 3 12 4 13 5 14 6 15 7 16 8 17 9 8 10 7 11 6 12
REMARK SMILES IDX 5 13 4 14 3 15 2 16 1 17
REMARK H PARENT
REMARK Flexibility Score: inf
ROOT
ATOM      1  C   UNL     1      19.009 -19.674  25.093  1.00  0.00     0.000 C 
ENDROOT
BRANCH   1   2
ATOM      2  C   UNL     1      19.782 -19.814  26.413  1.00  0.00     0.000 C 
BRANCH   2   3
ATOM      3  C   UNL     1      21.288 -20.045  26.192  1.00  0.00     0.000 C 
BRANCH   3   4
ATOM      4  C   UNL     1      21.582 -21.362  25.456  1.00  0.00     0.000 C 
BRANCH   4   5
ATOM      5  C   UNL     1      22.929 -21.980  25.867  1.00  0.00     0.006 C 
BRANCH   5   6
ATOM      6  C   UNL     1      24.122 -21.197  25.301  1.00  0.00     0.053 C 
BRANCH   6   7
ATOM      7  C   UNL     1      24.009 -21.003  23.820  1.00  0.00     0.041 C 
ATOM      8  O   UNL     1      23.770 -19.860  23.348  1.00  0.00    -0.550 OA
ATOM      9  O   UNL     1      24.139 -22.088  22.963  1.00  0.00    -0.550 OA
ENDBRANCH   6   7
ENDBRANCH   5   6
ENDBRANCH   4   5
ENDBRANCH   3   4
ENDBRANCH   2   3
ENDBRANCH   1   2
BRANCH   1  10
ATOM     10  C   UNL     1      17.735 -18.827  25.241  1.00  0.00     0.000 C 
BRANCH  10  11
ATOM     11  C   UNL     1      17.753 -17.934  26.493  1.00  0.00    -0.000 C 
BRANCH  11  12
ATOM     12  C   UNL     1      16.614 -18.246  27.487  1.00  0.00    -0.000 C 
BRANCH  12  13
ATOM     13  C   UNL     1      17.104 -18.260  28.946  1.00  0.00    -0.000 C 
BRANCH  13  14
ATOM     14  C   UNL     1      16.748 -19.564  29.678  1.00  0.00    -0.000 C 
BRANCH  14  15
ATOM     15  C   UNL     1      15.875 -20.500  28.831  1.00  0.00    -0.000 C 
BRANCH  15  16
ATOM     16  C   UNL     1      16.227 -21.968  29.098  1.00  0.00    -0.003 C 
ATOM     17  C   UNL     1      15.920 -22.840  27.883  1.00  0.00     0.004 C 
ENDBRANCH  15  16
ENDBRANCH  14  15
ENDBRANCH  13  14
ENDBRANCH  12  13
ENDBRANCH  11  12
ENDBRANCH  10  11
ENDBRANCH   1  10
TORSDOF 13
ENDMDL
MODEL 5
REMARK VINA RESULT:     6.306     13.153     15.455
REMARK INTER + INTRA:          10.280
REMARK INTER:                  10.840
REMARK INTRA:                  -0.560
REMARK UNBOUND:                -0.819
REMARK SMILES CCCCCCCCCCCCCCC(=O)[O-]
REMARK SMILES IDX 9 1 10 2 11 3 12 4 13 5 14 6 15 7 16 8 17 9 8 10 7 11 6 12
REMARK SMILES IDX 5 13 4 14 3 15 2 16 1 17
REMARK H PARENT
REMARK Flexibility Score: inf
ROOT
ATOM      1  C   UNL     1      25.703 -21.037  14.792  1.00  0.00     0.000 C 
ENDROOT
BRANCH   1   2
ATOM      2  C   UNL     1      25.353 -22.529  14.682  1.00  0.00     0.000 C 
BRANCH   2   3
ATOM      3  C   UNL     1      26.519 -23.441  15.104  1.00  0.00     0.000 C 
BRANCH   3   4
ATOM      4  C   UNL     1      26.945 -24.410  13.990  1.00  0.00     0.000 C 
BRANCH   4   5
ATOM      5  C   UNL     1      28.270 -25.125  14.304  1.00  0.00     0.006 C 
BRANCH   5   6
ATOM      6  C   UNL     1      29.241 -25.092  13.116  1.00  0.00     0.053 C 
BRANCH   6   7
ATOM      7  C   UNL     1      30.638 -24.762  13.547  1.00  0.00     0.041 C 
ATOM      8  O   UNL     1      31.572 -24.740  12.702  1.00  0.00    -0.550 OA
ATOM      9  O   UNL     1      30.913 -24.506  14.884  1.00  0.00    -0.550 OA
ENDBRANCH   6   7
ENDBRANCH   5   6
ENDBRANCH   4   5
ENDBRANCH   3   4
ENDBRANCH   2   3
ENDBRANCH   1   2
BRANCH   1  10
ATOM     10  C   UNL     1      24.569 -20.209  15.417  1.00  0.00     0.000 C 
BRANCH  10  11
ATOM     11  C   UNL     1      25.045 -18.845  15.944  1.00  0.00    -0.000 C 
BRANCH  11  12
ATOM     12  C   UNL     1      26.460 -18.459  15.462  1.00  0.00    -0.000 C 
BRANCH  12  13
ATOM     13  C   UNL     1      26.659 -16.935  15.408  1.00  0.00    -0.000 C 
BRANCH  13  14
ATOM     14  C   UNL     1      27.786 -16.517  14.450  1.00  0.00    -0.000 C 
BRANCH  14  15
ATOM     15  C   UNL     1      28.783 -15.545  15.096  1.00  0.00    -0.000 C 
BRANCH  15  16
ATOM     16  C   UNL     1      29.021 -15.902  16.567  1.00  0.00    -0.003 C 
ATOM     17  C   UNL     1      29.062 -14.650  17.439  1.00  0.00     0.004 C 
ENDBRANCH  15  16
ENDBRANCH  14  15
ENDBRANCH  13  14
ENDBRANCH  12  13
ENDBRANCH  11  12
ENDBRANCH  10  11
ENDBRANCH   1  10
TORSDOF 13
ENDMDL
MODEL 6
REMARK VINA RESULT:     6.332      2.787      3.289
REMARK INTER + INTRA:          10.325
REMARK INTER:                  10.769
REMARK INTRA:                  -0.444
REMARK UNBOUND:                -0.819
REMARK SMILES CCCCCCCCCCCCCCC(=O)[O-]
REMARK SMILES IDX 9 1 10 2 11 3 12 4 13 5 14 6 15 7 16 8 17 9 8 10 7 11 6 12
REMARK SMILES IDX 5 13 4 14 3 15 2 16 1 17
REMARK H PARENT
REMARK Flexibility Score: inf
ROOT
ATOM      1  C   UNL     1      21.271 -20.236  26.538  1.00  0.00     0.000 C 
ENDROOT
BRANCH   1   2
ATOM      2  C   UNL     1      19.950 -19.671  25.993  1.00  0.00     0.000 C 
BRANCH   2   3
ATOM      3  C   UNL     1      18.867 -19.551  27.081  1.00  0.00     0.000 C 
BRANCH   3   4
ATOM      4  C   UNL     1      17.637 -18.762  26.605  1.00  0.00     0.000 C 
BRANCH   4   5
ATOM      5  C   UNL     1      16.937 -19.425  25.407  1.00  0.00     0.006 C 
BRANCH   5   6
ATOM      6  C   UNL     1      17.334 -18.776  24.074  1.00  0.00     0.053 C 
BRANCH   6   7
ATOM      7  C   UNL     1      17.336 -19.767  22.950  1.00  0.00     0.041 C 
ATOM      8  O   UNL     1      16.441 -20.649  22.882  1.00  0.00    -0.550 OA
ATOM      9  O   UNL     1      18.344 -19.734  21.994  1.00  0.00    -0.550 OA
ENDBRANCH   6   7
ENDBRANCH   5   6
ENDBRANCH   4   5
ENDBRANCH   3   4
ENDBRANCH   2   3
ENDBRANCH   1   2
BRANCH   1  10
ATOM     10  C   UNL     1      21.889 -21.292  25.610  1.00  0.00     0.000 C 
BRANCH  10  11
ATOM     11  C   UNL     1      22.135 -20.766  24.185  1.00  0.00    -0.000 C 
BRANCH  11  12
ATOM     12  C   UNL     1      23.626 -20.748  23.785  1.00  0.00    -0.000 C 
BRANCH  12  13
ATOM     13  C   UNL     1      24.163 -22.156  23.481  1.00  0.00    -0.000 C 
BRANCH  13  14
ATOM     14  C   UNL     1      25.279 -22.587  24.447  1.00  0.00    -0.000 C 
BRANCH  14  15
ATOM     15  C   UNL     1      25.120 -21.977  25.846  1.00  0.00    -0.000 C 
BRANCH  15  16
ATOM     16  C   UNL     1      26.026 -22.685  26.859  1.00  0.00    -0.003 C 
ATOM     17  C   UNL     1      27.412 -22.944  26.274  1.00  0.00     0.004 C 
ENDBRANCH  15  16
ENDBRANCH  14  15
ENDBRANCH  13  14
ENDBRANCH  12  13
ENDBRANCH  11  12
ENDBRANCH  10  11
ENDBRANCH   1  10
TORSDOF 13
ENDMDL
MODEL 7
REMARK VINA RESULT:     6.477     12.940     14.638
REMARK INTER + INTRA:          10.580
REMARK INTER:                  10.406
REMARK INTRA:                   0.174
REMARK UNBOUND:                -0.819
REMARK SMILES CCCCCCCCCCCCCCC(=O)[O-]
REMARK SMILES IDX 9 1 10 2 11 3 12 4 13 5 14 6 15 7 16 8 17 9 8 10 7 11 6 12
REMARK SMILES IDX 5 13 4 14 3 15 2 16 1 17
REMARK H PARENT
REMARK Flexibility Score: inf
ROOT
ATOM      1  C   UNL     1      25.232 -20.467  15.840  1.00  0.00     0.000 C 
ENDROOT
BRANCH   1   2
ATOM      2  C   UNL     1      25.262 -19.012  15.348  1.00  0.00     0.000 C 
BRANCH   2   3
ATOM      3  C   UNL     1      26.399 -18.197  15.989  1.00  0.00     0.000 C 
BRANCH   3   4
ATOM      4  C   UNL     1      26.819 -16.992  15.133  1.00  0.00     0.000 C 
BRANCH   4   5
ATOM      5  C   UNL     1      27.893 -16.127  15.816  1.00  0.00     0.006 C 
BRANCH   5   6
ATOM      6  C   UNL     1      28.983 -15.677  14.836  1.00  0.00     0.053 C 
BRANCH   6   7
ATOM      7  C   UNL     1      29.151 -16.645  13.704  1.00  0.00     0.041 C 
ATOM      8  O   UNL     1      30.233 -17.274  13.565  1.00  0.00    -0.550 OA
ATOM      9  O   UNL     1      28.124 -16.830  12.788  1.00  0.00    -0.550 OA
ENDBRANCH   6   7
ENDBRANCH   5   6
ENDBRANCH   4   5
ENDBRANCH   3   4
ENDBRANCH   2   3
ENDBRANCH   1   2
BRANCH   1  10
ATOM     10  C   UNL     1      25.655 -21.468  14.753  1.00  0.00     0.000 C 
BRANCH  10  11
ATOM     11  C   UNL     1      24.802 -22.748  14.754  1.00  0.00    -0.000 C 
BRANCH  11  12
ATOM     12  C   UNL     1      25.639 -24.044  14.795  1.00  0.00    -0.000 C 
BRANCH  12  13
ATOM     13  C   UNL     1      27.065 -23.832  14.258  1.00  0.00    -0.000 C 
BRANCH  13  14
ATOM     14  C   UNL     1      27.931 -25.098  14.355  1.00  0.00    -0.000 C 
BRANCH  14  15
ATOM     15  C   UNL     1      29.062 -25.124  13.317  1.00  0.00    -0.000 C 
BRANCH  15  16
ATOM     16  C   UNL     1      30.422 -24.883  13.982  1.00  0.00    -0.003 C 
ATOM     17  C   UNL     1      31.508 -24.629  12.941  1.00  0.00     0.004 C 
ENDBRANCH  15  16
ENDBRANCH  14  15
ENDBRANCH  13  14
ENDBRANCH  12  13
ENDBRANCH  11  12
ENDBRANCH  10  11
ENDBRANCH   1  10
TORSDOF 13
ENDMDL
MODEL 8
REMARK VINA RESULT:     6.507      4.812      7.537
REMARK INTER + INTRA:          10.633
REMARK INTER:                  11.259
REMARK INTRA:                  -0.626
REMARK UNBOUND:                -0.819
REMARK SMILES CCCCCCCCCCCCCCC(=O)[O-]
REMARK SMILES IDX 9 1 10 2 11 3 12 4 13 5 14 6 15 7 16 8 17 9 8 10 7 11 6 12
REMARK SMILES IDX 5 13 4 14 3 15 2 16 1 17
REMARK H PARENT
REMARK Flexibility Score: inf
ROOT
ATOM      1  C   UNL     1      17.775 -18.597  25.645  1.00  0.00     0.000 C 
ENDROOT
BRANCH   1   2
ATOM      2  C   UNL     1      18.707 -19.466  26.503  1.00  0.00     0.000 C 
BRANCH   2   3
ATOM      3  C   UNL     1      19.904 -20.011  25.705  1.00  0.00     0.000 C 
BRANCH   3   4
ATOM      4  C   UNL     1      21.195 -20.067  26.537  1.00  0.00     0.000 C 
BRANCH   4   5
ATOM      5  C   UNL     1      22.245 -21.017  25.936  1.00  0.00     0.006 C 
BRANCH   5   6
ATOM      6  C   UNL     1      22.150 -21.092  24.407  1.00  0.00     0.053 C 
BRANCH   6   7
ATOM      7  C   UNL     1      23.493 -20.948  23.757  1.00  0.00     0.041 C 
ATOM      8  O   UNL     1      24.053 -19.822  23.705  1.00  0.00    -0.550 OA
ATOM      9  O   UNL     1      24.110 -22.053  23.184  1.00  0.00    -0.550 OA
ENDBRANCH   6   7
ENDBRANCH   5   6
ENDBRANCH   4   5
ENDBRANCH   3   4
ENDBRANCH   2   3
ENDBRANCH   1   2
BRANCH   1  10
ATOM     10  C   UNL     1      16.911 -19.428  24.684  1.00  0.00     0.000 C 
BRANCH  10  11
ATOM     11  C   UNL     1      17.500 -19.506  23.266  1.00  0.00    -0.000 C 
BRANCH  11  12
ATOM     12  C   UNL     1      16.621 -20.303  22.278  1.00  0.00    -0.000 C 
BRANCH  12  13
ATOM     13  C   UNL     1      16.580 -21.803  22.617  1.00  0.00    -0.000 C 
BRANCH  13  14
ATOM     14  C   UNL     1      16.567 -22.694  21.365  1.00  0.00    -0.000 C 
BRANCH  14  15
ATOM     15  C   UNL     1      17.655 -23.777  21.397  1.00  0.00    -0.000 C 
BRANCH  15  16
ATOM     16  C   UNL     1      17.913 -24.337  19.994  1.00  0.00    -0.003 C 
ATOM     17  C   UNL     1      18.468 -23.262  19.064  1.00  0.00     0.004 C 
ENDBRANCH  15  16
ENDBRANCH  14  15
ENDBRANCH  13  14
ENDBRANCH  12  13
ENDBRANCH  11  12
ENDBRANCH  10  11
ENDBRANCH   1  10
TORSDOF 13
ENDMDL
MODEL 9
REMARK VINA RESULT:     6.573      3.869      8.309
REMARK INTER + INTRA:          10.750
REMARK INTER:                  10.605
REMARK INTRA:                   0.145
REMARK UNBOUND:                -0.819
REMARK SMILES CCCCCCCCCCCCCCC(=O)[O-]
REMARK SMILES IDX 9 1 10 2 11 3 12 4 13 5 14 6 15 7 16 8 17 9 8 10 7 11 6 12
REMARK SMILES IDX 5 13 4 14 3 15 2 16 1 17
REMARK H PARENT
REMARK Flexibility Score: inf
ROOT
ATOM      1  C   UNL     1      18.935 -19.196  25.063  1.00  0.00     0.000 C 
ENDROOT
BRANCH   1   2
ATOM      2  C   UNL     1      19.664 -19.486  26.384  1.00  0.00     0.000 C 
BRANCH   2   3
ATOM      3  C   UNL     1      21.169 -19.734  26.185  1.00  0.00     0.000 C 
BRANCH   3   4
ATOM      4  C   UNL     1      21.470 -21.142  25.646  1.00  0.00     0.000 C 
BRANCH   4   5
ATOM      5  C   UNL     1      21.946 -21.125  24.183  1.00  0.00     0.006 C 
BRANCH   5   6
ATOM      6  C   UNL     1      23.385 -20.612  24.048  1.00  0.00     0.053 C 
BRANCH   6   7
ATOM      7  C   UNL     1      24.367 -21.735  23.906  1.00  0.00     0.041 C 
ATOM      8  O   UNL     1      24.508 -22.315  22.797  1.00  0.00    -0.550 OA
ATOM      9  O   UNL     1      25.105 -22.158  25.004  1.00  0.00    -0.550 OA
ENDBRANCH   6   7
ENDBRANCH   5   6
ENDBRANCH   4   5
ENDBRANCH   3   4
ENDBRANCH   2   3
ENDBRANCH   1   2
BRANCH   1  10
ATOM     10  C   UNL     1      17.409 -19.134  25.231  1.00  0.00     0.000 C 
BRANCH  10  11
ATOM     11  C   UNL     1      16.975 -18.968  26.697  1.00  0.00    -0.000 C 
BRANCH  11  12
ATOM     12  C   UNL     1      15.988 -20.055  27.173  1.00  0.00    -0.000 C 
BRANCH  12  13
ATOM     13  C   UNL     1      16.191 -20.416  28.654  1.00  0.00    -0.000 C 
BRANCH  13  14
ATOM     14  C   UNL     1      17.394 -19.694  29.281  1.00  0.00    -0.000 C 
BRANCH  14  15
ATOM     15  C   UNL     1      16.982 -18.479  30.124  1.00  0.00    -0.000 C 
BRANCH  15  16
ATOM     16  C   UNL     1      15.925 -17.640  29.395  1.00  0.00    -0.003 C 
ATOM     17  C   UNL     1      16.573 -16.668  28.413  1.00  0.00     0.004 C 
ENDBRANCH  15  16
ENDBRANCH  14  15
ENDBRANCH  13  14
ENDBRANCH  12  13
ENDBRANCH  11  12
ENDBRANCH  10  11
ENDBRANCH   1  10
TORSDOF 13
ENDMDL
