MODEL 1
REMARK VINA RESULT:    -2.638      0.000      0.000
REMARK INTER + INTRA:          -3.132
REMARK INTER:                  -3.100
REMARK INTRA:                  -0.032
REMARK UNBOUND:                -0.032
REMARK SMILES O=C([O-])CCC(=O)[O-]
REMARK SMILES IDX 4 1 2 2 1 3 3 4 5 5 6 6 7 7 8 8
REMARK H PARENT
REMARK Flexibility Score: inf
ROOT
ATOM      1  C   UNL     1      57.245  27.820  50.314  1.00  0.00     0.059 C 
ENDROOT
BRANCH   1   2
ATOM      2  C   UNL     1      58.202  28.969  50.255  1.00  0.00     0.042 C 
ATOM      3  O   UNL     1      58.422  29.663  51.282  1.00  0.00    -0.550 OA
ATOM      4  O   UNL     1      58.887  29.243  49.078  1.00  0.00    -0.550 OA
ENDBRANCH   1   2
BRANCH   1   5
ATOM      5  C   UNL     1      55.824  28.320  50.578  1.00  0.00     0.059 C 
BRANCH   5   6
ATOM      6  C   UNL     1      54.823  27.418  49.927  1.00  0.00     0.042 C 
ATOM      7  O   UNL     1      53.650  27.822  49.715  1.00  0.00    -0.550 OA
ATOM      8  O   UNL     1      55.172  26.114  49.600  1.00  0.00    -0.550 OA
ENDBRANCH   5   6
ENDBRANCH   1   5
TORSDOF 3
ENDMDL
MODEL 2
REMARK VINA RESULT:    -2.598     17.954     19.053
REMARK INTER + INTRA:          -3.086
REMARK INTER:                  -3.029
REMARK INTRA:                  -0.058
REMARK UNBOUND:                -0.032
REMARK SMILES O=C([O-])CCC(=O)[O-]
REMARK SMILES IDX 4 1 2 2 1 3 3 4 5 5 6 6 7 7 8 8
REMARK H PARENT
REMARK Flexibility Score: inf
ROOT
ATOM      1  C   UNL     1      72.507  31.152  60.132  1.00  0.00     0.059 C 
ENDROOT
BRANCH   1   2
ATOM      2  C   UNL     1      72.146  30.688  61.508  1.00  0.00     0.042 C 
ATOM      3  O   UNL     1      70.966  30.336  61.769  1.00  0.00    -0.550 OA
ATOM      4  O   UNL     1      73.125  30.599  62.490  1.00  0.00    -0.550 OA
ENDBRANCH   1   2
BRANCH   1   5
ATOM      5  C   UNL     1      71.281  31.730  59.424  1.00  0.00     0.059 C 
BRANCH   5   6
ATOM      6  C   UNL     1      71.285  33.224  59.506  1.00  0.00     0.042 C 
ATOM      7  O   UNL     1      71.284  33.798  60.626  1.00  0.00    -0.550 OA
ATOM      8  O   UNL     1      71.240  33.984  58.343  1.00  0.00    -0.550 OA
ENDBRANCH   5   6
ENDBRANCH   1   5
TORSDOF 3
ENDMDL
MODEL 3
REMARK VINA RESULT:    -2.580     17.872     18.940
REMARK INTER + INTRA:          -3.064
REMARK INTER:                  -2.996
REMARK INTRA:                  -0.068
REMARK UNBOUND:                -0.032
REMARK SMILES O=C([O-])CCC(=O)[O-]
REMARK SMILES IDX 4 1 2 2 1 3 3 4 5 5 6 6 7 7 8 8
REMARK H PARENT
REMARK Flexibility Score: inf
ROOT
ATOM      1  C   UNL     1      71.165  31.693  59.338  1.00  0.00     0.059 C 
ENDROOT
BRANCH   1   2
ATOM      2  C   UNL     1      71.249  33.186  59.397  1.00  0.00     0.042 C 
ATOM      3  O   UNL     1      71.272  33.862  58.335  1.00  0.00    -0.550 OA
ATOM      4  O   UNL     1      71.252  33.834  60.625  1.00  0.00    -0.550 OA
ENDBRANCH   1   2
BRANCH   1   5
ATOM      5  C   UNL     1      72.399  31.063  59.986  1.00  0.00     0.059 C 
BRANCH   5   6
ATOM      6  C   UNL     1      72.109  30.683  61.404  1.00  0.00     0.042 C 
ATOM      7  O   UNL     1      70.939  30.372  61.750  1.00  0.00    -0.550 OA
ATOM      8  O   UNL     1      73.122  30.719  62.354  1.00  0.00    -0.550 OA
ENDBRANCH   5   6
ENDBRANCH   1   5
TORSDOF 3
ENDMDL
MODEL 4
REMARK VINA RESULT:    -2.542     11.794     13.350
REMARK INTER + INTRA:          -3.020
REMARK INTER:                  -2.987
REMARK INTRA:                  -0.033
REMARK UNBOUND:                -0.032
REMARK SMILES O=C([O-])CCC(=O)[O-]
REMARK SMILES IDX 4 1 2 2 1 3 3 4 5 5 6 6 7 7 8 8
REMARK H PARENT
REMARK Flexibility Score: inf
ROOT
ATOM      1  C   UNL     1      61.903  34.169  60.572  1.00  0.00     0.059 C 
ENDROOT
BRANCH   1   2
ATOM      2  C   UNL     1      62.988  35.087  61.041  1.00  0.00     0.042 C 
ATOM      3  O   UNL     1      62.760  36.316  61.187  1.00  0.00    -0.550 OA
ATOM      4  O   UNL     1      64.239  34.576  61.363  1.00  0.00    -0.550 OA
ENDBRANCH   1   2
BRANCH   1   5
ATOM      5  C   UNL     1      62.362  32.713  60.654  1.00  0.00     0.059 C 
BRANCH   5   6
ATOM      6  C   UNL     1      61.183  31.797  60.747  1.00  0.00     0.042 C 
ATOM      7  O   UNL     1      60.522  31.508  59.715  1.00  0.00    -0.550 OA
ATOM      8  O   UNL     1      60.784  31.301  61.981  1.00  0.00    -0.550 OA
ENDBRANCH   5   6
ENDBRANCH   1   5
TORSDOF 3
ENDMDL
MODEL 5
REMARK VINA RESULT:    -2.538     12.742     13.828
REMARK INTER + INTRA:          -3.016
REMARK INTER:                  -2.883
REMARK INTRA:                  -0.132
REMARK UNBOUND:                -0.032
REMARK SMILES O=C([O-])CCC(=O)[O-]
REMARK SMILES IDX 4 1 2 2 1 3 3 4 5 5 6 6 7 7 8 8
REMARK H PARENT
REMARK Flexibility Score: inf
ROOT
ATOM      1  C   UNL     1      61.963  31.977  60.232  1.00  0.00     0.059 C 
ENDROOT
BRANCH   1   2
ATOM      2  C   UNL     1      61.734  31.128  61.443  1.00  0.00     0.042 C 
ATOM      3  O   UNL     1      60.651  31.210  62.078  1.00  0.00    -0.550 OA
ATOM      4  O   UNL     1      62.698  30.211  61.840  1.00  0.00    -0.550 OA
ENDBRANCH   1   2
BRANCH   1   5
ATOM      5  C   UNL     1      62.396  33.386  60.641  1.00  0.00     0.059 C 
BRANCH   5   6
ATOM      6  C   UNL     1      63.882  33.450  60.804  1.00  0.00     0.042 C 
ATOM      7  O   UNL     1      64.404  34.356  61.505  1.00  0.00    -0.550 OA
ATOM      8  O   UNL     1      64.694  32.539  60.141  1.00  0.00    -0.550 OA
ENDBRANCH   5   6
ENDBRANCH   1   5
TORSDOF 3
ENDMDL
MODEL 6
REMARK VINA RESULT:    -2.533      1.174      3.950
REMARK INTER + INTRA:          -3.009
REMARK INTER:                  -2.917
REMARK INTRA:                  -0.092
REMARK UNBOUND:                -0.032
REMARK SMILES O=C([O-])CCC(=O)[O-]
REMARK SMILES IDX 4 1 2 2 1 3 3 4 5 5 6 6 7 7 8 8
REMARK H PARENT
REMARK Flexibility Score: inf
ROOT
ATOM      1  C   UNL     1      56.548  28.484  50.488  1.00  0.00     0.059 C 
ENDROOT
BRANCH   1   2
ATOM      2  C   UNL     1      55.688  27.315  50.125  1.00  0.00     0.042 C 
ATOM      3  O   UNL     1      54.490  27.493  49.781  1.00  0.00    -0.550 OA
ATOM      4  O   UNL     1      56.223  26.033  50.119  1.00  0.00    -0.550 OA
ENDBRANCH   1   2
BRANCH   1   5
ATOM      5  C   UNL     1      57.964  28.019  50.833  1.00  0.00     0.059 C 
BRANCH   5   6
ATOM      6  C   UNL     1      58.882  28.229  49.671  1.00  0.00     0.042 C 
ATOM      7  O   UNL     1      58.868  29.318  49.041  1.00  0.00    -0.550 OA
ATOM      8  O   UNL     1      59.719  27.202  49.253  1.00  0.00    -0.550 OA
ENDBRANCH   5   6
ENDBRANCH   1   5
TORSDOF 3
ENDMDL
MODEL 7
REMARK VINA RESULT:    -2.531      1.223      4.320
REMARK INTER + INTRA:          -3.007
REMARK INTER:                  -2.972
REMARK INTRA:                  -0.036
REMARK UNBOUND:                -0.032
REMARK SMILES O=C([O-])CCC(=O)[O-]
REMARK SMILES IDX 4 1 2 2 1 3 3 4 5 5 6 6 7 7 8 8
REMARK H PARENT
REMARK Flexibility Score: inf
ROOT
ATOM      1  C   UNL     1      56.343  26.523  50.156  1.00  0.00     0.059 C 
ENDROOT
BRANCH   1   2
ATOM      2  C   UNL     1      54.927  26.447  49.679  1.00  0.00     0.042 C 
ATOM      3  O   UNL     1      54.444  25.348  49.300  1.00  0.00    -0.550 OA
ATOM      4  O   UNL     1      54.126  27.581  49.699  1.00  0.00    -0.550 OA
ENDBRANCH   1   2
BRANCH   1   5
ATOM      5  C   UNL     1      56.755  27.978  50.380  1.00  0.00     0.059 C 
BRANCH   5   6
ATOM      6  C   UNL     1      58.219  28.154  50.126  1.00  0.00     0.042 C 
ATOM      7  O   UNL     1      59.055  27.399  50.688  1.00  0.00    -0.550 OA
ATOM      8  O   UNL     1      58.663  29.183  49.305  1.00  0.00    -0.550 OA
ENDBRANCH   5   6
ENDBRANCH   1   5
TORSDOF 3
ENDMDL
MODEL 8
REMARK VINA RESULT:    -2.529     11.843     13.854
REMARK INTER + INTRA:          -3.005
REMARK INTER:                  -2.969
REMARK INTRA:                  -0.037
REMARK UNBOUND:                -0.032
REMARK SMILES O=C([O-])CCC(=O)[O-]
REMARK SMILES IDX 4 1 2 2 1 3 3 4 5 5 6 6 7 7 8 8
REMARK H PARENT
REMARK Flexibility Score: inf
ROOT
ATOM      1  C   UNL     1      62.435  32.676  60.706  1.00  0.00     0.059 C 
ENDROOT
BRANCH   1   2
ATOM      2  C   UNL     1      61.264  31.756  60.859  1.00  0.00     0.042 C 
ATOM      3  O   UNL     1      61.004  31.244  61.979  1.00  0.00    -0.550 OA
ATOM      4  O   UNL     1      60.432  31.505  59.776  1.00  0.00    -0.550 OA
ENDBRANCH   1   2
BRANCH   1   5
ATOM      5  C   UNL     1      61.962  34.098  60.402  1.00  0.00     0.059 C 
BRANCH   5   6
ATOM      6  C   UNL     1      62.877  35.100  61.032  1.00  0.00     0.042 C 
ATOM      7  O   UNL     1      64.041  34.766  61.378  1.00  0.00    -0.550 OA
ATOM      8  O   UNL     1      62.428  36.390  61.282  1.00  0.00    -0.550 OA
ENDBRANCH   5   6
ENDBRANCH   1   5
TORSDOF 3
ENDMDL
MODEL 9
REMARK VINA RESULT:    -2.527      1.194      1.880
REMARK INTER + INTRA:          -3.002
REMARK INTER:                  -2.914
REMARK INTRA:                  -0.088
REMARK UNBOUND:                -0.032
REMARK SMILES O=C([O-])CCC(=O)[O-]
REMARK SMILES IDX 4 1 2 2 1 3 3 4 5 5 6 6 7 7 8 8
REMARK H PARENT
REMARK Flexibility Score: inf
ROOT
ATOM      1  C   UNL     1      58.042  27.830  50.799  1.00  0.00     0.059 C 
ENDROOT
BRANCH   1   2
ATOM      2  C   UNL     1      58.971  28.088  49.655  1.00  0.00     0.042 C 
ATOM      3  O   UNL     1      59.755  27.187  49.258  1.00  0.00    -0.550 OA
ATOM      4  O   UNL     1      58.936  29.310  48.994  1.00  0.00    -0.550 OA
ENDBRANCH   1   2
BRANCH   1   5
ATOM      5  C   UNL     1      56.642  28.357  50.481  1.00  0.00     0.059 C 
BRANCH   5   6
ATOM      6  C   UNL     1      55.732  27.231  50.104  1.00  0.00     0.042 C 
ATOM      7  O   UNL     1      56.168  26.051  50.059  1.00  0.00    -0.550 OA
ATOM      8  O   UNL     1      54.413  27.492  49.753  1.00  0.00    -0.550 OA
ENDBRANCH   5   6
ENDBRANCH   1   5
TORSDOF 3
ENDMDL
