MODEL 1
REMARK VINA RESULT:    -3.762      0.000      0.000
REMARK INTER + INTRA:          -8.372
REMARK INTER:                  -6.841
REMARK INTRA:                  -1.531
REMARK UNBOUND:                -1.531
REMARK SMILES CCCCCCCCCCCCCCCC(=O)[O-]
REMARK SMILES IDX 9 1 10 2 11 3 12 4 13 5 14 6 15 7 16 8 17 9 18 10 8 11 7 12
REMARK SMILES IDX 6 13 5 14 4 15 3 16 2 17 1 18
REMARK H PARENT
REMARK Flexibility Score: inf
ROOT
ATOM      1  C   UNL     1      12.518  -9.789  18.561  1.00  0.00     0.000 C 
ENDROOT
BRANCH   1   2
ATOM      2  C   UNL     1      12.023  -9.808  17.104  1.00  0.00     0.000 C 
BRANCH   2   3
ATOM      3  C   UNL     1      10.875 -10.804  16.875  1.00  0.00     0.000 C 
BRANCH   3   4
ATOM      4  C   UNL     1      10.981 -11.451  15.486  1.00  0.00     0.000 C 
BRANCH   4   5
ATOM      5  C   UNL     1      11.330 -10.437  14.384  1.00  0.00     0.000 C 
BRANCH   5   6
ATOM      6  C   UNL     1      10.475 -10.620  13.119  1.00  0.00     0.006 C 
BRANCH   6   7
ATOM      7  C   UNL     1      10.560  -9.407  12.182  1.00  0.00     0.053 C 
BRANCH   7   8
ATOM      8  C   UNL     1       9.410  -9.359  11.225  1.00  0.00     0.041 C 
ATOM      9  O   UNL     1       8.335  -9.957  11.495  1.00  0.00    -0.550 OA
ATOM     10  O   UNL     1       9.512  -8.627  10.049  1.00  0.00    -0.550 OA
ENDBRANCH   7   8
ENDBRANCH   6   7
ENDBRANCH   5   6
ENDBRANCH   4   5
ENDBRANCH   3   4
ENDBRANCH   2   3
ENDBRANCH   1   2
BRANCH   1  11
ATOM     11  C   UNL     1      13.609 -10.827  18.891  1.00  0.00     0.000 C 
BRANCH  11  12
ATOM     12  C   UNL     1      14.240 -11.521  17.667  1.00  0.00    -0.000 C 
BRANCH  12  13
ATOM     13  C   UNL     1      14.228 -13.063  17.711  1.00  0.00    -0.000 C 
BRANCH  13  14
ATOM     14  C   UNL     1      12.834 -13.705  17.826  1.00  0.00    -0.000 C 
BRANCH  14  15
ATOM     15  C   UNL     1      12.727 -14.699  18.995  1.00  0.00    -0.000 C 
BRANCH  15  16
ATOM     16  C   UNL     1      11.694 -14.271  20.053  1.00  0.00    -0.000 C 
BRANCH  16  17
ATOM     17  C   UNL     1      12.190 -13.215  21.059  1.00  0.00    -0.003 C 
ATOM     18  C   UNL     1      13.496 -13.610  21.747  1.00  0.00     0.004 C 
ENDBRANCH  16  17
ENDBRANCH  15  16
ENDBRANCH  14  15
ENDBRANCH  13  14
ENDBRANCH  12  13
ENDBRANCH  11  12
ENDBRANCH   1  11
TORSDOF 14
ENDMDL
MODEL 2
REMARK VINA RESULT:    -3.685      4.482      5.697
REMARK INTER + INTRA:          -8.232
REMARK INTER:                  -5.894
REMARK INTRA:                  -2.338
REMARK UNBOUND:                -1.531
REMARK SMILES CCCCCCCCCCCCCCCC(=O)[O-]
REMARK SMILES IDX 9 1 10 2 11 3 12 4 13 5 14 6 15 7 16 8 17 9 18 10 8 11 7 12
REMARK SMILES IDX 6 13 5 14 4 15 3 16 2 17 1 18
REMARK H PARENT
REMARK Flexibility Score: inf
ROOT
ATOM      1  C   UNL     1      13.890 -10.630  19.501  1.00  0.00     0.000 C 
ENDROOT
BRANCH   1   2
ATOM      2  C   UNL     1      14.208 -10.209  18.056  1.00  0.00     0.000 C 
BRANCH   2   3
ATOM      3  C   UNL     1      12.989 -10.300  17.125  1.00  0.00     0.000 C 
BRANCH   3   4
ATOM      4  C   UNL     1      13.051 -11.572  16.265  1.00  0.00     0.000 C 
BRANCH   4   5
ATOM      5  C   UNL     1      12.068 -12.655  16.737  1.00  0.00     0.000 C 
BRANCH   5   6
ATOM      6  C   UNL     1      12.753 -14.011  16.980  1.00  0.00     0.006 C 
BRANCH   6   7
ATOM      7  C   UNL     1      14.062 -13.865  17.769  1.00  0.00     0.053 C 
BRANCH   7   8
ATOM      8  C   UNL     1      14.798 -15.164  17.874  1.00  0.00     0.041 C 
ATOM      9  O   UNL     1      15.472 -15.428  18.905  1.00  0.00    -0.550 OA
ATOM     10  O   UNL     1      14.716 -16.098  16.849  1.00  0.00    -0.550 OA
ENDBRANCH   7   8
ENDBRANCH   6   7
ENDBRANCH   5   6
ENDBRANCH   4   5
ENDBRANCH   3   4
ENDBRANCH   2   3
ENDBRANCH   1   2
BRANCH   1  11
ATOM     11  C   UNL     1      12.652  -9.950  20.120  1.00  0.00     0.000 C 
BRANCH  11  12
ATOM     12  C   UNL     1      11.450 -10.883  20.364  1.00  0.00    -0.000 C 
BRANCH  12  13
ATOM     13  C   UNL     1      11.779 -12.390  20.351  1.00  0.00    -0.000 C 
BRANCH  13  14
ATOM     14  C   UNL     1      10.590 -13.319  20.042  1.00  0.00    -0.000 C 
BRANCH  14  15
ATOM     15  C   UNL     1      10.682 -14.670  20.771  1.00  0.00    -0.000 C 
BRANCH  15  16
ATOM     16  C   UNL     1      11.961 -15.453  20.423  1.00  0.00    -0.000 C 
BRANCH  16  17
ATOM     17  C   UNL     1      11.760 -16.637  19.460  1.00  0.00    -0.003 C 
ATOM     18  C   UNL     1      12.825 -17.722  19.613  1.00  0.00     0.004 C 
ENDBRANCH  16  17
ENDBRANCH  15  16
ENDBRANCH  14  15
ENDBRANCH  13  14
ENDBRANCH  12  13
ENDBRANCH  11  12
ENDBRANCH   1  11
TORSDOF 14
ENDMDL
MODEL 3
REMARK VINA RESULT:    -3.651      3.403      5.633
REMARK INTER + INTRA:          -8.169
REMARK INTER:                  -5.890
REMARK INTRA:                  -2.279
REMARK UNBOUND:                -1.531
REMARK SMILES CCCCCCCCCCCCCCCC(=O)[O-]
REMARK SMILES IDX 9 1 10 2 11 3 12 4 13 5 14 6 15 7 16 8 17 9 18 10 8 11 7 12
REMARK SMILES IDX 6 13 5 14 4 15 3 16 2 17 1 18
REMARK H PARENT
REMARK Flexibility Score: inf
ROOT
ATOM      1  C   UNL     1      11.664 -13.620  19.528  1.00  0.00     0.000 C 
ENDROOT
BRANCH   1   2
ATOM      2  C   UNL     1      13.161 -13.964  19.624  1.00  0.00     0.000 C 
BRANCH   2   3
ATOM      3  C   UNL     1      14.048 -12.723  19.813  1.00  0.00     0.000 C 
BRANCH   3   4
ATOM      4  C   UNL     1      13.191 -11.456  19.956  1.00  0.00     0.000 C 
BRANCH   4   5
ATOM      5  C   UNL     1      13.867 -10.213  19.355  1.00  0.00     0.000 C 
BRANCH   5   6
ATOM      6  C   UNL     1      14.076 -10.328  17.835  1.00  0.00     0.006 C 
BRANCH   6   7
ATOM      7  C   UNL     1      12.746 -10.426  17.075  1.00  0.00     0.053 C 
BRANCH   7   8
ATOM      8  C   UNL     1      12.581 -11.756  16.407  1.00  0.00     0.041 C 
ATOM      9  O   UNL     1      11.466 -12.088  15.924  1.00  0.00    -0.550 OA
ATOM     10  O   UNL     1      13.665 -12.616  16.290  1.00  0.00    -0.550 OA
ENDBRANCH   7   8
ENDBRANCH   6   7
ENDBRANCH   5   6
ENDBRANCH   4   5
ENDBRANCH   3   4
ENDBRANCH   2   3
ENDBRANCH   1   2
BRANCH   1  11
ATOM     11  C   UNL     1      10.779 -14.258  20.618  1.00  0.00     0.000 C 
BRANCH  11  12
ATOM     12  C   UNL     1      11.477 -14.492  21.971  1.00  0.00    -0.000 C 
BRANCH  12  13
ATOM     13  C   UNL     1      10.948 -13.632  23.137  1.00  0.00    -0.000 C 
BRANCH  13  14
ATOM     14  C   UNL     1      11.382 -12.155  23.113  1.00  0.00    -0.000 C 
BRANCH  14  15
ATOM     15  C   UNL     1      10.299 -11.223  22.543  1.00  0.00    -0.000 C 
BRANCH  15  16
ATOM     16  C   UNL     1       8.876 -11.630  22.965  1.00  0.00    -0.000 C 
BRANCH  16  17
ATOM     17  C   UNL     1       7.940 -12.026  21.807  1.00  0.00    -0.003 C 
ATOM     18  C   UNL     1       8.347 -11.409  20.470  1.00  0.00     0.004 C 
ENDBRANCH  16  17
ENDBRANCH  15  16
ENDBRANCH  14  15
ENDBRANCH  13  14
ENDBRANCH  12  13
ENDBRANCH  11  12
ENDBRANCH   1  11
TORSDOF 14
ENDMDL
MODEL 4
REMARK VINA RESULT:    -3.633      3.432      6.601
REMARK INTER + INTRA:          -8.137
REMARK INTER:                  -5.991
REMARK INTRA:                  -2.146
REMARK UNBOUND:                -1.531
REMARK SMILES CCCCCCCCCCCCCCCC(=O)[O-]
REMARK SMILES IDX 9 1 10 2 11 3 12 4 13 5 14 6 15 7 16 8 17 9 18 10 8 11 7 12
REMARK SMILES IDX 6 13 5 14 4 15 3 16 2 17 1 18
REMARK H PARENT
REMARK Flexibility Score: inf
ROOT
ATOM      1  C   UNL     1       9.786 -12.630  22.609  1.00  0.00     0.000 C 
ENDROOT
BRANCH   1   2
ATOM      2  C   UNL     1      10.855 -13.693  22.302  1.00  0.00     0.000 C 
BRANCH   2   3
ATOM      3  C   UNL     1      10.446 -14.640  21.163  1.00  0.00     0.000 C 
BRANCH   3   4
ATOM      4  C   UNL     1      11.576 -14.776  20.132  1.00  0.00     0.000 C 
BRANCH   4   5
ATOM      5  C   UNL     1      12.920 -14.237  20.649  1.00  0.00     0.000 C 
BRANCH   5   6
ATOM      6  C   UNL     1      13.774 -13.606  19.536  1.00  0.00     0.006 C 
BRANCH   6   7
ATOM      7  C   UNL     1      13.830 -14.487  18.280  1.00  0.00     0.053 C 
BRANCH   7   8
ATOM      8  C   UNL     1      13.406 -13.739  17.054  1.00  0.00     0.041 C 
ATOM      9  O   UNL     1      12.195 -13.725  16.708  1.00  0.00    -0.550 OA
ATOM     10  O   UNL     1      14.342 -13.032  16.311  1.00  0.00    -0.550 OA
ENDBRANCH   7   8
ENDBRANCH   6   7
ENDBRANCH   5   6
ENDBRANCH   4   5
ENDBRANCH   3   4
ENDBRANCH   2   3
ENDBRANCH   1   2
BRANCH   1  11
ATOM     11  C   UNL     1       8.663 -12.513  21.557  1.00  0.00     0.000 C 
BRANCH  11  12
ATOM     12  C   UNL     1       8.432 -11.092  21.007  1.00  0.00    -0.000 C 
BRANCH  12  13
ATOM     13  C   UNL     1       8.617 -10.944  19.483  1.00  0.00    -0.000 C 
BRANCH  13  14
ATOM     14  C   UNL     1       9.732 -11.809  18.869  1.00  0.00    -0.000 C 
BRANCH  14  15
ATOM     15  C   UNL     1      11.135 -11.215  19.081  1.00  0.00    -0.000 C 
BRANCH  15  16
ATOM     16  C   UNL     1      11.342  -9.885  18.335  1.00  0.00    -0.000 C 
BRANCH  16  17
ATOM     17  C   UNL     1      12.264  -9.964  17.103  1.00  0.00    -0.003 C 
ATOM     18  C   UNL     1      11.551 -10.479  15.854  1.00  0.00     0.004 C 
ENDBRANCH  16  17
ENDBRANCH  15  16
ENDBRANCH  14  15
ENDBRANCH  13  14
ENDBRANCH  12  13
ENDBRANCH  11  12
ENDBRANCH   1  11
TORSDOF 14
ENDMDL
MODEL 5
REMARK VINA RESULT:    -3.619      4.594      6.420
REMARK INTER + INTRA:          -8.111
REMARK INTER:                  -5.794
REMARK INTRA:                  -2.316
REMARK UNBOUND:                -1.531
REMARK SMILES CCCCCCCCCCCCCCCC(=O)[O-]
REMARK SMILES IDX 9 1 10 2 11 3 12 4 13 5 14 6 15 7 16 8 17 9 18 10 8 11 7 12
REMARK SMILES IDX 6 13 5 14 4 15 3 16 2 17 1 18
REMARK H PARENT
REMARK Flexibility Score: inf
ROOT
ATOM      1  C   UNL     1      12.648 -15.372  20.622  1.00  0.00     0.000 C 
ENDROOT
BRANCH   1   2
ATOM      2  C   UNL     1      11.151 -15.158  20.341  1.00  0.00     0.000 C 
BRANCH   2   3
ATOM      3  C   UNL     1      10.625 -13.823  20.889  1.00  0.00     0.000 C 
BRANCH   3   4
ATOM      4  C   UNL     1      11.505 -12.654  20.420  1.00  0.00     0.000 C 
BRANCH   4   5
ATOM      5  C   UNL     1      10.684 -11.422  20.006  1.00  0.00     0.000 C 
BRANCH   5   6
ATOM      6  C   UNL     1       9.405 -11.793  19.237  1.00  0.00     0.006 C 
BRANCH   6   7
ATOM      7  C   UNL     1       8.188 -10.990  19.716  1.00  0.00     0.053 C 
BRANCH   7   8
ATOM      8  C   UNL     1       7.976 -11.124  21.192  1.00  0.00     0.041 C 
ATOM      9  O   UNL     1       7.700 -12.246  21.693  1.00  0.00    -0.550 OA
ATOM     10  O   UNL     1       8.113 -10.017  22.019  1.00  0.00    -0.550 OA
ENDBRANCH   7   8
ENDBRANCH   6   7
ENDBRANCH   5   6
ENDBRANCH   4   5
ENDBRANCH   3   4
ENDBRANCH   2   3
ENDBRANCH   1   2
BRANCH   1  11
ATOM     11  C   UNL     1      13.521 -15.590  19.369  1.00  0.00     0.000 C 
BRANCH  11  12
ATOM     12  C   UNL     1      14.364 -14.372  18.943  1.00  0.00    -0.000 C 
BRANCH  12  13
ATOM     13  C   UNL     1      14.102 -13.865  17.510  1.00  0.00    -0.000 C 
BRANCH  13  14
ATOM     14  C   UNL     1      12.654 -14.023  17.012  1.00  0.00    -0.000 C 
BRANCH  14  15
ATOM     15  C   UNL     1      11.982 -12.678  16.688  1.00  0.00    -0.000 C 
BRANCH  15  16
ATOM     16  C   UNL     1      12.994 -11.572  16.339  1.00  0.00    -0.000 C 
BRANCH  16  17
ATOM     17  C   UNL     1      12.930 -10.322  17.237  1.00  0.00    -0.003 C 
ATOM     18  C   UNL     1      14.168 -10.151  18.115  1.00  0.00     0.004 C 
ENDBRANCH  16  17
ENDBRANCH  15  16
ENDBRANCH  14  15
ENDBRANCH  13  14
ENDBRANCH  12  13
ENDBRANCH  11  12
ENDBRANCH   1  11
TORSDOF 14
ENDMDL
MODEL 6
REMARK VINA RESULT:    -3.580      4.809      6.650
REMARK INTER + INTRA:          -8.040
REMARK INTER:                  -5.491
REMARK INTRA:                  -2.550
REMARK UNBOUND:                -1.531
REMARK SMILES CCCCCCCCCCCCCCCC(=O)[O-]
REMARK SMILES IDX 9 1 10 2 11 3 12 4 13 5 14 6 15 7 16 8 17 9 18 10 8 11 7 12
REMARK SMILES IDX 6 13 5 14 4 15 3 16 2 17 1 18
REMARK H PARENT
REMARK Flexibility Score: inf
ROOT
ATOM      1  C   UNL     1      13.471 -10.354  17.254  1.00  0.00     0.000 C 
ENDROOT
BRANCH   1   2
ATOM      2  C   UNL     1      14.216  -9.902  18.522  1.00  0.00     0.000 C 
BRANCH   2   3
ATOM      3  C   UNL     1      13.272  -9.386  19.618  1.00  0.00     0.000 C 
BRANCH   3   4
ATOM      4  C   UNL     1      13.267 -10.332  20.828  1.00  0.00     0.000 C 
BRANCH   4   5
ATOM      5  C   UNL     1      14.262 -11.495  20.675  1.00  0.00     0.000 C 
BRANCH   5   6
ATOM      6  C   UNL     1      13.562 -12.855  20.512  1.00  0.00     0.006 C 
BRANCH   6   7
ATOM      7  C   UNL     1      14.059 -13.617  19.276  1.00  0.00     0.053 C 
BRANCH   7   8
ATOM      8  C   UNL     1      14.903 -14.797  19.648  1.00  0.00     0.041 C 
ATOM      9  O   UNL     1      14.951 -15.188  20.844  1.00  0.00    -0.550 OA
ATOM     10  O   UNL     1      15.612 -15.483  18.671  1.00  0.00    -0.550 OA
ENDBRANCH   7   8
ENDBRANCH   6   7
ENDBRANCH   5   6
ENDBRANCH   4   5
ENDBRANCH   3   4
ENDBRANCH   2   3
ENDBRANCH   1   2
BRANCH   1  11
ATOM     11  C   UNL     1      11.945 -10.138  17.284  1.00  0.00     0.000 C 
BRANCH  11  12
ATOM     12  C   UNL     1      11.102 -11.412  17.080  1.00  0.00    -0.000 C 
BRANCH  12  13
ATOM     13  C   UNL     1      10.701 -12.144  18.377  1.00  0.00    -0.000 C 
BRANCH  13  14
ATOM     14  C   UNL     1       9.622 -11.441  19.221  1.00  0.00    -0.000 C 
BRANCH  14  15
ATOM     15  C   UNL     1       9.824 -11.637  20.733  1.00  0.00    -0.000 C 
BRANCH  15  16
ATOM     16  C   UNL     1       9.854 -13.119  21.147  1.00  0.00    -0.000 C 
BRANCH  16  17
ATOM     17  C   UNL     1      10.488 -13.400  22.523  1.00  0.00    -0.003 C 
ATOM     18  C   UNL     1      11.008 -12.139  23.211  1.00  0.00     0.004 C 
ENDBRANCH  16  17
ENDBRANCH  15  16
ENDBRANCH  14  15
ENDBRANCH  13  14
ENDBRANCH  12  13
ENDBRANCH  11  12
ENDBRANCH   1  11
TORSDOF 14
ENDMDL
MODEL 7
REMARK VINA RESULT:    -3.572      4.177      6.331
REMARK INTER + INTRA:          -8.027
REMARK INTER:                  -5.337
REMARK INTRA:                  -2.689
REMARK UNBOUND:                -1.531
REMARK SMILES CCCCCCCCCCCCCCCC(=O)[O-]
REMARK SMILES IDX 9 1 10 2 11 3 12 4 13 5 14 6 15 7 16 8 17 9 18 10 8 11 7 12
REMARK SMILES IDX 6 13 5 14 4 15 3 16 2 17 1 18
REMARK H PARENT
REMARK Flexibility Score: inf
ROOT
ATOM      1  C   UNL     1      10.495 -12.704  19.599  1.00  0.00     0.000 C 
ENDROOT
BRANCH   1   2
ATOM      2  C   UNL     1      11.002 -12.293  20.993  1.00  0.00     0.000 C 
BRANCH   2   3
ATOM      3  C   UNL     1      12.467 -12.686  21.235  1.00  0.00     0.000 C 
BRANCH   3   4
ATOM      4  C   UNL     1      12.886 -13.838  20.309  1.00  0.00     0.000 C 
BRANCH   4   5
ATOM      5  C   UNL     1      14.269 -13.617  19.675  1.00  0.00     0.000 C 
BRANCH   5   6
ATOM      6  C   UNL     1      14.400 -14.279  18.293  1.00  0.00     0.006 C 
BRANCH   6   7
ATOM      7  C   UNL     1      13.034 -14.633  17.689  1.00  0.00     0.053 C 
BRANCH   7   8
ATOM      8  C   UNL     1      12.959 -16.072  17.281  1.00  0.00     0.041 C 
ATOM      9  O   UNL     1      12.298 -16.892  17.970  1.00  0.00    -0.550 OA
ATOM     10  O   UNL     1      13.594 -16.501  16.122  1.00  0.00    -0.550 OA
ENDBRANCH   7   8
ENDBRANCH   6   7
ENDBRANCH   5   6
ENDBRANCH   4   5
ENDBRANCH   3   4
ENDBRANCH   2   3
ENDBRANCH   1   2
BRANCH   1  11
ATOM     11  C   UNL     1      10.180 -11.530  18.649  1.00  0.00     0.000 C 
BRANCH  11  12
ATOM     12  C   UNL     1      10.833 -11.626  17.256  1.00  0.00    -0.000 C 
BRANCH  12  13
ATOM     13  C   UNL     1      11.854 -10.516  16.935  1.00  0.00    -0.000 C 
BRANCH  13  14
ATOM     14  C   UNL     1      13.325 -10.969  16.896  1.00  0.00    -0.000 C 
BRANCH  14  15
ATOM     15  C   UNL     1      14.234 -10.130  17.810  1.00  0.00    -0.000 C 
BRANCH  15  16
ATOM     16  C   UNL     1      13.738 -10.081  19.267  1.00  0.00    -0.000 C 
BRANCH  16  17
ATOM     17  C   UNL     1      13.344  -8.682  19.776  1.00  0.00    -0.003 C 
ATOM     18  C   UNL     1      11.875  -8.585  20.185  1.00  0.00     0.004 C 
ENDBRANCH  16  17
ENDBRANCH  15  16
ENDBRANCH  14  15
ENDBRANCH  13  14
ENDBRANCH  12  13
ENDBRANCH  11  12
ENDBRANCH   1  11
TORSDOF 14
ENDMDL
MODEL 8
REMARK VINA RESULT:    -3.553      4.884      6.090
REMARK INTER + INTRA:          -7.991
REMARK INTER:                  -5.536
REMARK INTRA:                  -2.455
REMARK UNBOUND:                -1.531
REMARK SMILES CCCCCCCCCCCCCCCC(=O)[O-]
REMARK SMILES IDX 9 1 10 2 11 3 12 4 13 5 14 6 15 7 16 8 17 9 18 10 8 11 7 12
REMARK SMILES IDX 6 13 5 14 4 15 3 16 2 17 1 18
REMARK H PARENT
REMARK Flexibility Score: inf
ROOT
ATOM      1  C   UNL     1      13.863  -9.581  19.138  1.00  0.00     0.000 C 
ENDROOT
BRANCH   1   2
ATOM      2  C   UNL     1      13.667 -10.561  20.308  1.00  0.00     0.000 C 
BRANCH   2   3
ATOM      3  C   UNL     1      12.209 -11.017  20.468  1.00  0.00     0.000 C 
BRANCH   3   4
ATOM      4  C   UNL     1      11.240  -9.941  19.953  1.00  0.00     0.000 C 
BRANCH   4   5
ATOM      5  C   UNL     1      10.128 -10.521  19.064  1.00  0.00     0.000 C 
BRANCH   5   6
ATOM      6  C   UNL     1       9.491 -11.787  19.662  1.00  0.00     0.006 C 
BRANCH   6   7
ATOM      7  C   UNL     1       8.366 -11.456  20.653  1.00  0.00     0.053 C 
BRANCH   7   8
ATOM      8  C   UNL     1       8.581 -12.110  21.982  1.00  0.00     0.041 C 
ATOM      9  O   UNL     1       9.600 -12.824  22.179  1.00  0.00    -0.550 OA
ATOM     10  O   UNL     1       7.674 -11.907  23.014  1.00  0.00    -0.550 OA
ENDBRANCH   7   8
ENDBRANCH   6   7
ENDBRANCH   5   6
ENDBRANCH   4   5
ENDBRANCH   3   4
ENDBRANCH   2   3
ENDBRANCH   1   2
BRANCH   1  11
ATOM     11  C   UNL     1      14.318 -10.230  17.815  1.00  0.00     0.000 C 
BRANCH  11  12
ATOM     12  C   UNL     1      13.176 -10.622  16.856  1.00  0.00    -0.000 C 
BRANCH  12  13
ATOM     13  C   UNL     1      13.125 -12.116  16.476  1.00  0.00    -0.000 C 
BRANCH  13  14
ATOM     14  C   UNL     1      12.083 -12.952  17.241  1.00  0.00    -0.000 C 
BRANCH  14  15
ATOM     15  C   UNL     1      12.720 -13.930  18.243  1.00  0.00    -0.000 C 
BRANCH  15  16
ATOM     16  C   UNL     1      14.257 -13.945  18.172  1.00  0.00    -0.000 C 
BRANCH  16  17
ATOM     17  C   UNL     1      14.962 -14.553  19.398  1.00  0.00    -0.003 C 
ATOM     18  C   UNL     1      14.378 -14.070  20.725  1.00  0.00     0.004 C 
ENDBRANCH  16  17
ENDBRANCH  15  16
ENDBRANCH  14  15
ENDBRANCH  13  14
ENDBRANCH  12  13
ENDBRANCH  11  12
ENDBRANCH   1  11
TORSDOF 14
ENDMDL
MODEL 9
REMARK VINA RESULT:    -3.544      5.195      7.335
REMARK INTER + INTRA:          -7.975
REMARK INTER:                  -5.435
REMARK INTRA:                  -2.541
REMARK UNBOUND:                -1.531
REMARK SMILES CCCCCCCCCCCCCCCC(=O)[O-]
REMARK SMILES IDX 9 1 10 2 11 3 12 4 13 5 14 6 15 7 16 8 17 9 18 10 8 11 7 12
REMARK SMILES IDX 6 13 5 14 4 15 3 16 2 17 1 18
REMARK H PARENT
REMARK Flexibility Score: inf
ROOT
ATOM      1  C   UNL     1      11.954 -13.516  18.459  1.00  0.00     0.000 C 
ENDROOT
BRANCH   1   2
ATOM      2  C   UNL     1      11.179 -12.826  19.595  1.00  0.00     0.000 C 
BRANCH   2   3
ATOM      3  C   UNL     1       9.899 -12.131  19.108  1.00  0.00     0.000 C 
BRANCH   3   4
ATOM      4  C   UNL     1       9.406 -11.106  20.141  1.00  0.00     0.000 C 
BRANCH   4   5
ATOM      5  C   UNL     1       8.196 -11.609  20.945  1.00  0.00     0.000 C 
BRANCH   5   6
ATOM      6  C   UNL     1       8.577 -12.072  22.362  1.00  0.00     0.006 C 
BRANCH   6   7
ATOM      7  C   UNL     1       9.770 -11.289  22.925  1.00  0.00     0.053 C 
BRANCH   7   8
ATOM      8  C   UNL     1      10.896 -12.193  23.320  1.00  0.00     0.041 C 
ATOM      9  O   UNL     1      12.005 -11.708  23.668  1.00  0.00    -0.550 OA
ATOM     10  O   UNL     1      10.712 -13.570  23.334  1.00  0.00    -0.550 OA
ENDBRANCH   7   8
ENDBRANCH   6   7
ENDBRANCH   5   6
ENDBRANCH   4   5
ENDBRANCH   3   4
ENDBRANCH   2   3
ENDBRANCH   1   2
BRANCH   1  11
ATOM     11  C   UNL     1      13.340 -12.911  18.155  1.00  0.00     0.000 C 
BRANCH  11  12
ATOM     12  C   UNL     1      13.429 -12.113  16.840  1.00  0.00    -0.000 C 
BRANCH  12  13
ATOM     13  C   UNL     1      13.403 -10.579  17.004  1.00  0.00    -0.000 C 
BRANCH  13  14
ATOM     14  C   UNL     1      12.002  -9.941  16.994  1.00  0.00    -0.000 C 
BRANCH  14  15
ATOM     15  C   UNL     1      11.746  -9.039  18.213  1.00  0.00    -0.000 C 
BRANCH  15  16
ATOM     16  C   UNL     1      12.958  -8.950  19.158  1.00  0.00    -0.000 C 
BRANCH  16  17
ATOM     17  C   UNL     1      12.759  -9.604  20.538  1.00  0.00    -0.003 C 
ATOM     18  C   UNL     1      13.888 -10.561  20.916  1.00  0.00     0.004 C 
ENDBRANCH  16  17
ENDBRANCH  15  16
ENDBRANCH  14  15
ENDBRANCH  13  14
ENDBRANCH  12  13
ENDBRANCH  11  12
ENDBRANCH   1  11
TORSDOF 14
ENDMDL
