MODEL 1
REMARK VINA RESULT:    -4.437      0.000      0.000
REMARK INTER + INTRA:         -15.057
REMARK INTER:                 -11.701
REMARK INTRA:                  -3.357
REMARK UNBOUND:                -3.357
REMARK SMILES CCCCCCCCCCCCCCCCCCCCCCCCCCCCCC(=O)[O-]
REMARK SMILES IDX 16 1 17 2 18 3 19 4 20 5 21 6 22 7 23 8 24 9 25 10 26 11
REMARK SMILES IDX 27 12 28 13 29 14 30 15 31 16 32 17 15 18 14 19 13 20 12 21
REMARK SMILES IDX 11 22 10 23 9 24 8 25 7 26 6 27 5 28 4 29 3 30 2 31 1 32
REMARK H PARENT
REMARK Flexibility Score: inf
ROOT
ATOM      1  C   UNL     1      12.220  12.381   8.823  1.00  0.00     0.000 C 
ENDROOT
BRANCH   1   2
ATOM      2  C   UNL     1      11.253  13.557   9.031  1.00  0.00     0.000 C 
BRANCH   2   3
ATOM      3  C   UNL     1      11.774  14.517  10.105  1.00  0.00     0.000 C 
BRANCH   3   4
ATOM      4  C   UNL     1      12.998  13.932  10.822  1.00  0.00     0.000 C 
BRANCH   4   5
ATOM      5  C   UNL     1      12.652  13.296  12.180  1.00  0.00     0.000 C 
BRANCH   5   6
ATOM      6  C   UNL     1      13.869  12.690  12.912  1.00  0.00     0.000 C 
BRANCH   6   7
ATOM      7  C   UNL     1      13.466  11.550  13.864  1.00  0.00     0.000 C 
BRANCH   7   8
ATOM      8  C   UNL     1      14.638  11.049  14.726  1.00  0.00     0.000 C 
BRANCH   8   9
ATOM      9  C   UNL     1      15.805  12.046  14.877  1.00  0.00     0.000 C 
BRANCH   9  10
ATOM     10  C   UNL     1      17.098  11.666  14.124  1.00  0.00     0.000 C 
BRANCH  10  11
ATOM     11  C   UNL     1      18.358  12.431  14.567  1.00  0.00     0.000 C 
BRANCH  11  12
ATOM     12  C   UNL     1      18.982  11.856  15.849  1.00  0.00     0.000 C 
BRANCH  12  13
ATOM     13  C   UNL     1      18.670  12.711  17.086  1.00  0.00     0.006 C 
BRANCH  13  14
ATOM     14  C   UNL     1      18.558  11.867  18.363  1.00  0.00     0.053 C 
BRANCH  14  15
ATOM     15  C   UNL     1      17.225  12.070  19.012  1.00  0.00     0.041 C 
ATOM     16  O   UNL     1      16.173  12.035  18.322  1.00  0.00    -0.550 OA
ATOM     17  O   UNL     1      17.142  12.263  20.386  1.00  0.00    -0.550 OA
ENDBRANCH  14  15
ENDBRANCH  13  14
ENDBRANCH  12  13
ENDBRANCH  11  12
ENDBRANCH  10  11
ENDBRANCH   9  10
ENDBRANCH   8   9
ENDBRANCH   7   8
ENDBRANCH   6   7
ENDBRANCH   5   6
ENDBRANCH   4   5
ENDBRANCH   3   4
ENDBRANCH   2   3
ENDBRANCH   1   2
BRANCH   1  18
ATOM     18  C   UNL     1      11.591  11.017   9.160  1.00  0.00     0.000 C 
BRANCH  18  19
ATOM     19  C   UNL     1      12.203  10.297  10.375  1.00  0.00     0.000 C 
BRANCH  19  20
ATOM     20  C   UNL     1      11.145   9.816  11.384  1.00  0.00     0.000 C 
BRANCH  20  21
ATOM     21  C   UNL     1       9.723  10.288  11.017  1.00  0.00     0.000 C 
BRANCH  21  22
ATOM     22  C   UNL     1       8.943  10.896  12.195  1.00  0.00     0.000 C 
BRANCH  22  23
ATOM     23  C   UNL     1       9.168  12.409  12.350  1.00  0.00     0.000 C 
BRANCH  23  24
ATOM     24  C   UNL     1       8.893  12.894  13.790  1.00  0.00    -0.000 C 
BRANCH  24  25
ATOM     25  C   UNL     1       8.958  11.768  14.837  1.00  0.00    -0.000 C 
BRANCH  25  26
ATOM     26  C   UNL     1      10.247  11.798  15.669  1.00  0.00    -0.000 C 
BRANCH  26  27
ATOM     27  C   UNL     1       9.935  11.952  17.165  1.00  0.00    -0.000 C 
BRANCH  27  28
ATOM     28  C   UNL     1      11.204  12.048  18.028  1.00  0.00    -0.000 C 
BRANCH  28  29
ATOM     29  C   UNL     1      10.972  11.880  19.542  1.00  0.00    -0.000 C 
BRANCH  29  30
ATOM     30  C   UNL     1      10.715  10.420  19.972  1.00  0.00    -0.000 C 
BRANCH  30  31
ATOM     31  C   UNL     1      10.654  10.262  21.499  1.00  0.00    -0.003 C 
ATOM     32  C   UNL     1      10.491  11.613  22.187  1.00  0.00     0.004 C 
ENDBRANCH  30  31
ENDBRANCH  29  30
ENDBRANCH  28  29
ENDBRANCH  27  28
ENDBRANCH  26  27
ENDBRANCH  25  26
ENDBRANCH  24  25
ENDBRANCH  23  24
ENDBRANCH  22  23
ENDBRANCH  21  22
ENDBRANCH  20  21
ENDBRANCH  19  20
ENDBRANCH  18  19
ENDBRANCH   1  18
TORSDOF 28
ENDMDL
MODEL 2
REMARK VINA RESULT:    -4.421      1.893      6.736
REMARK INTER + INTRA:         -15.014
REMARK INTER:                 -10.959
REMARK INTRA:                  -4.056
REMARK UNBOUND:                -3.357
REMARK SMILES CCCCCCCCCCCCCCCCCCCCCCCCCCCCCC(=O)[O-]
REMARK SMILES IDX 16 1 17 2 18 3 19 4 20 5 21 6 22 7 23 8 24 9 25 10 26 11
REMARK SMILES IDX 27 12 28 13 29 14 30 15 31 16 32 17 15 18 14 19 13 20 12 21
REMARK SMILES IDX 11 22 10 23 9 24 8 25 7 26 6 27 5 28 4 29 3 30 2 31 1 32
REMARK H PARENT
REMARK Flexibility Score: inf
ROOT
ATOM      1  C   UNL     1      13.330  11.006  13.621  1.00  0.00     0.000 C 
ENDROOT
BRANCH   1   2
ATOM      2  C   UNL     1      14.292  11.918  14.399  1.00  0.00     0.000 C 
BRANCH   2   3
ATOM      3  C   UNL     1      15.640  11.229  14.628  1.00  0.00     0.000 C 
BRANCH   3   4
ATOM      4  C   UNL     1      16.781  12.253  14.692  1.00  0.00     0.000 C 
BRANCH   4   5
ATOM      5  C   UNL     1      18.172  11.615  14.531  1.00  0.00     0.000 C 
BRANCH   5   6
ATOM      6  C   UNL     1      19.159  11.981  15.660  1.00  0.00     0.000 C 
BRANCH   6   7
ATOM      7  C   UNL     1      18.479  12.767  16.794  1.00  0.00     0.000 C 
BRANCH   7   8
ATOM      8  C   UNL     1      18.421  11.980  18.116  1.00  0.00     0.000 C 
BRANCH   8   9
ATOM      9  C   UNL     1      17.471  12.566  19.180  1.00  0.00     0.000 C 
BRANCH   9  10
ATOM     10  C   UNL     1      16.070  11.922  19.239  1.00  0.00     0.000 C 
BRANCH  10  11
ATOM     11  C   UNL     1      15.257  12.012  17.935  1.00  0.00     0.000 C 
BRANCH  11  12
ATOM     12  C   UNL     1      13.960  12.822  18.098  1.00  0.00     0.000 C 
BRANCH  12  13
ATOM     13  C   UNL     1      12.714  12.017  17.700  1.00  0.00     0.006 C 
BRANCH  13  14
ATOM     14  C   UNL     1      11.479  12.416  18.520  1.00  0.00     0.053 C 
BRANCH  14  15
ATOM     15  C   UNL     1      11.287  11.479  19.671  1.00  0.00     0.041 C 
ATOM     16  O   UNL     1      12.100  10.536  19.861  1.00  0.00    -0.550 OA
ATOM     17  O   UNL     1      10.232  11.668  20.554  1.00  0.00    -0.550 OA
ENDBRANCH  14  15
ENDBRANCH  13  14
ENDBRANCH  12  13
ENDBRANCH  11  12
ENDBRANCH  10  11
ENDBRANCH   9  10
ENDBRANCH   8   9
ENDBRANCH   7   8
ENDBRANCH   6   7
ENDBRANCH   5   6
ENDBRANCH   4   5
ENDBRANCH   3   4
ENDBRANCH   2   3
ENDBRANCH   1   2
BRANCH   1  18
ATOM     18  C   UNL     1      11.873  11.505  13.651  1.00  0.00     0.000 C 
BRANCH  18  19
ATOM     19  C   UNL     1      10.872  10.645  12.858  1.00  0.00     0.000 C 
BRANCH  19  20
ATOM     20  C   UNL     1       9.405  11.026  13.129  1.00  0.00     0.000 C 
BRANCH  20  21
ATOM     21  C   UNL     1       9.238  12.522  13.466  1.00  0.00     0.000 C 
BRANCH  21  22
ATOM     22  C   UNL     1       8.962  13.410  12.242  1.00  0.00     0.000 C 
BRANCH  22  23
ATOM     23  C   UNL     1       9.447  14.858  12.425  1.00  0.00     0.000 C 
BRANCH  23  24
ATOM     24  C   UNL     1      10.928  15.032  12.025  1.00  0.00    -0.000 C 
BRANCH  24  25
ATOM     25  C   UNL     1      11.128  15.307  10.524  1.00  0.00    -0.000 C 
BRANCH  25  26
ATOM     26  C   UNL     1      12.478  14.800   9.998  1.00  0.00    -0.000 C 
BRANCH  26  27
ATOM     27  C   UNL     1      13.000  13.636  10.853  1.00  0.00    -0.000 C 
BRANCH  27  28
ATOM     28  C   UNL     1      12.713  12.263  10.221  1.00  0.00    -0.000 C 
BRANCH  28  29
ATOM     29  C   UNL     1      12.711  12.246   8.680  1.00  0.00    -0.000 C 
BRANCH  29  30
ATOM     30  C   UNL     1      11.495  11.519   8.068  1.00  0.00    -0.000 C 
BRANCH  30  31
ATOM     31  C   UNL     1      10.271  11.544   8.996  1.00  0.00    -0.003 C 
ATOM     32  C   UNL     1       9.358  12.722   8.672  1.00  0.00     0.004 C 
ENDBRANCH  30  31
ENDBRANCH  29  30
ENDBRANCH  28  29
ENDBRANCH  27  28
ENDBRANCH  26  27
ENDBRANCH  25  26
ENDBRANCH  24  25
ENDBRANCH  23  24
ENDBRANCH  22  23
ENDBRANCH  21  22
ENDBRANCH  20  21
ENDBRANCH  19  20
ENDBRANCH  18  19
ENDBRANCH   1  18
TORSDOF 28
ENDMDL
MODEL 3
REMARK VINA RESULT:    -4.379      2.255      7.062
REMARK INTER + INTRA:         -14.903
REMARK INTER:                 -10.373
REMARK INTRA:                  -4.530
REMARK UNBOUND:                -3.357
REMARK SMILES CCCCCCCCCCCCCCCCCCCCCCCCCCCCCC(=O)[O-]
REMARK SMILES IDX 16 1 17 2 18 3 19 4 20 5 21 6 22 7 23 8 24 9 25 10 26 11
REMARK SMILES IDX 27 12 28 13 29 14 30 15 31 16 32 17 15 18 14 19 13 20 12 21
REMARK SMILES IDX 11 22 10 23 9 24 8 25 7 26 6 27 5 28 4 29 3 30 2 31 1 32
REMARK H PARENT
REMARK Flexibility Score: inf
ROOT
ATOM      1  C   UNL     1      14.827  11.079  14.635  1.00  0.00     0.000 C 
ENDROOT
BRANCH   1   2
ATOM      2  C   UNL     1      15.957  12.001  15.116  1.00  0.00     0.000 C 
BRANCH   2   3
ATOM      3  C   UNL     1      17.305  11.578  14.523  1.00  0.00     0.000 C 
BRANCH   3   4
ATOM      4  C   UNL     1      18.298  12.748  14.518  1.00  0.00     0.000 C 
BRANCH   4   5
ATOM      5  C   UNL     1      19.059  12.897  15.847  1.00  0.00     0.000 C 
BRANCH   5   6
ATOM      6  C   UNL     1      19.436  11.551  16.503  1.00  0.00     0.000 C 
BRANCH   6   7
ATOM      7  C   UNL     1      19.095  11.520  18.003  1.00  0.00     0.000 C 
BRANCH   7   8
ATOM      8  C   UNL     1      17.991  12.523  18.385  1.00  0.00     0.000 C 
BRANCH   8   9
ATOM      9  C   UNL     1      16.675  11.886  18.876  1.00  0.00     0.000 C 
BRANCH   9  10
ATOM     10  C   UNL     1      15.386  12.603  18.423  1.00  0.00     0.000 C 
BRANCH  10  11
ATOM     11  C   UNL     1      14.130  11.715  18.375  1.00  0.00     0.000 C 
BRANCH  11  12
ATOM     12  C   UNL     1      12.984  12.351  17.570  1.00  0.00     0.000 C 
BRANCH  12  13
ATOM     13  C   UNL     1      11.656  12.350  18.344  1.00  0.00     0.006 C 
BRANCH  13  14
ATOM     14  C   UNL     1      11.552  11.167  19.316  1.00  0.00     0.053 C 
BRANCH  14  15
ATOM     15  C   UNL     1      10.118  10.847  19.602  1.00  0.00     0.041 C 
ATOM     16  O   UNL     1       9.703  10.810  20.790  1.00  0.00    -0.550 OA
ATOM     17  O   UNL     1       9.233  10.622  18.555  1.00  0.00    -0.550 OA
ENDBRANCH  14  15
ENDBRANCH  13  14
ENDBRANCH  12  13
ENDBRANCH  11  12
ENDBRANCH  10  11
ENDBRANCH   9  10
ENDBRANCH   8   9
ENDBRANCH   7   8
ENDBRANCH   6   7
ENDBRANCH   5   6
ENDBRANCH   4   5
ENDBRANCH   3   4
ENDBRANCH   2   3
ENDBRANCH   1   2
BRANCH   1  18
ATOM     18  C   UNL     1      13.736  11.826  13.845  1.00  0.00     0.000 C 
BRANCH  18  19
ATOM     19  C   UNL     1      12.592  10.942  13.315  1.00  0.00     0.000 C 
BRANCH  19  20
ATOM     20  C   UNL     1      11.215  11.341  13.875  1.00  0.00     0.000 C 
BRANCH  20  21
ATOM     21  C   UNL     1      10.056  10.892  12.961  1.00  0.00     0.000 C 
BRANCH  21  22
ATOM     22  C   UNL     1       9.375  12.044  12.204  1.00  0.00     0.000 C 
BRANCH  22  23
ATOM     23  C   UNL     1       9.263  11.790  10.692  1.00  0.00     0.000 C 
BRANCH  23  24
ATOM     24  C   UNL     1      10.465  10.990  10.144  1.00  0.00    -0.000 C 
BRANCH  24  25
ATOM     25  C   UNL     1      10.902  11.432   8.736  1.00  0.00    -0.000 C 
BRANCH  25  26
ATOM     26  C   UNL     1      12.394  11.782   8.657  1.00  0.00    -0.000 C 
BRANCH  26  27
ATOM     27  C   UNL     1      12.962  12.093  10.049  1.00  0.00    -0.000 C 
BRANCH  27  28
ATOM     28  C   UNL     1      13.067  13.603  10.323  1.00  0.00    -0.000 C 
BRANCH  28  29
ATOM     29  C   UNL     1      12.158  14.121  11.455  1.00  0.00    -0.000 C 
BRANCH  29  30
ATOM     30  C   UNL     1      11.066  15.100  10.974  1.00  0.00    -0.000 C 
BRANCH  30  31
ATOM     31  C   UNL     1      11.166  15.396   9.470  1.00  0.00    -0.003 C 
ATOM     32  C   UNL     1       9.901  14.960   8.738  1.00  0.00     0.004 C 
ENDBRANCH  30  31
ENDBRANCH  29  30
ENDBRANCH  28  29
ENDBRANCH  27  28
ENDBRANCH  26  27
ENDBRANCH  25  26
ENDBRANCH  24  25
ENDBRANCH  23  24
ENDBRANCH  22  23
ENDBRANCH  21  22
ENDBRANCH  20  21
ENDBRANCH  19  20
ENDBRANCH  18  19
ENDBRANCH   1  18
TORSDOF 28
ENDMDL
MODEL 4
REMARK VINA RESULT:    -4.338      2.901      7.686
REMARK INTER + INTRA:         -14.796
REMARK INTER:                 -11.311
REMARK INTRA:                  -3.485
REMARK UNBOUND:                -3.357
REMARK SMILES CCCCCCCCCCCCCCCCCCCCCCCCCCCCCC(=O)[O-]
REMARK SMILES IDX 16 1 17 2 18 3 19 4 20 5 21 6 22 7 23 8 24 9 25 10 26 11
REMARK SMILES IDX 27 12 28 13 29 14 30 15 31 16 32 17 15 18 14 19 13 20 12 21
REMARK SMILES IDX 11 22 10 23 9 24 8 25 7 26 6 27 5 28 4 29 3 30 2 31 1 32
REMARK H PARENT
REMARK Flexibility Score: inf
ROOT
ATOM      1  C   UNL     1      18.645  11.624  14.945  1.00  0.00     0.000 C 
ENDROOT
BRANCH   1   2
ATOM      2  C   UNL     1      17.327  11.794  14.174  1.00  0.00     0.000 C 
BRANCH   2   3
ATOM      3  C   UNL     1      16.144  11.954  15.134  1.00  0.00     0.000 C 
BRANCH   3   4
ATOM      4  C   UNL     1      14.957  11.086  14.696  1.00  0.00     0.000 C 
BRANCH   4   5
ATOM      5  C   UNL     1      13.758  11.913  14.198  1.00  0.00     0.000 C 
BRANCH   5   6
ATOM      6  C   UNL     1      12.690  11.078  13.458  1.00  0.00     0.000 C 
BRANCH   6   7
ATOM      7  C   UNL     1      11.259  11.491  13.846  1.00  0.00     0.000 C 
BRANCH   7   8
ATOM      8  C   UNL     1      10.219  11.114  12.776  1.00  0.00     0.000 C 
BRANCH   8   9
ATOM      9  C   UNL     1       9.594  12.310  12.028  1.00  0.00     0.000 C 
BRANCH   9  10
ATOM     10  C   UNL     1       9.656  13.659  12.775  1.00  0.00     0.000 C 
BRANCH  10  11
ATOM     11  C   UNL     1      10.403  14.781  12.032  1.00  0.00     0.000 C 
BRANCH  11  12
ATOM     12  C   UNL     1      10.801  14.382  10.601  1.00  0.00     0.000 C 
BRANCH  12  13
ATOM     13  C   UNL     1      12.310  14.530  10.351  1.00  0.00     0.006 C 
BRANCH  13  14
ATOM     14  C   UNL     1      13.072  13.223  10.609  1.00  0.00     0.053 C 
BRANCH  14  15
ATOM     15  C   UNL     1      12.656  12.171   9.629  1.00  0.00     0.041 C 
ATOM     16  O   UNL     1      12.347  11.019  10.032  1.00  0.00    -0.550 OA
ATOM     17  O   UNL     1      12.576  12.472   8.276  1.00  0.00    -0.550 OA
ENDBRANCH  14  15
ENDBRANCH  13  14
ENDBRANCH  12  13
ENDBRANCH  11  12
ENDBRANCH  10  11
ENDBRANCH   9  10
ENDBRANCH   8   9
ENDBRANCH   7   8
ENDBRANCH   6   7
ENDBRANCH   5   6
ENDBRANCH   4   5
ENDBRANCH   3   4
ENDBRANCH   2   3
ENDBRANCH   1   2
BRANCH   1  18
ATOM     18  C   UNL     1      19.194  12.951  15.500  1.00  0.00     0.000 C 
BRANCH  18  19
ATOM     19  C   UNL     1      19.555  12.935  16.996  1.00  0.00     0.000 C 
BRANCH  19  20
ATOM     20  C   UNL     1      19.374  11.550  17.643  1.00  0.00     0.000 C 
BRANCH  20  21
ATOM     21  C   UNL     1      18.381  11.577  18.825  1.00  0.00     0.000 C 
BRANCH  21  22
ATOM     22  C   UNL     1      17.476  12.819  18.851  1.00  0.00     0.000 C 
BRANCH  22  23
ATOM     23  C   UNL     1      16.039  12.509  19.303  1.00  0.00     0.000 C 
BRANCH  23  24
ATOM     24  C   UNL     1      15.186  11.912  18.163  1.00  0.00    -0.000 C 
BRANCH  24  25
ATOM     25  C   UNL     1      13.842  12.636  17.962  1.00  0.00    -0.000 C 
BRANCH  25  26
ATOM     26  C   UNL     1      12.631  11.730  18.222  1.00  0.00    -0.000 C 
BRANCH  26  27
ATOM     27  C   UNL     1      11.324  12.537  18.199  1.00  0.00    -0.000 C 
BRANCH  27  28
ATOM     28  C   UNL     1      10.749  12.774  19.606  1.00  0.00    -0.000 C 
BRANCH  28  29
ATOM     29  C   UNL     1      10.026  11.562  20.223  1.00  0.00    -0.000 C 
BRANCH  29  30
ATOM     30  C   UNL     1      10.819  10.878  21.358  1.00  0.00    -0.000 C 
BRANCH  30  31
ATOM     31  C   UNL     1      11.101   9.397  21.064  1.00  0.00    -0.003 C 
ATOM     32  C   UNL     1      10.389   8.941  19.795  1.00  0.00     0.004 C 
ENDBRANCH  30  31
ENDBRANCH  29  30
ENDBRANCH  28  29
ENDBRANCH  27  28
ENDBRANCH  26  27
ENDBRANCH  25  26
ENDBRANCH  24  25
ENDBRANCH  23  24
ENDBRANCH  22  23
ENDBRANCH  21  22
ENDBRANCH  20  21
ENDBRANCH  19  20
ENDBRANCH  18  19
ENDBRANCH   1  18
TORSDOF 28
ENDMDL
MODEL 5
REMARK VINA RESULT:    -4.328      2.152      7.246
REMARK INTER + INTRA:         -14.771
REMARK INTER:                 -10.978
REMARK INTRA:                  -3.793
REMARK UNBOUND:                -3.357
REMARK SMILES CCCCCCCCCCCCCCCCCCCCCCCCCCCCCC(=O)[O-]
REMARK SMILES IDX 16 1 17 2 18 3 19 4 20 5 21 6 22 7 23 8 24 9 25 10 26 11
REMARK SMILES IDX 27 12 28 13 29 14 30 15 31 16 32 17 15 18 14 19 13 20 12 21
REMARK SMILES IDX 11 22 10 23 9 24 8 25 7 26 6 27 5 28 4 29 3 30 2 31 1 32
REMARK H PARENT
REMARK Flexibility Score: inf
ROOT
ATOM      1  C   UNL     1      16.308  11.827  15.132  1.00  0.00     0.000 C 
ENDROOT
BRANCH   1   2
ATOM      2  C   UNL     1      17.619  11.802  14.331  1.00  0.00     0.000 C 
BRANCH   2   3
ATOM      3  C   UNL     1      18.658  12.745  14.944  1.00  0.00     0.000 C 
BRANCH   3   4
ATOM      4  C   UNL     1      19.360  12.090  16.140  1.00  0.00     0.000 C 
BRANCH   4   5
ATOM      5  C   UNL     1      19.062  12.797  17.474  1.00  0.00     0.000 C 
BRANCH   5   6
ATOM      6  C   UNL     1      18.235  11.944  18.460  1.00  0.00     0.000 C 
BRANCH   6   7
ATOM      7  C   UNL     1      16.972  12.676  18.944  1.00  0.00     0.000 C 
BRANCH   7   8
ATOM      8  C   UNL     1      15.678  11.899  18.641  1.00  0.00     0.000 C 
BRANCH   8   9
ATOM      9  C   UNL     1      14.529  12.751  18.064  1.00  0.00     0.000 C 
BRANCH   9  10
ATOM     10  C   UNL     1      13.219  11.986  17.783  1.00  0.00     0.000 C 
BRANCH  10  11
ATOM     11  C   UNL     1      11.937  12.692  18.261  1.00  0.00     0.000 C 
BRANCH  11  12
ATOM     12  C   UNL     1      10.664  11.885  17.954  1.00  0.00     0.000 C 
BRANCH  12  13
ATOM     13  C   UNL     1      10.139  11.132  19.186  1.00  0.00     0.006 C 
BRANCH  13  14
ATOM     14  C   UNL     1      10.969  11.427  20.444  1.00  0.00     0.053 C 
BRANCH  14  15
ATOM     15  C   UNL     1      10.603  10.484  21.547  1.00  0.00     0.041 C 
ATOM     16  O   UNL     1      10.107  10.925  22.618  1.00  0.00    -0.550 OA
ATOM     17  O   UNL     1      10.777   9.116  21.381  1.00  0.00    -0.550 OA
ENDBRANCH  14  15
ENDBRANCH  13  14
ENDBRANCH  12  13
ENDBRANCH  11  12
ENDBRANCH  10  11
ENDBRANCH   9  10
ENDBRANCH   8   9
ENDBRANCH   7   8
ENDBRANCH   6   7
ENDBRANCH   5   6
ENDBRANCH   4   5
ENDBRANCH   3   4
ENDBRANCH   2   3
ENDBRANCH   1   2
BRANCH   1  18
ATOM     18  C   UNL     1      15.063  12.012  14.244  1.00  0.00     0.000 C 
BRANCH  18  19
ATOM     19  C   UNL     1      13.937  10.988  14.477  1.00  0.00     0.000 C 
BRANCH  19  20
ATOM     20  C   UNL     1      12.868  11.009  13.369  1.00  0.00     0.000 C 
BRANCH  20  21
ATOM     21  C   UNL     1      11.515  11.560  13.866  1.00  0.00     0.000 C 
BRANCH  21  22
ATOM     22  C   UNL     1      10.294  10.949  13.160  1.00  0.00     0.000 C 
BRANCH  22  23
ATOM     23  C   UNL     1      10.658  10.194  11.870  1.00  0.00     0.000 C 
BRANCH  23  24
ATOM     24  C   UNL     1       9.874  10.718  10.647  1.00  0.00    -0.000 C 
BRANCH  24  25
ATOM     25  C   UNL     1      10.772  11.057   9.445  1.00  0.00    -0.000 C 
BRANCH  25  26
ATOM     26  C   UNL     1      12.269  10.952   9.768  1.00  0.00    -0.000 C 
BRANCH  26  27
ATOM     27  C   UNL     1      12.990  12.276   9.475  1.00  0.00    -0.000 C 
BRANCH  27  28
ATOM     28  C   UNL     1      13.212  13.121  10.741  1.00  0.00    -0.000 C 
BRANCH  28  29
ATOM     29  C   UNL     1      12.388  14.422  10.804  1.00  0.00    -0.000 C 
BRANCH  29  30
ATOM     30  C   UNL     1      11.179  14.437   9.845  1.00  0.00    -0.000 C 
BRANCH  30  31
ATOM     31  C   UNL     1       9.839  14.516  10.594  1.00  0.00    -0.003 C 
ATOM     32  C   UNL     1      10.052  14.534  12.104  1.00  0.00     0.004 C 
ENDBRANCH  30  31
ENDBRANCH  29  30
ENDBRANCH  28  29
ENDBRANCH  27  28
ENDBRANCH  26  27
ENDBRANCH  25  26
ENDBRANCH  24  25
ENDBRANCH  23  24
ENDBRANCH  22  23
ENDBRANCH  21  22
ENDBRANCH  20  21
ENDBRANCH  19  20
ENDBRANCH  18  19
ENDBRANCH   1  18
TORSDOF 28
ENDMDL
MODEL 6
REMARK VINA RESULT:    -4.302      2.435      7.590
REMARK INTER + INTRA:         -14.700
REMARK INTER:                 -11.322
REMARK INTRA:                  -3.378
REMARK UNBOUND:                -3.357
REMARK SMILES CCCCCCCCCCCCCCCCCCCCCCCCCCCCCC(=O)[O-]
REMARK SMILES IDX 16 1 17 2 18 3 19 4 20 5 21 6 22 7 23 8 24 9 25 10 26 11
REMARK SMILES IDX 27 12 28 13 29 14 30 15 31 16 32 17 15 18 14 19 13 20 12 21
REMARK SMILES IDX 11 22 10 23 9 24 8 25 7 26 6 27 5 28 4 29 3 30 2 31 1 32
REMARK H PARENT
REMARK Flexibility Score: inf
ROOT
ATOM      1  C   UNL     1      16.418  11.433  14.754  1.00  0.00     0.000 C 
ENDROOT
BRANCH   1   2
ATOM      2  C   UNL     1      17.574  12.384  14.408  1.00  0.00     0.000 C 
BRANCH   2   3
ATOM      3  C   UNL     1      18.866  11.962  15.114  1.00  0.00     0.000 C 
BRANCH   3   4
ATOM      4  C   UNL     1      19.050  12.725  16.432  1.00  0.00     0.000 C 
BRANCH   4   5
ATOM      5  C   UNL     1      18.736  11.869  17.672  1.00  0.00     0.000 C 
BRANCH   5   6
ATOM      6  C   UNL     1      17.924  12.613  18.754  1.00  0.00     0.000 C 
BRANCH   6   7
ATOM      7  C   UNL     1      16.562  11.948  19.017  1.00  0.00     0.000 C 
BRANCH   7   8
ATOM      8  C   UNL     1      15.491  12.352  17.987  1.00  0.00     0.000 C 
BRANCH   8   9
ATOM      9  C   UNL     1      14.102  11.722  18.214  1.00  0.00     0.000 C 
BRANCH   9  10
ATOM     10  C   UNL     1      12.912  12.538  17.665  1.00  0.00     0.000 C 
BRANCH  10  11
ATOM     11  C   UNL     1      11.609  12.414  18.476  1.00  0.00     0.000 C 
BRANCH  11  12
ATOM     12  C   UNL     1      10.475  11.748  17.680  1.00  0.00     0.000 C 
BRANCH  12  13
ATOM     13  C   UNL     1       9.634  10.796  18.546  1.00  0.00     0.006 C 
BRANCH  13  14
ATOM     14  C   UNL     1      10.500   9.964  19.502  1.00  0.00     0.053 C 
BRANCH  14  15
ATOM     15  C   UNL     1       9.967   8.570  19.614  1.00  0.00     0.041 C 
ATOM     16  O   UNL     1       9.668   7.922  18.577  1.00  0.00    -0.550 OA
ATOM     17  O   UNL     1       9.832   7.975  20.862  1.00  0.00    -0.550 OA
ENDBRANCH  14  15
ENDBRANCH  13  14
ENDBRANCH  12  13
ENDBRANCH  11  12
ENDBRANCH  10  11
ENDBRANCH   9  10
ENDBRANCH   8   9
ENDBRANCH   7   8
ENDBRANCH   6   7
ENDBRANCH   5   6
ENDBRANCH   4   5
ENDBRANCH   3   4
ENDBRANCH   2   3
ENDBRANCH   1   2
BRANCH   1  18
ATOM     18  C   UNL     1      15.031  12.054  14.501  1.00  0.00     0.000 C 
BRANCH  18  19
ATOM     19  C   UNL     1      13.874  11.045  14.391  1.00  0.00     0.000 C 
BRANCH  19  20
ATOM     20  C   UNL     1      12.645  11.617  13.661  1.00  0.00     0.000 C 
BRANCH  20  21
ATOM     21  C   UNL     1      12.270  10.798  12.408  1.00  0.00     0.000 C 
BRANCH  21  22
ATOM     22  C   UNL     1      10.774  10.460  12.308  1.00  0.00     0.000 C 
BRANCH  22  23
ATOM     23  C   UNL     1       9.874  11.489  13.013  1.00  0.00     0.000 C 
BRANCH  23  24
ATOM     24  C   UNL     1       9.417  12.614  12.060  1.00  0.00    -0.000 C 
BRANCH  24  25
ATOM     25  C   UNL     1       9.354  13.997  12.732  1.00  0.00    -0.000 C 
BRANCH  25  26
ATOM     26  C   UNL     1      10.373  14.989  12.154  1.00  0.00    -0.000 C 
BRANCH  26  27
ATOM     27  C   UNL     1      11.253  14.318  11.089  1.00  0.00    -0.000 C 
BRANCH  27  28
ATOM     28  C   UNL     1      11.117  14.977   9.706  1.00  0.00    -0.000 C 
BRANCH  28  29
ATOM     29  C   UNL     1      10.381  14.127   8.652  1.00  0.00    -0.000 C 
BRANCH  29  30
ATOM     30  C   UNL     1      11.265  13.040   8.005  1.00  0.00    -0.000 C 
BRANCH  30  31
ATOM     31  C   UNL     1      11.436  11.809   8.908  1.00  0.00    -0.003 C 
ATOM     32  C   UNL     1      12.851  11.248   8.814  1.00  0.00     0.004 C 
ENDBRANCH  30  31
ENDBRANCH  29  30
ENDBRANCH  28  29
ENDBRANCH  27  28
ENDBRANCH  26  27
ENDBRANCH  25  26
ENDBRANCH  24  25
ENDBRANCH  23  24
ENDBRANCH  22  23
ENDBRANCH  21  22
ENDBRANCH  20  21
ENDBRANCH  19  20
ENDBRANCH  18  19
ENDBRANCH   1  18
TORSDOF 28
ENDMDL
MODEL 7
REMARK VINA RESULT:    -4.260      2.213      6.872
REMARK INTER + INTRA:         -14.591
REMARK INTER:                 -11.385
REMARK INTRA:                  -3.206
REMARK UNBOUND:                -3.357
REMARK SMILES CCCCCCCCCCCCCCCCCCCCCCCCCCCCCC(=O)[O-]
REMARK SMILES IDX 16 1 17 2 18 3 19 4 20 5 21 6 22 7 23 8 24 9 25 10 26 11
REMARK SMILES IDX 27 12 28 13 29 14 30 15 31 16 32 17 15 18 14 19 13 20 12 21
REMARK SMILES IDX 11 22 10 23 9 24 8 25 7 26 6 27 5 28 4 29 3 30 2 31 1 32
REMARK H PARENT
REMARK Flexibility Score: inf
ROOT
ATOM      1  C   UNL     1       8.976  12.827  17.776  1.00  0.00     0.000 C 
ENDROOT
BRANCH   1   2
ATOM      2  C   UNL     1       9.009  12.460  19.268  1.00  0.00     0.000 C 
BRANCH   2   3
ATOM      3  C   UNL     1      10.416  12.635  19.848  1.00  0.00     0.000 C 
BRANCH   3   4
ATOM      4  C   UNL     1      11.092  11.277  20.078  1.00  0.00     0.000 C 
BRANCH   4   5
ATOM      5  C   UNL     1      12.400  11.114  19.284  1.00  0.00     0.000 C 
BRANCH   5   6
ATOM      6  C   UNL     1      12.469  11.988  18.012  1.00  0.00     0.000 C 
BRANCH   6   7
ATOM      7  C   UNL     1      13.684  12.933  18.023  1.00  0.00     0.000 C 
BRANCH   7   8
ATOM      8  C   UNL     1      14.958  12.274  17.465  1.00  0.00     0.000 C 
BRANCH   8   9
ATOM      9  C   UNL     1      16.018  11.908  18.525  1.00  0.00     0.000 C 
BRANCH   9  10
ATOM     10  C   UNL     1      17.398  12.570  18.331  1.00  0.00     0.000 C 
BRANCH  10  11
ATOM     11  C   UNL     1      18.594  11.600  18.358  1.00  0.00     0.000 C 
BRANCH  11  12
ATOM     12  C   UNL     1      19.639  11.916  17.274  1.00  0.00     0.000 C 
BRANCH  12  13
ATOM     13  C   UNL     1      19.052  12.745  16.120  1.00  0.00     0.006 C 
BRANCH  13  14
ATOM     14  C   UNL     1      18.722  11.881  14.895  1.00  0.00     0.053 C 
BRANCH  14  15
ATOM     15  C   UNL     1      18.452  12.744  13.702  1.00  0.00     0.041 C 
ATOM     16  O   UNL     1      17.272  12.914  13.298  1.00  0.00    -0.550 OA
ATOM     17  O   UNL     1      19.501  13.387  13.057  1.00  0.00    -0.550 OA
ENDBRANCH  14  15
ENDBRANCH  13  14
ENDBRANCH  12  13
ENDBRANCH  11  12
ENDBRANCH  10  11
ENDBRANCH   9  10
ENDBRANCH   8   9
ENDBRANCH   7   8
ENDBRANCH   6   7
ENDBRANCH   5   6
ENDBRANCH   4   5
ENDBRANCH   3   4
ENDBRANCH   2   3
ENDBRANCH   1   2
BRANCH   1  18
ATOM     18  C   UNL     1       8.948  11.595  16.853  1.00  0.00     0.000 C 
BRANCH  18  19
ATOM     19  C   UNL     1       8.881  11.908  15.347  1.00  0.00     0.000 C 
BRANCH  19  20
ATOM     20  C   UNL     1      10.211  11.645  14.618  1.00  0.00     0.000 C 
BRANCH  20  21
ATOM     21  C   UNL     1      10.010  10.935  13.263  1.00  0.00     0.000 C 
BRANCH  21  22
ATOM     22  C   UNL     1      11.318  10.478  12.598  1.00  0.00     0.000 C 
BRANCH  22  23
ATOM     23  C   UNL     1      11.193  10.306  11.075  1.00  0.00     0.000 C 
BRANCH  23  24
ATOM     24  C   UNL     1       9.836  10.816  10.540  1.00  0.00    -0.000 C 
BRANCH  24  25
ATOM     25  C   UNL     1       9.888  11.259   9.067  1.00  0.00    -0.000 C 
BRANCH  25  26
ATOM     26  C   UNL     1       9.509  12.734   8.873  1.00  0.00    -0.000 C 
BRANCH  26  27
ATOM     27  C   UNL     1      10.722  13.558   8.417  1.00  0.00    -0.000 C 
BRANCH  27  28
ATOM     28  C   UNL     1      11.955  13.341   9.312  1.00  0.00    -0.000 C 
BRANCH  28  29
ATOM     29  C   UNL     1      12.425  14.591  10.082  1.00  0.00    -0.000 C 
BRANCH  29  30
ATOM     30  C   UNL     1      11.301  15.289  10.877  1.00  0.00    -0.000 C 
BRANCH  30  31
ATOM     31  C   UNL     1      10.810  14.443  12.061  1.00  0.00    -0.003 C 
ATOM     32  C   UNL     1       9.286  14.397  12.111  1.00  0.00     0.004 C 
ENDBRANCH  30  31
ENDBRANCH  29  30
ENDBRANCH  28  29
ENDBRANCH  27  28
ENDBRANCH  26  27
ENDBRANCH  25  26
ENDBRANCH  24  25
ENDBRANCH  23  24
ENDBRANCH  22  23
ENDBRANCH  21  22
ENDBRANCH  20  21
ENDBRANCH  19  20
ENDBRANCH  18  19
ENDBRANCH   1  18
TORSDOF 28
ENDMDL
MODEL 8
REMARK VINA RESULT:    -4.141      2.228      7.759
REMARK INTER + INTRA:         -14.275
REMARK INTER:                 -10.835
REMARK INTRA:                  -3.440
REMARK UNBOUND:                -3.357
REMARK SMILES CCCCCCCCCCCCCCCCCCCCCCCCCCCCCC(=O)[O-]
REMARK SMILES IDX 16 1 17 2 18 3 19 4 20 5 21 6 22 7 23 8 24 9 25 10 26 11
REMARK SMILES IDX 27 12 28 13 29 14 30 15 31 16 32 17 15 18 14 19 13 20 12 21
REMARK SMILES IDX 11 22 10 23 9 24 8 25 7 26 6 27 5 28 4 29 3 30 2 31 1 32
REMARK H PARENT
REMARK Flexibility Score: inf
ROOT
ATOM      1  C   UNL     1      18.636  11.951  14.602  1.00  0.00     0.000 C 
ENDROOT
BRANCH   1   2
ATOM      2  C   UNL     1      19.139  12.785  15.791  1.00  0.00     0.000 C 
BRANCH   2   3
ATOM      3  C   UNL     1      19.903  11.913  16.793  1.00  0.00     0.000 C 
BRANCH   3   4
ATOM      4  C   UNL     1      19.056  11.636  18.042  1.00  0.00     0.000 C 
BRANCH   4   5
ATOM      5  C   UNL     1      18.083  12.780  18.375  1.00  0.00     0.000 C 
BRANCH   5   6
ATOM      6  C   UNL     1      17.171  12.489  19.587  1.00  0.00     0.000 C 
BRANCH   6   7
ATOM      7  C   UNL     1      15.960  11.620  19.206  1.00  0.00     0.000 C 
BRANCH   7   8
ATOM      8  C   UNL     1      14.926  12.377  18.352  1.00  0.00     0.000 C 
BRANCH   8   9
ATOM      9  C   UNL     1      13.532  11.722  18.288  1.00  0.00     0.000 C 
BRANCH   9  10
ATOM     10  C   UNL     1      12.379  12.664  17.882  1.00  0.00     0.000 C 
BRANCH  10  11
ATOM     11  C   UNL     1      10.997  11.994  17.777  1.00  0.00     0.000 C 
BRANCH  11  12
ATOM     12  C   UNL     1      10.101  12.288  18.991  1.00  0.00     0.000 C 
BRANCH  12  13
ATOM     13  C   UNL     1      10.536  11.506  20.241  1.00  0.00     0.006 C 
BRANCH  13  14
ATOM     14  C   UNL     1       9.513  10.433  20.639  1.00  0.00     0.053 C 
BRANCH  14  15
ATOM     15  C   UNL     1      10.125   9.070  20.559  1.00  0.00     0.041 C 
ATOM     16  O   UNL     1      10.987   8.712  21.404  1.00  0.00    -0.550 OA
ATOM     17  O   UNL     1       9.717   8.181  19.572  1.00  0.00    -0.550 OA
ENDBRANCH  14  15
ENDBRANCH  13  14
ENDBRANCH  12  13
ENDBRANCH  11  12
ENDBRANCH  10  11
ENDBRANCH   9  10
ENDBRANCH   8   9
ENDBRANCH   7   8
ENDBRANCH   6   7
ENDBRANCH   5   6
ENDBRANCH   4   5
ENDBRANCH   3   4
ENDBRANCH   2   3
ENDBRANCH   1   2
BRANCH   1  18
ATOM     18  C   UNL     1      17.177  12.265  14.222  1.00  0.00     0.000 C 
BRANCH  18  19
ATOM     19  C   UNL     1      16.113  11.495  15.024  1.00  0.00     0.000 C 
BRANCH  19  20
ATOM     20  C   UNL     1      14.679  11.980  14.743  1.00  0.00     0.000 C 
BRANCH  20  21
ATOM     21  C   UNL     1      13.751  10.839  14.279  1.00  0.00     0.000 C 
BRANCH  21  22
ATOM     22  C   UNL     1      12.545  11.312  13.452  1.00  0.00     0.000 C 
BRANCH  22  23
ATOM     23  C   UNL     1      12.294  10.453  12.202  1.00  0.00     0.000 C 
BRANCH  23  24
ATOM     24  C   UNL     1      10.812  10.044  12.062  1.00  0.00    -0.000 C 
BRANCH  24  25
ATOM     25  C   UNL     1      10.073  10.798  10.942  1.00  0.00    -0.000 C 
BRANCH  25  26
ATOM     26  C   UNL     1       8.997  11.755  11.474  1.00  0.00    -0.000 C 
BRANCH  26  27
ATOM     27  C   UNL     1       9.341  13.213  11.134  1.00  0.00    -0.000 C 
BRANCH  27  28
ATOM     28  C   UNL     1      10.253  13.867  12.185  1.00  0.00    -0.000 C 
BRANCH  28  29
ATOM     29  C   UNL     1      11.015  15.115  11.696  1.00  0.00    -0.000 C 
BRANCH  29  30
ATOM     30  C   UNL     1      11.808  14.886  10.392  1.00  0.00    -0.000 C 
BRANCH  30  31
ATOM     31  C   UNL     1      12.827  13.744  10.519  1.00  0.00    -0.003 C 
ATOM     32  C   UNL     1      12.710  12.768   9.352  1.00  0.00     0.004 C 
ENDBRANCH  30  31
ENDBRANCH  29  30
ENDBRANCH  28  29
ENDBRANCH  27  28
ENDBRANCH  26  27
ENDBRANCH  25  26
ENDBRANCH  24  25
ENDBRANCH  23  24
ENDBRANCH  22  23
ENDBRANCH  21  22
ENDBRANCH  20  21
ENDBRANCH  19  20
ENDBRANCH  18  19
ENDBRANCH   1  18
TORSDOF 28
ENDMDL
MODEL 9
REMARK VINA RESULT:    -4.123      2.799      7.521
REMARK INTER + INTRA:         -14.230
REMARK INTER:                 -11.335
REMARK INTRA:                  -2.895
REMARK UNBOUND:                -3.357
REMARK SMILES CCCCCCCCCCCCCCCCCCCCCCCCCCCCCC(=O)[O-]
REMARK SMILES IDX 16 1 17 2 18 3 19 4 20 5 21 6 22 7 23 8 24 9 25 10 26 11
REMARK SMILES IDX 27 12 28 13 29 14 30 15 31 16 32 17 15 18 14 19 13 20 12 21
REMARK SMILES IDX 11 22 10 23 9 24 8 25 7 26 6 27 5 28 4 29 3 30 2 31 1 32
REMARK H PARENT
REMARK Flexibility Score: inf
ROOT
ATOM      1  C   UNL     1      19.468  12.522  16.018  1.00  0.00     0.000 C 
ENDROOT
BRANCH   1   2
ATOM      2  C   UNL     1      18.641  11.790  14.950  1.00  0.00     0.000 C 
BRANCH   2   3
ATOM      3  C   UNL     1      17.252  12.418  14.802  1.00  0.00     0.000 C 
BRANCH   3   4
ATOM      4  C   UNL     1      16.180  11.342  14.581  1.00  0.00     0.000 C 
BRANCH   4   5
ATOM      5  C   UNL     1      14.747  11.882  14.733  1.00  0.00     0.000 C 
BRANCH   5   6
ATOM      6  C   UNL     1      13.662  10.933  14.179  1.00  0.00     0.000 C 
BRANCH   6   7
ATOM      7  C   UNL     1      12.896  11.554  12.997  1.00  0.00     0.000 C 
BRANCH   7   8
ATOM      8  C   UNL     1      12.195  10.500  12.120  1.00  0.00     0.000 C 
BRANCH   8   9
ATOM      9  C   UNL     1      11.874  10.961  10.684  1.00  0.00     0.000 C 
BRANCH   9  10
ATOM     10  C   UNL     1      12.853  11.994  10.089  1.00  0.00     0.000 C 
BRANCH  10  11
ATOM     11  C   UNL     1      12.199  13.088   9.225  1.00  0.00     0.000 C 
BRANCH  11  12
ATOM     12  C   UNL     1      10.670  12.950   9.150  1.00  0.00     0.000 C 
BRANCH  12  13
ATOM     13  C   UNL     1       9.946  13.998  10.011  1.00  0.00     0.006 C 
BRANCH  13  14
ATOM     14  C   UNL     1      10.683  14.277  11.328  1.00  0.00     0.053 C 
BRANCH  14  15
ATOM     15  C   UNL     1       9.742  14.182  12.487  1.00  0.00     0.041 C 
ATOM     16  O   UNL     1       8.918  15.107  12.711  1.00  0.00    -0.550 OA
ATOM     17  O   UNL     1       9.752  13.056  13.301  1.00  0.00    -0.550 OA
ENDBRANCH  14  15
ENDBRANCH  13  14
ENDBRANCH  12  13
ENDBRANCH  11  12
ENDBRANCH  10  11
ENDBRANCH   9  10
ENDBRANCH   8   9
ENDBRANCH   7   8
ENDBRANCH   6   7
ENDBRANCH   5   6
ENDBRANCH   4   5
ENDBRANCH   3   4
ENDBRANCH   2   3
ENDBRANCH   1   2
BRANCH   1  18
ATOM     18  C   UNL     1      18.670  12.814  17.303  1.00  0.00     0.000 C 
BRANCH  18  19
ATOM     19  C   UNL     1      18.711  11.701  18.365  1.00  0.00     0.000 C 
BRANCH  19  20
ATOM     20  C   UNL     1      17.554  11.792  19.376  1.00  0.00     0.000 C 
BRANCH  20  21
ATOM     21  C   UNL     1      16.404  12.691  18.876  1.00  0.00     0.000 C 
BRANCH  21  22
ATOM     22  C   UNL     1      15.216  11.914  18.285  1.00  0.00     0.000 C 
BRANCH  22  23
ATOM     23  C   UNL     1      14.027  12.818  17.918  1.00  0.00     0.000 C 
BRANCH  23  24
ATOM     24  C   UNL     1      12.701  12.030  17.831  1.00  0.00    -0.000 C 
BRANCH  24  25
ATOM     25  C   UNL     1      11.531  12.722  18.552  1.00  0.00    -0.000 C 
BRANCH  25  26
ATOM     26  C   UNL     1      10.271  11.849  18.622  1.00  0.00    -0.000 C 
BRANCH  26  27
ATOM     27  C   UNL     1       9.559  12.016  19.972  1.00  0.00    -0.000 C 
BRANCH  27  28
ATOM     28  C   UNL     1      10.535  12.006  21.161  1.00  0.00    -0.000 C 
BRANCH  28  29
ATOM     29  C   UNL     1      10.535  10.706  21.989  1.00  0.00    -0.000 C 
BRANCH  29  30
ATOM     30  C   UNL     1       9.571   9.627  21.450  1.00  0.00    -0.000 C 
BRANCH  30  31
ATOM     31  C   UNL     1      10.315   8.430  20.838  1.00  0.00    -0.003 C 
ATOM     32  C   UNL     1       9.955   8.251  19.367  1.00  0.00     0.004 C 
ENDBRANCH  30  31
ENDBRANCH  29  30
ENDBRANCH  28  29
ENDBRANCH  27  28
ENDBRANCH  26  27
ENDBRANCH  25  26
ENDBRANCH  24  25
ENDBRANCH  23  24
ENDBRANCH  22  23
ENDBRANCH  21  22
ENDBRANCH  20  21
ENDBRANCH  19  20
ENDBRANCH  18  19
ENDBRANCH   1  18
TORSDOF 28
ENDMDL
