MODEL 1
REMARK VINA RESULT:    -3.317      0.000      0.000
REMARK INTER + INTRA:          -4.381
REMARK INTER:                  -5.062
REMARK INTRA:                   0.681
REMARK UNBOUND:                 0.681
REMARK SMILES CC1=CCC[C@@H](C)C(=O)C[C@@H](C(C)C)C(=O)C1
REMARK SMILES IDX 8 1 9 2 6 3 7 4 5 5 4 6 3 7 2 8 1 9 10 11 11 12 15 13 16 14
REMARK SMILES IDX 17 15 12 17 13 18 14 19
REMARK H PARENT
REMARK Flexibility Score: 70.00
ROOT
ATOM      1  C   UNL     1      -7.699  -0.942   6.752  1.00  0.00     0.136 C 
ATOM      2  O   UNL     1      -7.101   0.085   7.045  1.00  0.00    -0.299 OA
ENDROOT
BRANCH   1   3
ATOM      3  C   UNL     1      -9.219  -0.922   6.786  1.00  0.00     0.053 C 
ATOM      4  C   UNL     1      -9.775  -0.629   5.386  1.00  0.00     0.016 C 
BRANCH   3   5
ATOM      5  C   UNL     1      -9.728   0.124   7.799  1.00  0.00     0.015 C 
BRANCH   5   6
ATOM      6  C   UNL     1      -9.734  -0.391   9.248  1.00  0.00     0.028 C 
BRANCH   6   7
ATOM      7  C   UNL     1      -8.541   0.114  10.025  1.00  0.00    -0.028 C 
ATOM      8  C   UNL     1      -7.459  -0.609  10.399  1.00  0.00    -0.070 CG0
ATOM      9  C   UNL     1      -6.383   0.099  11.185  1.00  0.00     0.039 C 
ATOM     10  G   UNL     1      -7.286  -2.092  10.116  1.00  0.00     0.000 G0
ENDBRANCH   6   7
ENDBRANCH   5   6
ENDBRANCH   3   5
ENDBRANCH   1   3
BRANCH   1  11
ATOM     11  C   UNL     1      -6.869  -2.184   6.487  1.00  0.00     0.087 C 
BRANCH  11  12
ATOM     12  C   UNL     1      -6.558  -3.081   7.717  1.00  0.00     0.066 C 
BRANCH  12  13
ATOM     13  C   UNL     1      -6.266  -2.325   9.011  1.00  0.00     0.140 C 
ATOM     14  O   UNL     1      -5.159  -1.820   9.138  1.00  0.00    -0.299 OA
BRANCH  13  15
ATOM     15  C   UNL     1      -7.279  -2.097  10.112  1.00  0.00     0.106 CG0
ATOM     16  G   UNL     1      -7.442  -0.615  10.406  1.00  0.00     0.000 G0
ENDBRANCH  13  15
ENDBRANCH  12  13
BRANCH  12  17
ATOM     17  C   UNL     1      -5.443  -4.125   7.396  1.00  0.00    -0.006 C 
ATOM     18  C   UNL     1      -5.896  -5.142   6.335  1.00  0.00     0.008 C 
ATOM     19  C   UNL     1      -4.916  -4.859   8.639  1.00  0.00     0.008 C 
ENDBRANCH  12  17
ENDBRANCH  11  12
ENDBRANCH   1  11
TORSDOF 1
ENDMDL
MODEL 2
REMARK VINA RESULT:    -3.096      1.651      4.341
REMARK INTER + INTRA:          -4.045
REMARK INTER:                  -5.221
REMARK INTRA:                   1.176
REMARK UNBOUND:                 0.681
REMARK SMILES CC1=CCC[C@@H](C)C(=O)C[C@@H](C(C)C)C(=O)C1
REMARK SMILES IDX 8 1 9 2 6 3 7 4 5 5 4 6 3 7 2 8 1 9 10 11 11 12 15 13 16 14
REMARK SMILES IDX 17 15 12 17 13 18 14 19
REMARK H PARENT
REMARK Flexibility Score: 70.00
ROOT
ATOM      1  C   UNL     1      -6.926  -3.077   7.711  1.00  0.00     0.136 C 
ATOM      2  O   UNL     1      -7.381  -3.269   8.831  1.00  0.00    -0.299 OA
ENDROOT
BRANCH   1   3
ATOM      3  C   UNL     1      -5.548  -3.633   7.391  1.00  0.00     0.053 C 
ATOM      4  C   UNL     1      -5.676  -4.940   6.597  1.00  0.00     0.016 C 
BRANCH   3   5
ATOM      5  C   UNL     1      -4.739  -3.864   8.685  1.00  0.00     0.015 C 
BRANCH   5   6
ATOM      6  C   UNL     1      -3.893  -2.647   9.094  1.00  0.00     0.028 C 
BRANCH   6   7
ATOM      7  C   UNL     1      -4.561  -1.844  10.186  1.00  0.00    -0.028 C 
ATOM      8  C   UNL     1      -5.313  -0.730  10.022  1.00  0.00    -0.070 CG0
ATOM      9  C   UNL     1      -5.877  -0.078  11.260  1.00  0.00     0.039 C 
ATOM     10  G   UNL     1      -5.584  -0.075   8.677  1.00  0.00     0.000 G0
ENDBRANCH   6   7
ENDBRANCH   5   6
ENDBRANCH   3   5
ENDBRANCH   1   3
BRANCH   1  11
ATOM     11  C   UNL     1      -7.732  -2.202   6.768  1.00  0.00     0.087 C 
BRANCH  11  12
ATOM     12  C   UNL     1      -7.531  -0.668   6.911  1.00  0.00     0.066 C 
BRANCH  12  13
ATOM     13  C   UNL     1      -7.049  -0.204   8.284  1.00  0.00     0.140 C 
ATOM     14  O   UNL     1      -7.895   0.018   9.139  1.00  0.00    -0.299 OA
BRANCH  13  15
ATOM     15  C   UNL     1      -5.593  -0.073   8.676  1.00  0.00     0.106 CG0
ATOM     16  G   UNL     1      -5.331  -0.721  10.025  1.00  0.00     0.000 G0
ENDBRANCH  13  15
ENDBRANCH  12  13
BRANCH  12  17
ATOM     17  C   UNL     1      -8.796   0.119   6.448  1.00  0.00    -0.006 C 
ATOM     18  C   UNL     1     -10.049  -0.287   7.242  1.00  0.00     0.008 C 
ATOM     19  C   UNL     1      -9.069   0.007   4.939  1.00  0.00     0.008 C 
ENDBRANCH  12  17
ENDBRANCH  11  12
ENDBRANCH   1  11
TORSDOF 1
ENDMDL
MODEL 3
REMARK VINA RESULT:    -2.887      1.918      5.041
REMARK INTER + INTRA:          -3.725
REMARK INTER:                  -5.787
REMARK INTRA:                   2.062
REMARK UNBOUND:                 0.681
REMARK SMILES CC1=CCC[C@@H](C)C(=O)C[C@@H](C(C)C)C(=O)C1
REMARK SMILES IDX 8 1 9 2 6 3 7 4 5 5 4 6 3 7 2 8 1 9 10 11 11 12 15 13 16 14
REMARK SMILES IDX 17 15 12 17 13 18 14 19
REMARK H PARENT
REMARK Flexibility Score: 70.00
ROOT
ATOM      1  C   UNL     1      -6.729  -0.982  10.144  1.00  0.00     0.136 C 
ATOM      2  O   UNL     1      -7.205   0.124  10.359  1.00  0.00    -0.299 OA
ENDROOT
BRANCH   1   3
ATOM      3  C   UNL     1      -5.225  -1.157  10.290  1.00  0.00     0.053 C 
ATOM      4  C   UNL     1      -4.504  -0.583   9.063  1.00  0.00     0.016 C 
BRANCH   3   5
ATOM      5  C   UNL     1      -4.866  -2.647  10.479  1.00  0.00     0.015 C 
BRANCH   5   6
ATOM      6  C   UNL     1      -3.901  -3.175   9.405  1.00  0.00     0.028 C 
BRANCH   6   7
ATOM      7  C   UNL     1      -4.587  -4.130   8.457  1.00  0.00    -0.028 C 
ATOM      8  C   UNL     1      -5.443  -3.801   7.460  1.00  0.00    -0.070 CG0
ATOM      9  C   UNL     1      -6.024  -4.923   6.637  1.00  0.00     0.039 C 
ATOM     10  G   UNL     1      -5.884  -2.379   7.152  1.00  0.00     0.000 G0
ENDBRANCH   6   7
ENDBRANCH   5   6
ENDBRANCH   3   5
ENDBRANCH   1   3
BRANCH   1  11
ATOM     11  C   UNL     1      -7.667  -2.064   9.640  1.00  0.00     0.087 C 
BRANCH  11  12
ATOM     12  C   UNL     1      -8.282  -1.841   8.231  1.00  0.00     0.066 C 
BRANCH  12  13
ATOM     13  C   UNL     1      -7.392  -2.265   7.064  1.00  0.00     0.140 C 
ATOM     14  O   UNL     1      -7.930  -2.470   5.984  1.00  0.00    -0.299 OA
BRANCH  13  15
ATOM     15  C   UNL     1      -5.885  -2.376   7.138  1.00  0.00     0.106 CG0
ATOM     16  G   UNL     1      -5.458  -3.799   7.457  1.00  0.00     0.000 G0
ENDBRANCH  13  15
ENDBRANCH  12  13
BRANCH  12  17
ATOM     17  C   UNL     1      -8.801  -0.380   8.058  1.00  0.00    -0.006 C 
ATOM     18  C   UNL     1      -9.896  -0.034   9.081  1.00  0.00     0.008 C 
ATOM     19  C   UNL     1      -9.291  -0.068   6.634  1.00  0.00     0.008 C 
ENDBRANCH  12  17
ENDBRANCH  11  12
ENDBRANCH   1  11
TORSDOF 1
ENDMDL
MODEL 4
REMARK VINA RESULT:    -2.883      1.915      4.454
REMARK INTER + INTRA:          -3.720
REMARK INTER:                  -4.302
REMARK INTRA:                   0.582
REMARK UNBOUND:                 0.681
REMARK SMILES CC1=CCC[C@@H](C)C(=O)C[C@@H](C(C)C)C(=O)C1
REMARK SMILES IDX 8 1 9 2 6 3 7 4 5 5 4 6 3 7 2 8 1 9 10 11 11 12 15 13 16 14
REMARK SMILES IDX 17 15 12 17 13 18 14 19
REMARK H PARENT
REMARK Flexibility Score: 70.00
ROOT
ATOM      1  C   UNL     1      -7.060  -3.028   6.720  1.00  0.00     0.136 C 
ATOM      2  O   UNL     1      -7.791  -2.832   5.759  1.00  0.00    -0.299 OA
ENDROOT
BRANCH   1   3
ATOM      3  C   UNL     1      -5.869  -3.957   6.541  1.00  0.00     0.053 C 
ATOM      4  C   UNL     1      -6.164  -4.988   5.443  1.00  0.00     0.016 C 
BRANCH   3   5
ATOM      5  C   UNL     1      -5.527  -4.666   7.868  1.00  0.00     0.015 C 
BRANCH   5   6
ATOM      6  C   UNL     1      -4.110  -4.346   8.375  1.00  0.00     0.028 C 
BRANCH   6   7
ATOM      7  C   UNL     1      -4.131  -3.778   9.774  1.00  0.00    -0.028 C 
ATOM      8  C   UNL     1      -4.317  -2.480  10.114  1.00  0.00    -0.070 CG0
ATOM      9  C   UNL     1      -4.289  -2.131  11.581  1.00  0.00     0.039 C 
ATOM     10  G   UNL     1      -4.505  -1.355   9.110  1.00  0.00     0.000 G0
ENDBRANCH   6   7
ENDBRANCH   5   6
ENDBRANCH   3   5
ENDBRANCH   1   3
BRANCH   1  11
ATOM     11  C   UNL     1      -7.466  -2.412   8.047  1.00  0.00     0.087 C 
BRANCH  11  12
ATOM     12  C   UNL     1      -7.048  -0.934   8.278  1.00  0.00     0.066 C 
BRANCH  12  13
ATOM     13  C   UNL     1      -5.904  -0.734   9.269  1.00  0.00     0.140 C 
ATOM     14  O   UNL     1      -6.136  -0.092  10.284  1.00  0.00    -0.299 OA
BRANCH  13  15
ATOM     15  C   UNL     1      -4.526  -1.339   9.113  1.00  0.00     0.106 CG0
ATOM     16  G   UNL     1      -4.316  -2.479  10.096  1.00  0.00     0.000 G0
ENDBRANCH  13  15
ENDBRANCH  12  13
BRANCH  12  17
ATOM     17  C   UNL     1      -8.278  -0.041   8.630  1.00  0.00    -0.006 C 
ATOM     18  C   UNL     1      -8.964  -0.493   9.929  1.00  0.00     0.008 C 
ATOM     19  C   UNL     1      -9.310   0.055   7.494  1.00  0.00     0.008 C 
ENDBRANCH  12  17
ENDBRANCH  11  12
ENDBRANCH   1  11
TORSDOF 1
ENDMDL
MODEL 5
REMARK VINA RESULT:    -2.452      1.808      4.830
REMARK INTER + INTRA:          -3.061
REMARK INTER:                  -5.899
REMARK INTRA:                   2.838
REMARK UNBOUND:                 0.681
REMARK SMILES CC1=CCC[C@@H](C)C(=O)C[C@@H](C(C)C)C(=O)C1
REMARK SMILES IDX 8 1 9 2 6 3 7 4 5 5 4 6 3 7 2 8 1 9 10 11 11 12 15 13 16 14
REMARK SMILES IDX 17 15 12 17 13 18 14 19
REMARK H PARENT
REMARK Flexibility Score: 70.00
ROOT
ATOM      1  C   UNL     1      -6.118  -3.505   9.937  1.00  0.00     0.136 C 
ATOM      2  O   UNL     1      -5.635  -3.962  10.964  1.00  0.00    -0.299 OA
ENDROOT
BRANCH   1   3
ATOM      3  C   UNL     1      -5.323  -3.636   8.648  1.00  0.00     0.053 C 
ATOM      4  C   UNL     1      -3.829  -3.415   8.923  1.00  0.00     0.016 C 
BRANCH   3   5
ATOM      5  C   UNL     1      -5.830  -2.632   7.591  1.00  0.00     0.015 C 
BRANCH   5   6
ATOM      6  C   UNL     1      -6.602  -3.304   6.442  1.00  0.00     0.028 C 
BRANCH   6   7
ATOM      7  C   UNL     1      -7.840  -2.523   6.068  1.00  0.00    -0.028 C 
ATOM      8  C   UNL     1      -8.171  -1.283   6.500  1.00  0.00    -0.070 CG0
ATOM      9  C   UNL     1      -9.468  -0.693   6.005  1.00  0.00     0.039 C 
ATOM     10  G   UNL     1      -7.341  -0.474   7.484  1.00  0.00     0.000 G0
ENDBRANCH   6   7
ENDBRANCH   5   6
ENDBRANCH   3   5
ENDBRANCH   1   3
BRANCH   1  11
ATOM     11  C   UNL     1      -7.426  -2.745  10.057  1.00  0.00     0.087 C 
BRANCH  11  12
ATOM     12  C   UNL     1      -7.324  -1.195  10.065  1.00  0.00     0.066 C 
BRANCH  12  13
ATOM     13  C   UNL     1      -7.970  -0.498   8.869  1.00  0.00     0.140 C 
ATOM     14  O   UNL     1      -9.015   0.108   9.060  1.00  0.00    -0.299 OA
BRANCH  13  15
ATOM     15  C   UNL     1      -7.364  -0.449   7.483  1.00  0.00     0.106 CG0
ATOM     16  G   UNL     1      -8.171  -1.287   6.505  1.00  0.00     0.000 G0
ENDBRANCH  13  15
ENDBRANCH  12  13
BRANCH  12  17
ATOM     17  C   UNL     1      -5.854  -0.720  10.283  1.00  0.00    -0.006 C 
ATOM     18  C   UNL     1      -5.686   0.045  11.606  1.00  0.00     0.008 C 
ATOM     19  C   UNL     1      -5.301   0.116   9.116  1.00  0.00     0.008 C 
ENDBRANCH  12  17
ENDBRANCH  11  12
ENDBRANCH   1  11
TORSDOF 1
ENDMDL
MODEL 6
REMARK VINA RESULT:    -2.422      1.915      3.678
REMARK INTER + INTRA:          -3.016
REMARK INTER:                  -4.639
REMARK INTRA:                   1.623
REMARK UNBOUND:                 0.681
REMARK SMILES CC1=CCC[C@@H](C)C(=O)C[C@@H](C(C)C)C(=O)C1
REMARK SMILES IDX 8 1 9 2 6 3 7 4 5 5 4 6 3 7 2 8 1 9 10 11 11 12 15 13 16 14
REMARK SMILES IDX 17 15 12 17 13 18 14 19
REMARK H PARENT
REMARK Flexibility Score: 70.00
ROOT
ATOM      1  C   UNL     1      -6.766  -0.791  10.203  1.00  0.00     0.136 C 
ATOM      2  O   UNL     1      -6.073  -0.190  11.013  1.00  0.00    -0.299 OA
ENDROOT
BRANCH   1   3
ATOM      3  C   UNL     1      -7.677   0.021   9.295  1.00  0.00     0.053 C 
ATOM      4  C   UNL     1      -9.133  -0.431   9.466  1.00  0.00     0.016 C 
BRANCH   3   5
ATOM      5  C   UNL     1      -7.240  -0.117   7.822  1.00  0.00     0.015 C 
BRANCH   5   6
ATOM      6  C   UNL     1      -8.251  -0.892   6.961  1.00  0.00     0.028 C 
BRANCH   6   7
ATOM      7  C   UNL     1      -7.737  -2.264   6.594  1.00  0.00    -0.028 C 
ATOM      8  C   UNL     1      -6.503  -2.758   6.852  1.00  0.00    -0.070 CG0
ATOM      9  C   UNL     1      -6.198  -4.158   6.383  1.00  0.00     0.039 C 
ATOM     10  G   UNL     1      -5.399  -1.973   7.541  1.00  0.00     0.000 G0
ENDBRANCH   6   7
ENDBRANCH   5   6
ENDBRANCH   3   5
ENDBRANCH   1   3
BRANCH   1  11
ATOM     11  C   UNL     1      -6.742  -2.308  10.249  1.00  0.00     0.087 C 
BRANCH  11  12
ATOM     12  C   UNL     1      -5.360  -2.982  10.032  1.00  0.00     0.066 C 
BRANCH  12  13
ATOM     13  C   UNL     1      -4.760  -2.792   8.641  1.00  0.00     0.140 C 
ATOM     14  O   UNL     1      -3.718  -3.380   8.385  1.00  0.00    -0.299 OA
BRANCH  13  15
ATOM     15  C   UNL     1      -5.407  -1.985   7.537  1.00  0.00     0.106 CG0
ATOM     16  G   UNL     1      -6.508  -2.779   6.854  1.00  0.00     0.000 G0
ENDBRANCH  13  15
ENDBRANCH  12  13
BRANCH  12  17
ATOM     17  C   UNL     1      -5.386  -4.486  10.447  1.00  0.00    -0.006 C 
ATOM     18  C   UNL     1      -6.564  -4.804  11.383  1.00  0.00     0.008 C 
ATOM     19  C   UNL     1      -4.069  -4.971  11.075  1.00  0.00     0.008 C 
ENDBRANCH  12  17
ENDBRANCH  11  12
ENDBRANCH   1  11
TORSDOF 1
ENDMDL
MODEL 7
REMARK VINA RESULT:    -2.318      1.828      5.315
REMARK INTER + INTRA:          -2.857
REMARK INTER:                  -4.431
REMARK INTRA:                   1.574
REMARK UNBOUND:                 0.681
REMARK SMILES CC1=CCC[C@@H](C)C(=O)C[C@@H](C(C)C)C(=O)C1
REMARK SMILES IDX 8 1 9 2 6 3 7 4 5 5 4 6 3 7 2 8 1 9 10 11 11 12 15 13 16 14
REMARK SMILES IDX 17 15 12 17 13 18 14 19
REMARK H PARENT
REMARK Flexibility Score: 70.00
ROOT
ATOM      1  C   UNL     1      -5.663  -2.892  10.410  1.00  0.00     0.136 C 
ATOM      2  O   UNL     1      -4.822  -2.135  10.876  1.00  0.00    -0.299 OA
ENDROOT
BRANCH   1   3
ATOM      3  C   UNL     1      -5.195  -4.222   9.841  1.00  0.00     0.053 C 
ATOM      4  C   UNL     1      -4.417  -5.008  10.904  1.00  0.00     0.016 C 
BRANCH   3   5
ATOM      5  C   UNL     1      -4.323  -4.002   8.587  1.00  0.00     0.015 C 
BRANCH   5   6
ATOM      6  C   UNL     1      -4.859  -4.731   7.343  1.00  0.00     0.028 C 
BRANCH   6   7
ATOM      7  C   UNL     1      -6.178  -4.156   6.883  1.00  0.00    -0.028 C 
ATOM      8  C   UNL     1      -6.504  -2.844   6.812  1.00  0.00    -0.070 CG0
ATOM      9  C   UNL     1      -7.890  -2.492   6.332  1.00  0.00     0.039 C 
ATOM     10  G   UNL     1      -5.578  -1.713   7.226  1.00  0.00     0.000 G0
ENDBRANCH   6   7
ENDBRANCH   5   6
ENDBRANCH   3   5
ENDBRANCH   1   3
BRANCH   1  11
ATOM     11  C   UNL     1      -7.093  -2.390  10.337  1.00  0.00     0.087 C 
BRANCH  11  12
ATOM     12  C   UNL     1      -7.415  -1.387   9.195  1.00  0.00     0.066 C 
BRANCH  12  13
ATOM     13  C   UNL     1      -6.209  -0.932   8.376  1.00  0.00     0.140 C 
ATOM     14  O   UNL     1      -5.652   0.104   8.710  1.00  0.00    -0.299 OA
BRANCH  13  15
ATOM     15  C   UNL     1      -5.615  -1.717   7.226  1.00  0.00     0.106 CG0
ATOM     16  G   UNL     1      -6.529  -2.860   6.816  1.00  0.00     0.000 G0
ENDBRANCH  13  15
ENDBRANCH  12  13
BRANCH  12  17
ATOM     17  C   UNL     1      -8.246  -0.174   9.718  1.00  0.00    -0.006 C 
ATOM     18  C   UNL     1      -7.992   0.097  11.210  1.00  0.00     0.008 C 
ATOM     19  C   UNL     1      -9.756  -0.309   9.456  1.00  0.00     0.008 C 
ENDBRANCH  12  17
ENDBRANCH  11  12
ENDBRANCH   1  11
TORSDOF 1
ENDMDL
MODEL 8
REMARK VINA RESULT:    -2.025      1.638      3.957
REMARK INTER + INTRA:          -2.409
REMARK INTER:                  -3.518
REMARK INTRA:                   1.109
REMARK UNBOUND:                 0.681
REMARK SMILES CC1=CCC[C@@H](C)C(=O)C[C@@H](C(C)C)C(=O)C1
REMARK SMILES IDX 8 1 9 2 6 3 7 4 5 5 4 6 3 7 2 8 1 9 10 11 11 12 15 13 16 14
REMARK SMILES IDX 17 15 12 17 13 18 14 19
REMARK H PARENT
REMARK Flexibility Score: 70.00
ROOT
ATOM      1  C   UNL     1      -4.384  -3.779   9.172  1.00  0.00     0.136 C 
ATOM      2  O   UNL     1      -3.299  -3.794   8.606  1.00  0.00    -0.299 OA
ENDROOT
BRANCH   1   3
ATOM      3  C   UNL     1      -4.400  -3.735  10.692  1.00  0.00     0.053 C 
ATOM      4  C   UNL     1      -5.676  -4.400  11.226  1.00  0.00     0.016 C 
BRANCH   3   5
ATOM      5  C   UNL     1      -4.299  -2.280  11.195  1.00  0.00     0.015 C 
BRANCH   5   6
ATOM      6  C   UNL     1      -4.768  -1.247  10.156  1.00  0.00     0.028 C 
BRANCH   6   7
ATOM      7  C   UNL     1      -6.007  -0.516  10.615  1.00  0.00    -0.028 C 
ATOM      8  C   UNL     1      -7.281  -0.770  10.232  1.00  0.00    -0.070 CG0
ATOM      9  C   UNL     1      -8.371   0.098  10.810  1.00  0.00     0.039 C 
ATOM     10  G   UNL     1      -7.671  -1.841   9.226  1.00  0.00     0.000 G0
ENDBRANCH   6   7
ENDBRANCH   5   6
ENDBRANCH   3   5
ENDBRANCH   1   3
BRANCH   1  11
ATOM     11  C   UNL     1      -5.625  -3.919   8.310  1.00  0.00     0.087 C 
BRANCH  11  12
ATOM     12  C   UNL     1      -5.945  -2.730   7.363  1.00  0.00     0.066 C 
BRANCH  12  13
ATOM     13  C   UNL     1      -6.874  -1.669   7.949  1.00  0.00     0.140 C 
ATOM     14  O   UNL     1      -7.031  -0.636   7.313  1.00  0.00    -0.299 OA
BRANCH  13  15
ATOM     15  C   UNL     1      -7.669  -1.844   9.224  1.00  0.00     0.106 CG0
ATOM     16  G   UNL     1      -7.308  -0.775  10.243  1.00  0.00     0.000 G0
ENDBRANCH  13  15
ENDBRANCH  12  13
BRANCH  12  17
ATOM     17  C   UNL     1      -6.443  -3.227   5.970  1.00  0.00    -0.006 C 
ATOM     18  C   UNL     1      -7.875  -2.754   5.669  1.00  0.00     0.008 C 
ATOM     19  C   UNL     1      -6.343  -4.752   5.793  1.00  0.00     0.008 C 
ENDBRANCH  12  17
ENDBRANCH  11  12
ENDBRANCH   1  11
TORSDOF 1
ENDMDL
MODEL 9
REMARK VINA RESULT:    -2.023      1.743      3.678
REMARK INTER + INTRA:          -2.407
REMARK INTER:                  -4.616
REMARK INTRA:                   2.209
REMARK UNBOUND:                 0.681
REMARK SMILES CC1=CCC[C@@H](C)C(=O)C[C@@H](C(C)C)C(=O)C1
REMARK SMILES IDX 8 1 9 2 6 3 7 4 5 5 4 6 3 7 2 8 1 9 10 11 11 12 15 13 16 14
REMARK SMILES IDX 17 15 12 17 13 18 14 19
REMARK H PARENT
REMARK Flexibility Score: 70.00
ROOT
ATOM      1  C   UNL     1      -8.858  -0.348   7.468  1.00  0.00     0.136 C 
ATOM      2  O   UNL     1     -10.074  -0.327   7.337  1.00  0.00    -0.299 OA
ENDROOT
BRANCH   1   3
ATOM      3  C   UNL     1      -8.006  -0.592   6.232  1.00  0.00     0.053 C 
ATOM      4  C   UNL     1      -8.617   0.123   5.019  1.00  0.00     0.016 C 
BRANCH   3   5
ATOM      5  C   UNL     1      -7.870  -2.104   5.954  1.00  0.00     0.015 C 
BRANCH   5   6
ATOM      6  C   UNL     1      -7.532  -2.921   7.213  1.00  0.00     0.028 C 
BRANCH   6   7
ATOM      7  C   UNL     1      -6.058  -3.243   7.292  1.00  0.00    -0.028 C 
ATOM      8  C   UNL     1      -5.331  -3.420   8.420  1.00  0.00    -0.070 CG0
ATOM      9  C   UNL     1      -3.862  -3.725   8.265  1.00  0.00     0.039 C 
ATOM     10  G   UNL     1      -5.894  -3.285   9.826  1.00  0.00     0.000 G0
ENDBRANCH   6   7
ENDBRANCH   5   6
ENDBRANCH   3   5
ENDBRANCH   1   3
BRANCH   1  11
ATOM     11  C   UNL     1      -8.303  -0.239   8.876  1.00  0.00     0.087 C 
BRANCH  11  12
ATOM     12  C   UNL     1      -6.918  -0.898   9.124  1.00  0.00     0.066 C 
BRANCH  12  13
ATOM     13  C   UNL     1      -6.955  -2.202   9.918  1.00  0.00     0.140 C 
ATOM     14  O   UNL     1      -7.934  -2.412  10.621  1.00  0.00    -0.299 OA
BRANCH  13  15
ATOM     15  C   UNL     1      -5.898  -3.282   9.834  1.00  0.00     0.106 CG0
ATOM     16  G   UNL     1      -5.352  -3.402   8.421  1.00  0.00     0.000 G0
ENDBRANCH  13  15
ENDBRANCH  12  13
BRANCH  12  17
ATOM     17  C   UNL     1      -5.902   0.118   9.734  1.00  0.00    -0.006 C 
ATOM     18  C   UNL     1      -4.519   0.017   9.070  1.00  0.00     0.008 C 
ATOM     19  C   UNL     1      -5.764   0.003  11.261  1.00  0.00     0.008 C 
ENDBRANCH  12  17
ENDBRANCH  11  12
ENDBRANCH   1  11
TORSDOF 1
ENDMDL
