MODEL 1
REMARK VINA RESULT:    -2.287      0.000      0.000
REMARK INTER + INTRA:          -3.921
REMARK INTER:                  -3.491
REMARK INTRA:                  -0.430
REMARK UNBOUND:                -0.430
REMARK SMILES CC1=CCC[C@H](C)C(=O)C[C@H](C(C)C)C(=O)C1
REMARK SMILES IDX 8 1 9 2 6 3 7 4 5 5 4 6 3 7 2 8 1 9 10 11 11 12 15 13 16 14
REMARK SMILES IDX 17 15 12 17 13 18 14 19
REMARK H PARENT
REMARK Flexibility Score: 70.00
ROOT
ATOM      1  C   UNL     1     186.596 200.802 210.481  1.00  0.00     0.136 C 
ATOM      2  O   UNL     1     185.866 200.604 209.522  1.00  0.00    -0.299 OA
ENDROOT
BRANCH   1   3
ATOM      3  C   UNL     1     186.005 201.351 211.769  1.00  0.00     0.053 C 
ATOM      4  C   UNL     1     184.684 202.080 211.486  1.00  0.00     0.016 C 
BRANCH   3   5
ATOM      5  C   UNL     1     185.801 200.223 212.804  1.00  0.00     0.015 C 
BRANCH   5   6
ATOM      6  C   UNL     1     186.797 200.338 213.977  1.00  0.00     0.028 C 
BRANCH   6   7
ATOM      7  C   UNL     1     187.749 199.173 214.059  1.00  0.00    -0.028 C 
ATOM      8  C   UNL     1     189.093 199.259 213.919  1.00  0.00    -0.070 CG0
ATOM      9  C   UNL     1     189.902 198.002 214.125  1.00  0.00     0.039 C 
ATOM     10  G   UNL     1     189.815 200.542 213.527  1.00  0.00     0.000 G0
ENDBRANCH   6   7
ENDBRANCH   5   6
ENDBRANCH   3   5
ENDBRANCH   1   3
BRANCH   1  11
ATOM     11  C   UNL     1     188.082 200.544 210.354  1.00  0.00     0.087 C 
BRANCH  11  12
ATOM     12  C   UNL     1     188.995 201.491 211.185  1.00  0.00     0.066 C 
BRANCH  12  13
ATOM     13  C   UNL     1     190.003 200.707 212.018  1.00  0.00     0.140 C 
ATOM     14  O   UNL     1     190.935 200.154 211.449  1.00  0.00    -0.299 OA
BRANCH  13  15
ATOM     15  C   UNL     1     189.843 200.530 213.513  1.00  0.00     0.106 CG0
ATOM     16  G   UNL     1     189.079 199.272 213.904  1.00  0.00     0.000 G0
ENDBRANCH  13  15
ENDBRANCH  12  13
BRANCH  12  17
ATOM     17  C   UNL     1     189.666 202.655 210.382  1.00  0.00    -0.006 C 
ATOM     18  C   UNL     1     189.964 202.268 208.923  1.00  0.00     0.008 C 
ATOM     19  C   UNL     1     188.768 203.908 210.384  1.00  0.00     0.008 C 
ENDBRANCH  12  17
ENDBRANCH  11  12
ENDBRANCH   1  11
TORSDOF 1
ENDMDL
MODEL 2
REMARK VINA RESULT:    -2.266      2.729      3.922
REMARK INTER + INTRA:          -3.887
REMARK INTER:                  -3.481
REMARK INTRA:                  -0.406
REMARK UNBOUND:                -0.430
REMARK SMILES CC1=CCC[C@H](C)C(=O)C[C@H](C(C)C)C(=O)C1
REMARK SMILES IDX 8 1 9 2 6 3 7 4 5 5 4 6 3 7 2 8 1 9 10 11 11 12 15 13 16 14
REMARK SMILES IDX 17 15 12 17 13 18 14 19
REMARK H PARENT
REMARK Flexibility Score: 70.00
ROOT
ATOM      1  C   UNL     1     187.863 202.242 212.188  1.00  0.00     0.136 C 
ATOM      2  O   UNL     1     188.946 202.302 212.752  1.00  0.00    -0.299 OA
ENDROOT
BRANCH   1   3
ATOM      3  C   UNL     1     186.730 201.459 212.828  1.00  0.00     0.053 C 
ATOM      4  C   UNL     1     185.371 202.024 212.389  1.00  0.00     0.016 C 
BRANCH   3   5
ATOM      5  C   UNL     1     186.838 199.957 212.485  1.00  0.00     0.015 C 
BRANCH   5   6
ATOM      6  C   UNL     1     186.006 199.594 211.238  1.00  0.00     0.028 C 
BRANCH   6   7
ATOM      7  C   UNL     1     186.818 198.921 210.162  1.00  0.00    -0.028 C 
ATOM      8  C   UNL     1     187.237 199.514 209.020  1.00  0.00    -0.070 CG0
ATOM      9  C   UNL     1     188.123 198.714 208.097  1.00  0.00     0.039 C 
ATOM     10  G   UNL     1     186.827 200.922 208.608  1.00  0.00     0.000 G0
ENDBRANCH   6   7
ENDBRANCH   5   6
ENDBRANCH   3   5
ENDBRANCH   1   3
BRANCH   1  11
ATOM     11  C   UNL     1     187.687 202.908 210.841  1.00  0.00     0.087 C 
BRANCH  11  12
ATOM     12  C   UNL     1     188.682 202.446 209.736  1.00  0.00     0.066 C 
BRANCH  12  13
ATOM     13  C   UNL     1     187.947 201.936 208.500  1.00  0.00     0.140 C 
ATOM     14  O   UNL     1     188.242 202.398 207.407  1.00  0.00    -0.299 OA
BRANCH  13  15
ATOM     15  C   UNL     1     186.816 200.935 208.597  1.00  0.00     0.106 CG0
ATOM     16  G   UNL     1     187.265 199.541 209.015  1.00  0.00     0.000 G0
ENDBRANCH  13  15
ENDBRANCH  12  13
BRANCH  12  17
ATOM     17  C   UNL     1     189.810 203.469 209.376  1.00  0.00    -0.006 C 
ATOM     18  C   UNL     1     189.528 204.877 209.930  1.00  0.00     0.008 C 
ATOM     19  C   UNL     1     191.172 202.992 209.918  1.00  0.00     0.008 C 
ENDBRANCH  12  17
ENDBRANCH  11  12
ENDBRANCH   1  11
TORSDOF 1
ENDMDL
MODEL 3
REMARK VINA RESULT:    -2.223      2.229      4.452
REMARK INTER + INTRA:          -3.822
REMARK INTER:                  -3.553
REMARK INTRA:                  -0.269
REMARK UNBOUND:                -0.430
REMARK SMILES CC1=CCC[C@H](C)C(=O)C[C@H](C(C)C)C(=O)C1
REMARK SMILES IDX 8 1 9 2 6 3 7 4 5 5 4 6 3 7 2 8 1 9 10 11 11 12 15 13 16 14
REMARK SMILES IDX 17 15 12 17 13 18 14 19
REMARK H PARENT
REMARK Flexibility Score: 70.00
ROOT
ATOM      1  C   UNL     1     189.722 199.521 213.883  1.00  0.00     0.136 C 
ATOM      2  O   UNL     1     190.880 199.853 214.089  1.00  0.00    -0.299 OA
ENDROOT
BRANCH   1   3
ATOM      3  C   UNL     1     189.416 198.091 213.472  1.00  0.00     0.053 C 
ATOM      4  C   UNL     1     188.112 197.611 214.125  1.00  0.00     0.016 C 
BRANCH   3   5
ATOM      5  C   UNL     1     189.341 197.966 211.935  1.00  0.00     0.015 C 
BRANCH   5   6
ATOM      6  C   UNL     1     187.979 197.406 211.474  1.00  0.00     0.028 C 
BRANCH   6   7
ATOM      7  C   UNL     1     187.347 198.223 210.377  1.00  0.00    -0.028 C 
ATOM      8  C   UNL     1     186.580 199.322 210.571  1.00  0.00    -0.070 CG0
ATOM      9  C   UNL     1     186.106 200.072 209.351  1.00  0.00     0.039 C 
ATOM     10  G   UNL     1     186.143 199.806 211.948  1.00  0.00     0.000 G0
ENDBRANCH   6   7
ENDBRANCH   5   6
ENDBRANCH   3   5
ENDBRANCH   1   3
BRANCH   1  11
ATOM     11  C   UNL     1     188.620 200.552 213.995  1.00  0.00     0.087 C 
BRANCH  11  12
ATOM     12  C   UNL     1     188.231 201.256 212.662  1.00  0.00     0.066 C 
BRANCH  12  13
ATOM     13  C   UNL     1     186.737 201.132 212.380  1.00  0.00     0.140 C 
ATOM     14  O   UNL     1     186.020 202.106 212.566  1.00  0.00    -0.299 OA
BRANCH  13  15
ATOM     15  C   UNL     1     186.108 199.824 211.951  1.00  0.00     0.106 CG0
ATOM     16  G   UNL     1     186.571 199.340 210.584  1.00  0.00     0.000 G0
ENDBRANCH  13  15
ENDBRANCH  12  13
BRANCH  12  17
ATOM     17  C   UNL     1     188.746 202.724 212.500  1.00  0.00    -0.006 C 
ATOM     18  C   UNL     1     189.931 203.039 213.431  1.00  0.00     0.008 C 
ATOM     19  C   UNL     1     189.181 202.994 211.046  1.00  0.00     0.008 C 
ENDBRANCH  12  17
ENDBRANCH  11  12
ENDBRANCH   1  11
TORSDOF 1
ENDMDL
MODEL 4
REMARK VINA RESULT:    -2.194      2.448      4.038
REMARK INTER + INTRA:          -3.778
REMARK INTER:                  -3.471
REMARK INTRA:                  -0.307
REMARK UNBOUND:                -0.430
REMARK SMILES CC1=CCC[C@H](C)C(=O)C[C@H](C(C)C)C(=O)C1
REMARK SMILES IDX 8 1 9 2 6 3 7 4 5 5 4 6 3 7 2 8 1 9 10 11 11 12 15 13 16 14
REMARK SMILES IDX 17 15 12 17 13 18 14 19
REMARK H PARENT
REMARK Flexibility Score: 70.00
ROOT
ATOM      1  C   UNL     1     189.450 203.099 209.454  1.00  0.00     0.136 C 
ATOM      2  O   UNL     1     189.297 204.311 209.420  1.00  0.00    -0.299 OA
ENDROOT
BRANCH   1   3
ATOM      3  C   UNL     1     188.965 202.252 208.290  1.00  0.00     0.053 C 
ATOM      4  C   UNL     1     189.718 200.915 208.247  1.00  0.00     0.016 C 
BRANCH   3   5
ATOM      5  C   UNL     1     187.440 202.021 208.376  1.00  0.00     0.015 C 
BRANCH   5   6
ATOM      6  C   UNL     1     187.096 200.792 209.243  1.00  0.00     0.028 C 
BRANCH   6   7
ATOM      7  C   UNL     1     186.210 201.126 210.415  1.00  0.00    -0.028 C 
ATOM      8  C   UNL     1     186.627 201.231 211.699  1.00  0.00    -0.070 CG0
ATOM      9  C   UNL     1     185.618 201.667 212.732  1.00  0.00     0.039 C 
ATOM     10  G   UNL     1     188.042 200.893 212.149  1.00  0.00     0.000 G0
ENDBRANCH   6   7
ENDBRANCH   5   6
ENDBRANCH   3   5
ENDBRANCH   1   3
BRANCH   1  11
ATOM     11  C   UNL     1     190.075 202.460 210.675  1.00  0.00     0.087 C 
BRANCH  11  12
ATOM     12  C   UNL     1     189.622 203.053 212.041  1.00  0.00     0.066 C 
BRANCH  12  13
ATOM     13  C   UNL     1     188.776 202.059 212.829  1.00  0.00     0.140 C 
ATOM     14  O   UNL     1     188.730 202.159 214.047  1.00  0.00    -0.299 OA
BRANCH  13  15
ATOM     15  C   UNL     1     188.055 200.910 212.156  1.00  0.00     0.106 CG0
ATOM     16  G   UNL     1     186.639 201.251 211.710  1.00  0.00     0.000 G0
ENDBRANCH  13  15
ENDBRANCH  12  13
BRANCH  12  17
ATOM     17  C   UNL     1     190.758 203.686 212.911  1.00  0.00    -0.006 C 
ATOM     18  C   UNL     1     192.118 203.692 212.189  1.00  0.00     0.008 C 
ATOM     19  C   UNL     1     190.404 205.134 213.303  1.00  0.00     0.008 C 
ENDBRANCH  12  17
ENDBRANCH  11  12
ENDBRANCH   1  11
TORSDOF 1
ENDMDL
MODEL 5
REMARK VINA RESULT:    -2.125      1.877      3.951
REMARK INTER + INTRA:          -3.673
REMARK INTER:                  -3.938
REMARK INTRA:                   0.265
REMARK UNBOUND:                -0.430
REMARK SMILES CC1=CCC[C@H](C)C(=O)C[C@H](C(C)C)C(=O)C1
REMARK SMILES IDX 8 1 9 2 6 3 7 4 5 5 4 6 3 7 2 8 1 9 10 11 11 12 15 13 16 14
REMARK SMILES IDX 17 15 12 17 13 18 14 19
REMARK H PARENT
REMARK Flexibility Score: 70.00
ROOT
ATOM      1  C   UNL     1     188.562 202.875 210.701  1.00  0.00     0.136 C 
ATOM      2  O   UNL     1     188.132 202.706 209.569  1.00  0.00    -0.299 OA
ENDROOT
BRANCH   1   3
ATOM      3  C   UNL     1     189.955 203.449 210.893  1.00  0.00     0.053 C 
ATOM      4  C   UNL     1     190.432 204.144 209.610  1.00  0.00     0.016 C 
BRANCH   3   5
ATOM      5  C   UNL     1     189.987 204.423 212.091  1.00  0.00     0.015 C 
BRANCH   5   6
ATOM      6  C   UNL     1     190.449 203.722 213.385  1.00  0.00     0.028 C 
BRANCH   6   7
ATOM      7  C   UNL     1     191.110 202.392 213.131  1.00  0.00    -0.028 C 
ATOM      8  C   UNL     1     190.525 201.185 213.322  1.00  0.00    -0.070 CG0
ATOM      9  C   UNL     1     191.305 199.956 212.926  1.00  0.00     0.039 C 
ATOM     10  G   UNL     1     189.148 201.012 213.951  1.00  0.00     0.000 G0
ENDBRANCH   6   7
ENDBRANCH   5   6
ENDBRANCH   3   5
ENDBRANCH   1   3
BRANCH   1  11
ATOM     11  C   UNL     1     187.718 202.463 211.888  1.00  0.00     0.087 C 
BRANCH  11  12
ATOM     12  C   UNL     1     187.385 200.944 211.971  1.00  0.00     0.066 C 
BRANCH  12  13
ATOM     13  C   UNL     1     188.151 200.265 213.101  1.00  0.00     0.140 C 
ATOM     14  O   UNL     1     187.910 199.093 213.356  1.00  0.00    -0.299 OA
BRANCH  13  15
ATOM     15  C   UNL     1     189.143 201.018 213.963  1.00  0.00     0.106 CG0
ATOM     16  G   UNL     1     190.515 201.177 213.322  1.00  0.00     0.000 G0
ENDBRANCH  13  15
ENDBRANCH  12  13
BRANCH  12  17
ATOM     17  C   UNL     1     185.861 200.590 211.991  1.00  0.00    -0.006 C 
ATOM     18  C   UNL     1     184.965 201.842 211.999  1.00  0.00     0.008 C 
ATOM     19  C   UNL     1     185.485 199.725 210.772  1.00  0.00     0.008 C 
ENDBRANCH  12  17
ENDBRANCH  11  12
ENDBRANCH   1  11
TORSDOF 1
ENDMDL
MODEL 6
REMARK VINA RESULT:    -2.067      3.227      5.393
REMARK INTER + INTRA:          -3.584
REMARK INTER:                  -3.073
REMARK INTRA:                  -0.511
REMARK UNBOUND:                -0.430
REMARK SMILES CC1=CCC[C@H](C)C(=O)C[C@H](C(C)C)C(=O)C1
REMARK SMILES IDX 8 1 9 2 6 3 7 4 5 5 4 6 3 7 2 8 1 9 10 11 11 12 15 13 16 14
REMARK SMILES IDX 17 15 12 17 13 18 14 19
REMARK H PARENT
REMARK Flexibility Score: 70.00
ROOT
ATOM      1  C   UNL     1     189.881 204.655 209.750  1.00  0.00     0.136 C 
ATOM      2  O   UNL     1     189.624 205.644 209.080  1.00  0.00    -0.299 OA
ENDROOT
BRANCH   1   3
ATOM      3  C   UNL     1     191.015 203.737 209.325  1.00  0.00     0.053 C 
ATOM      4  C   UNL     1     190.791 203.234 207.892  1.00  0.00     0.016 C 
BRANCH   3   5
ATOM      5  C   UNL     1     192.377 204.454 209.449  1.00  0.00     0.015 C 
BRANCH   5   6
ATOM      6  C   UNL     1     192.546 205.123 210.829  1.00  0.00     0.028 C 
BRANCH   6   7
ATOM      7  C   UNL     1     193.093 204.187 211.875  1.00  0.00    -0.028 C 
ATOM      8  C   UNL     1     192.423 203.784 212.981  1.00  0.00    -0.070 CG0
ATOM      9  C   UNL     1     193.091 202.767 213.874  1.00  0.00     0.039 C 
ATOM     10  G   UNL     1     191.061 204.334 213.383  1.00  0.00     0.000 G0
ENDBRANCH   6   7
ENDBRANCH   5   6
ENDBRANCH   3   5
ENDBRANCH   1   3
BRANCH   1  11
ATOM     11  C   UNL     1     189.034 204.336 210.963  1.00  0.00     0.087 C 
BRANCH  11  12
ATOM     12  C   UNL     1     189.432 203.041 211.730  1.00  0.00     0.066 C 
BRANCH  12  13
ATOM     13  C   UNL     1     189.919 203.354 213.141  1.00  0.00     0.140 C 
ATOM     14  O   UNL     1     189.335 202.851 214.091  1.00  0.00    -0.299 OA
BRANCH  13  15
ATOM     15  C   UNL     1     191.052 204.324 213.401  1.00  0.00     0.106 CG0
ATOM     16  G   UNL     1     192.417 203.803 212.969  1.00  0.00     0.000 G0
ENDBRANCH  13  15
ENDBRANCH  12  13
BRANCH  12  17
ATOM     17  C   UNL     1     188.369 201.893 211.710  1.00  0.00    -0.006 C 
ATOM     18  C   UNL     1     187.011 202.357 211.153  1.00  0.00     0.008 C 
ATOM     19  C   UNL     1     188.865 200.703 210.865  1.00  0.00     0.008 C 
ENDBRANCH  12  17
ENDBRANCH  11  12
ENDBRANCH   1  11
TORSDOF 1
ENDMDL
MODEL 7
REMARK VINA RESULT:    -2.062      2.425      3.680
REMARK INTER + INTRA:          -3.577
REMARK INTER:                  -3.272
REMARK INTRA:                  -0.306
REMARK UNBOUND:                -0.430
REMARK SMILES CC1=CCC[C@H](C)C(=O)C[C@H](C(C)C)C(=O)C1
REMARK SMILES IDX 8 1 9 2 6 3 7 4 5 5 4 6 3 7 2 8 1 9 10 11 11 12 15 13 16 14
REMARK SMILES IDX 17 15 12 17 13 18 14 19
REMARK H PARENT
REMARK Flexibility Score: 70.00
ROOT
ATOM      1  C   UNL     1     186.697 201.477 210.261  1.00  0.00     0.136 C 
ATOM      2  O   UNL     1     187.301 201.835 209.260  1.00  0.00    -0.299 OA
ENDROOT
BRANCH   1   3
ATOM      3  C   UNL     1     186.687 202.373 211.488  1.00  0.00     0.053 C 
ATOM      4  C   UNL     1     185.590 201.932 212.467  1.00  0.00     0.016 C 
BRANCH   3   5
ATOM      5  C   UNL     1     188.070 202.378 212.176  1.00  0.00     0.015 C 
BRANCH   5   6
ATOM      6  C   UNL     1     188.323 201.073 212.958  1.00  0.00     0.028 C 
BRANCH   6   7
ATOM      7  C   UNL     1     189.395 200.214 212.341  1.00  0.00    -0.028 C 
ATOM      8  C   UNL     1     189.185 199.010 211.757  1.00  0.00    -0.070 CG0
ATOM      9  C   UNL     1     190.365 198.331 211.106  1.00  0.00     0.039 C 
ATOM     10  G   UNL     1     187.838 198.300 211.764  1.00  0.00     0.000 G0
ENDBRANCH   6   7
ENDBRANCH   5   6
ENDBRANCH   3   5
ENDBRANCH   1   3
BRANCH   1  11
ATOM     11  C   UNL     1     186.014 200.127 210.276  1.00  0.00     0.087 C 
BRANCH  11  12
ATOM     12  C   UNL     1     186.727 199.011 209.458  1.00  0.00     0.066 C 
BRANCH  12  13
ATOM     13  C   UNL     1     187.331 197.949 210.371  1.00  0.00     0.140 C 
ATOM     14  O   UNL     1     187.347 196.786 209.991  1.00  0.00    -0.299 OA
BRANCH  13  15
ATOM     15  C   UNL     1     187.839 198.279 211.758  1.00  0.00     0.106 CG0
ATOM     16  G   UNL     1     189.177 199.006 211.764  1.00  0.00     0.000 G0
ENDBRANCH  13  15
ENDBRANCH  12  13
BRANCH  12  17
ATOM     17  C   UNL     1     185.886 198.387 208.296  1.00  0.00    -0.006 C 
ATOM     18  C   UNL     1     184.433 198.897 208.280  1.00  0.00     0.008 C 
ATOM     19  C   UNL     1     186.529 198.695 206.930  1.00  0.00     0.008 C 
ENDBRANCH  12  17
ENDBRANCH  11  12
ENDBRANCH   1  11
TORSDOF 1
ENDMDL
MODEL 8
REMARK VINA RESULT:    -1.991      1.876      4.017
REMARK INTER + INTRA:          -3.469
REMARK INTER:                  -3.198
REMARK INTRA:                  -0.271
REMARK UNBOUND:                -0.430
REMARK SMILES CC1=CCC[C@H](C)C(=O)C[C@H](C(C)C)C(=O)C1
REMARK SMILES IDX 8 1 9 2 6 3 7 4 5 5 4 6 3 7 2 8 1 9 10 11 11 12 15 13 16 14
REMARK SMILES IDX 17 15 12 17 13 18 14 19
REMARK H PARENT
REMARK Flexibility Score: 70.00
ROOT
ATOM      1  C   UNL     1     188.404 197.996 211.825  1.00  0.00     0.136 C 
ATOM      2  O   UNL     1     189.245 197.375 211.192  1.00  0.00    -0.299 OA
ENDROOT
BRANCH   1   3
ATOM      3  C   UNL     1     188.416 197.935 213.343  1.00  0.00     0.053 C 
ATOM      4  C   UNL     1     188.085 196.516 213.827  1.00  0.00     0.016 C 
BRANCH   3   5
ATOM      5  C   UNL     1     189.778 198.402 213.901  1.00  0.00     0.015 C 
BRANCH   5   6
ATOM      6  C   UNL     1     189.810 199.928 214.124  1.00  0.00     0.028 C 
BRANCH   6   7
ATOM      7  C   UNL     1     190.777 200.637 213.211  1.00  0.00    -0.028 C 
ATOM      8  C   UNL     1     190.445 201.622 212.343  1.00  0.00    -0.070 CG0
ATOM      9  C   UNL     1     191.561 202.286 211.574  1.00  0.00     0.039 C 
ATOM     10  G   UNL     1     189.010 202.058 212.080  1.00  0.00     0.000 G0
ENDBRANCH   6   7
ENDBRANCH   5   6
ENDBRANCH   3   5
ENDBRANCH   1   3
BRANCH   1  11
ATOM     11  C   UNL     1     187.337 198.773 211.085  1.00  0.00     0.087 C 
BRANCH  11  12
ATOM     12  C   UNL     1     187.131 200.240 211.564  1.00  0.00     0.066 C 
BRANCH  12  13
ATOM     13  C   UNL     1     188.268 201.144 211.098  1.00  0.00     0.140 C 
ATOM     14  O   UNL     1     188.629 201.083 209.931  1.00  0.00    -0.299 OA
BRANCH  13  15
ATOM     15  C   UNL     1     189.008 202.056 212.052  1.00  0.00     0.106 CG0
ATOM     16  G   UNL     1     190.438 201.615 212.338  1.00  0.00     0.000 G0
ENDBRANCH  13  15
ENDBRANCH  12  13
BRANCH  12  17
ATOM     17  C   UNL     1     185.723 200.854 211.265  1.00  0.00    -0.006 C 
ATOM     18  C   UNL     1     184.724 199.808 210.738  1.00  0.00     0.008 C 
ATOM     19  C   UNL     1     185.131 201.504 212.530  1.00  0.00     0.008 C 
ENDBRANCH  12  17
ENDBRANCH  11  12
ENDBRANCH   1  11
TORSDOF 1
ENDMDL
MODEL 9
REMARK VINA RESULT:    -1.965      2.519      4.449
REMARK INTER + INTRA:          -3.429
REMARK INTER:                  -2.876
REMARK INTRA:                  -0.553
REMARK UNBOUND:                -0.430
REMARK SMILES CC1=CCC[C@H](C)C(=O)C[C@H](C(C)C)C(=O)C1
REMARK SMILES IDX 8 1 9 2 6 3 7 4 5 5 4 6 3 7 2 8 1 9 10 11 11 12 15 13 16 14
REMARK SMILES IDX 17 15 12 17 13 18 14 19
REMARK H PARENT
REMARK Flexibility Score: 70.00
ROOT
ATOM      1  C   UNL     1     187.303 198.930 209.965  1.00  0.00     0.136 C 
ATOM      2  O   UNL     1     186.731 198.090 209.287  1.00  0.00    -0.299 OA
ENDROOT
BRANCH   1   3
ATOM      3  C   UNL     1     188.478 198.516 210.836  1.00  0.00     0.053 C 
ATOM      4  C   UNL     1     188.017 197.552 211.938  1.00  0.00     0.016 C 
BRANCH   3   5
ATOM      5  C   UNL     1     189.596 197.880 209.981  1.00  0.00     0.015 C 
BRANCH   5   6
ATOM      6  C   UNL     1     190.139 198.865 208.926  1.00  0.00     0.028 C 
BRANCH   6   7
ATOM      7  C   UNL     1     191.026 199.931 209.515  1.00  0.00    -0.028 C 
ATOM      8  C   UNL     1     190.683 201.232 209.663  1.00  0.00    -0.070 CG0
ATOM      9  C   UNL     1     191.663 202.142 210.361  1.00  0.00     0.039 C 
ATOM     10  G   UNL     1     189.385 201.822 209.126  1.00  0.00     0.000 G0
ENDBRANCH   6   7
ENDBRANCH   5   6
ENDBRANCH   3   5
ENDBRANCH   1   3
BRANCH   1  11
ATOM     11  C   UNL     1     186.801 200.358 209.964  1.00  0.00     0.087 C 
BRANCH  11  12
ATOM     12  C   UNL     1     187.529 201.320 210.946  1.00  0.00     0.066 C 
BRANCH  12  13
ATOM     13  C   UNL     1     188.427 202.304 210.202  1.00  0.00     0.140 C 
ATOM     14  O   UNL     1     188.321 203.498 210.445  1.00  0.00    -0.299 OA
BRANCH  13  15
ATOM     15  C   UNL     1     189.388 201.853 209.123  1.00  0.00     0.106 CG0
ATOM     16  G   UNL     1     190.668 201.229 209.663  1.00  0.00     0.000 G0
ENDBRANCH  13  15
ENDBRANCH  12  13
BRANCH  12  17
ATOM     17  C   UNL     1     186.613 202.031 211.997  1.00  0.00    -0.006 C 
ATOM     18  C   UNL     1     185.115 201.815 211.713  1.00  0.00     0.008 C 
ATOM     19  C   UNL     1     186.921 201.527 213.420  1.00  0.00     0.008 C 
ENDBRANCH  12  17
ENDBRANCH  11  12
ENDBRANCH   1  11
TORSDOF 1
ENDMDL
