MODEL 1
REMARK VINA RESULT:    -5.232      0.000      0.000
REMARK INTER + INTRA:          -6.043
REMARK INTER:                  -5.996
REMARK INTRA:                  -0.047
REMARK UNBOUND:                -0.047
REMARK SMILES O=C([O-])c1cc(O)c(O)c(O)c1
REMARK SMILES IDX 4 1 5 2 12 3 6 4 10 5 8 6 2 7 1 8 3 9 7 10 11 12 9 14
REMARK H PARENT 7 11 11 13 9 15
REMARK Flexibility Score: inf
ROOT
ATOM      1  C   UNL     1      -0.472  -0.626  23.582  1.00  0.00     0.005 A 
ATOM      2  C   UNL     1       0.759  -1.285  23.740  1.00  0.00     0.060 A 
ATOM      3  C   UNL     1      -0.516   0.773  23.700  1.00  0.00     0.060 A 
ATOM      4  C   UNL     1       1.927  -0.563  24.010  1.00  0.00     0.162 A 
ATOM      5  C   UNL     1       0.649   1.504  23.970  1.00  0.00     0.162 A 
ATOM      6  C   UNL     1       1.876   0.836  24.126  1.00  0.00     0.200 A 
ENDROOT
BRANCH   1   7
ATOM      7  C   UNL     1      -1.706  -1.391  23.296  1.00  0.00     0.072 C 
ATOM      8  O   UNL     1      -1.784  -2.124  22.274  1.00  0.00    -0.545 OA
ATOM      9  O   UNL     1      -2.799  -1.314  24.152  1.00  0.00    -0.545 OA
ENDBRANCH   1   7
BRANCH   4  10
ATOM     10  O   UNL     1       3.128  -1.255  24.159  1.00  0.00    -0.504 OA
ATOM     11  H   UNL     1       3.806  -1.325  23.410  1.00  0.00     0.293 HD
ENDBRANCH   4  10
BRANCH   5  12
ATOM     12  O   UNL     1       0.591   2.892  24.084  1.00  0.00    -0.504 OA
ATOM     13  H   UNL     1       0.184   3.469  23.357  1.00  0.00     0.293 HD
ENDBRANCH   5  12
BRANCH   6  14
ATOM     14  O   UNL     1       3.045   1.548  24.396  1.00  0.00    -0.502 OA
ATOM     15  H   UNL     1       3.141   2.533  24.176  1.00  0.00     0.293 HD
ENDBRANCH   6  14
TORSDOF 4
ENDMDL
MODEL 2
REMARK VINA RESULT:    -5.199      0.067      2.430
REMARK INTER + INTRA:          -6.005
REMARK INTER:                  -5.958
REMARK INTRA:                  -0.047
REMARK UNBOUND:                -0.047
REMARK SMILES O=C([O-])c1cc(O)c(O)c(O)c1
REMARK SMILES IDX 4 1 5 2 12 3 6 4 10 5 8 6 2 7 1 8 3 9 7 10 11 12 9 14
REMARK H PARENT 7 11 11 13 9 15
REMARK Flexibility Score: inf
ROOT
ATOM      1  C   UNL     1      -0.477  -0.576  23.600  1.00  0.00     0.005 A 
ATOM      2  C   UNL     1      -0.507   0.821  23.745  1.00  0.00     0.060 A 
ATOM      3  C   UNL     1       0.748  -1.250  23.736  1.00  0.00     0.060 A 
ATOM      4  C   UNL     1       0.664   1.536  24.021  1.00  0.00     0.162 A 
ATOM      5  C   UNL     1       1.925  -0.542  24.013  1.00  0.00     0.162 A 
ATOM      6  C   UNL     1       1.886   0.856  24.157  1.00  0.00     0.200 A 
ENDROOT
BRANCH   1   7
ATOM      7  C   UNL     1      -1.716  -1.331  23.308  1.00  0.00     0.072 C 
ATOM      8  O   UNL     1      -1.768  -2.125  22.330  1.00  0.00    -0.545 OA
ATOM      9  O   UNL     1      -2.842  -1.177  24.110  1.00  0.00    -0.545 OA
ENDBRANCH   1   7
BRANCH   4  10
ATOM     10  O   UNL     1       0.592   2.921  24.158  1.00  0.00    -0.504 OA
ATOM     11  H   UNL     1       1.225   3.545  23.672  1.00  0.00     0.293 HD
ENDBRANCH   4  10
BRANCH   5  12
ATOM     12  O   UNL     1       3.134  -1.223  24.147  1.00  0.00    -0.504 OA
ATOM     13  H   UNL     1       3.692  -1.481  23.341  1.00  0.00     0.293 HD
ENDBRANCH   5  12
BRANCH   6  14
ATOM     14  O   UNL     1       3.048   1.576  24.432  1.00  0.00    -0.502 OA
ATOM     15  H   UNL     1       3.832   1.168  24.928  1.00  0.00     0.293 HD
ENDBRANCH   6  14
TORSDOF 4
ENDMDL
MODEL 3
REMARK VINA RESULT:    -4.987      1.895      4.523
REMARK INTER + INTRA:          -5.762
REMARK INTER:                  -5.716
REMARK INTRA:                  -0.046
REMARK UNBOUND:                -0.047
REMARK SMILES O=C([O-])c1cc(O)c(O)c(O)c1
REMARK SMILES IDX 4 1 5 2 12 3 6 4 10 5 8 6 2 7 1 8 3 9 7 10 11 12 9 14
REMARK H PARENT 7 11 11 13 9 15
REMARK Flexibility Score: inf
ROOT
ATOM      1  C   UNL     1       0.774   1.761  24.507  1.00  0.00     0.005 A 
ATOM      2  C   UNL     1       0.338   1.876  23.176  1.00  0.00     0.060 A 
ATOM      3  C   UNL     1       0.766   0.498  25.121  1.00  0.00     0.060 A 
ATOM      4  C   UNL     1      -0.099   0.751  22.468  1.00  0.00     0.162 A 
ATOM      5  C   UNL     1       0.330  -0.634  24.419  1.00  0.00     0.162 A 
ATOM      6  C   UNL     1      -0.103  -0.511  23.088  1.00  0.00     0.200 A 
ENDROOT
BRANCH   1   7
ATOM      7  C   UNL     1       1.236   2.952  25.255  1.00  0.00     0.072 C 
ATOM      8  O   UNL     1       2.295   3.547  24.921  1.00  0.00    -0.545 OA
ATOM      9  O   UNL     1       0.506   3.433  26.336  1.00  0.00    -0.545 OA
ENDBRANCH   1   7
BRANCH   4  10
ATOM     10  O   UNL     1      -0.522   0.906  21.149  1.00  0.00    -0.504 OA
ATOM     11  H   UNL     1      -1.025   0.178  20.655  1.00  0.00     0.293 HD
ENDBRANCH   4  10
BRANCH   5  12
ATOM     12  O   UNL     1       0.327  -1.882  25.041  1.00  0.00    -0.504 OA
ATOM     13  H   UNL     1       0.580  -2.727  24.540  1.00  0.00     0.293 HD
ENDBRANCH   5  12
BRANCH   6  14
ATOM     14  O   UNL     1      -0.541  -1.627  22.375  1.00  0.00    -0.502 OA
ATOM     15  H   UNL     1      -1.168  -1.551  21.583  1.00  0.00     0.293 HD
ENDBRANCH   6  14
TORSDOF 4
ENDMDL
MODEL 4
REMARK VINA RESULT:    -4.944      1.949      4.139
REMARK INTER + INTRA:          -5.713
REMARK INTER:                  -5.667
REMARK INTRA:                  -0.046
REMARK UNBOUND:                -0.047
REMARK SMILES O=C([O-])c1cc(O)c(O)c(O)c1
REMARK SMILES IDX 4 1 5 2 12 3 6 4 10 5 8 6 2 7 1 8 3 9 7 10 11 12 9 14
REMARK H PARENT 7 11 11 13 9 15
REMARK Flexibility Score: inf
ROOT
ATOM      1  C   UNL     1       0.787   1.792  24.488  1.00  0.00     0.005 A 
ATOM      2  C   UNL     1       0.722   0.505  25.049  1.00  0.00     0.060 A 
ATOM      3  C   UNL     1       0.372   1.979  23.159  1.00  0.00     0.060 A 
ATOM      4  C   UNL     1       0.250  -0.578  24.299  1.00  0.00     0.162 A 
ATOM      5  C   UNL     1      -0.102   0.899  22.401  1.00  0.00     0.162 A 
ATOM      6  C   UNL     1      -0.165  -0.385  22.971  1.00  0.00     0.200 A 
ENDROOT
BRANCH   1   7
ATOM      7  C   UNL     1       1.286   2.937  25.282  1.00  0.00     0.072 C 
ATOM      8  O   UNL     1       2.343   3.537  24.949  1.00  0.00    -0.545 OA
ATOM      9  O   UNL     1       0.594   3.369  26.408  1.00  0.00    -0.545 OA
ENDBRANCH   1   7
BRANCH   4  10
ATOM     10  O   UNL     1       0.200  -1.839  24.892  1.00  0.00    -0.504 OA
ATOM     11  H   UNL     1       0.806  -2.597  24.601  1.00  0.00     0.293 HD
ENDBRANCH   4  10
BRANCH   5  12
ATOM     12  O   UNL     1      -0.512   1.098  21.083  1.00  0.00    -0.504 OA
ATOM     13  H   UNL     1      -1.387   1.558  20.861  1.00  0.00     0.293 HD
ENDBRANCH   5  12
BRANCH   6  14
ATOM     14  O   UNL     1      -0.633  -1.470  22.230  1.00  0.00    -0.502 OA
ATOM     15  H   UNL     1      -1.620  -1.623  22.060  1.00  0.00     0.293 HD
ENDBRANCH   6  14
TORSDOF 4
ENDMDL
MODEL 5
REMARK VINA RESULT:    -4.682     10.062     10.754
REMARK INTER + INTRA:          -5.412
REMARK INTER:                  -5.361
REMARK INTRA:                  -0.051
REMARK UNBOUND:                -0.047
REMARK SMILES O=C([O-])c1cc(O)c(O)c(O)c1
REMARK SMILES IDX 4 1 5 2 12 3 6 4 10 5 8 6 2 7 1 8 3 9 7 10 11 12 9 14
REMARK H PARENT 7 11 11 13 9 15
REMARK Flexibility Score: inf
ROOT
ATOM      1  C   UNL     1      -3.479   3.035  15.025  1.00  0.00     0.005 A 
ATOM      2  C   UNL     1      -4.684   2.691  15.659  1.00  0.00     0.060 A 
ATOM      3  C   UNL     1      -3.086   4.384  14.994  1.00  0.00     0.060 A 
ATOM      4  C   UNL     1      -5.486   3.672  16.252  1.00  0.00     0.162 A 
ATOM      5  C   UNL     1      -3.883   5.373  15.586  1.00  0.00     0.162 A 
ATOM      6  C   UNL     1      -5.087   5.019  16.218  1.00  0.00     0.200 A 
ENDROOT
BRANCH   1   7
ATOM      7  C   UNL     1      -2.632   1.996  14.398  1.00  0.00     0.072 C 
ATOM      8  O   UNL     1      -2.709   0.795  14.773  1.00  0.00    -0.545 OA
ATOM      9  O   UNL     1      -1.739   2.330  13.386  1.00  0.00    -0.545 OA
ENDBRANCH   1   7
BRANCH   4  10
ATOM     10  O   UNL     1      -6.675   3.289  16.872  1.00  0.00    -0.504 OA
ATOM     11  H   UNL     1      -6.838   2.340  17.186  1.00  0.00     0.293 HD
ENDBRANCH   4  10
BRANCH   5  12
ATOM     12  O   UNL     1      -3.482   6.708  15.548  1.00  0.00    -0.504 OA
ATOM     13  H   UNL     1      -3.110   7.128  14.704  1.00  0.00     0.293 HD
ENDBRANCH   5  12
BRANCH   6  14
ATOM     14  O   UNL     1      -5.893   5.991  16.812  1.00  0.00    -0.502 OA
ATOM     15  H   UNL     1      -6.874   6.094  16.582  1.00  0.00     0.293 HD
ENDBRANCH   6  14
TORSDOF 4
ENDMDL
MODEL 6
REMARK VINA RESULT:    -4.680     10.118     10.866
REMARK INTER + INTRA:          -5.410
REMARK INTER:                  -5.359
REMARK INTRA:                  -0.051
REMARK UNBOUND:                -0.047
REMARK SMILES O=C([O-])c1cc(O)c(O)c(O)c1
REMARK SMILES IDX 4 1 5 2 12 3 6 4 10 5 8 6 2 7 1 8 3 9 7 10 11 12 9 14
REMARK H PARENT 7 11 11 13 9 15
REMARK Flexibility Score: inf
ROOT
ATOM      1  C   UNL     1      -3.543   3.066  15.001  1.00  0.00     0.005 A 
ATOM      2  C   UNL     1      -3.163   4.419  14.994  1.00  0.00     0.060 A 
ATOM      3  C   UNL     1      -4.740   2.698  15.636  1.00  0.00     0.060 A 
ATOM      4  C   UNL     1      -3.962   5.389  15.609  1.00  0.00     0.162 A 
ATOM      5  C   UNL     1      -5.547   3.663  16.254  1.00  0.00     0.162 A 
ATOM      6  C   UNL     1      -5.160   5.014  16.241  1.00  0.00     0.200 A 
ENDROOT
BRANCH   1   7
ATOM      7  C   UNL     1      -2.697   2.042  14.349  1.00  0.00     0.072 C 
ATOM      8  O   UNL     1      -2.745   0.839  14.722  1.00  0.00    -0.545 OA
ATOM      9  O   UNL     1      -1.836   2.391  13.315  1.00  0.00    -0.545 OA
ENDBRANCH   1   7
BRANCH   4  10
ATOM     10  O   UNL     1      -3.551   6.721  15.579  1.00  0.00    -0.504 OA
ATOM     11  H   UNL     1      -3.123   7.135  14.760  1.00  0.00     0.293 HD
ENDBRANCH   4  10
BRANCH   5  12
ATOM     12  O   UNL     1      -6.734   3.284  16.881  1.00  0.00    -0.504 OA
ATOM     13  H   UNL     1      -7.533   2.953  16.352  1.00  0.00     0.293 HD
ENDBRANCH   5  12
BRANCH   6  14
ATOM     14  O   UNL     1      -5.950   5.987  16.853  1.00  0.00    -0.502 OA
ATOM     15  H   UNL     1      -6.323   6.779  16.343  1.00  0.00     0.293 HD
ENDBRANCH   6  14
TORSDOF 4
ENDMDL
MODEL 7
REMARK VINA RESULT:    -4.664     10.299     11.052
REMARK INTER + INTRA:          -5.392
REMARK INTER:                  -5.340
REMARK INTRA:                  -0.052
REMARK UNBOUND:                -0.047
REMARK SMILES O=C([O-])c1cc(O)c(O)c(O)c1
REMARK SMILES IDX 4 1 5 2 12 3 6 4 10 5 8 6 2 7 1 8 3 9 7 10 11 12 9 14
REMARK H PARENT 7 11 11 13 9 15
REMARK Flexibility Score: inf
ROOT
ATOM      1  C   UNL     1      -2.843   4.659  15.112  1.00  0.00     0.005 A 
ATOM      2  C   UNL     1      -1.936   3.871  14.383  1.00  0.00     0.060 A 
ATOM      3  C   UNL     1      -4.071   4.101  15.502  1.00  0.00     0.060 A 
ATOM      4  C   UNL     1      -2.247   2.548  14.049  1.00  0.00     0.162 A 
ATOM      5  C   UNL     1      -4.391   2.777  15.172  1.00  0.00     0.162 A 
ATOM      6  C   UNL     1      -3.478   1.995  14.443  1.00  0.00     0.200 A 
ENDROOT
BRANCH   1   7
ATOM      7  C   UNL     1      -2.512   6.058  15.465  1.00  0.00     0.072 C 
ATOM      8  O   UNL     1      -3.419   6.865  15.805  1.00  0.00    -0.545 OA
ATOM      9  O   UNL     1      -1.195   6.502  15.428  1.00  0.00    -0.545 OA
ENDBRANCH   1   7
BRANCH   4  10
ATOM     10  O   UNL     1      -1.320   1.799  13.326  1.00  0.00    -0.504 OA
ATOM     11  H   UNL     1      -0.520   2.223  12.872  1.00  0.00     0.293 HD
ENDBRANCH   4  10
BRANCH   5  12
ATOM     12  O   UNL     1      -5.614   2.235  15.565  1.00  0.00    -0.504 OA
ATOM     13  H   UNL     1      -6.180   2.667  16.287  1.00  0.00     0.293 HD
ENDBRANCH   5  12
BRANCH   6  14
ATOM     14  O   UNL     1      -3.780   0.676  14.105  1.00  0.00    -0.502 OA
ATOM     15  H   UNL     1      -3.369   0.216  13.301  1.00  0.00     0.293 HD
ENDBRANCH   6  14
TORSDOF 4
ENDMDL
MODEL 8
REMARK VINA RESULT:    -4.654     10.320     11.217
REMARK INTER + INTRA:          -5.380
REMARK INTER:                  -5.328
REMARK INTRA:                  -0.052
REMARK UNBOUND:                -0.047
REMARK SMILES O=C([O-])c1cc(O)c(O)c(O)c1
REMARK SMILES IDX 4 1 5 2 12 3 6 4 10 5 8 6 2 7 1 8 3 9 7 10 11 12 9 14
REMARK H PARENT 7 11 11 13 9 15
REMARK Flexibility Score: inf
ROOT
ATOM      1  C   UNL     1      -2.855   4.710  15.104  1.00  0.00     0.005 A 
ATOM      2  C   UNL     1      -4.071   4.140  15.517  1.00  0.00     0.060 A 
ATOM      3  C   UNL     1      -1.956   3.931  14.357  1.00  0.00     0.060 A 
ATOM      4  C   UNL     1      -4.387   2.816  15.192  1.00  0.00     0.162 A 
ATOM      5  C   UNL     1      -2.264   2.604  14.027  1.00  0.00     0.162 A 
ATOM      6  C   UNL     1      -3.483   2.042  14.444  1.00  0.00     0.200 A 
ENDROOT
BRANCH   1   7
ATOM      7  C   UNL     1      -2.523   6.110  15.448  1.00  0.00     0.072 C 
ATOM      8  O   UNL     1      -3.426   6.914  15.804  1.00  0.00    -0.545 OA
ATOM      9  O   UNL     1      -1.208   6.559  15.385  1.00  0.00    -0.545 OA
ENDBRANCH   1   7
BRANCH   4  10
ATOM     10  O   UNL     1      -5.604   2.287  15.620  1.00  0.00    -0.504 OA
ATOM     11  H   UNL     1      -6.322   2.862  16.044  1.00  0.00     0.293 HD
ENDBRANCH   4  10
BRANCH   5  12
ATOM     12  O   UNL     1      -1.363   1.842  13.285  1.00  0.00    -0.504 OA
ATOM     13  H   UNL     1      -1.661   1.033  12.752  1.00  0.00     0.293 HD
ENDBRANCH   5  12
BRANCH   6  14
ATOM     14  O   UNL     1      -3.805   0.723  14.124  1.00  0.00    -0.502 OA
ATOM     15  H   UNL     1      -4.199   0.083  14.804  1.00  0.00     0.293 HD
ENDBRANCH   6  14
TORSDOF 4
ENDMDL
MODEL 9
REMARK VINA RESULT:    -4.593     10.303     10.762
REMARK INTER + INTRA:          -5.311
REMARK INTER:                  -5.258
REMARK INTRA:                  -0.052
REMARK UNBOUND:                -0.047
REMARK SMILES O=C([O-])c1cc(O)c(O)c(O)c1
REMARK SMILES IDX 4 1 5 2 12 3 6 4 10 5 8 6 2 7 1 8 3 9 7 10 11 12 9 14
REMARK H PARENT 7 11 11 13 9 15
REMARK Flexibility Score: inf
ROOT
ATOM      1  C   UNL     1      -4.608   3.721  15.645  1.00  0.00     0.005 A 
ATOM      2  C   UNL     1      -4.564   2.364  15.285  1.00  0.00     0.060 A 
ATOM      3  C   UNL     1      -3.674   4.606  15.081  1.00  0.00     0.060 A 
ATOM      4  C   UNL     1      -3.607   1.894  14.379  1.00  0.00     0.162 A 
ATOM      5  C   UNL     1      -2.711   4.144  14.173  1.00  0.00     0.162 A 
ATOM      6  C   UNL     1      -2.675   2.785  13.818  1.00  0.00     0.200 A 
ENDROOT
BRANCH   1   7
ATOM      7  C   UNL     1      -5.622   4.216  16.602  1.00  0.00     0.072 C 
ATOM      8  O   UNL     1      -6.283   3.409  17.309  1.00  0.00    -0.545 OA
ATOM      9  O   UNL     1      -5.858   5.580  16.738  1.00  0.00    -0.545 OA
ENDBRANCH   1   7
BRANCH   4  10
ATOM     10  O   UNL     1      -3.597   0.540  14.048  1.00  0.00    -0.504 OA
ATOM     11  H   UNL     1      -2.736   0.020  13.929  1.00  0.00     0.293 HD
ENDBRANCH   4  10
BRANCH   5  12
ATOM     12  O   UNL     1      -1.790   5.033  13.620  1.00  0.00    -0.504 OA
ATOM     13  H   UNL     1      -0.981   5.354  14.140  1.00  0.00     0.293 HD
ENDBRANCH   5  12
BRANCH   6  14
ATOM     14  O   UNL     1      -1.724   2.308  12.916  1.00  0.00    -0.502 OA
ATOM     15  H   UNL     1      -1.981   1.881  12.035  1.00  0.00     0.293 HD
ENDBRANCH   6  14
TORSDOF 4
ENDMDL
