MODEL 1
REMARK VINA RESULT:    -3.742      0.000      0.000
REMARK INTER + INTRA:          -7.120
REMARK INTER:                  -5.929
REMARK INTRA:                  -1.191
REMARK UNBOUND:                -1.191
REMARK SMILES CCCCCCCCCCCC(=O)[O-]
REMARK SMILES IDX 7 1 8 2 9 3 10 4 11 5 12 6 13 7 14 8 6 9 5 10 4 11 3 12 2 13
REMARK SMILES IDX 1 14
REMARK H PARENT
REMARK Flexibility Score: inf
ROOT
ATOM      1  C   UNL     1       0.494  17.254  27.758  1.00  0.00     0.000 C 
ENDROOT
BRANCH   1   2
ATOM      2  C   UNL     1      -0.275  16.681  28.969  1.00  0.00     0.000 C 
BRANCH   2   3
ATOM      3  C   UNL     1       0.666  16.046  30.007  1.00  0.00     0.000 C 
BRANCH   3   4
ATOM      4  C   UNL     1       0.373  14.553  30.239  1.00  0.00     0.006 C 
BRANCH   4   5
ATOM      5  C   UNL     1      -0.995  14.096  29.704  1.00  0.00     0.053 C 
BRANCH   5   6
ATOM      6  C   UNL     1      -1.397  12.759  30.250  1.00  0.00     0.041 C 
ATOM      7  O   UNL     1      -1.066  11.704  29.648  1.00  0.00    -0.550 OA
ATOM      8  O   UNL     1      -2.129  12.679  31.427  1.00  0.00    -0.550 OA
ENDBRANCH   5   6
ENDBRANCH   4   5
ENDBRANCH   3   4
ENDBRANCH   2   3
ENDBRANCH   1   2
BRANCH   1   9
ATOM      9  C   UNL     1       2.027  17.222  27.920  1.00  0.00     0.000 C 
BRANCH   9  10
ATOM     10  C   UNL     1       2.711  18.599  27.923  1.00  0.00    -0.000 C 
BRANCH  10  11
ATOM     11  C   UNL     1       3.047  19.097  29.340  1.00  0.00    -0.000 C 
BRANCH  11  12
ATOM     12  C   UNL     1       2.124  20.239  29.796  1.00  0.00    -0.000 C 
BRANCH  12  13
ATOM     13  C   UNL     1       0.970  19.753  30.685  1.00  0.00    -0.003 C 
ATOM     14  C   UNL     1      -0.379  20.182  30.116  1.00  0.00     0.004 C 
ENDBRANCH  12  13
ENDBRANCH  11  12
ENDBRANCH  10  11
ENDBRANCH   9  10
ENDBRANCH   1   9
TORSDOF 10
ENDMDL
MODEL 2
REMARK VINA RESULT:    -3.705      1.597      2.541
REMARK INTER + INTRA:          -7.062
REMARK INTER:                  -5.395
REMARK INTRA:                  -1.668
REMARK UNBOUND:                -1.191
REMARK SMILES CCCCCCCCCCCC(=O)[O-]
REMARK SMILES IDX 7 1 8 2 9 3 10 4 11 5 12 6 13 7 14 8 6 9 5 10 4 11 3 12 2 13
REMARK SMILES IDX 1 14
REMARK H PARENT
REMARK Flexibility Score: inf
ROOT
ATOM      1  C   UNL     1       3.208  16.512  30.090  1.00  0.00     0.000 C 
ENDROOT
BRANCH   1   2
ATOM      2  C   UNL     1       2.609  15.274  30.793  1.00  0.00     0.000 C 
BRANCH   2   3
ATOM      3  C   UNL     1       1.114  15.452  31.111  1.00  0.00     0.000 C 
BRANCH   3   4
ATOM      4  C   UNL     1       0.207  14.631  30.177  1.00  0.00     0.006 C 
BRANCH   4   5
ATOM      5  C   UNL     1       0.968  13.633  29.289  1.00  0.00     0.053 C 
BRANCH   5   6
ATOM      6  C   UNL     1       0.491  12.225  29.485  1.00  0.00     0.041 C 
ATOM      7  O   UNL     1       1.321  11.289  29.627  1.00  0.00    -0.550 OA
ATOM      8  O   UNL     1      -0.869  11.949  29.518  1.00  0.00    -0.550 OA
ENDBRANCH   5   6
ENDBRANCH   4   5
ENDBRANCH   3   4
ENDBRANCH   2   3
ENDBRANCH   1   2
BRANCH   1   9
ATOM      9  C   UNL     1       3.695  16.239  28.653  1.00  0.00     0.000 C 
BRANCH   9  10
ATOM     10  C   UNL     1       2.673  16.551  27.547  1.00  0.00    -0.000 C 
BRANCH  10  11
ATOM     11  C   UNL     1       1.757  17.737  27.897  1.00  0.00    -0.000 C 
BRANCH  11  12
ATOM     12  C   UNL     1       0.267  17.399  27.727  1.00  0.00    -0.000 C 
BRANCH  12  13
ATOM     13  C   UNL     1      -0.611  18.007  28.830  1.00  0.00    -0.003 C 
ATOM     14  C   UNL     1       0.223  18.842  29.797  1.00  0.00     0.004 C 
ENDBRANCH  12  13
ENDBRANCH  11  12
ENDBRANCH  10  11
ENDBRANCH   9  10
ENDBRANCH   1   9
TORSDOF 10
ENDMDL
MODEL 3
REMARK VINA RESULT:    -3.687      4.633      6.388
REMARK INTER + INTRA:          -7.033
REMARK INTER:                  -5.934
REMARK INTRA:                  -1.100
REMARK UNBOUND:                -1.191
REMARK SMILES CCCCCCCCCCCC(=O)[O-]
REMARK SMILES IDX 7 1 8 2 9 3 10 4 11 5 12 6 13 7 14 8 6 9 5 10 4 11 3 12 2 13
REMARK SMILES IDX 1 14
REMARK H PARENT
REMARK Flexibility Score: inf
ROOT
ATOM      1  C   UNL     1       1.842  16.554  27.556  1.00  0.00     0.000 C 
ENDROOT
BRANCH   1   2
ATOM      2  C   UNL     1       3.195  17.298  27.572  1.00  0.00     0.000 C 
BRANCH   2   3
ATOM      3  C   UNL     1       3.028  18.801  27.861  1.00  0.00     0.000 C 
BRANCH   3   4
ATOM      4  C   UNL     1       3.638  19.217  29.211  1.00  0.00     0.006 C 
BRANCH   4   5
ATOM      5  C   UNL     1       4.350  20.580  29.179  1.00  0.00     0.053 C 
BRANCH   5   6
ATOM      6  C   UNL     1       5.688  20.502  28.508  1.00  0.00     0.041 C 
ATOM      7  O   UNL     1       6.128  21.487  27.858  1.00  0.00    -0.550 OA
ATOM      8  O   UNL     1       6.451  19.347  28.606  1.00  0.00    -0.550 OA
ENDBRANCH   5   6
ENDBRANCH   4   5
ENDBRANCH   3   4
ENDBRANCH   2   3
ENDBRANCH   1   2
BRANCH   1   9
ATOM      9  C   UNL     1       0.616  17.488  27.538  1.00  0.00     0.000 C 
BRANCH   9  10
ATOM     10  C   UNL     1      -0.332  17.341  28.741  1.00  0.00    -0.000 C 
BRANCH  10  11
ATOM     11  C   UNL     1      -0.923  18.685  29.203  1.00  0.00    -0.000 C 
BRANCH  11  12
ATOM     12  C   UNL     1       0.035  19.466  30.117  1.00  0.00    -0.000 C 
BRANCH  12  13
ATOM     13  C   UNL     1      -0.339  20.950  30.241  1.00  0.00    -0.003 C 
ATOM     14  C   UNL     1       0.906  21.833  30.213  1.00  0.00     0.004 C 
ENDBRANCH  12  13
ENDBRANCH  11  12
ENDBRANCH  10  11
ENDBRANCH   9  10
ENDBRANCH   1   9
TORSDOF 10
ENDMDL
MODEL 4
REMARK VINA RESULT:    -3.685      1.756      2.749
REMARK INTER + INTRA:          -7.031
REMARK INTER:                  -5.742
REMARK INTRA:                  -1.289
REMARK UNBOUND:                -1.191
REMARK SMILES CCCCCCCCCCCC(=O)[O-]
REMARK SMILES IDX 7 1 8 2 9 3 10 4 11 5 12 6 13 7 14 8 6 9 5 10 4 11 3 12 2 13
REMARK SMILES IDX 1 14
REMARK H PARENT
REMARK Flexibility Score: inf
ROOT
ATOM      1  C   UNL     1       1.818  14.717  29.848  1.00  0.00     0.000 C 
ENDROOT
BRANCH   1   2
ATOM      2  C   UNL     1       0.487  14.732  30.631  1.00  0.00     0.000 C 
BRANCH   2   3
ATOM      3  C   UNL     1      -0.699  14.266  29.769  1.00  0.00     0.000 C 
BRANCH   3   4
ATOM      4  C   UNL     1      -0.976  12.758  29.905  1.00  0.00     0.006 C 
BRANCH   4   5
ATOM      5  C   UNL     1      -0.756  12.211  31.325  1.00  0.00     0.053 C 
BRANCH   5   6
ATOM      6  C   UNL     1       0.255  11.104  31.352  1.00  0.00     0.041 C 
ATOM      7  O   UNL     1       1.316  11.198  30.680  1.00  0.00    -0.550 OA
ATOM      8  O   UNL     1       0.030   9.973  32.125  1.00  0.00    -0.550 OA
ENDBRANCH   5   6
ENDBRANCH   4   5
ENDBRANCH   3   4
ENDBRANCH   2   3
ENDBRANCH   1   2
BRANCH   1   9
ATOM      9  C   UNL     1       1.680  15.142  28.373  1.00  0.00     0.000 C 
BRANCH   9  10
ATOM     10  C   UNL     1       2.519  16.365  27.965  1.00  0.00    -0.000 C 
BRANCH  10  11
ATOM     11  C   UNL     1       1.673  17.640  27.795  1.00  0.00    -0.000 C 
BRANCH  11  12
ATOM     12  C   UNL     1       0.164  17.346  27.779  1.00  0.00    -0.000 C 
BRANCH  12  13
ATOM     13  C   UNL     1      -0.602  18.110  28.868  1.00  0.00    -0.003 C 
ATOM     14  C   UNL     1       0.357  18.751  29.867  1.00  0.00     0.004 C 
ENDBRANCH  12  13
ENDBRANCH  11  12
ENDBRANCH  10  11
ENDBRANCH   9  10
ENDBRANCH   1   9
TORSDOF 10
ENDMDL
MODEL 5
REMARK VINA RESULT:    -3.669      1.883      3.060
REMARK INTER + INTRA:          -7.005
REMARK INTER:                  -5.618
REMARK INTRA:                  -1.387
REMARK UNBOUND:                -1.191
REMARK SMILES CCCCCCCCCCCC(=O)[O-]
REMARK SMILES IDX 7 1 8 2 9 3 10 4 11 5 12 6 13 7 14 8 6 9 5 10 4 11 3 12 2 13
REMARK SMILES IDX 1 14
REMARK H PARENT
REMARK Flexibility Score: inf
ROOT
ATOM      1  C   UNL     1      -0.024  17.313  28.880  1.00  0.00     0.000 C 
ENDROOT
BRANCH   1   2
ATOM      2  C   UNL     1       0.642  17.283  27.487  1.00  0.00     0.000 C 
BRANCH   2   3
ATOM      3  C   UNL     1       1.814  16.288  27.425  1.00  0.00     0.000 C 
BRANCH   3   4
ATOM      4  C   UNL     1       2.496  16.087  28.790  1.00  0.00     0.006 C 
BRANCH   4   5
ATOM      5  C   UNL     1       2.819  14.619  29.115  1.00  0.00     0.053 C 
BRANCH   5   6
ATOM      6  C   UNL     1       1.623  13.730  28.955  1.00  0.00     0.041 C 
ATOM      7  O   UNL     1       1.645  12.782  28.127  1.00  0.00    -0.550 OA
ATOM      8  O   UNL     1       0.488  13.943  29.726  1.00  0.00    -0.550 OA
ENDBRANCH   5   6
ENDBRANCH   4   5
ENDBRANCH   3   4
ENDBRANCH   2   3
ENDBRANCH   1   2
BRANCH   1   9
ATOM      9  C   UNL     1      -1.074  18.430  29.046  1.00  0.00     0.000 C 
BRANCH   9  10
ATOM     10  C   UNL     1      -0.614  19.639  29.879  1.00  0.00    -0.000 C 
BRANCH  10  11
ATOM     11  C   UNL     1       0.759  19.422  30.539  1.00  0.00    -0.000 C 
BRANCH  11  12
ATOM     12  C   UNL     1       1.850  20.324  29.939  1.00  0.00    -0.000 C 
BRANCH  12  13
ATOM     13  C   UNL     1       3.145  19.562  29.623  1.00  0.00    -0.003 C 
ATOM     14  C   UNL     1       3.464  19.616  28.131  1.00  0.00     0.004 C 
ENDBRANCH  12  13
ENDBRANCH  11  12
ENDBRANCH  10  11
ENDBRANCH   9  10
ENDBRANCH   1   9
TORSDOF 10
ENDMDL
MODEL 6
REMARK VINA RESULT:    -3.667      2.011      3.546
REMARK INTER + INTRA:          -7.002
REMARK INTER:                  -5.769
REMARK INTRA:                  -1.233
REMARK UNBOUND:                -1.191
REMARK SMILES CCCCCCCCCCCC(=O)[O-]
REMARK SMILES IDX 7 1 8 2 9 3 10 4 11 5 12 6 13 7 14 8 6 9 5 10 4 11 3 12 2 13
REMARK SMILES IDX 1 14
REMARK H PARENT
REMARK Flexibility Score: inf
ROOT
ATOM      1  C   UNL     1      -0.153  16.073  29.379  1.00  0.00     0.000 C 
ENDROOT
BRANCH   1   2
ATOM      2  C   UNL     1       0.699  15.419  30.489  1.00  0.00     0.000 C 
BRANCH   2   3
ATOM      3  C   UNL     1       0.137  14.055  30.925  1.00  0.00     0.000 C 
BRANCH   3   4
ATOM      4  C   UNL     1      -0.935  13.519  29.960  1.00  0.00     0.006 C 
BRANCH   4   5
ATOM      5  C   UNL     1      -0.960  11.985  29.845  1.00  0.00     0.053 C 
BRANCH   5   6
ATOM      6  C   UNL     1      -1.458  11.334  31.100  1.00  0.00     0.041 C 
ATOM      7  O   UNL     1      -0.736  10.504  31.713  1.00  0.00    -0.550 OA
ATOM      8  O   UNL     1      -2.716  11.648  31.596  1.00  0.00    -0.550 OA
ENDBRANCH   5   6
ENDBRANCH   4   5
ENDBRANCH   3   4
ENDBRANCH   2   3
ENDBRANCH   1   2
BRANCH   1   9
ATOM      9  C   UNL     1       0.532  17.270  28.690  1.00  0.00     0.000 C 
BRANCH   9  10
ATOM     10  C   UNL     1       1.297  16.929  27.400  1.00  0.00    -0.000 C 
BRANCH  10  11
ATOM     11  C   UNL     1       2.824  17.005  27.572  1.00  0.00    -0.000 C 
BRANCH  11  12
ATOM     12  C   UNL     1       3.463  15.620  27.766  1.00  0.00    -0.000 C 
BRANCH  12  13
ATOM     13  C   UNL     1       2.615  14.486  27.175  1.00  0.00    -0.003 C 
ATOM     14  C   UNL     1       2.471  13.334  28.166  1.00  0.00     0.004 C 
ENDBRANCH  12  13
ENDBRANCH  11  12
ENDBRANCH  10  11
ENDBRANCH   9  10
ENDBRANCH   1   9
TORSDOF 10
ENDMDL
MODEL 7
REMARK VINA RESULT:    -3.648      1.855      3.377
REMARK INTER + INTRA:          -6.973
REMARK INTER:                  -5.483
REMARK INTRA:                  -1.490
REMARK UNBOUND:                -1.191
REMARK SMILES CCCCCCCCCCCC(=O)[O-]
REMARK SMILES IDX 7 1 8 2 9 3 10 4 11 5 12 6 13 7 14 8 6 9 5 10 4 11 3 12 2 13
REMARK SMILES IDX 1 14
REMARK H PARENT
REMARK Flexibility Score: inf
ROOT
ATOM      1  C   UNL     1       2.569  16.638  31.103  1.00  0.00     0.000 C 
ENDROOT
BRANCH   1   2
ATOM      2  C   UNL     1       2.220  15.149  30.892  1.00  0.00     0.000 C 
BRANCH   2   3
ATOM      3  C   UNL     1       0.725  14.864  31.118  1.00  0.00     0.000 C 
BRANCH   3   4
ATOM      4  C   UNL     1       0.032  14.303  29.864  1.00  0.00     0.006 C 
BRANCH   4   5
ATOM      5  C   UNL     1      -0.399  12.833  29.995  1.00  0.00     0.053 C 
BRANCH   5   6
ATOM      6  C   UNL     1       0.619  11.893  29.423  1.00  0.00     0.041 C 
ATOM      7  O   UNL     1       1.492  11.375  30.167  1.00  0.00    -0.550 OA
ATOM      8  O   UNL     1       0.600  11.585  28.069  1.00  0.00    -0.550 OA
ENDBRANCH   5   6
ENDBRANCH   4   5
ENDBRANCH   3   4
ENDBRANCH   2   3
ENDBRANCH   1   2
BRANCH   1   9
ATOM      9  C   UNL     1       1.337  17.552  31.258  1.00  0.00     0.000 C 
BRANCH   9  10
ATOM     10  C   UNL     1       1.020  18.432  30.037  1.00  0.00    -0.000 C 
BRANCH  10  11
ATOM     11  C   UNL     1      -0.189  17.925  29.231  1.00  0.00    -0.000 C 
BRANCH  11  12
ATOM     12  C   UNL     1       0.196  17.476  27.813  1.00  0.00    -0.000 C 
BRANCH  12  13
ATOM     13  C   UNL     1       1.714  17.375  27.612  1.00  0.00    -0.003 C 
ATOM     14  C   UNL     1       2.128  15.947  27.267  1.00  0.00     0.004 C 
ENDBRANCH  12  13
ENDBRANCH  11  12
ENDBRANCH  10  11
ENDBRANCH   9  10
ENDBRANCH   1   9
TORSDOF 10
ENDMDL
MODEL 8
REMARK VINA RESULT:    -3.629      1.089      2.008
REMARK INTER + INTRA:          -6.942
REMARK INTER:                  -5.867
REMARK INTRA:                  -1.075
REMARK UNBOUND:                -1.191
REMARK SMILES CCCCCCCCCCCC(=O)[O-]
REMARK SMILES IDX 7 1 8 2 9 3 10 4 11 5 12 6 13 7 14 8 6 9 5 10 4 11 3 12 2 13
REMARK SMILES IDX 1 14
REMARK H PARENT
REMARK Flexibility Score: inf
ROOT
ATOM      1  C   UNL     1       1.462  16.625  27.883  1.00  0.00     0.000 C 
ENDROOT
BRANCH   1   2
ATOM      2  C   UNL     1       1.675  15.959  29.260  1.00  0.00     0.000 C 
BRANCH   2   3
ATOM      3  C   UNL     1       1.144  14.516  29.297  1.00  0.00     0.000 C 
BRANCH   3   4
ATOM      4  C   UNL     1       0.079  14.303  30.388  1.00  0.00     0.006 C 
BRANCH   4   5
ATOM      5  C   UNL     1      -1.247  13.729  29.860  1.00  0.00     0.053 C 
BRANCH   5   6
ATOM      6  C   UNL     1      -1.595  12.424  30.511  1.00  0.00     0.041 C 
ATOM      7  O   UNL     1      -1.335  11.337  29.932  1.00  0.00    -0.550 OA
ATOM      8  O   UNL     1      -2.201  12.409  31.760  1.00  0.00    -0.550 OA
ENDBRANCH   5   6
ENDBRANCH   4   5
ENDBRANCH   3   4
ENDBRANCH   2   3
ENDBRANCH   1   2
BRANCH   1   9
ATOM      9  C   UNL     1       0.246  17.571  27.828  1.00  0.00     0.000 C 
BRANCH   9  10
ATOM     10  C   UNL     1      -0.569  17.661  29.130  1.00  0.00    -0.000 C 
BRANCH  10  11
ATOM     11  C   UNL     1      -0.897  19.110  29.531  1.00  0.00    -0.000 C 
BRANCH  11  12
ATOM     12  C   UNL     1       0.337  19.872  30.041  1.00  0.00    -0.000 C 
BRANCH  12  13
ATOM     13  C   UNL     1       1.084  19.120  31.151  1.00  0.00    -0.003 C 
ATOM     14  C   UNL     1       2.590  19.131  30.903  1.00  0.00     0.004 C 
ENDBRANCH  12  13
ENDBRANCH  11  12
ENDBRANCH  10  11
ENDBRANCH   9  10
ENDBRANCH   1   9
TORSDOF 10
ENDMDL
MODEL 9
REMARK VINA RESULT:    -3.626      1.487      3.219
REMARK INTER + INTRA:          -6.937
REMARK INTER:                  -5.424
REMARK INTRA:                  -1.513
REMARK UNBOUND:                -1.191
REMARK SMILES CCCCCCCCCCCC(=O)[O-]
REMARK SMILES IDX 7 1 8 2 9 3 10 4 11 5 12 6 13 7 14 8 6 9 5 10 4 11 3 12 2 13
REMARK SMILES IDX 1 14
REMARK H PARENT
REMARK Flexibility Score: inf
ROOT
ATOM      1  C   UNL     1       1.355  16.577  31.311  1.00  0.00     0.000 C 
ENDROOT
BRANCH   1   2
ATOM      2  C   UNL     1       2.141  15.365  30.766  1.00  0.00     0.000 C 
BRANCH   2   3
ATOM      3  C   UNL     1       1.311  14.070  30.801  1.00  0.00     0.000 C 
BRANCH   3   4
ATOM      4  C   UNL     1       0.443  13.888  29.543  1.00  0.00     0.006 C 
BRANCH   4   5
ATOM      5  C   UNL     1      -1.070  13.907  29.821  1.00  0.00     0.053 C 
BRANCH   5   6
ATOM      6  C   UNL     1      -1.534  12.652  30.499  1.00  0.00     0.041 C 
ATOM      7  O   UNL     1      -2.076  12.709  31.634  1.00  0.00    -0.550 OA
ATOM      8  O   UNL     1      -1.373  11.423  29.875  1.00  0.00    -0.550 OA
ENDBRANCH   5   6
ENDBRANCH   4   5
ENDBRANCH   3   4
ENDBRANCH   2   3
ENDBRANCH   1   2
BRANCH   1   9
ATOM      9  C   UNL     1       1.235  17.745  30.311  1.00  0.00     0.000 C 
BRANCH   9  10
ATOM     10  C   UNL     1       0.178  17.555  29.210  1.00  0.00    -0.000 C 
BRANCH  10  11
ATOM     11  C   UNL     1       0.795  17.232  27.838  1.00  0.00    -0.000 C 
BRANCH  11  12
ATOM     12  C   UNL     1       2.217  17.794  27.686  1.00  0.00    -0.000 C 
BRANCH  12  13
ATOM     13  C   UNL     1       3.257  16.707  27.378  1.00  0.00    -0.003 C 
ATOM     14  C   UNL     1       2.579  15.393  26.996  1.00  0.00     0.004 C 
ENDBRANCH  12  13
ENDBRANCH  11  12
ENDBRANCH  10  11
ENDBRANCH   9  10
ENDBRANCH   1   9
TORSDOF 10
ENDMDL
