MODEL 1
REMARK VINA RESULT:    -3.361      0.000      0.000
REMARK INTER + INTRA:          -6.008
REMARK INTER:                  -5.129
REMARK INTRA:                  -0.879
REMARK UNBOUND:                -0.879
REMARK SMILES CCCCCCCCCCC(=O)[O-]
REMARK SMILES IDX 7 1 8 2 9 3 10 4 11 5 12 6 13 7 6 8 5 9 4 10 3 11 2 12 1 13
REMARK H PARENT
REMARK Flexibility Score: inf
ROOT
ATOM      1  C   UNL     1      -5.154 -28.376  23.429  1.00  0.00     0.000 C 
ENDROOT
BRANCH   1   2
ATOM      2  C   UNL     1      -4.369 -28.448  24.752  1.00  0.00     0.000 C 
BRANCH   2   3
ATOM      3  C   UNL     1      -4.679 -27.279  25.699  1.00  0.00     0.006 C 
BRANCH   3   4
ATOM      4  C   UNL     1      -5.254 -27.785  27.025  1.00  0.00     0.053 C 
BRANCH   4   5
ATOM      5  C   UNL     1      -4.153 -28.113  27.983  1.00  0.00     0.041 C 
ATOM      6  O   UNL     1      -2.979 -27.717  27.757  1.00  0.00    -0.550 OA
ATOM      7  O   UNL     1      -4.431 -28.811  29.151  1.00  0.00    -0.550 OA
ENDBRANCH   4   5
ENDBRANCH   3   4
ENDBRANCH   2   3
ENDBRANCH   1   2
BRANCH   1   8
ATOM      8  C   UNL     1      -5.830 -27.023  23.138  1.00  0.00     0.000 C 
BRANCH   8   9
ATOM      9  C   UNL     1      -7.316 -27.161  22.767  1.00  0.00    -0.000 C 
BRANCH   9  10
ATOM     10  C   UNL     1      -7.925 -28.502  23.217  1.00  0.00    -0.000 C 
BRANCH  10  11
ATOM     11  C   UNL     1      -9.097 -28.390  24.210  1.00  0.00    -0.000 C 
BRANCH  11  12
ATOM     12  C   UNL     1      -8.645 -28.050  25.637  1.00  0.00    -0.003 C 
ATOM     13  C   UNL     1      -9.639 -28.574  26.669  1.00  0.00     0.004 C 
ENDBRANCH  11  12
ENDBRANCH  10  11
ENDBRANCH   9  10
ENDBRANCH   8   9
ENDBRANCH   1   8
TORSDOF 9
ENDMDL
MODEL 2
REMARK VINA RESULT:    -3.241      1.385      2.006
REMARK INTER + INTRA:          -5.825
REMARK INTER:                  -5.406
REMARK INTRA:                  -0.420
REMARK UNBOUND:                -0.879
REMARK SMILES CCCCCCCCCCC(=O)[O-]
REMARK SMILES IDX 7 1 8 2 9 3 10 4 11 5 12 6 13 7 6 8 5 9 4 10 3 11 2 12 1 13
REMARK H PARENT
REMARK Flexibility Score: inf
ROOT
ATOM      1  C   UNL     1      -5.719 -27.222  24.652  1.00  0.00     0.000 C 
ENDROOT
BRANCH   1   2
ATOM      2  C   UNL     1      -4.360 -27.921  24.839  1.00  0.00     0.000 C 
BRANCH   2   3
ATOM      3  C   UNL     1      -3.793 -27.762  26.258  1.00  0.00     0.006 C 
BRANCH   3   4
ATOM      4  C   UNL     1      -4.891 -27.933  27.310  1.00  0.00     0.053 C 
BRANCH   4   5
ATOM      5  C   UNL     1      -4.320 -28.480  28.580  1.00  0.00     0.041 C 
ATOM      6  O   UNL     1      -5.069 -29.055  29.415  1.00  0.00    -0.550 OA
ATOM      7  O   UNL     1      -2.955 -28.401  28.820  1.00  0.00    -0.550 OA
ENDBRANCH   4   5
ENDBRANCH   3   4
ENDBRANCH   2   3
ENDBRANCH   1   2
BRANCH   1   8
ATOM      8  C   UNL     1      -6.182 -27.066  23.191  1.00  0.00     0.000 C 
BRANCH   8   9
ATOM      9  C   UNL     1      -7.081 -28.222  22.721  1.00  0.00    -0.000 C 
BRANCH   9  10
ATOM     10  C   UNL     1      -8.254 -28.500  23.679  1.00  0.00    -0.000 C 
BRANCH  10  11
ATOM     11  C   UNL     1      -9.655 -28.378  23.052  1.00  0.00    -0.000 C 
BRANCH  11  12
ATOM     12  C   UNL     1     -10.475 -27.217  23.632  1.00  0.00    -0.003 C 
ATOM     13  C   UNL     1     -11.207 -26.456  22.531  1.00  0.00     0.004 C 
ENDBRANCH  11  12
ENDBRANCH  10  11
ENDBRANCH   9  10
ENDBRANCH   8   9
ENDBRANCH   1   8
TORSDOF 9
ENDMDL
MODEL 3
REMARK VINA RESULT:    -3.099     15.758     17.104
REMARK INTER + INTRA:          -5.609
REMARK INTER:                  -5.085
REMARK INTRA:                  -0.524
REMARK UNBOUND:                -0.879
REMARK SMILES CCCCCCCCCCC(=O)[O-]
REMARK SMILES IDX 7 1 8 2 9 3 10 4 11 5 12 6 13 7 6 8 5 9 4 10 3 11 2 12 1 13
REMARK H PARENT
REMARK Flexibility Score: inf
ROOT
ATOM      1  C   UNL     1     -16.550 -16.505  27.269  1.00  0.00     0.000 C 
ENDROOT
BRANCH   1   2
ATOM      2  C   UNL     1     -16.134 -15.650  26.058  1.00  0.00     0.000 C 
BRANCH   2   3
ATOM      3  C   UNL     1     -16.394 -14.150  26.264  1.00  0.00     0.006 C 
BRANCH   3   4
ATOM      4  C   UNL     1     -16.933 -13.506  24.984  1.00  0.00     0.053 C 
BRANCH   4   5
ATOM      5  C   UNL     1     -18.282 -12.907  25.226  1.00  0.00     0.041 C 
ATOM      6  O   UNL     1     -18.574 -11.785  24.734  1.00  0.00    -0.550 OA
ATOM      7  O   UNL     1     -19.235 -13.609  25.953  1.00  0.00    -0.550 OA
ENDBRANCH   4   5
ENDBRANCH   3   4
ENDBRANCH   2   3
ENDBRANCH   1   2
BRANCH   1   8
ATOM      8  C   UNL     1     -15.923 -16.090  28.613  1.00  0.00     0.000 C 
BRANCH   8   9
ATOM      9  C   UNL     1     -15.325 -17.276  29.388  1.00  0.00    -0.000 C 
BRANCH   9  10
ATOM     10  C   UNL     1     -13.790 -17.349  29.284  1.00  0.00    -0.000 C 
BRANCH  10  11
ATOM     11  C   UNL     1     -13.090 -16.017  28.957  1.00  0.00    -0.000 C 
BRANCH  11  12
ATOM     12  C   UNL     1     -11.589 -16.033  29.275  1.00  0.00    -0.003 C 
ATOM     13  C   UNL     1     -11.227 -17.217  30.168  1.00  0.00     0.004 C 
ENDBRANCH  11  12
ENDBRANCH  10  11
ENDBRANCH   9  10
ENDBRANCH   8   9
ENDBRANCH   1   8
TORSDOF 9
ENDMDL
MODEL 4
REMARK VINA RESULT:    -3.073     17.033     18.202
REMARK INTER + INTRA:          -5.569
REMARK INTER:                  -4.501
REMARK INTRA:                  -1.068
REMARK UNBOUND:                -0.879
REMARK SMILES CCCCCCCCCCC(=O)[O-]
REMARK SMILES IDX 7 1 8 2 9 3 10 4 11 5 12 6 13 7 6 8 5 9 4 10 3 11 2 12 1 13
REMARK H PARENT
REMARK Flexibility Score: inf
ROOT
ATOM      1  C   UNL     1     -16.364 -16.529  25.864  1.00  0.00     0.000 C 
ENDROOT
BRANCH   1   2
ATOM      2  C   UNL     1     -15.702 -15.315  26.539  1.00  0.00     0.000 C 
BRANCH   2   3
ATOM      3  C   UNL     1     -16.702 -14.205  26.896  1.00  0.00     0.006 C 
BRANCH   3   4
ATOM      4  C   UNL     1     -16.836 -13.198  25.751  1.00  0.00     0.053 C 
BRANCH   4   5
ATOM      5  C   UNL     1     -18.251 -12.726  25.630  1.00  0.00     0.041 C 
ATOM      6  O   UNL     1     -18.527 -11.736  24.902  1.00  0.00    -0.550 OA
ATOM      7  O   UNL     1     -19.271 -13.409  26.280  1.00  0.00    -0.550 OA
ENDBRANCH   4   5
ENDBRANCH   3   4
ENDBRANCH   2   3
ENDBRANCH   1   2
BRANCH   1   8
ATOM      8  C   UNL     1     -17.826 -16.792  26.272  1.00  0.00     0.000 C 
BRANCH   8   9
ATOM      9  C   UNL     1     -18.812 -16.638  25.103  1.00  0.00    -0.000 C 
BRANCH   9  10
ATOM     10  C   UNL     1     -18.118 -16.294  23.772  1.00  0.00    -0.000 C 
BRANCH  10  11
ATOM     11  C   UNL     1     -18.935 -15.404  22.817  1.00  0.00    -0.000 C 
BRANCH  11  12
ATOM     12  C   UNL     1     -18.156 -14.176  22.325  1.00  0.00    -0.003 C 
ATOM     13  C   UNL     1     -18.594 -13.772  20.920  1.00  0.00     0.004 C 
ENDBRANCH  11  12
ENDBRANCH  10  11
ENDBRANCH   9  10
ENDBRANCH   8   9
ENDBRANCH   1   8
TORSDOF 9
ENDMDL
MODEL 5
REMARK VINA RESULT:    -3.058     10.269     11.790
REMARK INTER + INTRA:          -5.546
REMARK INTER:                  -4.277
REMARK INTRA:                  -1.269
REMARK UNBOUND:                -0.879
REMARK SMILES CCCCCCCCCCC(=O)[O-]
REMARK SMILES IDX 7 1 8 2 9 3 10 4 11 5 12 6 13 7 6 8 5 9 4 10 3 11 2 12 1 13
REMARK H PARENT
REMARK Flexibility Score: inf
ROOT
ATOM      1  C   UNL     1     -10.952 -21.253  19.810  1.00  0.00     0.000 C 
ENDROOT
BRANCH   1   2
ATOM      2  C   UNL     1     -10.819 -19.908  20.548  1.00  0.00     0.000 C 
BRANCH   2   3
ATOM      3  C   UNL     1     -12.090 -19.050  20.467  1.00  0.00     0.006 C 
BRANCH   3   4
ATOM      4  C   UNL     1     -13.052 -19.593  19.406  1.00  0.00     0.053 C 
BRANCH   4   5
ATOM      5  C   UNL     1     -13.317 -18.557  18.360  1.00  0.00     0.041 C 
ATOM      6  O   UNL     1     -12.389 -17.802  17.968  1.00  0.00    -0.550 OA
ATOM      7  O   UNL     1     -14.576 -18.459  17.781  1.00  0.00    -0.550 OA
ENDBRANCH   4   5
ENDBRANCH   3   4
ENDBRANCH   2   3
ENDBRANCH   1   2
BRANCH   1   8
ATOM      8  C   UNL     1     -10.849 -22.505  20.702  1.00  0.00     0.000 C 
BRANCH   8   9
ATOM      9  C   UNL     1     -12.140 -23.339  20.715  1.00  0.00    -0.000 C 
BRANCH   9  10
ATOM     10  C   UNL     1     -12.842 -23.340  22.086  1.00  0.00    -0.000 C 
BRANCH  10  11
ATOM     11  C   UNL     1     -12.136 -22.523  23.184  1.00  0.00    -0.000 C 
BRANCH  11  12
ATOM     12  C   UNL     1     -12.787 -21.155  23.427  1.00  0.00    -0.003 C 
ATOM     13  C   UNL     1     -14.180 -21.089  22.806  1.00  0.00     0.004 C 
ENDBRANCH  11  12
ENDBRANCH  10  11
ENDBRANCH   9  10
ENDBRANCH   8   9
ENDBRANCH   1   8
TORSDOF 9
ENDMDL
MODEL 6
REMARK VINA RESULT:    -3.055     15.874     17.222
REMARK INTER + INTRA:          -5.542
REMARK INTER:                  -4.837
REMARK INTRA:                  -0.705
REMARK UNBOUND:                -0.879
REMARK SMILES CCCCCCCCCCC(=O)[O-]
REMARK SMILES IDX 7 1 8 2 9 3 10 4 11 5 12 6 13 7 6 8 5 9 4 10 3 11 2 12 1 13
REMARK H PARENT
REMARK Flexibility Score: inf
ROOT
ATOM      1  C   UNL     1     -15.262 -16.364  26.875  1.00  0.00     0.000 C 
ENDROOT
BRANCH   1   2
ATOM      2  C   UNL     1     -15.622 -14.868  26.826  1.00  0.00     0.000 C 
BRANCH   2   3
ATOM      3  C   UNL     1     -16.502 -14.501  25.622  1.00  0.00     0.006 C 
BRANCH   3   4
ATOM      4  C   UNL     1     -17.946 -14.962  25.835  1.00  0.00     0.053 C 
BRANCH   4   5
ATOM      5  C   UNL     1     -18.840 -13.790  26.086  1.00  0.00     0.041 C 
ATOM      6  O   UNL     1     -19.764 -13.869  26.939  1.00  0.00    -0.550 OA
ATOM      7  O   UNL     1     -18.624 -12.593  25.415  1.00  0.00    -0.550 OA
ENDBRANCH   4   5
ENDBRANCH   3   4
ENDBRANCH   2   3
ENDBRANCH   1   2
BRANCH   1   8
ATOM      8  C   UNL     1     -15.578 -17.073  28.205  1.00  0.00     0.000 C 
BRANCH   8   9
ATOM      9  C   UNL     1     -14.766 -16.519  29.388  1.00  0.00    -0.000 C 
BRANCH   9  10
ATOM     10  C   UNL     1     -13.291 -16.963  29.366  1.00  0.00    -0.000 C 
BRANCH  10  11
ATOM     11  C   UNL     1     -12.286 -15.878  28.937  1.00  0.00    -0.000 C 
BRANCH  11  12
ATOM     12  C   UNL     1     -12.827 -14.453  29.118  1.00  0.00    -0.003 C 
ATOM     13  C   UNL     1     -11.715 -13.419  28.972  1.00  0.00     0.004 C 
ENDBRANCH  11  12
ENDBRANCH  10  11
ENDBRANCH   9  10
ENDBRANCH   8   9
ENDBRANCH   1   8
TORSDOF 9
ENDMDL
MODEL 7
REMARK VINA RESULT:    -3.024      8.479      9.988
REMARK INTER + INTRA:          -5.495
REMARK INTER:                  -4.385
REMARK INTRA:                  -1.110
REMARK UNBOUND:                -0.879
REMARK SMILES CCCCCCCCCCC(=O)[O-]
REMARK SMILES IDX 7 1 8 2 9 3 10 4 11 5 12 6 13 7 6 8 5 9 4 10 3 11 2 12 1 13
REMARK H PARENT
REMARK Flexibility Score: inf
ROOT
ATOM      1  C   UNL     1     -11.897 -23.224  20.366  1.00  0.00     0.000 C 
ENDROOT
BRANCH   1   2
ATOM      2  C   UNL     1     -10.742 -22.205  20.363  1.00  0.00     0.000 C 
BRANCH   2   3
ATOM      3  C   UNL     1     -11.189 -20.791  19.963  1.00  0.00     0.006 C 
BRANCH   3   4
ATOM      4  C   UNL     1     -10.383 -19.728  20.713  1.00  0.00     0.053 C 
BRANCH   4   5
ATOM      5  C   UNL     1      -9.107 -19.431  19.990  1.00  0.00     0.041 C 
ATOM      6  O   UNL     1      -9.058 -19.512  18.734  1.00  0.00    -0.550 OA
ATOM      7  O   UNL     1      -7.987 -19.014  20.698  1.00  0.00    -0.550 OA
ENDBRANCH   4   5
ENDBRANCH   3   4
ENDBRANCH   2   3
ENDBRANCH   1   2
BRANCH   1   8
ATOM      8  C   UNL     1     -11.671 -24.470  21.243  1.00  0.00     0.000 C 
BRANCH   8   9
ATOM      9  C   UNL     1     -12.463 -24.429  22.560  1.00  0.00    -0.000 C 
BRANCH   9  10
ATOM     10  C   UNL     1     -11.877 -23.439  23.583  1.00  0.00    -0.000 C 
BRANCH  10  11
ATOM     11  C   UNL     1     -12.859 -22.370  24.098  1.00  0.00    -0.000 C 
BRANCH  11  12
ATOM     12  C   UNL     1     -12.768 -21.048  23.324  1.00  0.00    -0.003 C 
ATOM     13  C   UNL     1     -14.043 -20.788  22.528  1.00  0.00     0.004 C 
ENDBRANCH  11  12
ENDBRANCH  10  11
ENDBRANCH   9  10
ENDBRANCH   8   9
ENDBRANCH   1   8
TORSDOF 9
ENDMDL
MODEL 8
REMARK VINA RESULT:    -2.983      8.598     10.365
REMARK INTER + INTRA:          -5.432
REMARK INTER:                  -4.237
REMARK INTRA:                  -1.195
REMARK UNBOUND:                -0.879
REMARK SMILES CCCCCCCCCCC(=O)[O-]
REMARK SMILES IDX 7 1 8 2 9 3 10 4 11 5 12 6 13 7 6 8 5 9 4 10 3 11 2 12 1 13
REMARK H PARENT
REMARK Flexibility Score: inf
ROOT
ATOM      1  C   UNL     1     -13.468 -21.125  22.065  1.00  0.00     0.000 C 
ENDROOT
BRANCH   1   2
ATOM      2  C   UNL     1     -12.811 -20.245  20.986  1.00  0.00     0.000 C 
BRANCH   2   3
ATOM      3  C   UNL     1     -11.355 -19.881  21.311  1.00  0.00     0.006 C 
BRANCH   3   4
ATOM      4  C   UNL     1     -10.391 -20.526  20.311  1.00  0.00     0.053 C 
BRANCH   4   5
ATOM      5  C   UNL     1      -9.417 -19.515  19.795  1.00  0.00     0.041 C 
ATOM      6  O   UNL     1      -9.619 -18.950  18.688  1.00  0.00    -0.550 OA
ATOM      7  O   UNL     1      -8.312 -19.160  20.558  1.00  0.00    -0.550 OA
ENDBRANCH   4   5
ENDBRANCH   3   4
ENDBRANCH   2   3
ENDBRANCH   1   2
BRANCH   1   8
ATOM      8  C   UNL     1     -12.702 -21.212  23.398  1.00  0.00     0.000 C 
BRANCH   8   9
ATOM      9  C   UNL     1     -12.315 -22.651  23.775  1.00  0.00    -0.000 C 
BRANCH   9  10
ATOM     10  C   UNL     1     -12.906 -23.704  22.818  1.00  0.00    -0.000 C 
BRANCH  10  11
ATOM     11  C   UNL     1     -11.876 -24.632  22.148  1.00  0.00    -0.000 C 
BRANCH  11  12
ATOM     12  C   UNL     1     -11.210 -24.002  20.918  1.00  0.00    -0.003 C 
ATOM     13  C   UNL     1     -12.221 -23.778  19.798  1.00  0.00     0.004 C 
ENDBRANCH  11  12
ENDBRANCH  10  11
ENDBRANCH   9  10
ENDBRANCH   8   9
ENDBRANCH   1   8
TORSDOF 9
ENDMDL
MODEL 9
REMARK VINA RESULT:    -2.968      9.019     10.666
REMARK INTER + INTRA:          -5.409
REMARK INTER:                  -4.505
REMARK INTRA:                  -0.904
REMARK UNBOUND:                -0.879
REMARK SMILES CCCCCCCCCCC(=O)[O-]
REMARK SMILES IDX 7 1 8 2 9 3 10 4 11 5 12 6 13 7 6 8 5 9 4 10 3 11 2 12 1 13
REMARK H PARENT
REMARK Flexibility Score: inf
ROOT
ATOM      1  C   UNL     1     -11.507 -22.113  20.181  1.00  0.00     0.000 C 
ENDROOT
BRANCH   1   2
ATOM      2  C   UNL     1     -11.127 -23.501  20.727  1.00  0.00     0.000 C 
BRANCH   2   3
ATOM      3  C   UNL     1     -11.907 -23.884  21.993  1.00  0.00     0.006 C 
BRANCH   3   4
ATOM      4  C   UNL     1     -12.975 -22.836  22.318  1.00  0.00     0.053 C 
BRANCH   4   5
ATOM      5  C   UNL     1     -12.672 -22.166  23.620  1.00  0.00     0.041 C 
ATOM      6  O   UNL     1     -12.255 -20.977  23.638  1.00  0.00    -0.550 OA
ATOM      7  O   UNL     1     -12.899 -22.834  24.817  1.00  0.00    -0.550 OA
ENDBRANCH   4   5
ENDBRANCH   3   4
ENDBRANCH   2   3
ENDBRANCH   1   2
BRANCH   1   8
ATOM      8  C   UNL     1     -10.322 -21.176  19.883  1.00  0.00     0.000 C 
BRANCH   8   9
ATOM      9  C   UNL     1     -10.550 -19.741  20.385  1.00  0.00    -0.000 C 
BRANCH   9  10
ATOM     10  C   UNL     1     -12.041 -19.385  20.531  1.00  0.00    -0.000 C 
BRANCH  10  11
ATOM     11  C   UNL     1     -12.532 -18.234  19.633  1.00  0.00    -0.000 C 
BRANCH  11  12
ATOM     12  C   UNL     1     -12.114 -18.397  18.166  1.00  0.00    -0.003 C 
ATOM     13  C   UNL     1     -12.896 -19.520  17.491  1.00  0.00     0.004 C 
ENDBRANCH  11  12
ENDBRANCH  10  11
ENDBRANCH   9  10
ENDBRANCH   8   9
ENDBRANCH   1   8
TORSDOF 9
ENDMDL
