MODEL 1
REMARK VINA RESULT:    -4.055      0.000      0.000
REMARK INTER + INTRA:          -5.658
REMARK INTER:                  -5.478
REMARK INTRA:                  -0.180
REMARK UNBOUND:                -0.180
REMARK SMILES CCCCCCCC=O
REMARK SMILES IDX 5 1 4 2 3 3 2 4 1 5 6 6 7 7 8 8 9 9
REMARK H PARENT
REMARK Flexibility Score: inf
ROOT
ATOM      1  C   UNL     1      25.246  58.077  -9.003  1.00  0.00     0.000 C 
ENDROOT
BRANCH   1   2
ATOM      2  C   UNL     1      26.250  59.167  -9.413  1.00  0.00     0.000 C 
BRANCH   2   3
ATOM      3  C   UNL     1      27.260  58.676 -10.464  1.00  0.00    -0.000 C 
BRANCH   3   4
ATOM      4  C   UNL     1      28.319  59.737 -10.802  1.00  0.00    -0.003 C 
ATOM      5  C   UNL     1      29.540  59.152 -11.512  1.00  0.00     0.004 C 
ENDBRANCH   3   4
ENDBRANCH   2   3
ENDBRANCH   1   2
BRANCH   1   6
ATOM      6  C   UNL     1      25.829  56.661  -9.118  1.00  0.00     0.008 C 
BRANCH   6   7
ATOM      7  C   UNL     1      25.450  55.813  -7.898  1.00  0.00     0.072 C 
BRANCH   7   8
ATOM      8  C   UNL     1      24.150  55.100  -8.122  1.00  0.00     0.224 C 
ATOM      9  O   UNL     1      23.283  55.108  -7.263  1.00  0.00    -0.303 OA
ENDBRANCH   7   8
ENDBRANCH   6   7
ENDBRANCH   1   6
TORSDOF 6
ENDMDL
MODEL 2
REMARK VINA RESULT:    -4.020      3.060      5.902
REMARK INTER + INTRA:          -5.610
REMARK INTER:                  -5.533
REMARK INTRA:                  -0.078
REMARK UNBOUND:                -0.180
REMARK SMILES CCCCCCCC=O
REMARK SMILES IDX 5 1 4 2 3 3 2 4 1 5 6 6 7 7 8 8 9 9
REMARK H PARENT
REMARK Flexibility Score: inf
ROOT
ATOM      1  C   UNL     1      26.070  58.399  -9.381  1.00  0.00     0.000 C 
ENDROOT
BRANCH   1   2
ATOM      2  C   UNL     1      25.864  56.953  -8.901  1.00  0.00     0.000 C 
BRANCH   2   3
ATOM      3  C   UNL     1      24.387  56.624  -8.631  1.00  0.00    -0.000 C 
BRANCH   3   4
ATOM      4  C   UNL     1      24.181  55.169  -8.181  1.00  0.00    -0.003 C 
ATOM      5  C   UNL     1      23.076  55.021  -7.135  1.00  0.00     0.004 C 
ENDBRANCH   3   4
ENDBRANCH   2   3
ENDBRANCH   1   2
BRANCH   1   6
ATOM      6  C   UNL     1      27.121  58.510 -10.495  1.00  0.00     0.008 C 
BRANCH   6   7
ATOM      7  C   UNL     1      27.808  59.880 -10.465  1.00  0.00     0.072 C 
BRANCH   7   8
ATOM      8  C   UNL     1      29.259  59.762 -10.824  1.00  0.00     0.224 C 
ATOM      9  O   UNL     1      29.599  59.201 -11.853  1.00  0.00    -0.303 OA
ENDBRANCH   7   8
ENDBRANCH   6   7
ENDBRANCH   1   6
TORSDOF 6
ENDMDL
MODEL 3
REMARK VINA RESULT:    -3.659     17.570     19.279
REMARK INTER + INTRA:          -5.122
REMARK INTER:                  -4.635
REMARK INTRA:                  -0.488
REMARK UNBOUND:                -0.180
REMARK SMILES CCCCCCCC=O
REMARK SMILES IDX 5 1 4 2 3 3 2 4 1 5 6 6 7 7 8 8 9 9
REMARK H PARENT
REMARK Flexibility Score: inf
ROOT
ATOM      1  C   UNL     1      17.891  42.675   1.636  1.00  0.00     0.000 C 
ENDROOT
BRANCH   1   2
ATOM      2  C   UNL     1      16.394  42.997   1.507  1.00  0.00     0.000 C 
BRANCH   2   3
ATOM      3  C   UNL     1      16.050  44.415   1.994  1.00  0.00    -0.000 C 
BRANCH   3   4
ATOM      4  C   UNL     1      15.229  45.207   0.964  1.00  0.00    -0.003 C 
ATOM      5  C   UNL     1      16.001  45.484  -0.325  1.00  0.00     0.004 C 
ENDBRANCH   3   4
ENDBRANCH   2   3
ENDBRANCH   1   2
BRANCH   1   6
ATOM      6  C   UNL     1      18.668  43.760   2.397  1.00  0.00     0.008 C 
BRANCH   6   7
ATOM      7  C   UNL     1      19.887  44.227   1.593  1.00  0.00     0.072 C 
BRANCH   7   8
ATOM      8  C   UNL     1      19.534  44.423   0.148  1.00  0.00     0.224 C 
ATOM      9  O   UNL     1      19.589  45.532  -0.358  1.00  0.00    -0.303 OA
ENDBRANCH   7   8
ENDBRANCH   6   7
ENDBRANCH   1   6
TORSDOF 6
ENDMDL
MODEL 4
REMARK VINA RESULT:    -3.598      1.795      3.453
REMARK INTER + INTRA:          -5.040
REMARK INTER:                  -4.898
REMARK INTRA:                  -0.142
REMARK UNBOUND:                -0.180
REMARK SMILES CCCCCCCC=O
REMARK SMILES IDX 5 1 4 2 3 3 2 4 1 5 6 6 7 7 8 8 9 9
REMARK H PARENT
REMARK Flexibility Score: inf
ROOT
ATOM      1  C   UNL     1      28.439  59.765 -10.572  1.00  0.00     0.000 C 
ENDROOT
BRANCH   1   2
ATOM      2  C   UNL     1      29.832  59.272 -10.997  1.00  0.00     0.000 C 
BRANCH   2   3
ATOM      3  C   UNL     1      29.825  58.606 -12.384  1.00  0.00    -0.000 C 
BRANCH   3   4
ATOM      4  C   UNL     1      31.213  58.090 -12.795  1.00  0.00    -0.003 C 
ATOM      5  C   UNL     1      31.174  56.674 -13.370  1.00  0.00     0.004 C 
ENDBRANCH   3   4
ENDBRANCH   2   3
ENDBRANCH   1   2
BRANCH   1   6
ATOM      6  C   UNL     1      27.367  58.669 -10.668  1.00  0.00     0.008 C 
BRANCH   6   7
ATOM      7  C   UNL     1      26.393  58.752  -9.486  1.00  0.00     0.072 C 
BRANCH   7   8
ATOM      8  C   UNL     1      25.856  57.396  -9.136  1.00  0.00     0.224 C 
ATOM      9  O   UNL     1      24.728  57.274  -8.687  1.00  0.00    -0.303 OA
ENDBRANCH   7   8
ENDBRANCH   6   7
ENDBRANCH   1   6
TORSDOF 6
ENDMDL
MODEL 5
REMARK VINA RESULT:    -3.555     17.150     18.720
REMARK INTER + INTRA:          -4.982
REMARK INTER:                  -4.655
REMARK INTRA:                  -0.327
REMARK UNBOUND:                -0.180
REMARK SMILES CCCCCCCC=O
REMARK SMILES IDX 5 1 4 2 3 3 2 4 1 5 6 6 7 7 8 8 9 9
REMARK H PARENT
REMARK Flexibility Score: inf
ROOT
ATOM      1  C   UNL     1      18.217  45.748  -0.472  1.00  0.00     0.000 C 
ENDROOT
BRANCH   1   2
ATOM      2  C   UNL     1      16.972  44.878  -0.238  1.00  0.00     0.000 C 
BRANCH   2   3
ATOM      3  C   UNL     1      15.667  45.689  -0.279  1.00  0.00    -0.000 C 
BRANCH   3   4
ATOM      4  C   UNL     1      14.832  45.527   1.001  1.00  0.00    -0.003 C 
ATOM      5  C   UNL     1      15.515  44.648   2.048  1.00  0.00     0.004 C 
ENDBRANCH   3   4
ENDBRANCH   2   3
ENDBRANCH   1   2
BRANCH   1   6
ATOM      6  C   UNL     1      19.515  45.062  -0.019  1.00  0.00     0.008 C 
BRANCH   6   7
ATOM      7  C   UNL     1      19.215  43.904   0.940  1.00  0.00     0.072 C 
BRANCH   7   8
ATOM      8  C   UNL     1      20.482  43.239   1.391  1.00  0.00     0.224 C 
ATOM      9  O   UNL     1      21.138  42.565   0.613  1.00  0.00    -0.303 OA
ENDBRANCH   7   8
ENDBRANCH   6   7
ENDBRANCH   1   6
TORSDOF 6
ENDMDL
MODEL 6
REMARK VINA RESULT:    -3.543     17.417     19.167
REMARK INTER + INTRA:          -4.966
REMARK INTER:                  -4.464
REMARK INTRA:                  -0.502
REMARK UNBOUND:                -0.180
REMARK SMILES CCCCCCCC=O
REMARK SMILES IDX 5 1 4 2 3 3 2 4 1 5 6 6 7 7 8 8 9 9
REMARK H PARENT
REMARK Flexibility Score: inf
ROOT
ATOM      1  C   UNL     1      16.357  43.044   1.365  1.00  0.00     0.000 C 
ENDROOT
BRANCH   1   2
ATOM      2  C   UNL     1      17.824  42.635   1.571  1.00  0.00     0.000 C 
BRANCH   2   3
ATOM      3  C   UNL     1      18.637  43.706   2.319  1.00  0.00    -0.000 C 
BRANCH   3   4
ATOM      4  C   UNL     1      19.842  44.204   1.505  1.00  0.00    -0.003 C 
ATOM      5  C   UNL     1      19.443  44.784   0.148  1.00  0.00     0.004 C 
ENDBRANCH   3   4
ENDBRANCH   2   3
ENDBRANCH   1   2
BRANCH   1   6
ATOM      6  C   UNL     1      16.047  44.442   1.921  1.00  0.00     0.008 C 
BRANCH   6   7
ATOM      7  C   UNL     1      15.277  45.281   0.894  1.00  0.00     0.072 C 
BRANCH   7   8
ATOM      8  C   UNL     1      15.810  45.058  -0.490  1.00  0.00     0.224 C 
ATOM      9  O   UNL     1      16.145  46.003  -1.184  1.00  0.00    -0.303 OA
ENDBRANCH   7   8
ENDBRANCH   6   7
ENDBRANCH   1   6
TORSDOF 6
ENDMDL
MODEL 7
REMARK VINA RESULT:    -3.538      2.882      4.571
REMARK INTER + INTRA:          -4.958
REMARK INTER:                  -4.666
REMARK INTRA:                  -0.292
REMARK UNBOUND:                -0.180
REMARK SMILES CCCCCCCC=O
REMARK SMILES IDX 5 1 4 2 3 3 2 4 1 5 6 6 7 7 8 8 9 9
REMARK H PARENT
REMARK Flexibility Score: inf
ROOT
ATOM      1  C   UNL     1      29.827  59.338 -10.430  1.00  0.00     0.000 C 
ENDROOT
BRANCH   1   2
ATOM      2  C   UNL     1      30.896  59.184 -11.524  1.00  0.00     0.000 C 
BRANCH   2   3
ATOM      3  C   UNL     1      30.287  58.930 -12.914  1.00  0.00    -0.000 C 
BRANCH   3   4
ATOM      4  C   UNL     1      30.008  57.440 -13.170  1.00  0.00    -0.003 C 
ATOM      5  C   UNL     1      31.243  56.680 -13.652  1.00  0.00     0.004 C 
ENDBRANCH   3   4
ENDBRANCH   2   3
ENDBRANCH   1   2
BRANCH   1   6
ATOM      6  C   UNL     1      28.662  60.242 -10.862  1.00  0.00     0.008 C 
BRANCH   6   7
ATOM      7  C   UNL     1      27.394  59.919 -10.063  1.00  0.00     0.072 C 
BRANCH   7   8
ATOM      8  C   UNL     1      27.012  58.477 -10.222  1.00  0.00     0.224 C 
ATOM      9  O   UNL     1      26.273  57.940  -9.414  1.00  0.00    -0.303 OA
ENDBRANCH   7   8
ENDBRANCH   6   7
ENDBRANCH   1   6
TORSDOF 6
ENDMDL
MODEL 8
REMARK VINA RESULT:    -3.501      4.599      6.567
REMARK INTER + INTRA:          -4.909
REMARK INTER:                  -4.560
REMARK INTRA:                  -0.348
REMARK UNBOUND:                -0.180
REMARK SMILES CCCCCCCC=O
REMARK SMILES IDX 5 1 4 2 3 3 2 4 1 5 6 6 7 7 8 8 9 9
REMARK H PARENT
REMARK Flexibility Score: inf
ROOT
ATOM      1  C   UNL     1      30.130  57.391 -13.151  1.00  0.00     0.000 C 
ENDROOT
BRANCH   1   2
ATOM      2  C   UNL     1      31.386  56.704 -13.711  1.00  0.00     0.000 C 
BRANCH   2   3
ATOM      3  C   UNL     1      32.609  56.868 -12.793  1.00  0.00    -0.000 C 
BRANCH   3   4
ATOM      4  C   UNL     1      33.909  57.095 -13.580  1.00  0.00    -0.003 C 
ATOM      5  C   UNL     1      33.953  58.455 -14.275  1.00  0.00     0.004 C 
ENDBRANCH   3   4
ENDBRANCH   2   3
ENDBRANCH   1   2
BRANCH   1   6
ATOM      6  C   UNL     1      30.340  58.889 -12.885  1.00  0.00     0.008 C 
BRANCH   6   7
ATOM      7  C   UNL     1      30.170  59.210 -11.396  1.00  0.00     0.072 C 
BRANCH   7   8
ATOM      8  C   UNL     1      28.773  59.672 -11.103  1.00  0.00     0.224 C 
ATOM      9  O   UNL     1      27.903  58.868 -10.811  1.00  0.00    -0.303 OA
ENDBRANCH   7   8
ENDBRANCH   6   7
ENDBRANCH   1   6
TORSDOF 6
ENDMDL
MODEL 9
REMARK VINA RESULT:    -3.472     15.450     16.873
REMARK INTER + INTRA:          -4.869
REMARK INTER:                  -4.565
REMARK INTRA:                  -0.304
REMARK UNBOUND:                -0.180
REMARK SMILES CCCCCCCC=O
REMARK SMILES IDX 5 1 4 2 3 3 2 4 1 5 6 6 7 7 8 8 9 9
REMARK H PARENT
REMARK Flexibility Score: inf
ROOT
ATOM      1  C   UNL     1      31.911  44.471   1.489  1.00  0.00     0.000 C 
ENDROOT
BRANCH   1   2
ATOM      2  C   UNL     1      33.283  45.163   1.533  1.00  0.00     0.000 C 
BRANCH   2   3
ATOM      3  C   UNL     1      33.194  46.625   2.003  1.00  0.00    -0.000 C 
BRANCH   3   4
ATOM      4  C   UNL     1      32.485  46.764   3.360  1.00  0.00    -0.003 C 
ATOM      5  C   UNL     1      32.368  48.216   3.822  1.00  0.00     0.004 C 
ENDBRANCH   3   4
ENDBRANCH   2   3
ENDBRANCH   1   2
BRANCH   1   6
ATOM      6  C   UNL     1      31.061  44.917   0.290  1.00  0.00     0.008 C 
BRANCH   6   7
ATOM      7  C   UNL     1      29.688  45.421   0.751  1.00  0.00     0.072 C 
BRANCH   7   8
ATOM      8  C   UNL     1      28.687  45.348  -0.364  1.00  0.00     0.224 C 
ATOM      9  O   UNL     1      28.178  46.364  -0.806  1.00  0.00    -0.303 OA
ENDBRANCH   7   8
ENDBRANCH   6   7
ENDBRANCH   1   6
TORSDOF 6
ENDMDL
