MODEL 1
REMARK VINA RESULT:    -5.141      0.000      0.000
REMARK INTER + INTRA:          -5.291
REMARK INTER:                  -5.291
REMARK INTRA:                   0.000
REMARK UNBOUND:                 0.000
REMARK SMILES Oc1ccc2[nH]ccc2c1
REMARK SMILES IDX 3 1 4 2 5 3 9 4 8 5 7 6 6 7 10 8 2 9 1 11
REMARK H PARENT 6 10 1 12
REMARK Flexibility Score: inf
ROOT
ATOM      1  C   UNL     1      99.881 133.931  51.220  1.00  0.00     0.048 A 
ATOM      2  C   UNL     1     101.017 134.043  52.042  1.00  0.00     0.030 A 
ATOM      3  C   UNL     1     102.040 134.892  51.624  1.00  0.00     0.046 A 
ATOM      4  C   UNL     1     101.957 135.600  50.454  1.00  0.00     0.003 A 
ATOM      5  C   UNL     1     103.115 136.334  50.332  1.00  0.00     0.028 A 
ATOM      6  C   UNL     1     103.862 136.025  51.465  1.00  0.00     0.083 A 
ATOM      7  N   UNL     1     103.201 135.143  52.251  1.00  0.00    -0.361 N 
ATOM      8  C   UNL     1     100.846 135.512  49.618  1.00  0.00     0.056 A 
ATOM      9  C   UNL     1      99.790 134.661  50.012  1.00  0.00     0.116 A 
ATOM     10  H   UNL     1     103.530 134.743  53.157  1.00  0.00     0.166 HD
ENDROOT
BRANCH   9  11
ATOM     11  O   UNL     1      98.655 134.531  49.217  1.00  0.00    -0.508 OA
ATOM     12  H   UNL     1      98.656 133.956  48.383  1.00  0.00     0.293 HD
ENDBRANCH   9  11
TORSDOF 1
ENDMDL
MODEL 2
REMARK VINA RESULT:    -5.046      3.267      4.448
REMARK INTER + INTRA:          -5.193
REMARK INTER:                  -5.193
REMARK INTRA:                   0.000
REMARK UNBOUND:                 0.000
REMARK SMILES Oc1ccc2[nH]ccc2c1
REMARK SMILES IDX 3 1 4 2 5 3 9 4 8 5 7 6 6 7 10 8 2 9 1 11
REMARK H PARENT 6 10 1 12
REMARK Flexibility Score: inf
ROOT
ATOM      1  C   UNL     1     103.185 131.618  51.140  1.00  0.00     0.048 A 
ATOM      2  C   UNL     1     102.748 132.757  50.438  1.00  0.00     0.030 A 
ATOM      3  C   UNL     1     101.439 133.187  50.648  1.00  0.00     0.046 A 
ATOM      4  C   UNL     1     100.594 132.533  51.504  1.00  0.00     0.003 A 
ATOM      5  C   UNL     1      99.390 133.201  51.487  1.00  0.00     0.028 A 
ATOM      6  C   UNL     1      99.572 134.254  50.595  1.00  0.00     0.083 A 
ATOM      7  N   UNL     1     100.826 134.241  50.085  1.00  0.00    -0.361 N 
ATOM      8  C   UNL     1     100.995 131.403  52.214  1.00  0.00     0.056 A 
ATOM      9  C   UNL     1     102.316 130.940  52.026  1.00  0.00     0.116 A 
ATOM     10  H   UNL     1     101.228 134.914  49.396  1.00  0.00     0.166 HD
ENDROOT
BRANCH   9  11
ATOM     11  O   UNL     1     102.773 129.815  52.707  1.00  0.00    -0.508 OA
ATOM     12  H   UNL     1     103.155 129.018  52.214  1.00  0.00     0.293 HD
ENDBRANCH   9  11
TORSDOF 1
ENDMDL
MODEL 3
REMARK VINA RESULT:    -5.037      1.395      2.243
REMARK INTER + INTRA:          -5.184
REMARK INTER:                  -5.184
REMARK INTRA:                   0.000
REMARK UNBOUND:                 0.000
REMARK SMILES Oc1ccc2[nH]ccc2c1
REMARK SMILES IDX 3 1 4 2 5 3 9 4 8 5 7 6 6 7 10 8 2 9 1 11
REMARK H PARENT 6 10 1 12
REMARK Flexibility Score: inf
ROOT
ATOM      1  C   UNL     1     101.391 136.135  49.894  1.00  0.00     0.048 A 
ATOM      2  C   UNL     1     102.657 136.309  50.481  1.00  0.00     0.030 A 
ATOM      3  C   UNL     1     103.237 135.210  51.112  1.00  0.00     0.046 A 
ATOM      4  C   UNL     1     102.608 133.996  51.168  1.00  0.00     0.003 A 
ATOM      5  C   UNL     1     103.435 133.133  51.851  1.00  0.00     0.028 A 
ATOM      6  C   UNL     1     104.554 133.889  52.184  1.00  0.00     0.083 A 
ATOM      7  N   UNL     1     104.429 135.159  51.730  1.00  0.00    -0.361 N 
ATOM      8  C   UNL     1     101.354 133.790  50.596  1.00  0.00     0.056 A 
ATOM      9  C   UNL     1     100.737 134.882  49.948  1.00  0.00     0.116 A 
ATOM     10  H   UNL     1     105.118 135.934  51.842  1.00  0.00     0.166 HD
ENDROOT
BRANCH   9  11
ATOM     11  O   UNL     1      99.484 134.737  49.360  1.00  0.00    -0.508 OA
ATOM     12  H   UNL     1      98.677 135.246  49.701  1.00  0.00     0.293 HD
ENDBRANCH   9  11
TORSDOF 1
ENDMDL
MODEL 4
REMARK VINA RESULT:    -5.017      2.896      3.736
REMARK INTER + INTRA:          -5.163
REMARK INTER:                  -5.163
REMARK INTRA:                   0.000
REMARK UNBOUND:                 0.000
REMARK SMILES Oc1ccc2[nH]ccc2c1
REMARK SMILES IDX 3 1 4 2 5 3 9 4 8 5 7 6 6 7 10 8 2 9 1 11
REMARK H PARENT 6 10 1 12
REMARK Flexibility Score: inf
ROOT
ATOM      1  C   UNL     1      99.526 133.485  52.326  1.00  0.00     0.048 A 
ATOM      2  C   UNL     1     100.406 134.009  51.361  1.00  0.00     0.030 A 
ATOM      3  C   UNL     1     101.400 133.167  50.864  1.00  0.00     0.046 A 
ATOM      4  C   UNL     1     101.528 131.872  51.291  1.00  0.00     0.003 A 
ATOM      5  C   UNL     1     102.592 131.318  50.615  1.00  0.00     0.028 A 
ATOM      6  C   UNL     1     103.068 132.333  49.791  1.00  0.00     0.083 A 
ATOM      7  N   UNL     1     102.336 133.461  49.947  1.00  0.00    -0.361 N 
ATOM      8  C   UNL     1     100.673 131.324  52.245  1.00  0.00     0.056 A 
ATOM      9  C   UNL     1      99.655 132.149  52.769  1.00  0.00     0.116 A 
ATOM     10  H   UNL     1     102.475 134.371  49.453  1.00  0.00     0.166 HD
ENDROOT
BRANCH   9  11
ATOM     11  O   UNL     1      98.771 131.656  53.725  1.00  0.00    -0.508 OA
ATOM     12  H   UNL     1      98.212 130.830  53.553  1.00  0.00     0.293 HD
ENDBRANCH   9  11
TORSDOF 1
ENDMDL
MODEL 5
REMARK VINA RESULT:    -4.986      2.951      3.974
REMARK INTER + INTRA:          -5.132
REMARK INTER:                  -5.132
REMARK INTRA:                   0.000
REMARK UNBOUND:                 0.000
REMARK SMILES Oc1ccc2[nH]ccc2c1
REMARK SMILES IDX 3 1 4 2 5 3 9 4 8 5 7 6 6 7 10 8 2 9 1 11
REMARK H PARENT 6 10 1 12
REMARK Flexibility Score: inf
ROOT
ATOM      1  C   UNL     1     104.388 133.920  51.900  1.00  0.00     0.048 A 
ATOM      2  C   UNL     1     103.255 133.406  51.244  1.00  0.00     0.030 A 
ATOM      3  C   UNL     1     102.386 134.314  50.641  1.00  0.00     0.046 A 
ATOM      4  C   UNL     1     102.613 135.664  50.680  1.00  0.00     0.003 A 
ATOM      5  C   UNL     1     101.583 136.276  50.002  1.00  0.00     0.028 A 
ATOM      6  C   UNL     1     100.761 135.237  49.575  1.00  0.00     0.083 A 
ATOM      7  N   UNL     1     101.256 134.040  49.969  1.00  0.00    -0.361 N 
ATOM      8  C   UNL     1     103.725 136.205  51.321  1.00  0.00     0.056 A 
ATOM      9  C   UNL     1     104.627 135.313  51.942  1.00  0.00     0.116 A 
ATOM     10  H   UNL     1     100.840 133.100  49.785  1.00  0.00     0.166 HD
ENDROOT
BRANCH   9  11
ATOM     11  O   UNL     1     105.756 135.795  52.599  1.00  0.00    -0.508 OA
ATOM     12  H   UNL     1     106.290 135.211  53.231  1.00  0.00     0.293 HD
ENDBRANCH   9  11
TORSDOF 1
ENDMDL
MODEL 6
REMARK VINA RESULT:    -4.889      2.430      3.238
REMARK INTER + INTRA:          -5.032
REMARK INTER:                  -5.032
REMARK INTRA:                   0.000
REMARK UNBOUND:                 0.000
REMARK SMILES Oc1ccc2[nH]ccc2c1
REMARK SMILES IDX 3 1 4 2 5 3 9 4 8 5 7 6 6 7 10 8 2 9 1 11
REMARK H PARENT 6 10 1 12
REMARK Flexibility Score: inf
ROOT
ATOM      1  C   UNL     1      99.397 133.974  50.799  1.00  0.00     0.048 A 
ATOM      2  C   UNL     1      99.459 132.776  51.534  1.00  0.00     0.030 A 
ATOM      3  C   UNL     1     100.707 132.174  51.690  1.00  0.00     0.046 A 
ATOM      4  C   UNL     1     101.842 132.717  51.151  1.00  0.00     0.003 A 
ATOM      5  C   UNL     1     102.893 131.891  51.481  1.00  0.00     0.028 A 
ATOM      6  C   UNL     1     102.324 130.859  52.223  1.00  0.00     0.083 A 
ATOM      7  N   UNL     1     100.988 131.037  52.348  1.00  0.00    -0.361 N 
ATOM      8  C   UNL     1     101.815 133.902  50.418  1.00  0.00     0.056 A 
ATOM      9  C   UNL     1     100.567 134.539  50.241  1.00  0.00     0.116 A 
ATOM     10  H   UNL     1     100.318 130.415  52.852  1.00  0.00     0.166 HD
ENDROOT
BRANCH   9  11
ATOM     11  O   UNL     1     100.477 135.725  49.517  1.00  0.00    -0.508 OA
ATOM     12  H   UNL     1     100.554 136.628  49.970  1.00  0.00     0.293 HD
ENDBRANCH   9  11
TORSDOF 1
ENDMDL
MODEL 7
REMARK VINA RESULT:    -4.880      2.990      3.737
REMARK INTER + INTRA:          -5.022
REMARK INTER:                  -5.022
REMARK INTRA:                   0.000
REMARK UNBOUND:                 0.000
REMARK SMILES Oc1ccc2[nH]ccc2c1
REMARK SMILES IDX 3 1 4 2 5 3 9 4 8 5 7 6 6 7 10 8 2 9 1 11
REMARK H PARENT 6 10 1 12
REMARK Flexibility Score: inf
ROOT
ATOM      1  C   UNL     1     100.222 131.367  52.332  1.00  0.00     0.048 A 
ATOM      2  C   UNL     1      99.506 132.410  51.718  1.00  0.00     0.030 A 
ATOM      3  C   UNL     1     100.229 133.355  50.993  1.00  0.00     0.046 A 
ATOM      4  C   UNL     1     101.591 133.285  50.875  1.00  0.00     0.003 A 
ATOM      5  C   UNL     1     101.995 134.354  50.106  1.00  0.00     0.028 A 
ATOM      6  C   UNL     1     100.824 135.036  49.789  1.00  0.00     0.083 A 
ATOM      7  N   UNL     1      99.747 134.422  50.333  1.00  0.00    -0.361 N 
ATOM      8  C   UNL     1     102.331 132.266  51.471  1.00  0.00     0.056 A 
ATOM      9  C   UNL     1     101.630 131.290  52.213  1.00  0.00     0.116 A 
ATOM     10  H   UNL     1      98.750 134.720  50.255  1.00  0.00     0.166 HD
ENDROOT
BRANCH   9  11
ATOM     11  O   UNL     1     102.314 130.248  52.832  1.00  0.00    -0.508 OA
ATOM     12  H   UNL     1     102.458 129.360  52.367  1.00  0.00     0.293 HD
ENDBRANCH   9  11
TORSDOF 1
ENDMDL
MODEL 8
REMARK VINA RESULT:    -4.807      2.552      3.987
REMARK INTER + INTRA:          -4.947
REMARK INTER:                  -4.947
REMARK INTRA:                   0.000
REMARK UNBOUND:                 0.000
REMARK SMILES Oc1ccc2[nH]ccc2c1
REMARK SMILES IDX 3 1 4 2 5 3 9 4 8 5 7 6 6 7 10 8 2 9 1 11
REMARK H PARENT 6 10 1 12
REMARK Flexibility Score: inf
ROOT
ATOM      1  C   UNL     1     102.317 136.329  50.126  1.00  0.00     0.048 A 
ATOM      2  C   UNL     1     101.044 135.856  49.759  1.00  0.00     0.030 A 
ATOM      3  C   UNL     1     100.538 134.752  50.443  1.00  0.00     0.046 A 
ATOM      4  C   UNL     1     101.246 134.137  51.441  1.00  0.00     0.003 A 
ATOM      5  C   UNL     1     100.479 133.093  51.908  1.00  0.00     0.028 A 
ATOM      6  C   UNL     1      99.314 133.130  51.148  1.00  0.00     0.083 A 
ATOM      7  N   UNL     1      99.355 134.145  50.254  1.00  0.00    -0.361 N 
ATOM      8  C   UNL     1     102.508 134.580  51.830  1.00  0.00     0.056 A 
ATOM      9  C   UNL     1     103.051 135.697  51.157  1.00  0.00     0.116 A 
ATOM     10  H   UNL     1      98.617 134.400  49.561  1.00  0.00     0.166 HD
ENDROOT
BRANCH   9  11
ATOM     11  O   UNL     1     104.309 136.185  51.500  1.00  0.00    -0.508 OA
ATOM     12  H   UNL     1     104.626 136.198  52.462  1.00  0.00     0.293 HD
ENDBRANCH   9  11
TORSDOF 1
ENDMDL
MODEL 9
REMARK VINA RESULT:    -4.732      1.660      3.206
REMARK INTER + INTRA:          -4.870
REMARK INTER:                  -4.870
REMARK INTRA:                   0.000
REMARK UNBOUND:                 0.000
REMARK SMILES Oc1ccc2[nH]ccc2c1
REMARK SMILES IDX 3 1 4 2 5 3 9 4 8 5 7 6 6 7 10 8 2 9 1 11
REMARK H PARENT 6 10 1 12
REMARK Flexibility Score: inf
ROOT
ATOM      1  C   UNL     1     100.978 134.752  50.283  1.00  0.00     0.048 A 
ATOM      2  C   UNL     1     101.939 134.308  51.209  1.00  0.00     0.030 A 
ATOM      3  C   UNL     1     101.568 133.298  52.095  1.00  0.00     0.046 A 
ATOM      4  C   UNL     1     100.314 132.748  52.079  1.00  0.00     0.003 A 
ATOM      5  C   UNL     1     100.270 131.790  53.066  1.00  0.00     0.028 A 
ATOM      6  C   UNL     1     101.534 131.809  53.648  1.00  0.00     0.083 A 
ATOM      7  N   UNL     1     102.324 132.732  53.051  1.00  0.00    -0.361 N 
ATOM      8  C   UNL     1      99.340 133.166  51.175  1.00  0.00     0.056 A 
ATOM      9  C   UNL     1      99.681 134.187  50.262  1.00  0.00     0.116 A 
ATOM     10  H   UNL     1     103.316 132.956  53.289  1.00  0.00     0.166 HD
ENDROOT
BRANCH   9  11
ATOM     11  O   UNL     1      98.749 134.646  49.336  1.00  0.00    -0.508 OA
ATOM     12  H   UNL     1      99.015 134.874  48.386  1.00  0.00     0.293 HD
ENDBRANCH   9  11
TORSDOF 1
ENDMDL
