MODEL 1
REMARK VINA RESULT:    -3.513      0.000      0.000
REMARK INTER + INTRA:          -3.947
REMARK INTER:                  -3.822
REMARK INTRA:                  -0.126
REMARK UNBOUND:                -0.126
REMARK SMILES Cc1ccc(C(C)C)cc1O
REMARK SMILES IDX 1 1 2 2 10 3 9 4 5 5 4 6 3 7 11 8 6 10 7 11 8 12
REMARK H PARENT 11 9
REMARK Flexibility Score: inf
ROOT
ATOM      1  C   UNL     1     145.231 131.522 144.740  1.00  0.00     0.048 C 
ATOM      2  C   UNL     1     144.101 132.413 145.178  1.00  0.00    -0.009 A 
ATOM      3  C   UNL     1     143.243 133.025 144.237  1.00  0.00     0.118 A 
ATOM      4  C   UNL     1     142.202 133.849 144.678  1.00  0.00     0.050 A 
ATOM      5  C   UNL     1     141.993 134.078 146.050  1.00  0.00    -0.042 A 
ATOM      6  C   UNL     1     142.849 133.466 146.979  1.00  0.00     0.004 A 
ATOM      7  C   UNL     1     143.891 132.643 146.547  1.00  0.00     0.007 A 
ENDROOT
BRANCH   3   8
ATOM      8  O   UNL     1     143.400 132.836 142.863  1.00  0.00    -0.508 OA
ATOM      9  H   UNL     1     143.732 131.968 142.459  1.00  0.00     0.293 HD
ENDBRANCH   3   8
BRANCH   5  10
ATOM     10  C   UNL     1     140.864 134.971 146.533  1.00  0.00     0.013 C 
ATOM     11  C   UNL     1     139.710 134.998 145.524  1.00  0.00     0.012 C 
ATOM     12  C   UNL     1     140.374 134.541 147.920  1.00  0.00     0.012 C 
ENDBRANCH   5  10
TORSDOF 2
ENDMDL
MODEL 2
REMARK VINA RESULT:    -3.506     10.685     10.973
REMARK INTER + INTRA:          -3.939
REMARK INTER:                  -3.813
REMARK INTRA:                  -0.126
REMARK UNBOUND:                -0.126
REMARK SMILES Cc1ccc(C(C)C)cc1O
REMARK SMILES IDX 1 1 2 2 10 3 9 4 5 5 4 6 3 7 11 8 6 10 7 11 8 12
REMARK H PARENT 11 9
REMARK Flexibility Score: inf
ROOT
ATOM      1  C   UNL     1     131.555 136.374 144.733  1.00  0.00     0.048 C 
ATOM      2  C   UNL     1     132.440 137.512 145.161  1.00  0.00    -0.009 A 
ATOM      3  C   UNL     1     133.044 138.367 144.213  1.00  0.00     0.118 A 
ATOM      4  C   UNL     1     133.863 139.416 144.644  1.00  0.00     0.050 A 
ATOM      5  C   UNL     1     134.093 139.637 146.014  1.00  0.00    -0.042 A 
ATOM      6  C   UNL     1     133.489 138.784 146.950  1.00  0.00     0.004 A 
ATOM      7  C   UNL     1     132.672 137.734 146.528  1.00  0.00     0.007 A 
ENDROOT
BRANCH   3   8
ATOM      8  O   UNL     1     132.853 138.198 142.840  1.00  0.00    -0.508 OA
ATOM      9  H   UNL     1     132.902 137.297 142.382  1.00  0.00     0.293 HD
ENDBRANCH   3   8
BRANCH   5  10
ATOM     10  C   UNL     1     134.980 140.775 146.486  1.00  0.00     0.013 C 
ATOM     11  C   UNL     1     135.013 141.914 145.459  1.00  0.00     0.012 C 
ATOM     12  C   UNL     1     134.537 141.286 147.862  1.00  0.00     0.012 C 
ENDBRANCH   5  10
TORSDOF 2
ENDMDL
MODEL 3
REMARK VINA RESULT:    -3.497     10.723     11.016
REMARK INTER + INTRA:          -3.929
REMARK INTER:                  -3.803
REMARK INTRA:                  -0.126
REMARK UNBOUND:                -0.126
REMARK SMILES Cc1ccc(C(C)C)cc1O
REMARK SMILES IDX 1 1 2 2 10 3 9 4 5 5 4 6 3 7 11 8 6 10 7 11 8 12
REMARK H PARENT 11 9
REMARK Flexibility Score: inf
ROOT
ATOM      1  C   UNL     1     150.104 145.253 144.752  1.00  0.00     0.048 C 
ATOM      2  C   UNL     1     149.209 144.134 145.205  1.00  0.00    -0.009 A 
ATOM      3  C   UNL     1     148.582 143.275 144.275  1.00  0.00     0.118 A 
ATOM      4  C   UNL     1     147.753 142.243 144.730  1.00  0.00     0.050 A 
ATOM      5  C   UNL     1     147.535 142.044 146.105  1.00  0.00    -0.042 A 
ATOM      6  C   UNL     1     148.161 142.901 147.022  1.00  0.00     0.004 A 
ATOM      7  C   UNL     1     148.989 143.934 146.577  1.00  0.00     0.007 A 
ENDROOT
BRANCH   3   8
ATOM      8  O   UNL     1     148.760 143.422 142.898  1.00  0.00    -0.508 OA
ATOM      9  H   UNL     1     147.995 143.392 142.236  1.00  0.00     0.293 HD
ENDBRANCH   3   8
BRANCH   5  10
ATOM     10  C   UNL     1     146.637 140.925 146.602  1.00  0.00     0.013 C 
ATOM     11  C   UNL     1     146.581 139.771 145.594  1.00  0.00     0.012 C 
ATOM     12  C   UNL     1     147.085 140.430 147.982  1.00  0.00     0.012 C 
ENDBRANCH   5  10
TORSDOF 2
ENDMDL
MODEL 4
REMARK VINA RESULT:    -3.486     13.575     15.487
REMARK INTER + INTRA:          -3.918
REMARK INTER:                  -3.792
REMARK INTRA:                  -0.126
REMARK UNBOUND:                -0.126
REMARK SMILES Cc1ccc(C(C)C)cc1O
REMARK SMILES IDX 1 1 2 2 10 3 9 4 5 5 4 6 3 7 11 8 6 10 7 11 8 12
REMARK H PARENT 11 9
REMARK Flexibility Score: inf
ROOT
ATOM      1  C   UNL     1     136.353 150.022 144.752  1.00  0.00     0.048 C 
ATOM      2  C   UNL     1     137.488 149.136 145.185  1.00  0.00    -0.009 A 
ATOM      3  C   UNL     1     138.362 148.551 144.242  1.00  0.00     0.118 A 
ATOM      4  C   UNL     1     139.408 147.731 144.677  1.00  0.00     0.050 A 
ATOM      5  C   UNL     1     139.608 147.479 146.047  1.00  0.00    -0.042 A 
ATOM      6  C   UNL     1     138.736 148.064 146.978  1.00  0.00     0.004 A 
ATOM      7  C   UNL     1     137.689 148.883 146.552  1.00  0.00     0.007 A 
ENDROOT
BRANCH   3   8
ATOM      8  O   UNL     1     138.216 148.764 142.870  1.00  0.00    -0.508 OA
ATOM      9  H   UNL     1     137.367 149.129 142.455  1.00  0.00     0.293 HD
ENDBRANCH   3   8
BRANCH   5  10
ATOM     10  C   UNL     1     140.742 146.590 146.524  1.00  0.00     0.013 C 
ATOM     11  C   UNL     1     141.905 146.594 145.524  1.00  0.00     0.012 C 
ATOM     12  C   UNL     1     141.215 147.002 147.922  1.00  0.00     0.012 C 
ENDBRANCH   5  10
TORSDOF 2
ENDMDL
MODEL 5
REMARK VINA RESULT:    -3.469     14.777     16.882
REMARK INTER + INTRA:          -3.899
REMARK INTER:                  -3.772
REMARK INTRA:                  -0.127
REMARK UNBOUND:                -0.126
REMARK SMILES Cc1ccc(C(C)C)cc1O
REMARK SMILES IDX 1 1 2 2 10 3 9 4 5 5 4 6 3 7 11 8 6 10 7 11 8 12
REMARK H PARENT 11 9
REMARK Flexibility Score: inf
ROOT
ATOM      1  C   UNL     1     135.410 151.093 147.163  1.00  0.00     0.048 C 
ATOM      2  C   UNL     1     136.375 150.200 146.433  1.00  0.00    -0.009 A 
ATOM      3  C   UNL     1     136.486 150.238 145.025  1.00  0.00     0.118 A 
ATOM      4  C   UNL     1     137.393 149.393 144.376  1.00  0.00     0.050 A 
ATOM      5  C   UNL     1     138.203 148.504 145.106  1.00  0.00    -0.042 A 
ATOM      6  C   UNL     1     138.087 148.472 146.504  1.00  0.00     0.004 A 
ATOM      7  C   UNL     1     137.183 149.311 147.159  1.00  0.00     0.007 A 
ENDROOT
BRANCH   3   8
ATOM      8  O   UNL     1     135.710 151.098 144.246  1.00  0.00    -0.508 OA
ATOM      9  H   UNL     1     134.924 150.784 143.692  1.00  0.00     0.293 HD
ENDBRANCH   3   8
BRANCH   5  10
ATOM     10  C   UNL     1     139.189 147.587 144.406  1.00  0.00     0.013 C 
ATOM     11  C   UNL     1     140.405 147.299 145.295  1.00  0.00     0.012 C 
ATOM     12  C   UNL     1     138.512 146.285 143.959  1.00  0.00     0.012 C 
ENDBRANCH   5  10
TORSDOF 2
ENDMDL
MODEL 6
REMARK VINA RESULT:    -3.454      5.760      8.195
REMARK INTER + INTRA:          -3.883
REMARK INTER:                  -3.781
REMARK INTRA:                  -0.102
REMARK UNBOUND:                -0.126
REMARK SMILES Cc1ccc(C(C)C)cc1O
REMARK SMILES IDX 1 1 2 2 10 3 9 4 5 5 4 6 3 7 11 8 6 10 7 11 8 12
REMARK H PARENT 11 9
REMARK Flexibility Score: inf
ROOT
ATOM      1  C   UNL     1     138.014 135.008 144.852  1.00  0.00     0.048 C 
ATOM      2  C   UNL     1     136.873 135.984 144.942  1.00  0.00    -0.009 A 
ATOM      3  C   UNL     1     136.162 136.388 143.791  1.00  0.00     0.118 A 
ATOM      4  C   UNL     1     135.105 137.298 143.909  1.00  0.00     0.050 A 
ATOM      5  C   UNL     1     134.736 137.818 145.162  1.00  0.00    -0.042 A 
ATOM      6  C   UNL     1     135.447 137.412 146.302  1.00  0.00     0.004 A 
ATOM      7  C   UNL     1     136.503 136.505 146.192  1.00  0.00     0.007 A 
ENDROOT
BRANCH   3   8
ATOM      8  O   UNL     1     136.481 135.906 142.520  1.00  0.00    -0.508 OA
ATOM      9  H   UNL     1     136.199 134.992 142.189  1.00  0.00     0.293 HD
ENDBRANCH   3   8
BRANCH   5  10
ATOM     10  C   UNL     1     133.591 138.805 145.295  1.00  0.00     0.013 C 
ATOM     11  C   UNL     1     134.064 140.240 145.036  1.00  0.00     0.012 C 
ATOM     12  C   UNL     1     132.429 138.431 144.367  1.00  0.00     0.012 C 
ENDBRANCH   5  10
TORSDOF 2
ENDMDL
MODEL 7
REMARK VINA RESULT:    -3.452     12.442     12.772
REMARK INTER + INTRA:          -3.880
REMARK INTER:                  -3.753
REMARK INTRA:                  -0.127
REMARK UNBOUND:                -0.126
REMARK SMILES Cc1ccc(C(C)C)cc1O
REMARK SMILES IDX 1 1 2 2 10 3 9 4 5 5 4 6 3 7 11 8 6 10 7 11 8 12
REMARK H PARENT 11 9
REMARK Flexibility Score: inf
ROOT
ATOM      1  C   UNL     1     151.100 146.149 147.168  1.00  0.00     0.048 C 
ATOM      2  C   UNL     1     150.193 145.200 146.434  1.00  0.00    -0.009 A 
ATOM      3  C   UNL     1     150.224 145.099 145.025  1.00  0.00     0.118 A 
ATOM      4  C   UNL     1     149.366 144.208 144.373  1.00  0.00     0.050 A 
ATOM      5  C   UNL     1     148.470 143.404 145.100  1.00  0.00    -0.042 A 
ATOM      6  C   UNL     1     148.445 143.509 146.499  1.00  0.00     0.004 A 
ATOM      7  C   UNL     1     149.298 144.397 147.158  1.00  0.00     0.007 A 
ENDROOT
BRANCH   3   8
ATOM      8  O   UNL     1     151.091 145.871 144.249  1.00  0.00    -0.508 OA
ATOM      9  H   UNL     1     150.854 146.205 143.323  1.00  0.00     0.293 HD
ENDBRANCH   3   8
BRANCH   5  10
ATOM     10  C   UNL     1     147.537 142.434 144.396  1.00  0.00     0.013 C 
ATOM     11  C   UNL     1     147.326 141.165 145.230  1.00  0.00     0.012 C 
ATOM     12  C   UNL     1     146.199 143.101 144.058  1.00  0.00     0.012 C 
ENDBRANCH   5  10
TORSDOF 2
ENDMDL
MODEL 8
REMARK VINA RESULT:    -3.441     11.247     12.219
REMARK INTER + INTRA:          -3.868
REMARK INTER:                  -3.767
REMARK INTRA:                  -0.101
REMARK UNBOUND:                -0.126
REMARK SMILES Cc1ccc(C(C)C)cc1O
REMARK SMILES IDX 1 1 2 2 10 3 9 4 5 5 4 6 3 7 11 8 6 10 7 11 8 12
REMARK H PARENT 11 9
REMARK Flexibility Score: inf
ROOT
ATOM      1  C   UNL     1     143.598 146.609 144.808  1.00  0.00     0.048 C 
ATOM      2  C   UNL     1     144.740 145.637 144.911  1.00  0.00    -0.009 A 
ATOM      3  C   UNL     1     145.444 145.209 143.763  1.00  0.00     0.118 A 
ATOM      4  C   UNL     1     146.501 144.302 143.894  1.00  0.00     0.050 A 
ATOM      5  C   UNL     1     146.879 143.809 145.156  1.00  0.00    -0.042 A 
ATOM      6  C   UNL     1     146.176 144.240 146.291  1.00  0.00     0.004 A 
ATOM      7  C   UNL     1     145.119 145.143 146.170  1.00  0.00     0.007 A 
ENDROOT
BRANCH   3   8
ATOM      8  O   UNL     1     145.115 145.662 142.485  1.00  0.00    -0.508 OA
ATOM      9  H   UNL     1     145.806 145.984 141.818  1.00  0.00     0.293 HD
ENDBRANCH   3   8
BRANCH   5  10
ATOM     10  C   UNL     1     148.027 142.826 145.302  1.00  0.00     0.013 C 
ATOM     11  C   UNL     1     147.557 141.387 145.055  1.00  0.00     0.012 C 
ATOM     12  C   UNL     1     149.190 143.193 144.374  1.00  0.00     0.012 C 
ENDBRANCH   5  10
TORSDOF 2
ENDMDL
MODEL 9
REMARK VINA RESULT:    -3.437     14.534     16.269
REMARK INTER + INTRA:          -3.864
REMARK INTER:                  -3.737
REMARK INTRA:                  -0.128
REMARK UNBOUND:                -0.126
REMARK SMILES Cc1ccc(C(C)C)cc1O
REMARK SMILES IDX 1 1 2 2 10 3 9 4 5 5 4 6 3 7 11 8 6 10 7 11 8 12
REMARK H PARENT 11 9
REMARK Flexibility Score: inf
ROOT
ATOM      1  C   UNL     1     139.912 146.496 145.193  1.00  0.00     0.048 C 
ATOM      2  C   UNL     1     138.887 147.596 145.165  1.00  0.00    -0.009 A 
ATOM      3  C   UNL     1     138.365 148.080 143.944  1.00  0.00     0.118 A 
ATOM      4  C   UNL     1     137.413 149.106 143.952  1.00  0.00     0.050 A 
ATOM      5  C   UNL     1     136.962 149.664 145.162  1.00  0.00    -0.042 A 
ATOM      6  C   UNL     1     137.484 149.177 146.370  1.00  0.00     0.004 A 
ATOM      7  C   UNL     1     138.435 148.155 146.371  1.00  0.00     0.007 A 
ENDROOT
BRANCH   3   8
ATOM      8  O   UNL     1     138.774 147.567 142.712  1.00  0.00    -0.508 OA
ATOM      9  H   UNL     1     139.306 146.711 142.619  1.00  0.00     0.293 HD
ENDBRANCH   3   8
BRANCH   5  10
ATOM     10  C   UNL     1     135.929 150.776 145.175  1.00  0.00     0.013 C 
ATOM     11  C   UNL     1     134.711 150.410 144.318  1.00  0.00     0.012 C 
ATOM     12  C   UNL     1     135.510 151.123 146.608  1.00  0.00     0.012 C 
ENDBRANCH   5  10
TORSDOF 2
ENDMDL
