MODEL 1
REMARK VINA RESULT:    -5.159      0.000      0.000
REMARK INTER + INTRA:          -5.710
REMARK INTER:                  -5.612
REMARK INTRA:                  -0.098
REMARK UNBOUND:                -0.098
REMARK SMILES C=C(C)[C@H]1CC=C(C)[C@@H](O)C1
REMARK SMILES IDX 8 1 7 2 6 3 5 4 4 5 11 6 9 7 10 8 2 10 1 11 3 12
REMARK H PARENT 10 9
REMARK Flexibility Score: inf
ROOT
ATOM      1  C   UNL     1     113.856 121.640 126.192  1.00  0.00     0.042 C 
ATOM      2  C   UNL     1     113.984 121.465 127.683  1.00  0.00    -0.049 C 
ATOM      3  C   UNL     1     114.263 120.234 128.165  1.00  0.00    -0.025 C 
ATOM      4  C   UNL     1     114.413 119.939 129.635  1.00  0.00     0.035 C 
ATOM      5  C   UNL     1     114.791 121.195 130.435  1.00  0.00     0.021 C 
ATOM      6  C   UNL     1     113.835 122.340 130.076  1.00  0.00     0.044 C 
ATOM      7  C   UNL     1     113.954 122.694 128.582  1.00  0.00     0.140 C 
ENDROOT
BRANCH   7   8
ATOM      8  O   UNL     1     112.875 123.515 128.214  1.00  0.00    -0.389 OA
ATOM      9  H   UNL     1     112.462 123.839 129.056  1.00  0.00     0.211 HD
ENDBRANCH   7   8
BRANCH   5  10
ATOM     10  C   UNL     1     114.797 120.917 131.933  1.00  0.00    -0.077 C 
ATOM     11  C   UNL     1     113.855 120.129 132.474  1.00  0.00     0.008 C 
ATOM     12  C   UNL     1     115.841 121.519 132.842  1.00  0.00     0.039 C 
ENDBRANCH   5  10
TORSDOF 2
ENDMDL
MODEL 2
REMARK VINA RESULT:    -4.872      2.240      4.826
REMARK INTER + INTRA:          -5.397
REMARK INTER:                  -5.311
REMARK INTRA:                  -0.086
REMARK UNBOUND:                -0.098
REMARK SMILES C=C(C)[C@H]1CC=C(C)[C@@H](O)C1
REMARK SMILES IDX 8 1 7 2 6 3 5 4 4 5 11 6 9 7 10 8 2 10 1 11 3 12
REMARK H PARENT 10 9
REMARK Flexibility Score: inf
ROOT
ATOM      1  C   UNL     1     116.646 120.090 134.410  1.00  0.00     0.042 C 
ATOM      2  C   UNL     1     116.032 120.420 133.074  1.00  0.00    -0.049 C 
ATOM      3  C   UNL     1     116.842 120.500 131.995  1.00  0.00    -0.025 C 
ATOM      4  C   UNL     1     116.343 120.823 130.611  1.00  0.00     0.035 C 
ATOM      5  C   UNL     1     114.854 120.481 130.446  1.00  0.00     0.021 C 
ATOM      6  C   UNL     1     114.055 121.090 131.606  1.00  0.00     0.044 C 
ATOM      7  C   UNL     1     114.517 120.496 132.950  1.00  0.00     0.140 C 
ENDROOT
BRANCH   7   8
ATOM      8  O   UNL     1     114.000 121.272 134.000  1.00  0.00    -0.389 OA
ATOM      9  H   UNL     1     113.012 121.253 133.912  1.00  0.00     0.211 HD
ENDBRANCH   7   8
BRANCH   5  10
ATOM     10  C   UNL     1     114.324 120.946 129.095  1.00  0.00    -0.077 C 
ATOM     11  C   UNL     1     114.375 120.125 128.035  1.00  0.00     0.008 C 
ATOM     12  C   UNL     1     113.743 122.326 128.910  1.00  0.00     0.039 C 
ENDBRANCH   5  10
TORSDOF 2
ENDMDL
MODEL 3
REMARK VINA RESULT:    -4.861      1.616      4.395
REMARK INTER + INTRA:          -5.385
REMARK INTER:                  -5.288
REMARK INTRA:                  -0.097
REMARK UNBOUND:                -0.098
REMARK SMILES C=C(C)[C@H]1CC=C(C)[C@@H](O)C1
REMARK SMILES IDX 8 1 7 2 6 3 5 4 4 5 11 6 9 7 10 8 2 10 1 11 3 12
REMARK H PARENT 10 9
REMARK Flexibility Score: inf
ROOT
ATOM      1  C   UNL     1     114.357 120.421 132.824  1.00  0.00     0.042 C 
ATOM      2  C   UNL     1     114.434 120.773 131.360  1.00  0.00    -0.049 C 
ATOM      3  C   UNL     1     114.420 119.770 130.456  1.00  0.00    -0.025 C 
ATOM      4  C   UNL     1     114.492 120.000 128.968  1.00  0.00     0.035 C 
ATOM      5  C   UNL     1     114.007 121.406 128.583  1.00  0.00     0.021 C 
ATOM      6  C   UNL     1     114.713 122.451 129.458  1.00  0.00     0.044 C 
ATOM      7  C   UNL     1     114.364 122.236 130.943  1.00  0.00     0.140 C 
ENDROOT
BRANCH   7   8
ATOM      8  O   UNL     1     115.242 122.991 131.738  1.00  0.00    -0.389 OA
ATOM      9  H   UNL     1     114.800 123.110 132.619  1.00  0.00     0.211 HD
ENDBRANCH   7   8
BRANCH   5  10
ATOM     10  C   UNL     1     114.222 121.680 127.100  1.00  0.00    -0.077 C 
ATOM     11  C   UNL     1     114.909 122.764 126.708  1.00  0.00     0.008 C 
ATOM     12  C   UNL     1     113.668 120.757 126.041  1.00  0.00     0.039 C 
ENDBRANCH   5  10
TORSDOF 2
ENDMDL
MODEL 4
REMARK VINA RESULT:    -4.811      1.530      2.153
REMARK INTER + INTRA:          -5.331
REMARK INTER:                  -5.239
REMARK INTRA:                  -0.092
REMARK UNBOUND:                -0.098
REMARK SMILES C=C(C)[C@H]1CC=C(C)[C@@H](O)C1
REMARK SMILES IDX 8 1 7 2 6 3 5 4 4 5 11 6 9 7 10 8 2 10 1 11 3 12
REMARK H PARENT 10 9
REMARK Flexibility Score: inf
ROOT
ATOM      1  C   UNL     1     113.465 122.225 125.727  1.00  0.00     0.042 C 
ATOM      2  C   UNL     1     113.834 121.916 127.155  1.00  0.00    -0.049 C 
ATOM      3  C   UNL     1     113.824 122.923 128.055  1.00  0.00    -0.025 C 
ATOM      4  C   UNL     1     114.175 122.734 129.508  1.00  0.00     0.035 C 
ATOM      5  C   UNL     1     113.972 121.280 129.961  1.00  0.00     0.021 C 
ATOM      6  C   UNL     1     114.667 120.332 128.974  1.00  0.00     0.044 C 
ATOM      7  C   UNL     1     114.050 120.467 127.570  1.00  0.00     0.140 C 
ENDROOT
BRANCH   7   8
ATOM      8  O   UNL     1     114.884 119.832 126.635  1.00  0.00    -0.389 OA
ATOM      9  H   UNL     1     115.174 120.529 125.990  1.00  0.00     0.211 HD
ENDBRANCH   7   8
BRANCH   5  10
ATOM     10  C   UNL     1     114.467 121.069 131.386  1.00  0.00    -0.077 C 
ATOM     11  C   UNL     1     113.886 120.148 132.170  1.00  0.00     0.008 C 
ATOM     12  C   UNL     1     115.604 121.884 131.954  1.00  0.00     0.039 C 
ENDBRANCH   5  10
TORSDOF 2
ENDMDL
MODEL 5
REMARK VINA RESULT:    -4.779     11.466     12.525
REMARK INTER + INTRA:          -5.296
REMARK INTER:                  -5.201
REMARK INTRA:                  -0.095
REMARK UNBOUND:                -0.098
REMARK SMILES C=C(C)[C@H]1CC=C(C)[C@@H](O)C1
REMARK SMILES IDX 8 1 7 2 6 3 5 4 4 5 11 6 9 7 10 8 2 10 1 11 3 12
REMARK H PARENT 10 9
REMARK Flexibility Score: inf
ROOT
ATOM      1  C   UNL     1     122.251 134.501 127.582  1.00  0.00     0.042 C 
ATOM      2  C   UNL     1     121.653 133.195 128.040  1.00  0.00    -0.049 C 
ATOM      3  C   UNL     1     120.362 133.183 128.437  1.00  0.00    -0.025 C 
ATOM      4  C   UNL     1     119.658 131.939 128.914  1.00  0.00     0.035 C 
ATOM      5  C   UNL     1     120.320 130.663 128.371  1.00  0.00     0.021 C 
ATOM      6  C   UNL     1     121.832 130.719 128.630  1.00  0.00     0.044 C 
ATOM      7  C   UNL     1     122.462 131.915 127.891  1.00  0.00     0.140 C 
ENDROOT
BRANCH   7   8
ATOM      8  O   UNL     1     123.763 132.125 128.377  1.00  0.00    -0.389 OA
ATOM      9  H   UNL     1     123.932 131.421 129.057  1.00  0.00     0.211 HD
ENDBRANCH   7   8
BRANCH   5  10
ATOM     10  C   UNL     1     119.693 129.413 128.975  1.00  0.00    -0.077 C 
ATOM     11  C   UNL     1     119.991 128.204 128.476  1.00  0.00     0.008 C 
ATOM     12  C   UNL     1     118.725 129.497 130.130  1.00  0.00     0.039 C 
ENDBRANCH   5  10
TORSDOF 2
ENDMDL
MODEL 6
REMARK VINA RESULT:    -4.778     11.635     12.655
REMARK INTER + INTRA:          -5.295
REMARK INTER:                  -5.196
REMARK INTRA:                  -0.099
REMARK UNBOUND:                -0.098
REMARK SMILES C=C(C)[C@H]1CC=C(C)[C@@H](O)C1
REMARK SMILES IDX 8 1 7 2 6 3 5 4 4 5 11 6 9 7 10 8 2 10 1 11 3 12
REMARK H PARENT 10 9
REMARK Flexibility Score: inf
ROOT
ATOM      1  C   UNL     1     122.613 134.726 127.771  1.00  0.00     0.042 C 
ATOM      2  C   UNL     1     121.857 133.448 128.029  1.00  0.00    -0.049 C 
ATOM      3  C   UNL     1     122.559 132.303 128.171  1.00  0.00    -0.025 C 
ATOM      4  C   UNL     1     121.913 130.966 128.431  1.00  0.00     0.035 C 
ATOM      5  C   UNL     1     120.527 131.118 129.076  1.00  0.00     0.021 C 
ATOM      6  C   UNL     1     119.691 132.121 128.268  1.00  0.00     0.044 C 
ATOM      7  C   UNL     1     120.357 133.509 128.278  1.00  0.00     0.140 C 
ENDROOT
BRANCH   7   8
ATOM      8  O   UNL     1     119.753 134.318 127.301  1.00  0.00    -0.389 OA
ATOM      9  H   UNL     1     118.982 134.766 127.737  1.00  0.00     0.211 HD
ENDBRANCH   7   8
BRANCH   5  10
ATOM     10  C   UNL     1     119.823 129.772 129.199  1.00  0.00    -0.077 C 
ATOM     11  C   UNL     1     120.287 128.707 128.528  1.00  0.00     0.008 C 
ATOM     12  C   UNL     1     118.596 129.602 130.061  1.00  0.00     0.039 C 
ENDBRANCH   5  10
TORSDOF 2
ENDMDL
MODEL 7
REMARK VINA RESULT:    -4.690      2.831      4.417
REMARK INTER + INTRA:          -5.199
REMARK INTER:                  -5.113
REMARK INTRA:                  -0.086
REMARK UNBOUND:                -0.098
REMARK SMILES C=C(C)[C@H]1CC=C(C)[C@@H](O)C1
REMARK SMILES IDX 8 1 7 2 6 3 5 4 4 5 11 6 9 7 10 8 2 10 1 11 3 12
REMARK H PARENT 10 9
REMARK Flexibility Score: inf
ROOT
ATOM      1  C   UNL     1     113.622 122.146 130.672  1.00  0.00     0.042 C 
ATOM      2  C   UNL     1     114.684 121.592 131.587  1.00  0.00    -0.049 C 
ATOM      3  C   UNL     1     115.974 121.909 131.342  1.00  0.00    -0.025 C 
ATOM      4  C   UNL     1     117.120 121.415 132.187  1.00  0.00     0.035 C 
ATOM      5  C   UNL     1     116.663 121.042 133.606  1.00  0.00     0.021 C 
ATOM      6  C   UNL     1     115.441 120.117 133.527  1.00  0.00     0.044 C 
ATOM      7  C   UNL     1     114.265 120.835 132.840  1.00  0.00     0.140 C 
ENDROOT
BRANCH   7   8
ATOM      8  O   UNL     1     113.278 119.892 132.507  1.00  0.00    -0.389 OA
ATOM      9  H   UNL     1     112.685 120.322 131.837  1.00  0.00     0.211 HD
ENDBRANCH   7   8
BRANCH   5  10
ATOM     10  C   UNL     1     117.796 120.408 134.404  1.00  0.00    -0.077 C 
ATOM     11  C   UNL     1     118.624 121.179 135.125  1.00  0.00     0.008 C 
ATOM     12  C   UNL     1     118.022 118.915 134.401  1.00  0.00     0.039 C 
ENDBRANCH   5  10
TORSDOF 2
ENDMDL
MODEL 8
REMARK VINA RESULT:    -4.670      1.333      1.591
REMARK INTER + INTRA:          -5.177
REMARK INTER:                  -5.080
REMARK INTRA:                  -0.097
REMARK UNBOUND:                -0.098
REMARK SMILES C=C(C)[C@H]1CC=C(C)[C@@H](O)C1
REMARK SMILES IDX 8 1 7 2 6 3 5 4 4 5 11 6 9 7 10 8 2 10 1 11 3 12
REMARK H PARENT 10 9
REMARK Flexibility Score: inf
ROOT
ATOM      1  C   UNL     1     114.419 121.482 127.432  1.00  0.00     0.042 C 
ATOM      2  C   UNL     1     114.613 121.458 128.926  1.00  0.00    -0.049 C 
ATOM      3  C   UNL     1     114.308 120.326 129.596  1.00  0.00    -0.025 C 
ATOM      4  C   UNL     1     114.461 120.185 131.089  1.00  0.00     0.035 C 
ATOM      5  C   UNL     1     115.493 121.173 131.654  1.00  0.00     0.021 C 
ATOM      6  C   UNL     1     115.185 122.586 131.142  1.00  0.00     0.044 C 
ATOM      7  C   UNL     1     115.291 122.640 129.606  1.00  0.00     0.140 C 
ENDROOT
BRANCH   7   8
ATOM      8  O   UNL     1     114.718 123.836 129.145  1.00  0.00    -0.389 OA
ATOM      9  H   UNL     1     113.745 123.667 129.042  1.00  0.00     0.211 HD
ENDBRANCH   7   8
BRANCH   5  10
ATOM     10  C   UNL     1     115.533 121.123 133.176  1.00  0.00    -0.077 C 
ATOM     11  C   UNL     1     114.391 121.065 133.877  1.00  0.00     0.008 C 
ATOM     12  C   UNL     1     116.841 121.145 133.930  1.00  0.00     0.039 C 
ENDBRANCH   5  10
TORSDOF 2
ENDMDL
MODEL 9
REMARK VINA RESULT:    -4.628     10.314     11.269
REMARK INTER + INTRA:          -5.131
REMARK INTER:                  -5.037
REMARK INTRA:                  -0.095
REMARK UNBOUND:                -0.098
REMARK SMILES C=C(C)[C@H]1CC=C(C)[C@@H](O)C1
REMARK SMILES IDX 8 1 7 2 6 3 5 4 4 5 11 6 9 7 10 8 2 10 1 11 3 12
REMARK H PARENT 10 9
REMARK Flexibility Score: inf
ROOT
ATOM      1  C   UNL     1     122.915 132.524 128.133  1.00  0.00     0.042 C 
ATOM      2  C   UNL     1     121.743 131.635 128.460  1.00  0.00    -0.049 C 
ATOM      3  C   UNL     1     121.930 130.297 128.461  1.00  0.00    -0.025 C 
ATOM      4  C   UNL     1     120.834 129.311 128.772  1.00  0.00     0.035 C 
ATOM      5  C   UNL     1     119.719 129.944 129.619  1.00  0.00     0.021 C 
ATOM      6  C   UNL     1     119.271 131.264 128.975  1.00  0.00     0.044 C 
ATOM      7  C   UNL     1     120.440 132.266 128.930  1.00  0.00     0.140 C 
ENDROOT
BRANCH   7   8
ATOM      8  O   UNL     1     120.102 133.331 128.079  1.00  0.00    -0.389 OA
ATOM      9  H   UNL     1     120.812 133.380 127.386  1.00  0.00     0.211 HD
ENDBRANCH   7   8
BRANCH   5  10
ATOM     10  C   UNL     1     118.550 128.985 129.803  1.00  0.00    -0.077 C 
ATOM     11  C   UNL     1     117.594 129.255 130.706  1.00  0.00     0.008 C 
ATOM     12  C   UNL     1     118.438 127.716 128.994  1.00  0.00     0.039 C 
ENDBRANCH   5  10
TORSDOF 2
ENDMDL
