MODEL 1
REMARK VINA RESULT:    -3.597      0.000      0.000
REMARK INTER + INTRA:          -4.340
REMARK INTER:                  -4.228
REMARK INTRA:                  -0.111
REMARK UNBOUND:                -0.111
REMARK SMILES O=C([O-])CCC(=O)[O-]
REMARK SMILES IDX 4 1 2 2 1 3 3 4 5 5 6 6 7 7 8 8
REMARK H PARENT
REMARK Flexibility Score: inf
ROOT
ATOM      1  C   UNL     1      10.095  22.353  -9.390  1.00  0.00     0.059 C 
ENDROOT
BRANCH   1   2
ATOM      2  C   UNL     1      11.165  23.338  -9.748  1.00  0.00     0.042 C 
ATOM      3  O   UNL     1      11.317  23.703 -10.944  1.00  0.00    -0.550 OA
ATOM      4  O   UNL     1      11.970  23.884  -8.755  1.00  0.00    -0.550 OA
ENDBRANCH   1   2
BRANCH   1   5
ATOM      5  C   UNL     1      10.237  21.868  -7.943  1.00  0.00     0.059 C 
BRANCH   5   6
ATOM      6  C   UNL     1      10.811  20.485  -7.877  1.00  0.00     0.042 C 
ATOM      7  O   UNL     1      10.101  19.523  -7.486  1.00  0.00    -0.550 OA
ATOM      8  O   UNL     1      12.118  20.254  -8.288  1.00  0.00    -0.550 OA
ENDBRANCH   5   6
ENDBRANCH   1   5
TORSDOF 3
ENDMDL
MODEL 2
REMARK VINA RESULT:    -3.596      0.044      3.817
REMARK INTER + INTRA:          -4.338
REMARK INTER:                  -4.226
REMARK INTRA:                  -0.112
REMARK UNBOUND:                -0.111
REMARK SMILES O=C([O-])CCC(=O)[O-]
REMARK SMILES IDX 4 1 2 2 1 3 3 4 5 5 6 6 7 7 8 8
REMARK H PARENT
REMARK Flexibility Score: inf
ROOT
ATOM      1  C   UNL     1      10.222  21.882  -7.964  1.00  0.00     0.059 C 
ENDROOT
BRANCH   1   2
ATOM      2  C   UNL     1      10.835  20.517  -7.885  1.00  0.00     0.042 C 
ATOM      3  O   UNL     1      10.148  19.534  -7.499  1.00  0.00    -0.550 OA
ATOM      4  O   UNL     1      12.154  20.322  -8.277  1.00  0.00    -0.550 OA
ENDBRANCH   1   2
BRANCH   1   5
ATOM      5  C   UNL     1      10.093  22.359  -9.415  1.00  0.00     0.059 C 
BRANCH   5   6
ATOM      6  C   UNL     1      11.152  23.359  -9.765  1.00  0.00     0.042 C 
ATOM      7  O   UNL     1      11.300  23.733 -10.957  1.00  0.00    -0.550 OA
ATOM      8  O   UNL     1      11.947  23.909  -8.767  1.00  0.00    -0.550 OA
ENDBRANCH   5   6
ENDBRANCH   1   5
TORSDOF 3
ENDMDL
MODEL 3
REMARK VINA RESULT:    -3.595      4.138      4.952
REMARK INTER + INTRA:          -4.337
REMARK INTER:                  -4.214
REMARK INTRA:                  -0.123
REMARK UNBOUND:                -0.111
REMARK SMILES O=C([O-])CCC(=O)[O-]
REMARK SMILES IDX 4 1 2 2 1 3 3 4 5 5 6 6 7 7 8 8
REMARK H PARENT
REMARK Flexibility Score: inf
ROOT
ATOM      1  C   UNL     1       6.545  23.845  -7.512  1.00  0.00     0.059 C 
ENDROOT
BRANCH   1   2
ATOM      2  C   UNL     1       6.906  24.202  -6.103  1.00  0.00     0.042 C 
ATOM      3  O   UNL     1       6.585  25.323  -5.630  1.00  0.00    -0.550 OA
ATOM      4  O   UNL     1       7.563  23.279  -5.298  1.00  0.00    -0.550 OA
ENDBRANCH   1   2
BRANCH   1   5
ATOM      5  C   UNL     1       7.626  24.293  -8.502  1.00  0.00     0.059 C 
BRANCH   5   6
ATOM      6  C   UNL     1       8.545  23.167  -8.865  1.00  0.00     0.042 C 
ATOM      7  O   UNL     1       9.542  22.906  -8.143  1.00  0.00    -0.550 OA
ATOM      8  O   UNL     1       8.276  22.380  -9.978  1.00  0.00    -0.550 OA
ENDBRANCH   5   6
ENDBRANCH   1   5
TORSDOF 3
ENDMDL
MODEL 4
REMARK VINA RESULT:    -3.551      4.139      4.779
REMARK INTER + INTRA:          -4.285
REMARK INTER:                  -4.164
REMARK INTRA:                  -0.121
REMARK UNBOUND:                -0.111
REMARK SMILES O=C([O-])CCC(=O)[O-]
REMARK SMILES IDX 4 1 2 2 1 3 3 4 5 5 6 6 7 7 8 8
REMARK H PARENT
REMARK Flexibility Score: inf
ROOT
ATOM      1  C   UNL     1       7.630  24.327  -8.515  1.00  0.00     0.059 C 
ENDROOT
BRANCH   1   2
ATOM      2  C   UNL     1       8.553  23.225  -8.938  1.00  0.00     0.042 C 
ATOM      3  O   UNL     1       9.627  23.022  -8.312  1.00  0.00    -0.550 OA
ATOM      4  O   UNL     1       8.208  22.397 -10.000  1.00  0.00    -0.550 OA
ENDBRANCH   1   2
BRANCH   1   5
ATOM      5  C   UNL     1       6.561  23.824  -7.539  1.00  0.00     0.059 C 
BRANCH   5   6
ATOM      6  C   UNL     1       6.900  24.169  -6.121  1.00  0.00     0.042 C 
ATOM      7  O   UNL     1       6.440  25.217  -5.597  1.00  0.00    -0.550 OA
ATOM      8  O   UNL     1       7.690  23.312  -5.365  1.00  0.00    -0.550 OA
ENDBRANCH   5   6
ENDBRANCH   1   5
TORSDOF 3
ENDMDL
MODEL 5
REMARK VINA RESULT:    -3.461      2.402      3.711
REMARK INTER + INTRA:          -4.179
REMARK INTER:                  -4.101
REMARK INTRA:                  -0.078
REMARK UNBOUND:                -0.111
REMARK SMILES O=C([O-])CCC(=O)[O-]
REMARK SMILES IDX 4 1 2 2 1 3 3 4 5 5 6 6 7 7 8 8
REMARK H PARENT
REMARK Flexibility Score: inf
ROOT
ATOM      1  C   UNL     1      10.564  22.599  -9.790  1.00  0.00     0.059 C 
ENDROOT
BRANCH   1   2
ATOM      2  C   UNL     1       9.175  22.559  -9.232  1.00  0.00     0.042 C 
ATOM      3  O   UNL     1       8.205  22.234  -9.967  1.00  0.00    -0.550 OA
ATOM      4  O   UNL     1       8.955  22.842  -7.889  1.00  0.00    -0.550 OA
ENDBRANCH   1   2
BRANCH   1   5
ATOM      5  C   UNL     1      11.601  22.893  -8.700  1.00  0.00     0.059 C 
BRANCH   5   6
ATOM      6  C   UNL     1      12.345  24.165  -8.972  1.00  0.00     0.042 C 
ATOM      7  O   UNL     1      13.240  24.557  -8.178  1.00  0.00    -0.550 OA
ATOM      8  O   UNL     1      12.079  24.894 -10.124  1.00  0.00    -0.550 OA
ENDBRANCH   5   6
ENDBRANCH   1   5
TORSDOF 3
ENDMDL
MODEL 6
REMARK VINA RESULT:    -3.456      2.495      3.111
REMARK INTER + INTRA:          -4.174
REMARK INTER:                  -4.073
REMARK INTRA:                  -0.101
REMARK UNBOUND:                -0.111
REMARK SMILES O=C([O-])CCC(=O)[O-]
REMARK SMILES IDX 4 1 2 2 1 3 3 4 5 5 6 6 7 7 8 8
REMARK H PARENT
REMARK Flexibility Score: inf
ROOT
ATOM      1  C   UNL     1      11.197  22.986  -8.465  1.00  0.00     0.059 C 
ENDROOT
BRANCH   1   2
ATOM      2  C   UNL     1      12.187  24.039  -8.861  1.00  0.00     0.042 C 
ATOM      3  O   UNL     1      13.172  24.295  -8.119  1.00  0.00    -0.550 OA
ATOM      4  O   UNL     1      12.043  24.711 -10.069  1.00  0.00    -0.550 OA
ENDBRANCH   1   2
BRANCH   1   5
ATOM      5  C   UNL     1      10.385  22.495  -9.668  1.00  0.00     0.059 C 
BRANCH   5   6
ATOM      6  C   UNL     1       8.926  22.799  -9.512  1.00  0.00     0.042 C 
ATOM      7  O   UNL     1       8.064  22.070 -10.070  1.00  0.00    -0.550 OA
ATOM      8  O   UNL     1       8.517  23.862  -8.716  1.00  0.00    -0.550 OA
ENDBRANCH   5   6
ENDBRANCH   1   5
TORSDOF 3
ENDMDL
MODEL 7
REMARK VINA RESULT:    -3.444      2.652      3.524
REMARK INTER + INTRA:          -4.159
REMARK INTER:                  -4.013
REMARK INTRA:                  -0.146
REMARK UNBOUND:                -0.111
REMARK SMILES O=C([O-])CCC(=O)[O-]
REMARK SMILES IDX 4 1 2 2 1 3 3 4 5 5 6 6 7 7 8 8
REMARK H PARENT
REMARK Flexibility Score: inf
ROOT
ATOM      1  C   UNL     1       8.237  22.878  -9.495  1.00  0.00     0.059 C 
ENDROOT
BRANCH   1   2
ATOM      2  C   UNL     1       7.829  23.801  -8.387  1.00  0.00     0.042 C 
ATOM      3  O   UNL     1       7.454  24.975  -8.645  1.00  0.00    -0.550 OA
ATOM      4  O   UNL     1       7.825  23.351  -7.072  1.00  0.00    -0.550 OA
ENDBRANCH   1   2
BRANCH   1   5
ATOM      5  C   UNL     1       9.484  22.068  -9.123  1.00  0.00     0.059 C 
BRANCH   5   6
ATOM      6  C   UNL     1      10.732  22.888  -9.239  1.00  0.00     0.042 C 
ATOM      7  O   UNL     1      11.435  23.119  -8.221  1.00  0.00    -0.550 OA
ATOM      8  O   UNL     1      11.141  23.361 -10.479  1.00  0.00    -0.550 OA
ENDBRANCH   5   6
ENDBRANCH   1   5
TORSDOF 3
ENDMDL
MODEL 8
REMARK VINA RESULT:    -3.425      1.533      2.062
REMARK INTER + INTRA:          -4.137
REMARK INTER:                  -4.104
REMARK INTRA:                  -0.032
REMARK UNBOUND:                -0.111
REMARK SMILES O=C([O-])CCC(=O)[O-]
REMARK SMILES IDX 4 1 2 2 1 3 3 4 5 5 6 6 7 7 8 8
REMARK H PARENT
REMARK Flexibility Score: inf
ROOT
ATOM      1  C   UNL     1      11.055  23.297  -8.452  1.00  0.00     0.059 C 
ENDROOT
BRANCH   1   2
ATOM      2  C   UNL     1      12.200  24.119  -8.961  1.00  0.00     0.042 C 
ATOM      3  O   UNL     1      13.265  24.204  -8.296  1.00  0.00    -0.550 OA
ATOM      4  O   UNL     1      12.104  24.759 -10.191  1.00  0.00    -0.550 OA
ENDBRANCH   1   2
BRANCH   1   5
ATOM      5  C   UNL     1      11.540  22.138  -7.574  1.00  0.00     0.059 C 
BRANCH   5   6
ATOM      6  C   UNL     1      10.395  21.330  -7.043  1.00  0.00     0.042 C 
ATOM      7  O   UNL     1       9.596  21.835  -6.212  1.00  0.00    -0.550 OA
ATOM      8  O   UNL     1      10.188  20.033  -7.497  1.00  0.00    -0.550 OA
ENDBRANCH   5   6
ENDBRANCH   1   5
TORSDOF 3
ENDMDL
MODEL 9
REMARK VINA RESULT:    -3.419      2.239      4.018
REMARK INTER + INTRA:          -4.130
REMARK INTER:                  -3.971
REMARK INTRA:                  -0.159
REMARK UNBOUND:                -0.111
REMARK SMILES O=C([O-])CCC(=O)[O-]
REMARK SMILES IDX 4 1 2 2 1 3 3 4 5 5 6 6 7 7 8 8
REMARK H PARENT
REMARK Flexibility Score: inf
ROOT
ATOM      1  C   UNL     1      10.697  22.427  -8.006  1.00  0.00     0.059 C 
ENDROOT
BRANCH   1   2
ATOM      2  C   UNL     1      10.114  21.372  -7.116  1.00  0.00     0.042 C 
ATOM      3  O   UNL     1       9.550  21.693  -6.037  1.00  0.00    -0.550 OA
ATOM      4  O   UNL     1      10.159  20.037  -7.498  1.00  0.00    -0.550 OA
ENDBRANCH   1   2
BRANCH   1   5
ATOM      5  C   UNL     1      10.131  22.342  -9.427  1.00  0.00     0.059 C 
BRANCH   5   6
ATOM      6  C   UNL     1       8.695  22.769  -9.477  1.00  0.00     0.042 C 
ATOM      7  O   UNL     1       8.334  23.842  -8.929  1.00  0.00    -0.550 OA
ATOM      8  O   UNL     1       7.764  22.001 -10.166  1.00  0.00    -0.550 OA
ENDBRANCH   5   6
ENDBRANCH   1   5
TORSDOF 3
ENDMDL
