MODEL 1
REMARK VINA RESULT:    -6.018      0.000      0.000
REMARK INTER + INTRA:          -7.202
REMARK INTER:                  -7.074
REMARK INTRA:                  -0.128
REMARK UNBOUND:                -0.128
REMARK SMILES O=C([O-])C=Cc1ccc(O)c(O)c1
REMARK SMILES IDX 6 1 13 2 7 3 11 4 8 5 9 6 5 7 4 8 2 9 1 10 3 11 12 12 10 14
REMARK H PARENT 12 13 10 15
REMARK Flexibility Score: inf
ROOT
ATOM      1  C   UNL     1     -32.650  -3.464 -17.946  1.00  0.00    -0.022 A 
ATOM      2  C   UNL     1     -33.220  -2.935 -19.121  1.00  0.00     0.058 A 
ATOM      3  C   UNL     1     -31.261  -3.364 -17.762  1.00  0.00     0.012 A 
ATOM      4  C   UNL     1     -32.417  -2.299 -20.078  1.00  0.00     0.157 A 
ATOM      5  C   UNL     1     -30.461  -2.728 -18.715  1.00  0.00     0.051 A 
ATOM      6  C   UNL     1     -31.036  -2.191 -19.874  1.00  0.00     0.157 A 
ENDROOT
BRANCH   1   7
ATOM      7  C   UNL     1     -33.454  -4.158 -16.908  1.00  0.00     0.010 C 
ATOM      8  C   UNL     1     -34.378  -5.089 -17.183  1.00  0.00     0.025 C 
BRANCH   8   9
ATOM      9  C   UNL     1     -35.161  -5.743 -16.123  1.00  0.00     0.064 C 
ATOM     10  O   UNL     1     -35.004  -5.389 -14.925  1.00  0.00    -0.545 OA
ATOM     11  O   UNL     1     -36.074  -6.749 -16.422  1.00  0.00    -0.545 OA
ENDBRANCH   8   9
ENDBRANCH   1   7
BRANCH   4  12
ATOM     12  O   UNL     1     -32.985  -1.774 -21.239  1.00  0.00    -0.504 OA
ATOM     13  H   UNL     1     -32.545  -1.019 -21.750  1.00  0.00     0.293 HD
ENDBRANCH   4  12
BRANCH   6  14
ATOM     14  O   UNL     1     -30.243  -1.555 -20.825  1.00  0.00    -0.504 OA
ATOM     15  H   UNL     1     -29.287  -1.286 -20.626  1.00  0.00     0.293 HD
ENDBRANCH   6  14
TORSDOF 4
ENDMDL
MODEL 2
REMARK VINA RESULT:    -5.604      3.305      7.857
REMARK INTER + INTRA:          -6.715
REMARK INTER:                  -6.567
REMARK INTRA:                  -0.147
REMARK UNBOUND:                -0.128
REMARK SMILES O=C([O-])C=Cc1ccc(O)c(O)c1
REMARK SMILES IDX 6 1 13 2 7 3 11 4 8 5 9 6 5 7 4 8 2 9 1 10 3 11 12 12 10 14
REMARK H PARENT 12 13 10 15
REMARK Flexibility Score: inf
ROOT
ATOM      1  C   UNL     1     -36.652  -6.753 -15.699  1.00  0.00    -0.022 A 
ATOM      2  C   UNL     1     -37.901  -7.332 -16.002  1.00  0.00     0.058 A 
ATOM      3  C   UNL     1     -36.100  -6.961 -14.424  1.00  0.00     0.012 A 
ATOM      4  C   UNL     1     -38.568  -8.123 -15.055  1.00  0.00     0.157 A 
ATOM      5  C   UNL     1     -36.764  -7.751 -13.481  1.00  0.00     0.051 A 
ATOM      6  C   UNL     1     -37.997  -8.336 -13.794  1.00  0.00     0.157 A 
ENDROOT
BRANCH   1   7
ATOM      7  C   UNL     1     -35.912  -5.898 -16.661  1.00  0.00     0.010 C 
ATOM      8  C   UNL     1     -34.581  -5.745 -16.648  1.00  0.00     0.025 C 
BRANCH   8   9
ATOM      9  C   UNL     1     -33.889  -4.878 -17.615  1.00  0.00     0.064 C 
ATOM     10  O   UNL     1     -32.860  -4.246 -17.258  1.00  0.00    -0.545 OA
ATOM     11  O   UNL     1     -34.352  -4.745 -18.919  1.00  0.00    -0.545 OA
ENDBRANCH   8   9
ENDBRANCH   1   7
BRANCH   4  12
ATOM     12  O   UNL     1     -39.801  -8.697 -15.359  1.00  0.00    -0.504 OA
ATOM     13  H   UNL     1     -40.667  -8.322 -14.991  1.00  0.00     0.293 HD
ENDBRANCH   4  12
BRANCH   6  14
ATOM     14  O   UNL     1     -38.661  -9.125 -12.858  1.00  0.00    -0.504 OA
ATOM     15  H   UNL     1     -39.295  -9.864 -13.140  1.00  0.00     0.293 HD
ENDBRANCH   6  14
TORSDOF 4
ENDMDL
MODEL 3
REMARK VINA RESULT:    -5.488      2.769      4.021
REMARK INTER + INTRA:          -6.578
REMARK INTER:                  -6.453
REMARK INTRA:                  -0.125
REMARK UNBOUND:                -0.128
REMARK SMILES O=C([O-])C=Cc1ccc(O)c(O)c1
REMARK SMILES IDX 6 1 13 2 7 3 11 4 8 5 9 6 5 7 4 8 2 9 1 10 3 11 12 12 10 14
REMARK H PARENT 12 13 10 15
REMARK Flexibility Score: inf
ROOT
ATOM      1  C   UNL     1     -35.541  -5.763 -17.044  1.00  0.00    -0.022 A 
ATOM      2  C   UNL     1     -34.170  -5.488 -16.868  1.00  0.00     0.058 A 
ATOM      3  C   UNL     1     -36.168  -5.350 -18.230  1.00  0.00     0.012 A 
ATOM      4  C   UNL     1     -33.440  -4.834 -17.871  1.00  0.00     0.157 A 
ATOM      5  C   UNL     1     -35.441  -4.700 -19.231  1.00  0.00     0.051 A 
ATOM      6  C   UNL     1     -34.075  -4.444 -19.056  1.00  0.00     0.157 A 
ENDROOT
BRANCH   1   7
ATOM      7  C   UNL     1     -36.360  -6.440 -16.007  1.00  0.00     0.010 C 
ATOM      8  C   UNL     1     -35.999  -6.537 -14.720  1.00  0.00     0.025 C 
BRANCH   8   9
ATOM      9  C   UNL     1     -36.837  -7.228 -13.727  1.00  0.00     0.064 C 
ATOM     10  O   UNL     1     -36.380  -8.230 -13.117  1.00  0.00    -0.545 OA
ATOM     11  O   UNL     1     -38.128  -6.792 -13.451  1.00  0.00    -0.545 OA
ENDBRANCH   8   9
ENDBRANCH   1   7
BRANCH   4  12
ATOM     12  O   UNL     1     -32.083  -4.566 -17.696  1.00  0.00    -0.504 OA
ATOM     13  H   UNL     1     -31.482  -5.191 -17.174  1.00  0.00     0.293 HD
ENDBRANCH   4  12
BRANCH   6  14
ATOM     14  O   UNL     1     -33.346  -3.798 -20.052  1.00  0.00    -0.504 OA
ATOM     15  H   UNL     1     -32.810  -2.960 -19.860  1.00  0.00     0.293 HD
ENDBRANCH   6  14
TORSDOF 4
ENDMDL
MODEL 4
REMARK VINA RESULT:    -5.429      3.715      8.258
REMARK INTER + INTRA:          -6.509
REMARK INTER:                  -6.362
REMARK INTRA:                  -0.148
REMARK UNBOUND:                -0.128
REMARK SMILES O=C([O-])C=Cc1ccc(O)c(O)c1
REMARK SMILES IDX 6 1 13 2 7 3 11 4 8 5 9 6 5 7 4 8 2 9 1 10 3 11 12 12 10 14
REMARK H PARENT 12 13 10 15
REMARK Flexibility Score: inf
ROOT
ATOM      1  C   UNL     1     -36.909  -6.678 -14.819  1.00  0.00    -0.022 A 
ATOM      2  C   UNL     1     -37.793  -6.392 -13.760  1.00  0.00     0.058 A 
ATOM      3  C   UNL     1     -37.225  -7.724 -15.701  1.00  0.00     0.012 A 
ATOM      4  C   UNL     1     -38.980  -7.123 -13.605  1.00  0.00     0.157 A 
ATOM      5  C   UNL     1     -38.409  -8.452 -15.548  1.00  0.00     0.051 A 
ATOM      6  C   UNL     1     -39.290  -8.152 -14.503  1.00  0.00     0.157 A 
ENDROOT
BRANCH   1   7
ATOM      7  C   UNL     1     -35.635  -5.942 -15.019  1.00  0.00     0.010 C 
ATOM      8  C   UNL     1     -35.091  -5.711 -16.222  1.00  0.00     0.025 C 
BRANCH   8   9
ATOM      9  C   UNL     1     -33.820  -4.986 -16.373  1.00  0.00     0.064 C 
ATOM     10  O   UNL     1     -33.472  -4.150 -15.499  1.00  0.00    -0.545 OA
ATOM     11  O   UNL     1     -32.993  -5.210 -17.469  1.00  0.00    -0.545 OA
ENDBRANCH   8   9
ENDBRANCH   1   7
BRANCH   4  12
ATOM     12  O   UNL     1     -39.854  -6.835 -12.558  1.00  0.00    -0.504 OA
ATOM     13  H   UNL     1     -39.550  -6.326 -11.736  1.00  0.00     0.293 HD
ENDBRANCH   4  12
BRANCH   6  14
ATOM     14  O   UNL     1     -40.472  -8.873 -14.347  1.00  0.00    -0.504 OA
ATOM     15  H   UNL     1     -40.715  -9.635 -14.969  1.00  0.00     0.293 HD
ENDBRANCH   6  14
TORSDOF 4
ENDMDL
MODEL 5
REMARK VINA RESULT:    -5.426      2.778      3.794
REMARK INTER + INTRA:          -6.505
REMARK INTER:                  -6.379
REMARK INTRA:                  -0.126
REMARK UNBOUND:                -0.128
REMARK SMILES O=C([O-])C=Cc1ccc(O)c(O)c1
REMARK SMILES IDX 6 1 13 2 7 3 11 4 8 5 9 6 5 7 4 8 2 9 1 10 3 11 12 12 10 14
REMARK H PARENT 12 13 10 15
REMARK Flexibility Score: inf
ROOT
ATOM      1  C   UNL     1     -35.359  -5.661 -16.737  1.00  0.00    -0.022 A 
ATOM      2  C   UNL     1     -36.101  -5.363 -17.898  1.00  0.00     0.058 A 
ATOM      3  C   UNL     1     -33.978  -5.405 -16.731  1.00  0.00     0.012 A 
ATOM      4  C   UNL     1     -35.474  -4.798 -19.018  1.00  0.00     0.157 A 
ATOM      5  C   UNL     1     -33.354  -4.840 -17.846  1.00  0.00     0.051 A 
ATOM      6  C   UNL     1     -34.099  -4.532 -18.991  1.00  0.00     0.157 A 
ENDROOT
BRANCH   1   7
ATOM      7  C   UNL     1     -35.973  -6.272 -15.531  1.00  0.00     0.010 C 
ATOM      8  C   UNL     1     -36.425  -7.532 -15.484  1.00  0.00     0.025 C 
BRANCH   8   9
ATOM      9  C   UNL     1     -37.037  -8.094 -14.269  1.00  0.00     0.064 C 
ATOM     10  O   UNL     1     -36.416  -8.035 -13.176  1.00  0.00    -0.545 OA
ATOM     11  O   UNL     1     -38.292  -8.690 -14.308  1.00  0.00    -0.545 OA
ENDBRANCH   8   9
ENDBRANCH   1   7
BRANCH   4  12
ATOM     12  O   UNL     1     -36.211  -4.501 -20.164  1.00  0.00    -0.504 OA
ATOM     13  H   UNL     1     -36.972  -3.833 -20.147  1.00  0.00     0.293 HD
ENDBRANCH   4  12
BRANCH   6  14
ATOM     14  O   UNL     1     -33.482  -3.966 -20.104  1.00  0.00    -0.504 OA
ATOM     15  H   UNL     1     -33.629  -2.997 -20.358  1.00  0.00     0.293 HD
ENDBRANCH   6  14
TORSDOF 4
ENDMDL
MODEL 6
REMARK VINA RESULT:    -5.339      3.831      5.255
REMARK INTER + INTRA:          -6.403
REMARK INTER:                  -6.258
REMARK INTRA:                  -0.145
REMARK UNBOUND:                -0.128
REMARK SMILES O=C([O-])C=Cc1ccc(O)c(O)c1
REMARK SMILES IDX 6 1 13 2 7 3 11 4 8 5 9 6 5 7 4 8 2 9 1 10 3 11 12 12 10 14
REMARK H PARENT 12 13 10 15
REMARK Flexibility Score: inf
ROOT
ATOM      1  C   UNL     1     -36.172  -5.892 -15.397  1.00  0.00    -0.022 A 
ATOM      2  C   UNL     1     -35.386  -6.134 -16.541  1.00  0.00     0.058 A 
ATOM      3  C   UNL     1     -35.712  -4.973 -14.440  1.00  0.00     0.012 A 
ATOM      4  C   UNL     1     -34.177  -5.450 -16.732  1.00  0.00     0.157 A 
ATOM      5  C   UNL     1     -34.508  -4.289 -14.631  1.00  0.00     0.051 A 
ATOM      6  C   UNL     1     -33.739  -4.523 -15.778  1.00  0.00     0.157 A 
ENDROOT
BRANCH   1   7
ATOM      7  C   UNL     1     -37.453  -6.599 -15.142  1.00  0.00     0.010 C 
ATOM      8  C   UNL     1     -37.886  -6.936 -13.919  1.00  0.00     0.025 C 
BRANCH   8   9
ATOM      9  C   UNL     1     -39.157  -7.647 -13.712  1.00  0.00     0.064 C 
ATOM     10  O   UNL     1     -40.024  -7.159 -12.940  1.00  0.00    -0.545 OA
ATOM     11  O   UNL     1     -39.419  -8.850 -14.358  1.00  0.00    -0.545 OA
ENDBRANCH   8   9
ENDBRANCH   1   7
BRANCH   4  12
ATOM     12  O   UNL     1     -33.403  -5.689 -17.867  1.00  0.00    -0.504 OA
ATOM     13  H   UNL     1     -32.410  -5.490 -17.884  1.00  0.00     0.293 HD
ENDBRANCH   4  12
BRANCH   6  14
ATOM     14  O   UNL     1     -32.539  -3.843 -15.974  1.00  0.00    -0.504 OA
ATOM     15  H   UNL     1     -31.657  -4.335 -16.053  1.00  0.00     0.293 HD
ENDBRANCH   6  14
TORSDOF 4
ENDMDL
MODEL 7
REMARK VINA RESULT:    -5.267      1.556      2.292
REMARK INTER + INTRA:          -6.319
REMARK INTER:                  -6.175
REMARK INTRA:                  -0.143
REMARK UNBOUND:                -0.128
REMARK SMILES O=C([O-])C=Cc1ccc(O)c(O)c1
REMARK SMILES IDX 6 1 13 2 7 3 11 4 8 5 9 6 5 7 4 8 2 9 1 10 3 11 12 12 10 14
REMARK H PARENT 12 13 10 15
REMARK Flexibility Score: inf
ROOT
ATOM      1  C   UNL     1     -34.111  -4.890 -17.291  1.00  0.00    -0.022 A 
ATOM      2  C   UNL     1     -34.360  -4.113 -18.440  1.00  0.00     0.058 A 
ATOM      3  C   UNL     1     -32.866  -4.775 -16.652  1.00  0.00     0.012 A 
ATOM      4  C   UNL     1     -33.388  -3.223 -18.922  1.00  0.00     0.157 A 
ATOM      5  C   UNL     1     -31.899  -3.888 -17.130  1.00  0.00     0.051 A 
ATOM      6  C   UNL     1     -32.158  -3.107 -18.264  1.00  0.00     0.157 A 
ENDROOT
BRANCH   1   7
ATOM      7  C   UNL     1     -35.101  -5.855 -16.749  1.00  0.00     0.010 C 
ATOM      8  C   UNL     1     -35.416  -5.946 -15.449  1.00  0.00     0.025 C 
BRANCH   8   9
ATOM      9  C   UNL     1     -36.395  -6.925 -14.954  1.00  0.00     0.064 C 
ATOM     10  O   UNL     1     -36.892  -7.765 -15.749  1.00  0.00    -0.545 OA
ATOM     11  O   UNL     1     -36.782  -6.941 -13.618  1.00  0.00    -0.545 OA
ENDBRANCH   8   9
ENDBRANCH   1   7
BRANCH   4  12
ATOM     12  O   UNL     1     -33.638  -2.453 -20.057  1.00  0.00    -0.504 OA
ATOM     13  H   UNL     1     -34.493  -2.554 -20.590  1.00  0.00     0.293 HD
ENDBRANCH   4  12
BRANCH   6  14
ATOM     14  O   UNL     1     -31.197  -2.220 -18.743  1.00  0.00    -0.504 OA
ATOM     15  H   UNL     1     -30.348  -2.546 -19.189  1.00  0.00     0.293 HD
ENDBRANCH   6  14
TORSDOF 4
ENDMDL
MODEL 8
REMARK VINA RESULT:    -5.187      3.245      7.920
REMARK INTER + INTRA:          -6.225
REMARK INTER:                  -6.100
REMARK INTRA:                  -0.125
REMARK UNBOUND:                -0.128
REMARK SMILES O=C([O-])C=Cc1ccc(O)c(O)c1
REMARK SMILES IDX 6 1 13 2 7 3 11 4 8 5 9 6 5 7 4 8 2 9 1 10 3 11 12 12 10 14
REMARK H PARENT 12 13 10 15
REMARK Flexibility Score: inf
ROOT
ATOM      1  C   UNL     1     -36.634  -6.686 -15.805  1.00  0.00    -0.022 A 
ATOM      2  C   UNL     1     -35.985  -7.193 -14.661  1.00  0.00     0.058 A 
ATOM      3  C   UNL     1     -37.977  -7.029 -16.030  1.00  0.00     0.012 A 
ATOM      4  C   UNL     1     -36.678  -8.004 -13.750  1.00  0.00     0.157 A 
ATOM      5  C   UNL     1     -38.668  -7.835 -15.121  1.00  0.00     0.051 A 
ATOM      6  C   UNL     1     -38.022  -8.322 -13.978  1.00  0.00     0.157 A 
ENDROOT
BRANCH   1   7
ATOM      7  C   UNL     1     -35.942  -5.835 -16.805  1.00  0.00     0.010 C 
ATOM      8  C   UNL     1     -34.638  -5.532 -16.749  1.00  0.00     0.025 C 
BRANCH   8   9
ATOM      9  C   UNL     1     -33.995  -4.674 -17.757  1.00  0.00     0.064 C 
ATOM     10  O   UNL     1     -32.969  -4.013 -17.448  1.00  0.00    -0.545 OA
ATOM     11  O   UNL     1     -34.501  -4.582 -19.049  1.00  0.00    -0.545 OA
ENDBRANCH   8   9
ENDBRANCH   1   7
BRANCH   4  12
ATOM     12  O   UNL     1     -36.035  -8.500 -12.617  1.00  0.00    -0.504 OA
ATOM     13  H   UNL     1     -35.817  -7.906 -11.827  1.00  0.00     0.293 HD
ENDBRANCH   4  12
BRANCH   6  14
ATOM     14  O   UNL     1     -38.707  -9.125 -13.069  1.00  0.00    -0.504 OA
ATOM     15  H   UNL     1     -39.004 -10.064 -13.308  1.00  0.00     0.293 HD
ENDBRANCH   6  14
TORSDOF 4
ENDMDL
MODEL 9
REMARK VINA RESULT:    -5.084      1.790      6.596
REMARK INTER + INTRA:          -6.104
REMARK INTER:                  -5.970
REMARK INTRA:                  -0.134
REMARK UNBOUND:                -0.128
REMARK SMILES O=C([O-])C=Cc1ccc(O)c(O)c1
REMARK SMILES IDX 6 1 13 2 7 3 11 4 8 5 9 6 5 7 4 8 2 9 1 10 3 11 12 12 10 14
REMARK H PARENT 12 13 10 15
REMARK Flexibility Score: inf
ROOT
ATOM      1  C   UNL     1     -34.364  -4.916 -16.130  1.00  0.00    -0.022 A 
ATOM      2  C   UNL     1     -34.491  -4.659 -14.750  1.00  0.00     0.058 A 
ATOM      3  C   UNL     1     -35.211  -5.866 -16.723  1.00  0.00     0.012 A 
ATOM      4  C   UNL     1     -35.464  -5.324 -13.989  1.00  0.00     0.157 A 
ATOM      5  C   UNL     1     -36.181  -6.527 -15.966  1.00  0.00     0.051 A 
ATOM      6  C   UNL     1     -36.313  -6.256 -14.598  1.00  0.00     0.157 A 
ENDROOT
BRANCH   1   7
ATOM      7  C   UNL     1     -33.343  -4.249 -16.976  1.00  0.00     0.010 C 
ATOM      8  C   UNL     1     -33.640  -3.466 -18.022  1.00  0.00     0.025 C 
BRANCH   8   9
ATOM      9  C   UNL     1     -32.595  -2.833 -18.841  1.00  0.00     0.064 C 
ATOM     10  O   UNL     1     -32.777  -2.687 -20.078  1.00  0.00    -0.545 OA
ATOM     11  O   UNL     1     -31.406  -2.390 -18.271  1.00  0.00    -0.545 OA
ENDBRANCH   8   9
ENDBRANCH   1   7
BRANCH   4  12
ATOM     12  O   UNL     1     -35.591  -5.065 -12.625  1.00  0.00    -0.504 OA
ATOM     13  H   UNL     1     -36.354  -4.510 -12.258  1.00  0.00     0.293 HD
ENDBRANCH   4  12
BRANCH   6  14
ATOM     14  O   UNL     1     -37.281  -6.910 -13.839  1.00  0.00    -0.504 OA
ATOM     15  H   UNL     1     -37.069  -7.293 -12.925  1.00  0.00     0.293 HD
ENDBRANCH   6  14
TORSDOF 4
ENDMDL
