MODEL 1
REMARK VINA RESULT:    -3.869      0.000      0.000
REMARK INTER + INTRA:          -4.403
REMARK INTER:                  -4.209
REMARK INTRA:                  -0.194
REMARK UNBOUND:                -0.194
REMARK SMILES CC1=CC[C@H](C(C)(C)O)CC1
REMARK SMILES IDX 6 1 7 2 8 3 5 4 1 5 2 6 3 7 11 8 4 9 10 10 9 11
REMARK H PARENT 9 12
REMARK Flexibility Score: inf
ROOT
ATOM      1  C   UNL     1       2.236 -15.615  10.904  1.00  0.00     0.062 C 
ATOM      2  C   UNL     1       3.749 -15.738  11.174  1.00  0.00     0.042 C 
ATOM      3  C   UNL     1       1.578 -14.919  12.118  1.00  0.00     0.042 C 
ENDROOT
BRANCH   1   4
ATOM      4  C   UNL     1       1.934 -14.833   9.575  1.00  0.00     0.024 C 
ATOM      5  C   UNL     1       0.907 -11.891   6.596  1.00  0.00     0.039 C 
ATOM      6  C   UNL     1       1.023 -12.675   7.873  1.00  0.00    -0.077 C 
ATOM      7  C   UNL     1       0.246 -13.749   8.081  1.00  0.00    -0.028 C 
ATOM      8  C   UNL     1       2.032 -12.300   8.934  1.00  0.00     0.031 C 
ATOM      9  C   UNL     1       0.424 -14.556   9.337  1.00  0.00     0.034 C 
ATOM     10  C   UNL     1       2.808 -13.539   9.422  1.00  0.00     0.011 C 
ENDBRANCH   1   4
BRANCH   1  11
ATOM     11  O   UNL     1       1.716 -16.921  10.809  1.00  0.00    -0.390 OA
ATOM     12  H   UNL     1       1.870 -17.246   9.882  1.00  0.00     0.211 HD
ENDBRANCH   1  11
TORSDOF 2
ENDMDL
MODEL 2
REMARK VINA RESULT:    -3.724      2.385      3.380
REMARK INTER + INTRA:          -4.245
REMARK INTER:                  -4.049
REMARK INTRA:                  -0.196
REMARK UNBOUND:                -0.194
REMARK SMILES CC1=CC[C@H](C(C)(C)O)CC1
REMARK SMILES IDX 6 1 7 2 8 3 5 4 1 5 2 6 3 7 11 8 4 9 10 10 9 11
REMARK H PARENT 9 12
REMARK Flexibility Score: inf
ROOT
ATOM      1  C   UNL     1       4.717 -14.240  10.175  1.00  0.00     0.062 C 
ATOM      2  C   UNL     1       4.353 -13.363  11.390  1.00  0.00     0.042 C 
ATOM      3  C   UNL     1       5.681 -15.352  10.646  1.00  0.00     0.042 C 
ENDROOT
BRANCH   1   4
ATOM      4  C   UNL     1       3.444 -14.853   9.485  1.00  0.00     0.024 C 
ATOM      5  C   UNL     1      -0.538 -16.125   8.436  1.00  0.00     0.039 C 
ATOM      6  C   UNL     1       0.689 -15.690   9.186  1.00  0.00    -0.077 C 
ATOM      7  C   UNL     1       1.638 -16.583   9.508  1.00  0.00    -0.028 C 
ATOM      8  C   UNL     1       0.904 -14.243   9.565  1.00  0.00     0.031 C 
ATOM      9  C   UNL     1       2.887 -16.114  10.201  1.00  0.00     0.034 C 
ATOM     10  C   UNL     1       2.331 -13.783   9.209  1.00  0.00     0.011 C 
ENDBRANCH   1   4
BRANCH   1  11
ATOM     11  O   UNL     1       5.402 -13.423   9.254  1.00  0.00    -0.390 OA
ATOM     12  H   UNL     1       4.740 -13.074   8.600  1.00  0.00     0.211 HD
ENDBRANCH   1  11
TORSDOF 2
ENDMDL
MODEL 3
REMARK VINA RESULT:    -3.691      2.308      3.166
REMARK INTER + INTRA:          -4.209
REMARK INTER:                  -4.001
REMARK INTRA:                  -0.208
REMARK UNBOUND:                -0.194
REMARK SMILES CC1=CC[C@H](C(C)(C)O)CC1
REMARK SMILES IDX 6 1 7 2 8 3 5 4 1 5 2 6 3 7 11 8 4 9 10 10 9 11
REMARK H PARENT 9 12
REMARK Flexibility Score: inf
ROOT
ATOM      1  C   UNL     1       3.033 -14.606  12.801  1.00  0.00     0.062 C 
ATOM      2  C   UNL     1       4.006 -15.787  12.991  1.00  0.00     0.042 C 
ATOM      3  C   UNL     1       3.842 -13.379  12.322  1.00  0.00     0.042 C 
ENDROOT
BRANCH   1   4
ATOM      4  C   UNL     1       1.878 -14.948  11.792  1.00  0.00     0.024 C 
ATOM      5  C   UNL     1      -0.484 -16.094   8.373  1.00  0.00     0.039 C 
ATOM      6  C   UNL     1       0.618 -15.605   9.269  1.00  0.00    -0.077 C 
ATOM      7  C   UNL     1       0.614 -14.341   9.720  1.00  0.00    -0.028 C 
ATOM      8  C   UNL     1       1.735 -16.522   9.710  1.00  0.00     0.031 C 
ATOM      9  C   UNL     1       1.691 -13.892  10.668  1.00  0.00     0.034 C 
ATOM     10  C   UNL     1       1.980 -16.408  11.227  1.00  0.00     0.011 C 
ENDBRANCH   1   4
BRANCH   1  11
ATOM     11  O   UNL     1       2.481 -14.306  14.062  1.00  0.00    -0.390 OA
ATOM     12  H   UNL     1       3.045 -13.606  14.486  1.00  0.00     0.211 HD
ENDBRANCH   1  11
TORSDOF 2
ENDMDL
MODEL 4
REMARK VINA RESULT:    -3.658      1.126      1.187
REMARK INTER + INTRA:          -4.172
REMARK INTER:                  -3.966
REMARK INTRA:                  -0.207
REMARK UNBOUND:                -0.194
REMARK SMILES CC1=CC[C@H](C(C)(C)O)CC1
REMARK SMILES IDX 6 1 7 2 8 3 5 4 1 5 2 6 3 7 11 8 4 9 10 10 9 11
REMARK H PARENT 9 12
REMARK Flexibility Score: inf
ROOT
ATOM      1  C   UNL     1       3.133 -15.525  10.876  1.00  0.00     0.062 C 
ATOM      2  C   UNL     1       3.667 -14.502  11.900  1.00  0.00     0.042 C 
ATOM      3  C   UNL     1       2.163 -16.484  11.604  1.00  0.00     0.042 C 
ENDROOT
BRANCH   1   4
ATOM      4  C   UNL     1       2.428 -14.829   9.656  1.00  0.00     0.024 C 
ATOM      5  C   UNL     1       0.165 -12.243   7.054  1.00  0.00     0.039 C 
ATOM      6  C   UNL     1       0.688 -12.995   8.245  1.00  0.00    -0.077 C 
ATOM      7  C   UNL     1       0.300 -14.260   8.471  1.00  0.00    -0.028 C 
ATOM      8  C   UNL     1       1.682 -12.367   9.194  1.00  0.00     0.031 C 
ATOM      9  C   UNL     1       0.886 -15.015   9.631  1.00  0.00     0.034 C 
ATOM     10  C   UNL     1       2.850 -13.328   9.489  1.00  0.00     0.011 C 
ENDBRANCH   1   4
BRANCH   1  11
ATOM     11  O   UNL     1       4.234 -16.276  10.416  1.00  0.00    -0.390 OA
ATOM     12  H   UNL     1       4.378 -17.028  11.048  1.00  0.00     0.211 HD
ENDBRANCH   1  11
TORSDOF 2
ENDMDL
MODEL 5
REMARK VINA RESULT:    -3.641      1.925      4.535
REMARK INTER + INTRA:          -4.155
REMARK INTER:                  -3.950
REMARK INTRA:                  -0.204
REMARK UNBOUND:                -0.194
REMARK SMILES CC1=CC[C@H](C(C)(C)O)CC1
REMARK SMILES IDX 6 1 7 2 8 3 5 4 1 5 2 6 3 7 11 8 4 9 10 10 9 11
REMARK H PARENT 9 12
REMARK Flexibility Score: inf
ROOT
ATOM      1  C   UNL     1       0.958 -13.179   8.721  1.00  0.00     0.062 C 
ATOM      2  C   UNL     1       0.344 -11.875   9.270  1.00  0.00     0.042 C 
ATOM      3  C   UNL     1       2.391 -12.875   8.229  1.00  0.00     0.042 C 
ENDROOT
BRANCH   1   4
ATOM      4  C   UNL     1       0.963 -14.328   9.793  1.00  0.00     0.024 C 
ATOM      5  C   UNL     1       1.905 -17.048  13.002  1.00  0.00     0.039 C 
ATOM      6  C   UNL     1       1.991 -16.060  11.873  1.00  0.00    -0.077 C 
ATOM      7  C   UNL     1       1.949 -16.481  10.600  1.00  0.00    -0.028 C 
ATOM      8  C   UNL     1       2.094 -14.576  12.137  1.00  0.00     0.031 C 
ATOM      9  C   UNL     1       1.971 -15.470   9.487  1.00  0.00     0.034 C 
ATOM     10  C   UNL     1       1.102 -13.787  11.259  1.00  0.00     0.011 C 
ENDBRANCH   1   4
BRANCH   1  11
ATOM     11  O   UNL     1       0.185 -13.576   7.612  1.00  0.00    -0.390 OA
ATOM     12  H   UNL     1      -0.610 -12.982   7.563  1.00  0.00     0.211 HD
ENDBRANCH   1  11
TORSDOF 2
ENDMDL
MODEL 6
REMARK VINA RESULT:    -3.572      4.162      5.950
REMARK INTER + INTRA:          -4.079
REMARK INTER:                  -3.871
REMARK INTRA:                  -0.208
REMARK UNBOUND:                -0.194
REMARK SMILES CC1=CC[C@H](C(C)(C)O)CC1
REMARK SMILES IDX 6 1 7 2 8 3 5 4 1 5 2 6 3 7 11 8 4 9 10 10 9 11
REMARK H PARENT 9 12
REMARK Flexibility Score: inf
ROOT
ATOM      1  C   UNL     1       0.390 -18.178  15.443  1.00  0.00     0.062 C 
ATOM      2  C   UNL     1       1.175 -19.362  16.044  1.00  0.00     0.042 C 
ATOM      3  C   UNL     1       0.226 -17.097  16.535  1.00  0.00     0.042 C 
ENDROOT
BRANCH   1   4
ATOM      4  C   UNL     1       1.093 -17.588  14.167  1.00  0.00     0.024 C 
ATOM      5  C   UNL     1       3.813 -15.793  11.347  1.00  0.00     0.039 C 
ATOM      6  C   UNL     1       3.087 -16.193  12.600  1.00  0.00    -0.077 C 
ATOM      7  C   UNL     1       1.945 -15.579  12.946  1.00  0.00    -0.028 C 
ATOM      8  C   UNL     1       3.600 -17.308  13.481  1.00  0.00     0.031 C 
ATOM      9  C   UNL     1       1.202 -16.039  14.169  1.00  0.00     0.034 C 
ATOM     10  C   UNL     1       2.466 -18.282  13.858  1.00  0.00     0.011 C 
ENDBRANCH   1   4
BRANCH   1  11
ATOM     11  O   UNL     1      -0.890 -18.654  15.096  1.00  0.00    -0.390 OA
ATOM     12  H   UNL     1      -0.805 -19.610  14.841  1.00  0.00     0.211 HD
ENDBRANCH   1  11
TORSDOF 2
ENDMDL
MODEL 7
REMARK VINA RESULT:    -3.572      6.499      8.225
REMARK INTER + INTRA:          -4.079
REMARK INTER:                  -3.871
REMARK INTRA:                  -0.208
REMARK UNBOUND:                -0.194
REMARK SMILES CC1=CC[C@H](C(C)(C)O)CC1
REMARK SMILES IDX 6 1 7 2 8 3 5 4 1 5 2 6 3 7 11 8 4 9 10 10 9 11
REMARK H PARENT 9 12
REMARK Flexibility Score: inf
ROOT
ATOM      1  C   UNL     1       0.035 -17.450  15.716  1.00  0.00     0.062 C 
ATOM      2  C   UNL     1       0.073 -17.502  17.257  1.00  0.00     0.042 C 
ATOM      3  C   UNL     1       0.589 -16.082  15.259  1.00  0.00     0.042 C 
ENDROOT
BRANCH   1   4
ATOM      4  C   UNL     1       0.844 -18.631  15.064  1.00  0.00     0.024 C 
ATOM      5  C   UNL     1       3.783 -21.597  13.999  1.00  0.00     0.039 C 
ATOM      6  C   UNL     1       3.096 -20.363  14.510  1.00  0.00    -0.077 C 
ATOM      7  C   UNL     1       2.786 -19.363  13.670  1.00  0.00    -0.028 C 
ATOM      8  C   UNL     1       2.708 -20.227  15.964  1.00  0.00     0.031 C 
ATOM      9  C   UNL     1       2.041 -18.166  14.191  1.00  0.00     0.034 C 
ATOM     10  C   UNL     1       1.256 -19.729  16.105  1.00  0.00     0.011 C 
ENDBRANCH   1   4
BRANCH   1  11
ATOM     11  O   UNL     1      -1.315 -17.534  15.323  1.00  0.00    -0.390 OA
ATOM     12  H   UNL     1      -1.874 -17.556  16.145  1.00  0.00     0.211 HD
ENDBRANCH   1  11
TORSDOF 2
ENDMDL
MODEL 8
REMARK VINA RESULT:    -3.487      1.841      4.069
REMARK INTER + INTRA:          -3.986
REMARK INTER:                  -3.778
REMARK INTRA:                  -0.208
REMARK UNBOUND:                -0.194
REMARK SMILES CC1=CC[C@H](C(C)(C)O)CC1
REMARK SMILES IDX 6 1 7 2 8 3 5 4 1 5 2 6 3 7 11 8 4 9 10 10 9 11
REMARK H PARENT 9 12
REMARK Flexibility Score: inf
ROOT
ATOM      1  C   UNL     1       0.630 -13.962   9.098  1.00  0.00     0.062 C 
ATOM      2  C   UNL     1       0.653 -13.034   7.867  1.00  0.00     0.042 C 
ATOM      3  C   UNL     1      -0.117 -15.260   8.718  1.00  0.00     0.042 C 
ENDROOT
BRANCH   1   4
ATOM      4  C   UNL     1       2.076 -14.279   9.627  1.00  0.00     0.024 C 
ATOM      5  C   UNL     1       6.224 -15.369  10.059  1.00  0.00     0.039 C 
ATOM      6  C   UNL     1       4.808 -15.237   9.575  1.00  0.00    -0.077 C 
ATOM      7  C   UNL     1       3.836 -15.989  10.114  1.00  0.00    -0.028 C 
ATOM      8  C   UNL     1       4.435 -14.240   8.501  1.00  0.00     0.031 C 
ATOM      9  C   UNL     1       2.416 -15.795   9.660  1.00  0.00     0.034 C 
ATOM     10  C   UNL     1       3.183 -13.436   8.903  1.00  0.00     0.011 C 
ENDBRANCH   1   4
BRANCH   1  11
ATOM     11  O   UNL     1      -0.105 -13.308  10.106  1.00  0.00    -0.390 OA
ATOM     12  H   UNL     1      -0.843 -13.910  10.388  1.00  0.00     0.211 HD
ENDBRANCH   1  11
TORSDOF 2
ENDMDL
MODEL 9
REMARK VINA RESULT:    -3.418      1.258      1.997
REMARK INTER + INTRA:          -3.912
REMARK INTER:                  -3.763
REMARK INTRA:                  -0.149
REMARK UNBOUND:                -0.194
REMARK SMILES CC1=CC[C@H](C(C)(C)O)CC1
REMARK SMILES IDX 6 1 7 2 8 3 5 4 1 5 2 6 3 7 11 8 4 9 10 10 9 11
REMARK H PARENT 9 12
REMARK Flexibility Score: inf
ROOT
ATOM      1  C   UNL     1       3.241 -15.618  11.395  1.00  0.00     0.062 C 
ATOM      2  C   UNL     1       4.131 -15.004  12.495  1.00  0.00     0.042 C 
ATOM      3  C   UNL     1       2.261 -16.613  12.058  1.00  0.00     0.042 C 
ENDROOT
BRANCH   1   4
ATOM      4  C   UNL     1       2.464 -14.521  10.581  1.00  0.00     0.024 C 
ATOM      5  C   UNL     1       0.115 -12.325   7.710  1.00  0.00     0.039 C 
ATOM      6  C   UNL     1       0.995 -13.340   8.384  1.00  0.00    -0.077 C 
ATOM      7  C   UNL     1       2.310 -13.112   8.521  1.00  0.00    -0.028 C 
ATOM      8  C   UNL     1       0.424 -14.620   8.949  1.00  0.00     0.031 C 
ATOM      9  C   UNL     1       3.160 -14.111   9.255  1.00  0.00     0.034 C 
ATOM     10  C   UNL     1       0.951 -14.879  10.375  1.00  0.00     0.011 C 
ENDBRANCH   1   4
BRANCH   1  11
ATOM     11  O   UNL     1       4.082 -16.340  10.526  1.00  0.00    -0.390 OA
ATOM     12  H   UNL     1       3.832 -17.300  10.583  1.00  0.00     0.211 HD
ENDBRANCH   1  11
TORSDOF 2
ENDMDL
