MODEL 1
REMARK VINA RESULT:    -4.771      0.000      0.000
REMARK INTER + INTRA:          -5.541
REMARK INTER:                  -5.329
REMARK INTRA:                  -0.212
REMARK UNBOUND:                -0.212
REMARK SMILES O=C([O-])c1ccccc1C(=O)[O-]
REMARK SMILES IDX 4 1 9 2 5 3 8 4 6 5 7 6 2 7 1 8 3 9 10 10 11 11 12 12
REMARK H PARENT
REMARK Flexibility Score: inf
ROOT
ATOM      1  C   UNL     1      -6.452   9.202 -21.429  1.00  0.00     0.006 A 
ATOM      2  C   UNL     1      -7.758   8.984 -20.909  1.00  0.00     0.006 A 
ATOM      3  C   UNL     1      -5.465   9.754 -20.591  1.00  0.00     0.010 A 
ATOM      4  C   UNL     1      -8.045   9.387 -19.591  1.00  0.00     0.010 A 
ATOM      5  C   UNL     1      -5.767  10.125 -19.281  1.00  0.00     0.001 A 
ATOM      6  C   UNL     1      -7.057   9.953 -18.785  1.00  0.00     0.001 A 
ENDROOT
BRANCH   1   7
ATOM      7  C   UNL     1      -6.094   8.940 -22.843  1.00  0.00     0.072 C 
ATOM      8  O   UNL     1      -5.609   7.831 -23.190  1.00  0.00    -0.545 OA
ATOM      9  O   UNL     1      -6.353   9.898 -23.816  1.00  0.00    -0.545 OA
ENDBRANCH   1   7
BRANCH   2  10
ATOM     10  C   UNL     1      -8.817   8.284 -21.672  1.00  0.00     0.072 C 
ATOM     11  O   UNL     1      -9.810   8.923 -22.109  1.00  0.00    -0.545 OA
ATOM     12  O   UNL     1      -8.765   6.907 -21.858  1.00  0.00    -0.545 OA
ENDBRANCH   2  10
TORSDOF 2
ENDMDL
MODEL 2
REMARK VINA RESULT:    -4.770     15.804     17.630
REMARK INTER + INTRA:          -5.539
REMARK INTER:                  -5.444
REMARK INTRA:                  -0.095
REMARK UNBOUND:                -0.212
REMARK SMILES O=C([O-])c1ccccc1C(=O)[O-]
REMARK SMILES IDX 4 1 9 2 5 3 8 4 6 5 7 6 2 7 1 8 3 9 10 10 11 11 12 12
REMARK H PARENT
REMARK Flexibility Score: inf
ROOT
ATOM      1  C   UNL     1       0.405  -2.836 -31.218  1.00  0.00     0.006 A 
ATOM      2  C   UNL     1       1.469  -2.102 -31.812  1.00  0.00     0.006 A 
ATOM      3  C   UNL     1       0.397  -4.239 -31.325  1.00  0.00     0.010 A 
ATOM      4  C   UNL     1       2.451  -2.795 -32.547  1.00  0.00     0.010 A 
ATOM      5  C   UNL     1       1.392  -4.906 -32.040  1.00  0.00     0.001 A 
ATOM      6  C   UNL     1       2.411  -4.184 -32.659  1.00  0.00     0.001 A 
ENDROOT
BRANCH   1   7
ATOM      7  C   UNL     1      -0.744  -2.185 -30.546  1.00  0.00     0.072 C 
ATOM      8  O   UNL     1      -0.807  -2.126 -29.290  1.00  0.00    -0.545 OA
ATOM      9  O   UNL     1      -1.738  -1.573 -31.302  1.00  0.00    -0.545 OA
ENDBRANCH   1   7
BRANCH   2  10
ATOM     10  C   UNL     1       1.633  -0.641 -31.632  1.00  0.00     0.072 C 
ATOM     11  O   UNL     1       1.755   0.111 -32.635  1.00  0.00    -0.545 OA
ATOM     12  O   UNL     1       1.720  -0.088 -30.360  1.00  0.00    -0.545 OA
ENDBRANCH   2  10
TORSDOF 2
ENDMDL
MODEL 3
REMARK VINA RESULT:    -4.731     16.363     17.830
REMARK INTER + INTRA:          -5.496
REMARK INTER:                  -5.277
REMARK INTRA:                  -0.219
REMARK UNBOUND:                -0.212
REMARK SMILES O=C([O-])c1ccccc1C(=O)[O-]
REMARK SMILES IDX 4 1 9 2 5 3 8 4 6 5 7 6 2 7 1 8 3 9 10 10 11 11 12 12
REMARK H PARENT
REMARK Flexibility Score: inf
ROOT
ATOM      1  C   UNL     1       1.235  -2.410 -32.188  1.00  0.00     0.006 A 
ATOM      2  C   UNL     1      -0.086  -2.919 -32.323  1.00  0.00     0.006 A 
ATOM      3  C   UNL     1       2.314  -3.164 -32.686  1.00  0.00     0.010 A 
ATOM      4  C   UNL     1      -0.273  -4.193 -32.892  1.00  0.00     0.010 A 
ATOM      5  C   UNL     1       2.103  -4.414 -33.266  1.00  0.00     0.001 A 
ATOM      6  C   UNL     1       0.813  -4.933 -33.359  1.00  0.00     0.001 A 
ENDROOT
BRANCH   1   7
ATOM      7  C   UNL     1       1.542  -1.145 -31.479  1.00  0.00     0.072 C 
ATOM      8  O   UNL     1       1.657  -1.119 -30.225  1.00  0.00    -0.545 OA
ATOM      9  O   UNL     1       1.773   0.020 -32.202  1.00  0.00    -0.545 OA
ENDBRANCH   1   7
BRANCH   2  10
ATOM     10  C   UNL     1      -1.288  -2.135 -31.955  1.00  0.00     0.072 C 
ATOM     11  O   UNL     1      -1.766  -1.294 -32.762  1.00  0.00    -0.545 OA
ATOM     12  O   UNL     1      -1.863  -2.266 -30.697  1.00  0.00    -0.545 OA
ENDBRANCH   2  10
TORSDOF 2
ENDMDL
MODEL 4
REMARK VINA RESULT:    -4.726      0.130      3.005
REMARK INTER + INTRA:          -5.490
REMARK INTER:                  -5.261
REMARK INTRA:                  -0.229
REMARK UNBOUND:                -0.212
REMARK SMILES O=C([O-])c1ccccc1C(=O)[O-]
REMARK SMILES IDX 4 1 9 2 5 3 8 4 6 5 7 6 2 7 1 8 3 9 10 10 11 11 12 12
REMARK H PARENT
REMARK Flexibility Score: inf
ROOT
ATOM      1  C   UNL     1      -7.793   9.009 -20.822  1.00  0.00     0.006 A 
ATOM      2  C   UNL     1      -6.502   9.216 -21.381  1.00  0.00     0.006 A 
ATOM      3  C   UNL     1      -8.037   9.410 -19.495  1.00  0.00     0.010 A 
ATOM      4  C   UNL     1      -5.484   9.755 -20.570  1.00  0.00     0.010 A 
ATOM      5  C   UNL     1      -7.020   9.963 -18.718  1.00  0.00     0.001 A 
ATOM      6  C   UNL     1      -5.743  10.125 -19.251  1.00  0.00     0.001 A 
ENDROOT
BRANCH   1   7
ATOM      7  C   UNL     1      -8.886   8.323 -21.551  1.00  0.00     0.072 C 
ATOM      8  O   UNL     1      -9.767   8.982 -22.162  1.00  0.00    -0.545 OA
ATOM      9  O   UNL     1      -8.911   6.934 -21.621  1.00  0.00    -0.545 OA
ENDBRANCH   1   7
BRANCH   2  10
ATOM     10  C   UNL     1      -6.195   8.954 -22.806  1.00  0.00     0.072 C 
ATOM     11  O   UNL     1      -6.479   9.813 -23.683  1.00  0.00    -0.545 OA
ATOM     12  O   UNL     1      -5.653   7.737 -23.204  1.00  0.00    -0.545 OA
ENDBRANCH   2  10
TORSDOF 2
ENDMDL
MODEL 5
REMARK VINA RESULT:    -4.726     16.393     18.020
REMARK INTER + INTRA:          -5.490
REMARK INTER:                  -5.260
REMARK INTRA:                  -0.230
REMARK UNBOUND:                -0.212
REMARK SMILES O=C([O-])c1ccccc1C(=O)[O-]
REMARK SMILES IDX 4 1 9 2 5 3 8 4 6 5 7 6 2 7 1 8 3 9 10 10 11 11 12 12
REMARK H PARENT
REMARK Flexibility Score: inf
ROOT
ATOM      1  C   UNL     1      -0.086  -2.809 -32.421  1.00  0.00     0.006 A 
ATOM      2  C   UNL     1       1.250  -2.375 -32.199  1.00  0.00     0.006 A 
ATOM      3  C   UNL     1      -0.310  -4.090 -32.959  1.00  0.00     0.010 A 
ATOM      4  C   UNL     1       2.314  -3.212 -32.586  1.00  0.00     0.010 A 
ATOM      5  C   UNL     1       0.760  -4.911 -33.314  1.00  0.00     0.001 A 
ATOM      6  C   UNL     1       2.069  -4.469 -33.138  1.00  0.00     0.001 A 
ENDROOT
BRANCH   1   7
ATOM      7  C   UNL     1      -1.265  -1.944 -32.176  1.00  0.00     0.072 C 
ATOM      8  O   UNL     1      -1.930  -2.047 -31.112  1.00  0.00    -0.545 OA
ATOM      9  O   UNL     1      -1.610  -0.961 -33.096  1.00  0.00    -0.545 OA
ENDBRANCH   1   7
BRANCH   2  10
ATOM     10  C   UNL     1       1.576  -1.104 -31.511  1.00  0.00     0.072 C 
ATOM     11  O   UNL     1       1.607  -1.056 -30.252  1.00  0.00    -0.545 OA
ATOM     12  O   UNL     1       1.786   0.063 -32.236  1.00  0.00    -0.545 OA
ENDBRANCH   2  10
TORSDOF 2
ENDMDL
MODEL 6
REMARK VINA RESULT:    -4.695     15.830     17.698
REMARK INTER + INTRA:          -5.455
REMARK INTER:                  -5.273
REMARK INTRA:                  -0.182
REMARK UNBOUND:                -0.212
REMARK SMILES O=C([O-])c1ccccc1C(=O)[O-]
REMARK SMILES IDX 4 1 9 2 5 3 8 4 6 5 7 6 2 7 1 8 3 9 10 10 11 11 12 12
REMARK H PARENT
REMARK Flexibility Score: inf
ROOT
ATOM      1  C   UNL     1       1.189  -2.315 -31.422  1.00  0.00     0.006 A 
ATOM      2  C   UNL     1       0.745  -3.628 -31.107  1.00  0.00     0.006 A 
ATOM      3  C   UNL     1       1.978  -2.115 -32.571  1.00  0.00     0.010 A 
ATOM      4  C   UNL     1       1.161  -4.703 -31.915  1.00  0.00     0.010 A 
ATOM      5  C   UNL     1       2.360  -3.193 -33.370  1.00  0.00     0.001 A 
ATOM      6  C   UNL     1       1.962  -4.486 -33.036  1.00  0.00     0.001 A 
ENDROOT
BRANCH   1   7
ATOM      7  C   UNL     1       0.919  -1.143 -30.556  1.00  0.00     0.072 C 
ATOM      8  O   UNL     1       1.810  -0.687 -29.792  1.00  0.00    -0.545 OA
ATOM      9  O   UNL     1      -0.307  -0.492 -30.627  1.00  0.00    -0.545 OA
ENDBRANCH   1   7
BRANCH   2  10
ATOM     10  C   UNL     1      -0.199  -3.910 -30.001  1.00  0.00     0.072 C 
ATOM     11  O   UNL     1       0.195  -4.524 -28.973  1.00  0.00    -0.545 OA
ATOM     12  O   UNL     1      -1.540  -3.563 -30.107  1.00  0.00    -0.545 OA
ENDBRANCH   2  10
TORSDOF 2
ENDMDL
MODEL 7
REMARK VINA RESULT:    -4.679     16.040     17.938
REMARK INTER + INTRA:          -5.437
REMARK INTER:                  -5.216
REMARK INTRA:                  -0.221
REMARK UNBOUND:                -0.212
REMARK SMILES O=C([O-])c1ccccc1C(=O)[O-]
REMARK SMILES IDX 4 1 9 2 5 3 8 4 6 5 7 6 2 7 1 8 3 9 10 10 11 11 12 12
REMARK H PARENT
REMARK Flexibility Score: inf
ROOT
ATOM      1  C   UNL     1       1.480  -2.114 -32.979  1.00  0.00     0.006 A 
ATOM      2  C   UNL     1       1.090  -2.268 -31.620  1.00  0.00     0.006 A 
ATOM      3  C   UNL     1       1.656  -3.261 -33.776  1.00  0.00     0.010 A 
ATOM      4  C   UNL     1       0.953  -3.565 -31.091  1.00  0.00     0.010 A 
ATOM      5  C   UNL     1       1.493  -4.536 -33.235  1.00  0.00     0.001 A 
ATOM      6  C   UNL     1       1.153  -4.688 -31.892  1.00  0.00     0.001 A 
ENDROOT
BRANCH   1   7
ATOM      7  C   UNL     1       1.783  -0.796 -33.586  1.00  0.00     0.072 C 
ATOM      8  O   UNL     1       2.970  -0.385 -33.677  1.00  0.00    -0.545 OA
ATOM      9  O   UNL     1       0.759  -0.025 -34.125  1.00  0.00    -0.545 OA
ENDBRANCH   1   7
BRANCH   2  10
ATOM     10  C   UNL     1       0.749  -1.118 -30.750  1.00  0.00     0.072 C 
ATOM     11  O   UNL     1      -0.436  -0.694 -30.698  1.00  0.00    -0.545 OA
ATOM     12  O   UNL     1       1.736  -0.454 -30.033  1.00  0.00    -0.545 OA
ENDBRANCH   2  10
TORSDOF 2
ENDMDL
MODEL 8
REMARK VINA RESULT:    -4.648     16.054     18.089
REMARK INTER + INTRA:          -5.403
REMARK INTER:                  -5.194
REMARK INTRA:                  -0.209
REMARK UNBOUND:                -0.212
REMARK SMILES O=C([O-])c1ccccc1C(=O)[O-]
REMARK SMILES IDX 4 1 9 2 5 3 8 4 6 5 7 6 2 7 1 8 3 9 10 10 11 11 12 12
REMARK H PARENT
REMARK Flexibility Score: inf
ROOT
ATOM      1  C   UNL     1       0.918  -2.559 -31.701  1.00  0.00     0.006 A 
ATOM      2  C   UNL     1       0.954  -2.209 -33.079  1.00  0.00     0.006 A 
ATOM      3  C   UNL     1       1.078  -3.908 -31.332  1.00  0.00     0.010 A 
ATOM      4  C   UNL     1       1.083  -3.230 -34.040  1.00  0.00     0.010 A 
ATOM      5  C   UNL     1       1.226  -4.900 -32.301  1.00  0.00     0.001 A 
ATOM      6  C   UNL     1       1.217  -4.563 -33.653  1.00  0.00     0.001 A 
ENDROOT
BRANCH   1   7
ATOM      7  C   UNL     1       0.648  -1.574 -30.627  1.00  0.00     0.072 C 
ATOM      8  O   UNL     1      -0.513  -1.427 -30.164  1.00  0.00    -0.545 OA
ATOM      9  O   UNL     1       1.694  -0.846 -30.071  1.00  0.00    -0.545 OA
ENDBRANCH   1   7
BRANCH   2  10
ATOM     10  C   UNL     1       0.934  -0.805 -33.550  1.00  0.00     0.072 C 
ATOM     11  O   UNL     1      -0.091  -0.342 -34.117  1.00  0.00    -0.545 OA
ATOM     12  O   UNL     1       2.062  -0.001 -33.432  1.00  0.00    -0.545 OA
ENDBRANCH   2  10
TORSDOF 2
ENDMDL
MODEL 9
REMARK VINA RESULT:    -4.527     15.934     17.885
REMARK INTER + INTRA:          -5.268
REMARK INTER:                  -5.092
REMARK INTRA:                  -0.176
REMARK UNBOUND:                -0.212
REMARK SMILES O=C([O-])c1ccccc1C(=O)[O-]
REMARK SMILES IDX 4 1 9 2 5 3 8 4 6 5 7 6 2 7 1 8 3 9 10 10 11 11 12 12
REMARK H PARENT
REMARK Flexibility Score: inf
ROOT
ATOM      1  C   UNL     1       1.012  -1.534 -31.903  1.00  0.00     0.006 A 
ATOM      2  C   UNL     1       1.272  -2.777 -32.543  1.00  0.00     0.006 A 
ATOM      3  C   UNL     1       1.691  -0.382 -32.342  1.00  0.00     0.010 A 
ATOM      4  C   UNL     1       2.248  -2.833 -33.556  1.00  0.00     0.010 A 
ATOM      5  C   UNL     1       2.638  -0.458 -33.362  1.00  0.00     0.001 A 
ATOM      6  C   UNL     1       2.925  -1.683 -33.961  1.00  0.00     0.001 A 
ENDROOT
BRANCH   1   7
ATOM      7  C   UNL     1       0.106  -1.403 -30.737  1.00  0.00     0.072 C 
ATOM      8  O   UNL     1       0.433  -1.863 -29.611  1.00  0.00    -0.545 OA
ATOM      9  O   UNL     1      -1.092  -0.708 -30.861  1.00  0.00    -0.545 OA
ENDBRANCH   1   7
BRANCH   2  10
ATOM     10  C   UNL     1       0.506  -4.009 -32.242  1.00  0.00     0.072 C 
ATOM     11  O   UNL     1      -0.589  -4.232 -32.824  1.00  0.00    -0.545 OA
ATOM     12  O   UNL     1       0.948  -4.899 -31.271  1.00  0.00    -0.545 OA
ENDBRANCH   2  10
TORSDOF 2
ENDMDL
