MODEL 1
REMARK VINA RESULT:    -3.571      0.000      0.000
REMARK INTER + INTRA:          -3.676
REMARK INTER:                  -3.676
REMARK INTRA:                   0.000
REMARK UNBOUND:                 0.000
REMARK SMILES CC1(C)[C@H]2CC[C@](C)(C2)[C@@H]1O
REMARK SMILES IDX 1 1 2 2 4 3 5 4 6 5 7 6 9 7 10 8 8 9 3 10 11 11
REMARK H PARENT 11 12
REMARK Flexibility Score: inf
ROOT
ATOM      1  C   UNL     1     114.060 117.003 119.322  1.00  0.00     0.014 C 
ATOM      2  C   UNL     1     115.551 116.833 118.928  1.00  0.00    -0.006 C 
ATOM      3  C   UNL     1     116.136 118.213 118.471  1.00  0.00    -0.002 C 
ATOM      4  C   UNL     1     117.673 118.160 118.349  1.00  0.00     0.005 C 
ATOM      5  C   UNL     1     117.887 117.226 117.147  1.00  0.00     0.010 C 
ATOM      6  C   UNL     1     116.443 116.952 116.667  1.00  0.00    -0.006 C 
ATOM      7  C   UNL     1     115.755 118.257 117.001  1.00  0.00     0.013 C 
ATOM      8  C   UNL     1     115.766 115.956 117.647  1.00  0.00     0.126 C 
ATOM      9  C   UNL     1     116.363 116.558 115.187  1.00  0.00     0.014 C 
ATOM     10  C   UNL     1     116.282 116.225 120.150  1.00  0.00     0.014 C 
ENDROOT
BRANCH   8  11
ATOM     11  O   UNL     1     114.551 115.487 117.113  1.00  0.00    -0.392 OA
ATOM     12  H   UNL     1     114.786 114.831 116.405  1.00  0.00     0.211 HD
ENDBRANCH   8  11
TORSDOF 1
ENDMDL
MODEL 2
REMARK VINA RESULT:    -3.553      1.515      2.242
REMARK INTER + INTRA:          -3.656
REMARK INTER:                  -3.656
REMARK INTRA:                   0.000
REMARK UNBOUND:                 0.000
REMARK SMILES CC1(C)[C@H]2CC[C@](C)(C2)[C@@H]1O
REMARK SMILES IDX 1 1 2 2 4 3 5 4 6 5 7 6 9 7 10 8 8 9 3 10 11 11
REMARK H PARENT 11 12
REMARK Flexibility Score: inf
ROOT
ATOM      1  C   UNL     1     116.239 114.036 119.348  1.00  0.00     0.014 C 
ATOM      2  C   UNL     1     116.347 115.539 118.977  1.00  0.00    -0.006 C 
ATOM      3  C   UNL     1     114.946 116.070 118.519  1.00  0.00    -0.002 C 
ATOM      4  C   UNL     1     114.933 117.610 118.421  1.00  0.00     0.005 C 
ATOM      5  C   UNL     1     115.864 117.882 117.229  1.00  0.00     0.010 C 
ATOM      6  C   UNL     1     116.204 116.459 116.729  1.00  0.00    -0.006 C 
ATOM      7  C   UNL     1     114.928 115.710 117.044  1.00  0.00     0.013 C 
ATOM      8  C   UNL     1     117.222 115.811 117.706  1.00  0.00     0.126 C 
ATOM      9  C   UNL     1     116.610 116.418 115.250  1.00  0.00     0.014 C 
ATOM     10  C   UNL     1     116.914 116.277 120.214  1.00  0.00     0.014 C 
ENDROOT
BRANCH   8  11
ATOM     11  O   UNL     1     117.747 114.625 117.157  1.00  0.00    -0.392 OA
ATOM     12  H   UNL     1     118.735 114.694 117.227  1.00  0.00     0.211 HD
ENDBRANCH   8  11
TORSDOF 1
ENDMDL
MODEL 3
REMARK VINA RESULT:    -3.547      1.494      2.178
REMARK INTER + INTRA:          -3.650
REMARK INTER:                  -3.650
REMARK INTRA:                   0.000
REMARK UNBOUND:                 0.000
REMARK SMILES CC1(C)[C@H]2CC[C@](C)(C2)[C@@H]1O
REMARK SMILES IDX 1 1 2 2 4 3 5 4 6 5 7 6 9 7 10 8 8 9 3 10 11 11
REMARK H PARENT 11 12
REMARK Flexibility Score: inf
ROOT
ATOM      1  C   UNL     1     116.964 119.233 119.177  1.00  0.00     0.014 C 
ATOM      2  C   UNL     1     116.841 117.723 118.842  1.00  0.00    -0.006 C 
ATOM      3  C   UNL     1     118.228 117.175 118.360  1.00  0.00    -0.002 C 
ATOM      4  C   UNL     1     118.231 115.633 118.294  1.00  0.00     0.005 C 
ATOM      5  C   UNL     1     117.269 115.341 117.132  1.00  0.00     0.010 C 
ATOM      6  C   UNL     1     116.923 116.754 116.611  1.00  0.00    -0.006 C 
ATOM      7  C   UNL     1     118.210 117.503 116.877  1.00  0.00     0.013 C 
ATOM      8  C   UNL     1     115.932 117.428 117.599  1.00  0.00     0.126 C 
ATOM      9  C   UNL     1     116.480 116.766 115.142  1.00  0.00     0.014 C 
ATOM     10  C   UNL     1     116.301 117.014 120.107  1.00  0.00     0.014 C 
ENDROOT
BRANCH   8  11
ATOM     11  O   UNL     1     115.400 118.604 117.038  1.00  0.00    -0.392 OA
ATOM     12  H   UNL     1     115.536 119.325 117.708  1.00  0.00     0.211 HD
ENDBRANCH   8  11
TORSDOF 1
ENDMDL
MODEL 4
REMARK VINA RESULT:    -3.513      1.968      3.110
REMARK INTER + INTRA:          -3.615
REMARK INTER:                  -3.615
REMARK INTRA:                   0.000
REMARK UNBOUND:                 0.000
REMARK SMILES CC1(C)[C@H]2CC[C@](C)(C2)[C@@H]1O
REMARK SMILES IDX 1 1 2 2 4 3 5 4 6 5 7 6 9 7 10 8 8 9 3 10 11 11
REMARK H PARENT 11 12
REMARK Flexibility Score: inf
ROOT
ATOM      1  C   UNL     1     119.178 116.265 119.204  1.00  0.00     0.014 C 
ATOM      2  C   UNL     1     117.662 116.389 118.898  1.00  0.00    -0.006 C 
ATOM      3  C   UNL     1     117.092 114.989 118.485  1.00  0.00    -0.002 C 
ATOM      4  C   UNL     1     115.549 114.997 118.454  1.00  0.00     0.005 C 
ATOM      5  C   UNL     1     115.239 115.914 117.260  1.00  0.00     0.010 C 
ATOM      6  C   UNL     1     116.643 116.225 116.694  1.00  0.00    -0.006 C 
ATOM      7  C   UNL     1     117.387 114.944 116.996  1.00  0.00     0.013 C 
ATOM      8  C   UNL     1     117.347 117.249 117.626  1.00  0.00     0.126 C 
ATOM      9  C   UNL     1     116.625 116.609 115.209  1.00  0.00     0.014 C 
ATOM     10  C   UNL     1     116.986 116.986 120.156  1.00  0.00     0.014 C 
ENDROOT
BRANCH   8  11
ATOM     11  O   UNL     1     118.515 117.748 117.018  1.00  0.00    -0.392 OA
ATOM     12  H   UNL     1     119.281 117.384 117.535  1.00  0.00     0.211 HD
ENDBRANCH   8  11
TORSDOF 1
ENDMDL
MODEL 5
REMARK VINA RESULT:    -3.468      1.869      3.724
REMARK INTER + INTRA:          -3.569
REMARK INTER:                  -3.569
REMARK INTRA:                   0.000
REMARK UNBOUND:                 0.000
REMARK SMILES CC1(C)[C@H]2CC[C@](C)(C2)[C@@H]1O
REMARK SMILES IDX 1 1 2 2 4 3 5 4 6 5 7 6 9 7 10 8 8 9 3 10 11 11
REMARK H PARENT 11 12
REMARK Flexibility Score: inf
ROOT
ATOM      1  C   UNL     1     118.017 117.359 117.306  1.00  0.00     0.014 C 
ATOM      2  C   UNL     1     116.839 116.357 117.173  1.00  0.00    -0.006 C 
ATOM      3  C   UNL     1     115.699 116.748 118.175  1.00  0.00    -0.002 C 
ATOM      4  C   UNL     1     114.400 115.969 117.880  1.00  0.00     0.005 C 
ATOM      5  C   UNL     1     114.776 114.527 118.256  1.00  0.00     0.010 C 
ATOM      6  C   UNL     1     116.206 114.683 118.821  1.00  0.00    -0.006 C 
ATOM      7  C   UNL     1     116.139 116.056 119.453  1.00  0.00     0.013 C 
ATOM      8  C   UNL     1     117.193 114.905 117.643  1.00  0.00     0.126 C 
ATOM      9  C   UNL     1     116.599 113.562 119.791  1.00  0.00     0.014 C 
ATOM     10  C   UNL     1     116.391 116.371 115.691  1.00  0.00     0.014 C 
ENDROOT
BRANCH   8  11
ATOM     11  O   UNL     1     118.524 114.799 118.087  1.00  0.00    -0.392 OA
ATOM     12  H   UNL     1     118.713 115.620 118.613  1.00  0.00     0.211 HD
ENDBRANCH   8  11
TORSDOF 1
ENDMDL
MODEL 6
REMARK VINA RESULT:    -3.468      2.171      3.664
REMARK INTER + INTRA:          -3.569
REMARK INTER:                  -3.569
REMARK INTRA:                   0.000
REMARK UNBOUND:                 0.000
REMARK SMILES CC1(C)[C@H]2CC[C@](C)(C2)[C@@H]1O
REMARK SMILES IDX 1 1 2 2 4 3 5 4 6 5 7 6 9 7 10 8 8 9 3 10 11 11
REMARK H PARENT 11 12
REMARK Flexibility Score: inf
ROOT
ATOM      1  C   UNL     1     115.823 118.073 117.234  1.00  0.00     0.014 C 
ATOM      2  C   UNL     1     116.840 116.910 117.085  1.00  0.00    -0.006 C 
ATOM      3  C   UNL     1     116.470 115.756 118.077  1.00  0.00    -0.002 C 
ATOM      4  C   UNL     1     117.265 114.470 117.767  1.00  0.00     0.005 C 
ATOM      5  C   UNL     1     118.704 114.863 118.141  1.00  0.00     0.010 C 
ATOM      6  C   UNL     1     118.530 116.285 118.720  1.00  0.00    -0.006 C 
ATOM      7  C   UNL     1     117.161 116.193 119.357  1.00  0.00     0.013 C 
ATOM      8  C   UNL     1     118.290 117.280 117.552  1.00  0.00     0.126 C 
ATOM      9  C   UNL     1     119.650 116.684 119.690  1.00  0.00     0.014 C 
ATOM     10  C   UNL     1     116.827 116.477 115.598  1.00  0.00     0.014 C 
ENDROOT
BRANCH   8  11
ATOM     11  O   UNL     1     118.379 118.608 118.009  1.00  0.00    -0.392 OA
ATOM     12  H   UNL     1     117.601 119.092 117.628  1.00  0.00     0.211 HD
ENDBRANCH   8  11
TORSDOF 1
ENDMDL
MODEL 7
REMARK VINA RESULT:    -3.465      1.091      3.127
REMARK INTER + INTRA:          -3.566
REMARK INTER:                  -3.566
REMARK INTRA:                   0.000
REMARK UNBOUND:                 0.000
REMARK SMILES CC1(C)[C@H]2CC[C@](C)(C2)[C@@H]1O
REMARK SMILES IDX 1 1 2 2 4 3 5 4 6 5 7 6 9 7 10 8 8 9 3 10 11 11
REMARK H PARENT 11 12
REMARK Flexibility Score: inf
ROOT
ATOM      1  C   UNL     1     117.377 115.176 117.344  1.00  0.00     0.014 C 
ATOM      2  C   UNL     1     116.363 116.338 117.175  1.00  0.00    -0.006 C 
ATOM      3  C   UNL     1     116.734 117.508 118.150  1.00  0.00    -0.002 C 
ATOM      4  C   UNL     1     115.942 118.790 117.818  1.00  0.00     0.005 C 
ATOM      5  C   UNL     1     114.502 118.406 118.195  1.00  0.00     0.010 C 
ATOM      6  C   UNL     1     114.671 116.993 118.797  1.00  0.00    -0.006 C 
ATOM      7  C   UNL     1     116.039 117.092 119.435  1.00  0.00     0.013 C 
ATOM      8  C   UNL     1     114.912 115.979 117.646  1.00  0.00     0.126 C 
ATOM      9  C   UNL     1     113.549 116.611 119.771  1.00  0.00     0.014 C 
ATOM     10  C   UNL     1     116.380 116.749 115.682  1.00  0.00     0.014 C 
ENDROOT
BRANCH   8  11
ATOM     11  O   UNL     1     114.819 114.658 118.123  1.00  0.00    -0.392 OA
ATOM     12  H   UNL     1     115.147 114.672 119.060  1.00  0.00     0.211 HD
ENDBRANCH   8  11
TORSDOF 1
ENDMDL
MODEL 8
REMARK VINA RESULT:    -3.437      1.515      3.061
REMARK INTER + INTRA:          -3.537
REMARK INTER:                  -3.537
REMARK INTRA:                   0.000
REMARK UNBOUND:                 0.000
REMARK SMILES CC1(C)[C@H]2CC[C@](C)(C2)[C@@H]1O
REMARK SMILES IDX 1 1 2 2 4 3 5 4 6 5 7 6 9 7 10 8 8 9 3 10 11 11
REMARK H PARENT 11 12
REMARK Flexibility Score: inf
ROOT
ATOM      1  C   UNL     1     115.125 115.875 117.362  1.00  0.00     0.014 C 
ATOM      2  C   UNL     1     116.266 116.907 117.161  1.00  0.00    -0.006 C 
ATOM      3  C   UNL     1     117.461 116.564 118.115  1.00  0.00    -0.002 C 
ATOM      4  C   UNL     1     118.722 117.375 117.752  1.00  0.00     0.005 C 
ATOM      5  C   UNL     1     118.322 118.811 118.125  1.00  0.00     0.010 C 
ATOM      6  C   UNL     1     116.924 118.623 118.757  1.00  0.00    -0.006 C 
ATOM      7  C   UNL     1     117.059 117.262 119.403  1.00  0.00     0.013 C 
ATOM      8  C   UNL     1     115.892 118.356 117.627  1.00  0.00     0.126 C 
ATOM      9  C   UNL     1     116.542 119.747 119.728  1.00  0.00     0.014 C 
ATOM     10  C   UNL     1     116.647 116.885 115.661  1.00  0.00     0.014 C 
ENDROOT
BRANCH   8  11
ATOM     11  O   UNL     1     114.579 118.430 118.131  1.00  0.00    -0.392 OA
ATOM     12  H   UNL     1     113.995 117.977 117.468  1.00  0.00     0.211 HD
ENDBRANCH   8  11
TORSDOF 1
ENDMDL
MODEL 9
REMARK VINA RESULT:    -3.436      1.651      2.764
REMARK INTER + INTRA:          -3.536
REMARK INTER:                  -3.536
REMARK INTRA:                   0.000
REMARK UNBOUND:                 0.000
REMARK SMILES CC1(C)[C@H]2CC[C@](C)(C2)[C@@H]1O
REMARK SMILES IDX 1 1 2 2 4 3 5 4 6 5 7 6 9 7 10 8 8 9 3 10 11 11
REMARK H PARENT 11 12
REMARK Flexibility Score: inf
ROOT
ATOM      1  C   UNL     1     114.343 117.296 119.304  1.00  0.00     0.014 C 
ATOM      2  C   UNL     1     115.420 117.635 118.240  1.00  0.00    -0.006 C 
ATOM      3  C   UNL     1     115.446 116.517 117.143  1.00  0.00    -0.002 C 
ATOM      4  C   UNL     1     116.285 116.947 115.921  1.00  0.00     0.005 C 
ATOM      5  C   UNL     1     117.714 116.978 116.484  1.00  0.00     0.010 C 
ATOM      6  C   UNL     1     117.525 116.455 117.926  1.00  0.00    -0.006 C 
ATOM      7  C   UNL     1     116.378 115.484 117.753  1.00  0.00     0.013 C 
ATOM      8  C   UNL     1     116.886 117.577 118.790  1.00  0.00     0.126 C 
ATOM      9  C   UNL     1     118.796 115.831 118.516  1.00  0.00     0.014 C 
ATOM     10  C   UNL     1     115.088 119.041 117.682  1.00  0.00     0.014 C 
ENDROOT
BRANCH   8  11
ATOM     11  O   UNL     1     116.929 117.235 120.155  1.00  0.00    -0.392 OA
ATOM     12  H   UNL     1     117.499 116.425 120.226  1.00  0.00     0.211 HD
ENDBRANCH   8  11
TORSDOF 1
ENDMDL
