MODEL 1
REMARK VINA RESULT:    -5.331      0.000      0.000
REMARK INTER + INTRA:          -8.009
REMARK INTER:                  -8.136
REMARK INTRA:                   0.126
REMARK UNBOUND:                 0.126
REMARK SMILES CC1=CCC[C@@H](C)C(=O)C[C@H](C(C)C)C(=O)C1
REMARK SMILES IDX 8 1 9 2 6 3 7 4 5 5 4 6 3 7 2 8 1 9 10 11 11 12 15 13 16 14
REMARK SMILES IDX 17 15 12 17 13 18 14 19
REMARK H PARENT
REMARK Flexibility Score: 70.00
ROOT
ATOM      1  C   UNL     1      -8.345  31.685  22.143  1.00  0.00     0.136 C 
ATOM      2  O   UNL     1      -7.648  31.133  21.302  1.00  0.00    -0.299 OA
ENDROOT
BRANCH   1   3
ATOM      3  C   UNL     1      -8.462  33.193  22.147  1.00  0.00     0.053 C 
ATOM      4  C   UNL     1      -7.886  33.798  20.862  1.00  0.00     0.016 C 
BRANCH   3   5
ATOM      5  C   UNL     1      -7.757  33.752  23.407  1.00  0.00     0.015 C 
BRANCH   5   6
ATOM      6  C   UNL     1      -8.676  34.082  24.600  1.00  0.00     0.028 C 
BRANCH   6   7
ATOM      7  C   UNL     1      -8.162  33.735  25.981  1.00  0.00    -0.028 C 
ATOM      8  C   UNL     1      -8.189  32.519  26.578  1.00  0.00    -0.070 CG0
ATOM      9  C   UNL     1      -7.523  32.385  27.925  1.00  0.00     0.039 C 
ATOM     10  G   UNL     1      -8.908  31.307  26.011  1.00  0.00     0.000 G0
ENDBRANCH   6   7
ENDBRANCH   5   6
ENDBRANCH   3   5
ENDBRANCH   1   3
BRANCH   1  11
ATOM     11  C   UNL     1      -9.006  30.855  23.217  1.00  0.00     0.087 C 
BRANCH  11  12
ATOM     12  C   UNL     1      -7.992  29.924  23.953  1.00  0.00     0.066 C 
BRANCH  12  13
ATOM     13  C   UNL     1      -7.952  30.295  25.430  1.00  0.00     0.140 C 
ATOM     14  O   UNL     1      -7.073  29.817  26.135  1.00  0.00    -0.299 OA
BRANCH  13  15
ATOM     15  C   UNL     1      -8.917  31.294  26.038  1.00  0.00     0.106 CG0
ATOM     16  G   UNL     1      -8.178  32.510  26.567  1.00  0.00     0.000 G0
ENDBRANCH  13  15
ENDBRANCH  12  13
BRANCH  12  17
ATOM     17  C   UNL     1      -8.339  28.410  23.763  1.00  0.00    -0.006 C 
ATOM     18  C   UNL     1      -9.655  28.034  24.472  1.00  0.00     0.008 C 
ATOM     19  C   UNL     1      -8.470  28.029  22.273  1.00  0.00     0.008 C 
ENDBRANCH  12  17
ENDBRANCH  11  12
ENDBRANCH   1  11
TORSDOF 1
ENDMDL
MODEL 2
REMARK VINA RESULT:    -5.005      2.388      4.071
REMARK INTER + INTRA:          -7.513
REMARK INTER:                  -7.614
REMARK INTRA:                   0.101
REMARK UNBOUND:                 0.126
REMARK SMILES CC1=CCC[C@@H](C)C(=O)C[C@H](C(C)C)C(=O)C1
REMARK SMILES IDX 8 1 9 2 6 3 7 4 5 5 4 6 3 7 2 8 1 9 10 11 11 12 15 13 16 14
REMARK SMILES IDX 17 15 12 17 13 18 14 19
REMARK H PARENT
REMARK Flexibility Score: 70.00
ROOT
ATOM      1  C   UNL     1      -8.220  33.158  24.470  1.00  0.00     0.136 C 
ATOM      2  O   UNL     1      -9.442  33.124  24.484  1.00  0.00    -0.299 OA
ENDROOT
BRANCH   1   3
ATOM      3  C   UNL     1      -7.508  34.484  24.321  1.00  0.00     0.053 C 
ATOM      4  C   UNL     1      -7.812  35.413  25.503  1.00  0.00     0.016 C 
BRANCH   3   5
ATOM      5  C   UNL     1      -7.912  35.127  22.972  1.00  0.00     0.015 C 
BRANCH   5   6
ATOM      6  C   UNL     1      -7.487  34.355  21.707  1.00  0.00     0.028 C 
BRANCH   6   7
ATOM      7  C   UNL     1      -8.535  33.483  21.048  1.00  0.00    -0.028 C 
ATOM      8  C   UNL     1      -8.619  32.131  21.099  1.00  0.00    -0.070 CG0
ATOM      9  C   UNL     1      -9.815  31.479  20.449  1.00  0.00     0.039 C 
ATOM     10  G   UNL     1      -7.554  31.233  21.703  1.00  0.00     0.000 G0
ENDBRANCH   6   7
ENDBRANCH   5   6
ENDBRANCH   3   5
ENDBRANCH   1   3
BRANCH   1  11
ATOM     11  C   UNL     1      -7.442  31.864  24.516  1.00  0.00     0.087 C 
BRANCH  11  12
ATOM     12  C   UNL     1      -8.333  30.628  24.179  1.00  0.00     0.066 C 
BRANCH  12  13
ATOM     13  C   UNL     1      -8.138  30.253  22.715  1.00  0.00     0.140 C 
ATOM     14  O   UNL     1      -8.537  29.164  22.326  1.00  0.00    -0.299 OA
BRANCH  13  15
ATOM     15  C   UNL     1      -7.535  31.214  21.709  1.00  0.00     0.106 CG0
ATOM     16  G   UNL     1      -8.601  32.120  21.118  1.00  0.00     0.000 G0
ENDBRANCH  13  15
ENDBRANCH  12  13
BRANCH  12  17
ATOM     17  C   UNL     1      -8.030  29.411  25.115  1.00  0.00    -0.006 C 
ATOM     18  C   UNL     1      -7.172  29.826  26.327  1.00  0.00     0.008 C 
ATOM     19  C   UNL     1      -9.321  28.752  25.644  1.00  0.00     0.008 C 
ENDBRANCH  12  17
ENDBRANCH  11  12
ENDBRANCH   1  11
TORSDOF 1
ENDMDL
MODEL 3
REMARK VINA RESULT:    -4.984      1.461      3.749
REMARK INTER + INTRA:          -7.480
REMARK INTER:                  -7.705
REMARK INTRA:                   0.225
REMARK UNBOUND:                 0.126
REMARK SMILES CC1=CCC[C@@H](C)C(=O)C[C@H](C(C)C)C(=O)C1
REMARK SMILES IDX 8 1 9 2 6 3 7 4 5 5 4 6 3 7 2 8 1 9 10 11 11 12 15 13 16 14
REMARK SMILES IDX 17 15 12 17 13 18 14 19
REMARK H PARENT
REMARK Flexibility Score: 70.00
ROOT
ATOM      1  C   UNL     1      -7.067  29.616  23.165  1.00  0.00     0.136 C 
ATOM      2  O   UNL     1      -6.088  29.749  23.886  1.00  0.00    -0.299 OA
ENDROOT
BRANCH   1   3
ATOM      3  C   UNL     1      -7.887  28.347  23.240  1.00  0.00     0.053 C 
ATOM      4  C   UNL     1      -8.933  28.295  22.121  1.00  0.00     0.016 C 
BRANCH   3   5
ATOM      5  C   UNL     1      -8.544  28.251  24.639  1.00  0.00     0.015 C 
BRANCH   5   6
ATOM      6  C   UNL     1      -9.318  29.501  25.104  1.00  0.00     0.028 C 
BRANCH   6   7
ATOM      7  C   UNL     1      -8.649  30.379  26.140  1.00  0.00    -0.028 C 
ATOM      8  C   UNL     1      -8.579  31.732  26.136  1.00  0.00    -0.070 CG0
ATOM      9  C   UNL     1      -7.948  32.404  27.331  1.00  0.00     0.039 C 
ATOM     10  G   UNL     1      -9.027  32.607  24.978  1.00  0.00     0.000 G0
ENDBRANCH   6   7
ENDBRANCH   5   6
ENDBRANCH   3   5
ENDBRANCH   1   3
BRANCH   1  11
ATOM     11  C   UNL     1      -7.390  30.685  22.149  1.00  0.00     0.087 C 
BRANCH  11  12
ATOM     12  C   UNL     1      -8.590  31.579  22.595  1.00  0.00     0.066 C 
BRANCH  12  13
ATOM     13  C   UNL     1      -8.156  32.452  23.765  1.00  0.00     0.140 C 
ATOM     14  O   UNL     1      -7.105  33.073  23.682  1.00  0.00    -0.299 OA
BRANCH  13  15
ATOM     15  C   UNL     1      -9.020  32.637  24.998  1.00  0.00     0.106 CG0
ATOM     16  G   UNL     1      -8.567  31.720  26.121  1.00  0.00     0.000 G0
ENDBRANCH  13  15
ENDBRANCH  12  13
BRANCH  12  17
ATOM     17  C   UNL     1      -9.141  32.452  21.419  1.00  0.00    -0.006 C 
ATOM     18  C   UNL     1      -8.005  33.156  20.650  1.00  0.00     0.008 C 
ATOM     19  C   UNL     1      -9.956  31.615  20.410  1.00  0.00     0.008 C 
ENDBRANCH  12  17
ENDBRANCH  11  12
ENDBRANCH   1  11
TORSDOF 1
ENDMDL
MODEL 4
REMARK VINA RESULT:    -4.808      1.631      4.171
REMARK INTER + INTRA:          -7.212
REMARK INTER:                  -7.176
REMARK INTRA:                  -0.036
REMARK UNBOUND:                 0.126
REMARK SMILES CC1=CCC[C@@H](C)C(=O)C[C@H](C(C)C)C(=O)C1
REMARK SMILES IDX 8 1 9 2 6 3 7 4 5 5 4 6 3 7 2 8 1 9 10 11 11 12 15 13 16 14
REMARK SMILES IDX 17 15 12 17 13 18 14 19
REMARK H PARENT
REMARK Flexibility Score: 70.00
ROOT
ATOM      1  C   UNL     1      -8.367  32.824  22.325  1.00  0.00     0.136 C 
ATOM      2  O   UNL     1      -9.463  33.350  22.185  1.00  0.00    -0.299 OA
ENDROOT
BRANCH   1   3
ATOM      3  C   UNL     1      -7.886  31.812  21.308  1.00  0.00     0.053 C 
ATOM      4  C   UNL     1      -8.112  32.313  19.877  1.00  0.00     0.016 C 
BRANCH   3   5
ATOM      5  C   UNL     1      -8.602  30.462  21.560  1.00  0.00     0.015 C 
BRANCH   5   6
ATOM      6  C   UNL     1      -7.980  29.567  22.650  1.00  0.00     0.028 C 
BRANCH   6   7
ATOM      7  C   UNL     1      -8.824  29.290  23.876  1.00  0.00    -0.028 C 
ATOM      8  C   UNL     1      -8.770  29.940  25.064  1.00  0.00    -0.070 CG0
ATOM      9  C   UNL     1      -9.782  29.561  26.117  1.00  0.00     0.039 C 
ATOM     10  G   UNL     1      -7.713  30.969  25.426  1.00  0.00     0.000 G0
ENDBRANCH   6   7
ENDBRANCH   5   6
ENDBRANCH   3   5
ENDBRANCH   1   3
BRANCH   1  11
ATOM     11  C   UNL     1      -7.550  33.129  23.557  1.00  0.00     0.087 C 
BRANCH  11  12
ATOM     12  C   UNL     1      -8.446  33.442  24.796  1.00  0.00     0.066 C 
BRANCH  12  13
ATOM     13  C   UNL     1      -8.334  32.299  25.797  1.00  0.00     0.140 C 
ATOM     14  O   UNL     1      -8.820  32.440  26.911  1.00  0.00    -0.299 OA
BRANCH  13  15
ATOM     15  C   UNL     1      -7.708  30.967  25.434  1.00  0.00     0.106 CG0
ATOM     16  G   UNL     1      -8.773  29.952  25.056  1.00  0.00     0.000 G0
ENDBRANCH  13  15
ENDBRANCH  12  13
BRANCH  12  17
ATOM     17  C   UNL     1      -8.073  34.809  25.461  1.00  0.00    -0.006 C 
ATOM     18  C   UNL     1      -6.619  35.217  25.147  1.00  0.00     0.008 C 
ATOM     19  C   UNL     1      -9.003  35.950  24.999  1.00  0.00     0.008 C 
ENDBRANCH  12  17
ENDBRANCH  11  12
ENDBRANCH   1  11
TORSDOF 1
ENDMDL
MODEL 5
REMARK VINA RESULT:    -4.797      2.058      4.427
REMARK INTER + INTRA:          -7.194
REMARK INTER:                  -7.095
REMARK INTRA:                  -0.099
REMARK UNBOUND:                 0.126
REMARK SMILES CC1=CCC[C@@H](C)C(=O)C[C@H](C(C)C)C(=O)C1
REMARK SMILES IDX 8 1 9 2 6 3 7 4 5 5 4 6 3 7 2 8 1 9 10 11 11 12 15 13 16 14
REMARK SMILES IDX 17 15 12 17 13 18 14 19
REMARK H PARENT
REMARK Flexibility Score: 70.00
ROOT
ATOM      1  C   UNL     1      -8.623  29.767  24.168  1.00  0.00     0.136 C 
ATOM      2  O   UNL     1      -7.897  29.147  24.934  1.00  0.00    -0.299 OA
ENDROOT
BRANCH   1   3
ATOM      3  C   UNL     1      -8.631  29.419  22.696  1.00  0.00     0.053 C 
ATOM      4  C   UNL     1      -8.220  27.959  22.469  1.00  0.00     0.016 C 
BRANCH   3   5
ATOM      5  C   UNL     1      -7.700  30.398  21.940  1.00  0.00     0.015 C 
BRANCH   5   6
ATOM      6  C   UNL     1      -8.403  31.418  21.022  1.00  0.00     0.028 C 
BRANCH   6   7
ATOM      7  C   UNL     1      -7.993  32.869  21.165  1.00  0.00    -0.028 C 
ATOM      8  C   UNL     1      -8.357  33.724  22.151  1.00  0.00    -0.070 CG0
ATOM      9  C   UNL     1      -7.740  35.102  22.145  1.00  0.00     0.039 C 
ATOM     10  G   UNL     1      -9.396  33.410  23.212  1.00  0.00     0.000 G0
ENDBRANCH   6   7
ENDBRANCH   5   6
ENDBRANCH   3   5
ENDBRANCH   1   3
BRANCH   1  11
ATOM     11  C   UNL     1      -9.434  30.927  24.693  1.00  0.00     0.087 C 
BRANCH  11  12
ATOM     12  C   UNL     1      -8.536  32.037  25.325  1.00  0.00     0.066 C 
BRANCH  12  13
ATOM     13  C   UNL     1      -8.792  33.357  24.609  1.00  0.00     0.140 C 
ATOM     14  O   UNL     1      -8.431  34.398  25.142  1.00  0.00    -0.299 OA
BRANCH  13  15
ATOM     15  C   UNL     1      -9.408  33.419  23.225  1.00  0.00     0.106 CG0
ATOM     16  G   UNL     1      -8.354  33.718  22.173  1.00  0.00     0.000 G0
ENDBRANCH  13  15
ENDBRANCH  12  13
BRANCH  12  17
ATOM     17  C   UNL     1      -8.774  32.179  26.865  1.00  0.00    -0.006 C 
ATOM     18  C   UNL     1     -10.008  31.380  27.327  1.00  0.00     0.008 C 
ATOM     19  C   UNL     1      -7.557  31.700  27.684  1.00  0.00     0.008 C 
ENDBRANCH  12  17
ENDBRANCH  11  12
ENDBRANCH   1  11
TORSDOF 1
ENDMDL
MODEL 6
REMARK VINA RESULT:    -4.765      1.746      4.212
REMARK INTER + INTRA:          -7.146
REMARK INTER:                  -7.167
REMARK INTRA:                   0.021
REMARK UNBOUND:                 0.126
REMARK SMILES CC1=CCC[C@@H](C)C(=O)C[C@H](C(C)C)C(=O)C1
REMARK SMILES IDX 8 1 9 2 6 3 7 4 5 5 4 6 3 7 2 8 1 9 10 11 11 12 15 13 16 14
REMARK SMILES IDX 17 15 12 17 13 18 14 19
REMARK H PARENT
REMARK Flexibility Score: 70.00
ROOT
ATOM      1  C   UNL     1      -8.564  31.233  23.402  1.00  0.00     0.136 C 
ATOM      2  O   UNL     1      -9.658  31.665  23.068  1.00  0.00    -0.299 OA
ENDROOT
BRANCH   1   3
ATOM      3  C   UNL     1      -8.297  29.745  23.352  1.00  0.00     0.053 C 
ATOM      4  C   UNL     1      -8.656  29.163  21.979  1.00  0.00     0.016 C 
BRANCH   3   5
ATOM      5  C   UNL     1      -9.085  29.051  24.489  1.00  0.00     0.015 C 
BRANCH   5   6
ATOM      6  C   UNL     1      -8.305  28.814  25.798  1.00  0.00     0.028 C 
BRANCH   6   7
ATOM      7  C   UNL     1      -8.767  29.578  27.021  1.00  0.00    -0.028 C 
ATOM      8  C   UNL     1      -8.359  30.810  27.414  1.00  0.00    -0.070 CG0
ATOM      9  C   UNL     1      -9.034  31.421  28.617  1.00  0.00     0.039 C 
ATOM     10  G   UNL     1      -7.220  31.577  26.766  1.00  0.00     0.000 G0
ENDBRANCH   6   7
ENDBRANCH   5   6
ENDBRANCH   3   5
ENDBRANCH   1   3
BRANCH   1  11
ATOM     11  C   UNL     1      -7.524  32.186  23.941  1.00  0.00     0.087 C 
BRANCH  11  12
ATOM     12  C   UNL     1      -8.141  33.248  24.906  1.00  0.00     0.066 C 
BRANCH  12  13
ATOM     13  C   UNL     1      -7.672  32.966  26.327  1.00  0.00     0.140 C 
ATOM     14  O   UNL     1      -7.721  33.866  27.155  1.00  0.00    -0.299 OA
BRANCH  13  15
ATOM     15  C   UNL     1      -7.219  31.588  26.770  1.00  0.00     0.106 CG0
ATOM     16  G   UNL     1      -8.369  30.811  27.389  1.00  0.00     0.000 G0
ENDBRANCH  13  15
ENDBRANCH  12  13
BRANCH  12  17
ATOM     17  C   UNL     1      -7.783  34.710  24.477  1.00  0.00    -0.006 C 
ATOM     18  C   UNL     1      -7.301  34.773  23.014  1.00  0.00     0.008 C 
ATOM     19  C   UNL     1      -8.985  35.667  24.627  1.00  0.00     0.008 C 
ENDBRANCH  12  17
ENDBRANCH  11  12
ENDBRANCH   1  11
TORSDOF 1
ENDMDL
MODEL 7
REMARK VINA RESULT:    -4.745      1.559      2.377
REMARK INTER + INTRA:          -7.116
REMARK INTER:                  -7.161
REMARK INTRA:                   0.046
REMARK UNBOUND:                 0.126
REMARK SMILES CC1=CCC[C@@H](C)C(=O)C[C@H](C(C)C)C(=O)C1
REMARK SMILES IDX 8 1 9 2 6 3 7 4 5 5 4 6 3 7 2 8 1 9 10 11 11 12 15 13 16 14
REMARK SMILES IDX 17 15 12 17 13 18 14 19
REMARK H PARENT
REMARK Flexibility Score: 70.00
ROOT
ATOM      1  C   UNL     1      -8.444  31.183  22.162  1.00  0.00     0.136 C 
ATOM      2  O   UNL     1      -7.483  30.429  22.090  1.00  0.00    -0.299 OA
ENDROOT
BRANCH   1   3
ATOM      3  C   UNL     1      -8.687  32.195  21.065  1.00  0.00     0.053 C 
ATOM      4  C   UNL     1      -7.531  32.210  20.057  1.00  0.00     0.016 C 
BRANCH   3   5
ATOM      5  C   UNL     1      -8.907  33.589  21.701  1.00  0.00     0.015 C 
BRANCH   5   6
ATOM      6  C   UNL     1      -7.758  34.111  22.585  1.00  0.00     0.028 C 
BRANCH   6   7
ATOM      7  C   UNL     1      -8.143  34.915  23.810  1.00  0.00    -0.028 C 
ATOM      8  C   UNL     1      -7.955  34.565  25.105  1.00  0.00    -0.070 CG0
ATOM      9  C   UNL     1      -8.326  35.575  26.164  1.00  0.00     0.039 C 
ATOM     10  G   UNL     1      -7.465  33.201  25.558  1.00  0.00     0.000 G0
ENDBRANCH   6   7
ENDBRANCH   5   6
ENDBRANCH   3   5
ENDBRANCH   1   3
BRANCH   1  11
ATOM     11  C   UNL     1      -9.321  31.148  23.390  1.00  0.00     0.087 C 
BRANCH  11  12
ATOM     12  C   UNL     1      -8.500  30.912  24.697  1.00  0.00     0.066 C 
BRANCH  12  13
ATOM     13  C   UNL     1      -8.569  32.162  25.565  1.00  0.00     0.140 C 
ATOM     14  O   UNL     1      -9.518  32.300  26.326  1.00  0.00    -0.299 OA
BRANCH  13  15
ATOM     15  C   UNL     1      -7.465  33.201  25.575  1.00  0.00     0.106 CG0
ATOM     16  G   UNL     1      -7.987  34.552  25.116  1.00  0.00     0.000 G0
ENDBRANCH  13  15
ENDBRANCH  12  13
BRANCH  12  17
ATOM     17  C   UNL     1      -8.996  29.654  25.483  1.00  0.00    -0.006 C 
ATOM     18  C   UNL     1      -8.819  28.361  24.662  1.00  0.00     0.008 C 
ATOM     19  C   UNL     1      -8.248  29.477  26.822  1.00  0.00     0.008 C 
ENDBRANCH  12  17
ENDBRANCH  11  12
ENDBRANCH   1  11
TORSDOF 1
ENDMDL
MODEL 8
REMARK VINA RESULT:    -4.737      1.690      3.512
REMARK INTER + INTRA:          -7.103
REMARK INTER:                  -7.330
REMARK INTRA:                   0.227
REMARK UNBOUND:                 0.126
REMARK SMILES CC1=CCC[C@@H](C)C(=O)C[C@H](C(C)C)C(=O)C1
REMARK SMILES IDX 8 1 9 2 6 3 7 4 5 5 4 6 3 7 2 8 1 9 10 11 11 12 15 13 16 14
REMARK SMILES IDX 17 15 12 17 13 18 14 19
REMARK H PARENT
REMARK Flexibility Score: 70.00
ROOT
ATOM      1  C   UNL     1      -7.886  34.447  23.846  1.00  0.00     0.136 C 
ATOM      2  O   UNL     1      -6.786  34.781  23.426  1.00  0.00    -0.299 OA
ENDROOT
BRANCH   1   3
ATOM      3  C   UNL     1      -8.373  34.978  25.175  1.00  0.00     0.053 C 
ATOM      4  C   UNL     1      -7.366  35.961  25.784  1.00  0.00     0.016 C 
BRANCH   3   5
ATOM      5  C   UNL     1      -8.653  33.787  26.124  1.00  0.00     0.015 C 
BRANCH   5   6
ATOM      6  C   UNL     1      -7.537  32.727  26.216  1.00  0.00     0.028 C 
BRANCH   6   7
ATOM      7  C   UNL     1      -7.963  31.304  26.509  1.00  0.00    -0.028 C 
ATOM      8  C   UNL     1      -8.566  30.442  25.654  1.00  0.00    -0.070 CG0
ATOM      9  C   UNL     1      -8.807  29.032  26.135  1.00  0.00     0.039 C 
ATOM     10  G   UNL     1      -9.078  30.826  24.277  1.00  0.00     0.000 G0
ENDBRANCH   6   7
ENDBRANCH   5   6
ENDBRANCH   3   5
ENDBRANCH   1   3
BRANCH   1  11
ATOM     11  C   UNL     1      -8.701  33.442  23.069  1.00  0.00     0.087 C 
BRANCH  11  12
ATOM     12  C   UNL     1      -7.814  32.316  22.448  1.00  0.00     0.066 C 
BRANCH  12  13
ATOM     13  C   UNL     1      -7.928  31.060  23.302  1.00  0.00     0.140 C 
ATOM     14  O   UNL     1      -7.031  30.230  23.254  1.00  0.00    -0.299 OA
BRANCH  13  15
ATOM     15  C   UNL     1      -9.078  30.840  24.266  1.00  0.00     0.106 CG0
ATOM     16  G   UNL     1      -8.566  30.432  25.637  1.00  0.00     0.000 G0
ENDBRANCH  13  15
ENDBRANCH  12  13
BRANCH  12  17
ATOM     17  C   UNL     1      -8.197  32.020  20.960  1.00  0.00    -0.006 C 
ATOM     18  C   UNL     1      -9.725  31.966  20.765  1.00  0.00     0.008 C 
ATOM     19  C   UNL     1      -7.627  33.081  19.995  1.00  0.00     0.008 C 
ENDBRANCH  12  17
ENDBRANCH  11  12
ENDBRANCH   1  11
TORSDOF 1
ENDMDL
MODEL 9
REMARK VINA RESULT:    -4.541      2.002      2.956
REMARK INTER + INTRA:          -6.804
REMARK INTER:                  -6.722
REMARK INTRA:                  -0.082
REMARK UNBOUND:                 0.126
REMARK SMILES CC1=CCC[C@@H](C)C(=O)C[C@H](C(C)C)C(=O)C1
REMARK SMILES IDX 8 1 9 2 6 3 7 4 5 5 4 6 3 7 2 8 1 9 10 11 11 12 15 13 16 14
REMARK SMILES IDX 17 15 12 17 13 18 14 19
REMARK H PARENT
REMARK Flexibility Score: 70.00
ROOT
ATOM      1  C   UNL     1      -7.780  34.039  24.130  1.00  0.00     0.136 C 
ATOM      2  O   UNL     1      -6.629  34.388  23.908  1.00  0.00    -0.299 OA
ENDROOT
BRANCH   1   3
ATOM      3  C   UNL     1      -8.550  34.672  25.268  1.00  0.00     0.053 C 
ATOM      4  C   UNL     1      -8.904  36.130  24.955  1.00  0.00     0.016 C 
BRANCH   3   5
ATOM      5  C   UNL     1      -7.719  34.553  26.569  1.00  0.00     0.015 C 
BRANCH   5   6
ATOM      6  C   UNL     1      -7.426  33.118  27.049  1.00  0.00     0.028 C 
BRANCH   6   7
ATOM      7  C   UNL     1      -8.575  32.354  27.673  1.00  0.00    -0.028 C 
ATOM      8  C   UNL     1      -9.004  31.113  27.339  1.00  0.00    -0.070 CG0
ATOM      9  C   UNL     1     -10.107  30.506  28.170  1.00  0.00     0.039 C 
ATOM     10  G   UNL     1      -8.497  30.329  26.140  1.00  0.00     0.000 G0
ENDBRANCH   6   7
ENDBRANCH   5   6
ENDBRANCH   3   5
ENDBRANCH   1   3
BRANCH   1  11
ATOM     11  C   UNL     1      -8.384  32.920  23.317  1.00  0.00     0.087 C 
BRANCH  11  12
ATOM     12  C   UNL     1      -7.924  31.514  23.814  1.00  0.00     0.066 C 
BRANCH  12  13
ATOM     13  C   UNL     1      -8.931  30.986  24.828  1.00  0.00     0.140 C 
ATOM     14  O   UNL     1     -10.124  31.037  24.557  1.00  0.00    -0.299 OA
BRANCH  13  15
ATOM     15  C   UNL     1      -8.503  30.331  26.126  1.00  0.00     0.106 CG0
ATOM     16  G   UNL     1      -9.003  31.120  27.323  1.00  0.00     0.000 G0
ENDBRANCH  13  15
ENDBRANCH  12  13
BRANCH  12  17
ATOM     17  C   UNL     1      -7.735  30.505  22.633  1.00  0.00    -0.006 C 
ATOM     18  C   UNL     1      -7.473  31.231  21.299  1.00  0.00     0.008 C 
ATOM     19  C   UNL     1      -6.566  29.530  22.886  1.00  0.00     0.008 C 
ENDBRANCH  12  17
ENDBRANCH  11  12
ENDBRANCH   1  11
TORSDOF 1
ENDMDL
