MODEL 1
REMARK VINA RESULT:    -2.233      0.000      0.000
REMARK INTER + INTRA:          -6.673
REMARK INTER:                  -4.845
REMARK INTRA:                  -1.829
REMARK UNBOUND:                -1.829
REMARK SMILES CCCCCCCCCCCCCCCCCCCCCC(=O)[O-]
REMARK SMILES IDX 12 1 11 2 10 3 9 4 8 5 7 6 6 7 5 8 4 9 3 10 2 11 1 12 13 13
REMARK SMILES IDX 14 14 15 15 16 16 17 17 18 18 19 19 20 20 21 21 22 22 23 23
REMARK SMILES IDX 24 24
REMARK H PARENT
REMARK Flexibility Score: inf
ROOT
ATOM      1  C   UNL     1       0.777  21.603   4.181  1.00  0.00     0.000 C 
ENDROOT
BRANCH   1   2
ATOM      2  C   UNL     1       0.784  23.134   4.017  1.00  0.00     0.000 C 
BRANCH   2   3
ATOM      3  C   UNL     1       1.659  23.607   2.845  1.00  0.00     0.000 C 
BRANCH   3   4
ATOM      4  C   UNL     1       2.608  22.513   2.320  1.00  0.00    -0.000 C 
BRANCH   4   5
ATOM      5  C   UNL     1       4.086  22.670   2.721  1.00  0.00    -0.000 C 
BRANCH   5   6
ATOM      6  C   UNL     1       4.416  24.073   3.259  1.00  0.00    -0.000 C 
BRANCH   6   7
ATOM      7  C   UNL     1       5.625  24.079   4.214  1.00  0.00    -0.000 C 
BRANCH   7   8
ATOM      8  C   UNL     1       5.311  24.456   5.676  1.00  0.00    -0.000 C 
BRANCH   8   9
ATOM      9  C   UNL     1       4.953  23.272   6.592  1.00  0.00    -0.000 C 
BRANCH   9  10
ATOM     10  C   UNL     1       3.467  22.883   6.505  1.00  0.00    -0.000 C 
BRANCH  10  11
ATOM     11  C   UNL     1       3.186  21.500   7.114  1.00  0.00    -0.003 C 
ATOM     12  C   UNL     1       4.382  20.939   7.880  1.00  0.00     0.004 C 
ENDBRANCH  10  11
ENDBRANCH   9  10
ENDBRANCH   8   9
ENDBRANCH   7   8
ENDBRANCH   6   7
ENDBRANCH   5   6
ENDBRANCH   4   5
ENDBRANCH   3   4
ENDBRANCH   2   3
ENDBRANCH   1   2
BRANCH   1  13
ATOM     13  C   UNL     1      -0.586  20.922   3.942  1.00  0.00     0.000 C 
BRANCH  13  14
ATOM     14  C   UNL     1      -1.755  21.886   3.659  1.00  0.00     0.000 C 
BRANCH  14  15
ATOM     15  C   UNL     1      -2.445  21.690   2.294  1.00  0.00     0.000 C 
BRANCH  15  16
ATOM     16  C   UNL     1      -3.958  21.414   2.364  1.00  0.00     0.000 C 
BRANCH  16  17
ATOM     17  C   UNL     1      -4.422  20.982   3.763  1.00  0.00     0.000 C 
BRANCH  17  18
ATOM     18  C   UNL     1      -5.955  20.964   3.850  1.00  0.00     0.000 C 
BRANCH  18  19
ATOM     19  C   UNL     1      -6.476  21.086   5.291  1.00  0.00     0.000 C 
BRANCH  19  20
ATOM     20  C   UNL     1      -8.009  21.031   5.444  1.00  0.00     0.006 C 
BRANCH  20  21
ATOM     21  C   UNL     1      -8.778  21.277   4.134  1.00  0.00     0.053 C 
BRANCH  21  22
ATOM     22  C   UNL     1     -10.085  21.978   4.358  1.00  0.00     0.041 C 
ATOM     23  O   UNL     1     -10.435  22.308   5.522  1.00  0.00    -0.550 OA
ATOM     24  O   UNL     1     -10.934  22.230   3.288  1.00  0.00    -0.550 OA
ENDBRANCH  21  22
ENDBRANCH  20  21
ENDBRANCH  19  20
ENDBRANCH  18  19
ENDBRANCH  17  18
ENDBRANCH  16  17
ENDBRANCH  15  16
ENDBRANCH  14  15
ENDBRANCH  13  14
ENDBRANCH   1  13
TORSDOF 20
ENDMDL
MODEL 2
REMARK VINA RESULT:    -2.209      4.489     11.269
REMARK INTER + INTRA:          -6.620
REMARK INTER:                  -5.456
REMARK INTRA:                  -1.163
REMARK UNBOUND:                -1.829
REMARK SMILES CCCCCCCCCCCCCCCCCCCCCC(=O)[O-]
REMARK SMILES IDX 12 1 11 2 10 3 9 4 8 5 7 6 6 7 5 8 4 9 3 10 2 11 1 12 13 13
REMARK SMILES IDX 14 14 15 15 16 16 17 17 18 18 19 19 20 20 21 21 22 22 23 23
REMARK SMILES IDX 24 24
REMARK H PARENT
REMARK Flexibility Score: inf
ROOT
ATOM      1  C   UNL     1      -0.338  24.097   3.195  1.00  0.00     0.000 C 
ENDROOT
BRANCH   1   2
ATOM      2  C   UNL     1      -1.472  23.193   2.680  1.00  0.00     0.000 C 
BRANCH   2   3
ATOM      3  C   UNL     1      -1.418  21.772   3.264  1.00  0.00     0.000 C 
BRANCH   3   4
ATOM      4  C   UNL     1      -2.808  21.212   3.617  1.00  0.00    -0.000 C 
BRANCH   4   5
ATOM      5  C   UNL     1      -3.833  21.212   2.468  1.00  0.00    -0.000 C 
BRANCH   5   6
ATOM      6  C   UNL     1      -5.283  21.062   2.957  1.00  0.00    -0.000 C 
BRANCH   6   7
ATOM      7  C   UNL     1      -5.386  20.889   4.485  1.00  0.00    -0.000 C 
BRANCH   7   8
ATOM      8  C   UNL     1      -6.819  20.875   5.053  1.00  0.00    -0.000 C 
BRANCH   8   9
ATOM      9  C   UNL     1      -7.936  21.060   4.011  1.00  0.00    -0.000 C 
BRANCH   9  10
ATOM     10  C   UNL     1      -9.230  21.624   4.622  1.00  0.00    -0.000 C 
BRANCH  10  11
ATOM     11  C   UNL     1     -10.171  22.216   3.562  1.00  0.00    -0.003 C 
ATOM     12  C   UNL     1     -10.886  23.476   4.047  1.00  0.00     0.004 C 
ENDBRANCH  10  11
ENDBRANCH   9  10
ENDBRANCH   8   9
ENDBRANCH   7   8
ENDBRANCH   6   7
ENDBRANCH   5   6
ENDBRANCH   4   5
ENDBRANCH   3   4
ENDBRANCH   2   3
ENDBRANCH   1   2
BRANCH   1  13
ATOM     13  C   UNL     1       0.754  24.438   2.161  1.00  0.00     0.000 C 
BRANCH  13  14
ATOM     14  C   UNL     1       1.968  23.488   2.157  1.00  0.00     0.000 C 
BRANCH  14  15
ATOM     15  C   UNL     1       2.672  23.326   3.519  1.00  0.00     0.000 C 
BRANCH  15  16
ATOM     16  C   UNL     1       4.174  22.996   3.438  1.00  0.00     0.000 C 
BRANCH  16  17
ATOM     17  C   UNL     1       4.936  23.915   2.472  1.00  0.00     0.000 C 
BRANCH  17  18
ATOM     18  C   UNL     1       5.784  24.937   3.243  1.00  0.00     0.000 C 
BRANCH  18  19
ATOM     19  C   UNL     1       6.496  24.329   4.462  1.00  0.00     0.000 C 
BRANCH  19  20
ATOM     20  C   UNL     1       5.880  24.687   5.829  1.00  0.00     0.006 C 
BRANCH  20  21
ATOM     21  C   UNL     1       6.244  23.704   6.957  1.00  0.00     0.053 C 
BRANCH  21  22
ATOM     22  C   UNL     1       5.045  22.992   7.508  1.00  0.00     0.041 C 
ATOM     23  O   UNL     1       5.189  22.045   8.325  1.00  0.00    -0.550 OA
ATOM     24  O   UNL     1       3.769  23.348   7.089  1.00  0.00    -0.550 OA
ENDBRANCH  21  22
ENDBRANCH  20  21
ENDBRANCH  19  20
ENDBRANCH  18  19
ENDBRANCH  17  18
ENDBRANCH  16  17
ENDBRANCH  15  16
ENDBRANCH  14  15
ENDBRANCH  13  14
ENDBRANCH   1  13
TORSDOF 20
ENDMDL
MODEL 3
REMARK VINA RESULT:    -2.182      5.187      9.891
REMARK INTER + INTRA:          -6.562
REMARK INTER:                  -4.347
REMARK INTRA:                  -2.215
REMARK UNBOUND:                -1.829
REMARK SMILES CCCCCCCCCCCCCCCCCCCCCC(=O)[O-]
REMARK SMILES IDX 12 1 11 2 10 3 9 4 8 5 7 6 6 7 5 8 4 9 3 10 2 11 1 12 13 13
REMARK SMILES IDX 14 14 15 15 16 16 17 17 18 18 19 19 20 20 21 21 22 22 23 23
REMARK SMILES IDX 24 24
REMARK H PARENT
REMARK Flexibility Score: inf
ROOT
ATOM      1  C   UNL     1       1.273  21.207   7.167  1.00  0.00     0.000 C 
ENDROOT
BRANCH   1   2
ATOM      2  C   UNL     1       0.168  22.271   7.039  1.00  0.00     0.000 C 
BRANCH   2   3
ATOM      3  C   UNL     1      -1.184  21.681   6.602  1.00  0.00     0.000 C 
BRANCH   3   4
ATOM      4  C   UNL     1      -1.155  21.101   5.176  1.00  0.00    -0.000 C 
BRANCH   4   5
ATOM      5  C   UNL     1      -2.532  20.894   4.518  1.00  0.00    -0.000 C 
BRANCH   5   6
ATOM      6  C   UNL     1      -2.619  21.497   3.106  1.00  0.00    -0.000 C 
BRANCH   6   7
ATOM      7  C   UNL     1      -1.341  22.255   2.698  1.00  0.00    -0.000 C 
BRANCH   7   8
ATOM      8  C   UNL     1      -1.454  23.793   2.709  1.00  0.00    -0.000 C 
BRANCH   8   9
ATOM      9  C   UNL     1      -0.111  24.545   2.741  1.00  0.00    -0.000 C 
BRANCH   9  10
ATOM     10  C   UNL     1       1.077  23.655   2.339  1.00  0.00    -0.000 C 
BRANCH  10  11
ATOM     11  C   UNL     1       1.696  22.922   3.539  1.00  0.00    -0.003 C 
ATOM     12  C   UNL     1       2.162  21.509   3.191  1.00  0.00     0.004 C 
ENDBRANCH  10  11
ENDBRANCH   9  10
ENDBRANCH   8   9
ENDBRANCH   7   8
ENDBRANCH   6   7
ENDBRANCH   5   6
ENDBRANCH   4   5
ENDBRANCH   3   4
ENDBRANCH   2   3
ENDBRANCH   1   2
BRANCH   1  13
ATOM     13  C   UNL     1       2.699  21.697   6.844  1.00  0.00     0.000 C 
BRANCH  13  14
ATOM     14  C   UNL     1       3.833  20.878   7.491  1.00  0.00     0.000 C 
BRANCH  14  15
ATOM     15  C   UNL     1       5.209  21.574   7.513  1.00  0.00     0.000 C 
BRANCH  15  16
ATOM     16  C   UNL     1       6.298  20.884   6.671  1.00  0.00     0.000 C 
BRANCH  16  17
ATOM     17  C   UNL     1       6.913  21.813   5.614  1.00  0.00     0.000 C 
BRANCH  17  18
ATOM     18  C   UNL     1       7.101  21.074   4.280  1.00  0.00     0.000 C 
BRANCH  18  19
ATOM     19  C   UNL     1       6.928  21.991   3.058  1.00  0.00     0.000 C 
BRANCH  19  20
ATOM     20  C   UNL     1       5.528  22.617   2.898  1.00  0.00     0.006 C 
BRANCH  20  21
ATOM     21  C   UNL     1       5.514  24.153   3.001  1.00  0.00     0.053 C 
BRANCH  21  22
ATOM     22  C   UNL     1       5.442  24.633   4.420  1.00  0.00     0.041 C 
ATOM     23  O   UNL     1       6.440  25.182   4.956  1.00  0.00    -0.550 OA
ATOM     24  O   UNL     1       4.284  24.438   5.164  1.00  0.00    -0.550 OA
ENDBRANCH  21  22
ENDBRANCH  20  21
ENDBRANCH  19  20
ENDBRANCH  18  19
ENDBRANCH  17  18
ENDBRANCH  16  17
ENDBRANCH  15  16
ENDBRANCH  14  15
ENDBRANCH  13  14
ENDBRANCH   1  13
TORSDOF 20
ENDMDL
MODEL 4
REMARK VINA RESULT:    -2.067      5.009     11.345
REMARK INTER + INTRA:          -6.312
REMARK INTER:                  -4.958
REMARK INTRA:                  -1.354
REMARK UNBOUND:                -1.829
REMARK SMILES CCCCCCCCCCCCCCCCCCCCCC(=O)[O-]
REMARK SMILES IDX 12 1 11 2 10 3 9 4 8 5 7 6 6 7 5 8 4 9 3 10 2 11 1 12 13 13
REMARK SMILES IDX 14 14 15 15 16 16 17 17 18 18 19 19 20 20 21 21 22 22 23 23
REMARK SMILES IDX 24 24
REMARK H PARENT
REMARK Flexibility Score: inf
ROOT
ATOM      1  C   UNL     1       0.441  21.948   5.427  1.00  0.00     0.000 C 
ENDROOT
BRANCH   1   2
ATOM      2  C   UNL     1      -0.569  22.975   4.882  1.00  0.00     0.000 C 
BRANCH   2   3
ATOM      3  C   UNL     1      -0.440  23.195   3.366  1.00  0.00     0.000 C 
BRANCH   3   4
ATOM      4  C   UNL     1      -1.530  22.467   2.557  1.00  0.00    -0.000 C 
BRANCH   4   5
ATOM      5  C   UNL     1      -2.529  21.639   3.386  1.00  0.00    -0.000 C 
BRANCH   5   6
ATOM      6  C   UNL     1      -3.780  21.234   2.589  1.00  0.00    -0.000 C 
BRANCH   6   7
ATOM      7  C   UNL     1      -5.065  21.254   3.439  1.00  0.00    -0.000 C 
BRANCH   7   8
ATOM      8  C   UNL     1      -6.360  20.889   2.687  1.00  0.00    -0.000 C 
BRANCH   8   9
ATOM      9  C   UNL     1      -7.581  21.760   3.030  1.00  0.00    -0.000 C 
BRANCH   9  10
ATOM     10  C   UNL     1      -8.479  21.127   4.106  1.00  0.00    -0.000 C 
BRANCH  10  11
ATOM     11  C   UNL     1      -9.950  21.547   3.965  1.00  0.00    -0.003 C 
ATOM     12  C   UNL     1     -10.442  22.375   5.151  1.00  0.00     0.004 C 
ENDBRANCH  10  11
ENDBRANCH   9  10
ENDBRANCH   8   9
ENDBRANCH   7   8
ENDBRANCH   6   7
ENDBRANCH   5   6
ENDBRANCH   4   5
ENDBRANCH   3   4
ENDBRANCH   2   3
ENDBRANCH   1   2
BRANCH   1  13
ATOM     13  C   UNL     1       1.553  21.534   4.444  1.00  0.00     0.000 C 
BRANCH  13  14
ATOM     14  C   UNL     1       2.961  22.056   4.793  1.00  0.00     0.000 C 
BRANCH  14  15
ATOM     15  C   UNL     1       3.001  23.140   5.889  1.00  0.00     0.000 C 
BRANCH  15  16
ATOM     16  C   UNL     1       3.880  22.802   7.106  1.00  0.00     0.000 C 
BRANCH  16  17
ATOM     17  C   UNL     1       5.349  22.556   6.732  1.00  0.00     0.000 C 
BRANCH  17  18
ATOM     18  C   UNL     1       6.257  23.633   7.344  1.00  0.00     0.000 C 
BRANCH  18  19
ATOM     19  C   UNL     1       7.006  24.459   6.286  1.00  0.00     0.000 C 
BRANCH  19  20
ATOM     20  C   UNL     1       6.150  24.931   5.094  1.00  0.00     0.006 C 
BRANCH  20  21
ATOM     21  C   UNL     1       6.888  24.904   3.743  1.00  0.00     0.053 C 
BRANCH  21  22
ATOM     22  C   UNL     1       5.995  24.499   2.609  1.00  0.00     0.041 C 
ATOM     23  O   UNL     1       5.419  25.374   1.910  1.00  0.00    -0.550 OA
ATOM     24  O   UNL     1       5.766  23.153   2.347  1.00  0.00    -0.550 OA
ENDBRANCH  21  22
ENDBRANCH  20  21
ENDBRANCH  19  20
ENDBRANCH  18  19
ENDBRANCH  17  18
ENDBRANCH  16  17
ENDBRANCH  15  16
ENDBRANCH  14  15
ENDBRANCH  13  14
ENDBRANCH   1  13
TORSDOF 20
ENDMDL
MODEL 5
REMARK VINA RESULT:    -2.016      5.386      9.871
REMARK INTER + INTRA:          -6.203
REMARK INTER:                  -4.518
REMARK INTRA:                  -1.685
REMARK UNBOUND:                -1.829
REMARK SMILES CCCCCCCCCCCCCCCCCCCCCC(=O)[O-]
REMARK SMILES IDX 12 1 11 2 10 3 9 4 8 5 7 6 6 7 5 8 4 9 3 10 2 11 1 12 13 13
REMARK SMILES IDX 14 14 15 15 16 16 17 17 18 18 19 19 20 20 21 21 22 22 23 23
REMARK SMILES IDX 24 24
REMARK H PARENT
REMARK Flexibility Score: inf
ROOT
ATOM      1  C   UNL     1       1.475  22.351   5.914  1.00  0.00     0.000 C 
ENDROOT
BRANCH   1   2
ATOM      2  C   UNL     1      -0.038  22.366   6.202  1.00  0.00     0.000 C 
BRANCH   2   3
ATOM      3  C   UNL     1      -0.755  21.100   5.702  1.00  0.00     0.000 C 
BRANCH   3   4
ATOM      4  C   UNL     1      -1.253  21.223   4.250  1.00  0.00    -0.000 C 
BRANCH   4   5
ATOM      5  C   UNL     1      -2.737  20.877   4.028  1.00  0.00    -0.000 C 
BRANCH   5   6
ATOM      6  C   UNL     1      -3.371  21.667   2.871  1.00  0.00    -0.000 C 
BRANCH   6   7
ATOM      7  C   UNL     1      -2.329  22.212   1.875  1.00  0.00    -0.000 C 
BRANCH   7   8
ATOM      8  C   UNL     1      -1.424  23.337   2.416  1.00  0.00    -0.000 C 
BRANCH   8   9
ATOM      9  C   UNL     1       0.025  23.314   1.898  1.00  0.00    -0.000 C 
BRANCH   9  10
ATOM     10  C   UNL     1       1.014  23.979   2.871  1.00  0.00    -0.000 C 
BRANCH  10  11
ATOM     11  C   UNL     1       2.277  24.495   2.165  1.00  0.00    -0.003 C 
ATOM     12  C   UNL     1       2.219  25.994   1.875  1.00  0.00     0.004 C 
ENDBRANCH  10  11
ENDBRANCH   9  10
ENDBRANCH   8   9
ENDBRANCH   7   8
ENDBRANCH   6   7
ENDBRANCH   5   6
ENDBRANCH   4   5
ENDBRANCH   3   4
ENDBRANCH   2   3
ENDBRANCH   1   2
BRANCH   1  13
ATOM     13  C   UNL     1       2.058  20.977   5.530  1.00  0.00     0.000 C 
BRANCH  13  14
ATOM     14  C   UNL     1       3.459  21.020   4.887  1.00  0.00     0.000 C 
BRANCH  14  15
ATOM     15  C   UNL     1       3.469  21.222   3.359  1.00  0.00     0.000 C 
BRANCH  15  16
ATOM     16  C   UNL     1       4.869  21.269   2.720  1.00  0.00     0.000 C 
BRANCH  16  17
ATOM     17  C   UNL     1       5.357  22.700   2.453  1.00  0.00     0.000 C 
BRANCH  17  18
ATOM     18  C   UNL     1       6.365  23.144   3.524  1.00  0.00     0.000 C 
BRANCH  18  19
ATOM     19  C   UNL     1       5.840  24.289   4.404  1.00  0.00     0.000 C 
BRANCH  19  20
ATOM     20  C   UNL     1       6.522  24.428   5.780  1.00  0.00     0.006 C 
BRANCH  20  21
ATOM     21  C   UNL     1       5.621  24.047   6.968  1.00  0.00     0.053 C 
BRANCH  21  22
ATOM     22  C   UNL     1       5.902  22.667   7.482  1.00  0.00     0.041 C 
ATOM     23  O   UNL     1       5.070  22.086   8.228  1.00  0.00    -0.550 OA
ATOM     24  O   UNL     1       7.101  22.037   7.170  1.00  0.00    -0.550 OA
ENDBRANCH  21  22
ENDBRANCH  20  21
ENDBRANCH  19  20
ENDBRANCH  18  19
ENDBRANCH  17  18
ENDBRANCH  16  17
ENDBRANCH  15  16
ENDBRANCH  14  15
ENDBRANCH  13  14
ENDBRANCH   1  13
TORSDOF 20
ENDMDL
MODEL 6
REMARK VINA RESULT:    -1.995      1.288      1.876
REMARK INTER + INTRA:          -6.156
REMARK INTER:                  -4.843
REMARK INTRA:                  -1.313
REMARK UNBOUND:                -1.829
REMARK SMILES CCCCCCCCCCCCCCCCCCCCCC(=O)[O-]
REMARK SMILES IDX 12 1 11 2 10 3 9 4 8 5 7 6 6 7 5 8 4 9 3 10 2 11 1 12 13 13
REMARK SMILES IDX 14 14 15 15 16 16 17 17 18 18 19 19 20 20 21 21 22 22 23 23
REMARK SMILES IDX 24 24
REMARK H PARENT
REMARK Flexibility Score: inf
ROOT
ATOM      1  C   UNL     1      -0.757  22.363   3.679  1.00  0.00     0.000 C 
ENDROOT
BRANCH   1   2
ATOM      2  C   UNL     1       0.496  22.773   2.884  1.00  0.00     0.000 C 
BRANCH   2   3
ATOM      3  C   UNL     1       1.546  21.652   2.801  1.00  0.00     0.000 C 
BRANCH   3   4
ATOM      4  C   UNL     1       2.970  22.134   3.133  1.00  0.00    -0.000 C 
BRANCH   4   5
ATOM      5  C   UNL     1       3.055  23.430   3.961  1.00  0.00    -0.000 C 
BRANCH   5   6
ATOM      6  C   UNL     1       4.030  24.460   3.366  1.00  0.00    -0.000 C 
BRANCH   6   7
ATOM      7  C   UNL     1       5.484  24.244   3.826  1.00  0.00    -0.000 C 
BRANCH   7   8
ATOM      8  C   UNL     1       5.799  24.711   5.261  1.00  0.00    -0.000 C 
BRANCH   8   9
ATOM      9  C   UNL     1       6.682  23.753   6.081  1.00  0.00    -0.000 C 
BRANCH   9  10
ATOM     10  C   UNL     1       5.984  22.417   6.384  1.00  0.00    -0.000 C 
BRANCH  10  11
ATOM     11  C   UNL     1       4.649  22.605   7.122  1.00  0.00    -0.003 C 
ATOM     12  C   UNL     1       3.871  21.299   7.274  1.00  0.00     0.004 C 
ENDBRANCH  10  11
ENDBRANCH   9  10
ENDBRANCH   8   9
ENDBRANCH   7   8
ENDBRANCH   6   7
ENDBRANCH   5   6
ENDBRANCH   4   5
ENDBRANCH   3   4
ENDBRANCH   2   3
ENDBRANCH   1   2
BRANCH   1  13
ATOM     13  C   UNL     1      -2.050  22.234   2.848  1.00  0.00     0.000 C 
BRANCH  13  14
ATOM     14  C   UNL     1      -3.130  21.320   3.461  1.00  0.00     0.000 C 
BRANCH  14  15
ATOM     15  C   UNL     1      -4.262  20.913   2.497  1.00  0.00     0.000 C 
BRANCH  15  16
ATOM     16  C   UNL     1      -5.667  20.877   3.124  1.00  0.00     0.000 C 
BRANCH  16  17
ATOM     17  C   UNL     1      -6.585  21.989   2.597  1.00  0.00     0.000 C 
BRANCH  17  18
ATOM     18  C   UNL     1      -8.062  21.632   2.820  1.00  0.00     0.000 C 
BRANCH  18  19
ATOM     19  C   UNL     1      -8.359  21.176   4.259  1.00  0.00     0.000 C 
BRANCH  19  20
ATOM     20  C   UNL     1      -9.646  21.754   4.880  1.00  0.00     0.006 C 
BRANCH  20  21
ATOM     21  C   UNL     1     -10.865  21.720   3.940  1.00  0.00     0.053 C 
BRANCH  21  22
ATOM     22  C   UNL     1     -11.787  22.883   4.153  1.00  0.00     0.041 C 
ATOM     23  O   UNL     1     -12.987  22.689   4.481  1.00  0.00    -0.550 OA
ATOM     24  O   UNL     1     -11.331  24.180   3.952  1.00  0.00    -0.550 OA
ENDBRANCH  21  22
ENDBRANCH  20  21
ENDBRANCH  19  20
ENDBRANCH  18  19
ENDBRANCH  17  18
ENDBRANCH  16  17
ENDBRANCH  15  16
ENDBRANCH  14  15
ENDBRANCH  13  14
ENDBRANCH   1  13
TORSDOF 20
ENDMDL
MODEL 7
REMARK VINA RESULT:    -1.887      1.411      2.692
REMARK INTER + INTRA:          -5.922
REMARK INTER:                  -4.661
REMARK INTRA:                  -1.261
REMARK UNBOUND:                -1.829
REMARK SMILES CCCCCCCCCCCCCCCCCCCCCC(=O)[O-]
REMARK SMILES IDX 12 1 11 2 10 3 9 4 8 5 7 6 6 7 5 8 4 9 3 10 2 11 1 12 13 13
REMARK SMILES IDX 14 14 15 15 16 16 17 17 18 18 19 19 20 20 21 21 22 22 23 23
REMARK SMILES IDX 24 24
REMARK H PARENT
REMARK Flexibility Score: inf
ROOT
ATOM      1  C   UNL     1      -1.276  22.953   3.449  1.00  0.00     0.000 C 
ENDROOT
BRANCH   1   2
ATOM      2  C   UNL     1       0.222  23.192   3.183  1.00  0.00     0.000 C 
BRANCH   2   3
ATOM      3  C   UNL     1       0.978  21.904   2.817  1.00  0.00     0.000 C 
BRANCH   3   4
ATOM      4  C   UNL     1       2.506  22.048   2.932  1.00  0.00    -0.000 C 
BRANCH   4   5
ATOM      5  C   UNL     1       3.216  20.949   3.746  1.00  0.00    -0.000 C 
BRANCH   5   6
ATOM      6  C   UNL     1       3.388  21.317   5.229  1.00  0.00    -0.000 C 
BRANCH   6   7
ATOM      7  C   UNL     1       2.872  22.731   5.560  1.00  0.00    -0.000 C 
BRANCH   7   8
ATOM      8  C   UNL     1       3.710  23.516   6.587  1.00  0.00    -0.000 C 
BRANCH   8   9
ATOM      9  C   UNL     1       5.231  23.301   6.489  1.00  0.00    -0.000 C 
BRANCH   9  10
ATOM     10  C   UNL     1       5.923  24.353   5.607  1.00  0.00    -0.000 C 
BRANCH  10  11
ATOM     11  C   UNL     1       5.155  24.627   4.305  1.00  0.00    -0.003 C 
ATOM     12  C   UNL     1       5.775  23.927   3.096  1.00  0.00     0.004 C 
ENDBRANCH  10  11
ENDBRANCH   9  10
ENDBRANCH   8   9
ENDBRANCH   7   8
ENDBRANCH   6   7
ENDBRANCH   5   6
ENDBRANCH   4   5
ENDBRANCH   3   4
ENDBRANCH   2   3
ENDBRANCH   1   2
BRANCH   1  13
ATOM     13  C   UNL     1      -1.815  21.584   2.990  1.00  0.00     0.000 C 
BRANCH  13  14
ATOM     14  C   UNL     1      -3.344  21.511   2.811  1.00  0.00     0.000 C 
BRANCH  14  15
ATOM     15  C   UNL     1      -4.110  20.883   3.993  1.00  0.00     0.000 C 
BRANCH  15  16
ATOM     16  C   UNL     1      -5.596  21.274   4.085  1.00  0.00     0.000 C 
BRANCH  16  17
ATOM     17  C   UNL     1      -6.393  20.895   2.829  1.00  0.00     0.000 C 
BRANCH  17  18
ATOM     18  C   UNL     1      -7.148  22.110   2.271  1.00  0.00     0.000 C 
BRANCH  18  19
ATOM     19  C   UNL     1      -8.674  21.928   2.287  1.00  0.00     0.000 C 
BRANCH  19  20
ATOM     20  C   UNL     1      -9.295  21.697   3.680  1.00  0.00     0.006 C 
BRANCH  20  21
ATOM     21  C   UNL     1     -10.820  21.489   3.659  1.00  0.00     0.053 C 
BRANCH  21  22
ATOM     22  C   UNL     1     -11.573  22.722   4.062  1.00  0.00     0.041 C 
ATOM     23  O   UNL     1     -12.748  22.632   4.505  1.00  0.00    -0.550 OA
ATOM     24  O   UNL     1     -10.991  23.975   3.911  1.00  0.00    -0.550 OA
ENDBRANCH  21  22
ENDBRANCH  20  21
ENDBRANCH  19  20
ENDBRANCH  18  19
ENDBRANCH  17  18
ENDBRANCH  16  17
ENDBRANCH  15  16
ENDBRANCH  14  15
ENDBRANCH  13  14
ENDBRANCH   1  13
TORSDOF 20
ENDMDL
MODEL 8
REMARK VINA RESULT:    -1.660      2.105      4.349
REMARK INTER + INTRA:          -5.429
REMARK INTER:                  -3.819
REMARK INTRA:                  -1.609
REMARK UNBOUND:                -1.829
REMARK SMILES CCCCCCCCCCCCCCCCCCCCCC(=O)[O-]
REMARK SMILES IDX 12 1 11 2 10 3 9 4 8 5 7 6 6 7 5 8 4 9 3 10 2 11 1 12 13 13
REMARK SMILES IDX 14 14 15 15 16 16 17 17 18 18 19 19 20 20 21 21 22 22 23 23
REMARK SMILES IDX 24 24
REMARK H PARENT
REMARK Flexibility Score: inf
ROOT
ATOM      1  C   UNL     1       2.923  21.530   6.705  1.00  0.00     0.000 C 
ENDROOT
BRANCH   1   2
ATOM      2  C   UNL     1       4.433  21.779   6.534  1.00  0.00     0.000 C 
BRANCH   2   3
ATOM      3  C   UNL     1       4.744  23.092   5.797  1.00  0.00     0.000 C 
BRANCH   3   4
ATOM      4  C   UNL     1       6.216  23.524   5.930  1.00  0.00    -0.000 C 
BRANCH   4   5
ATOM      5  C   UNL     1       7.020  23.550   4.616  1.00  0.00    -0.000 C 
BRANCH   5   6
ATOM      6  C   UNL     1       7.025  24.933   3.944  1.00  0.00    -0.000 C 
BRANCH   6   7
ATOM      7  C   UNL     1       6.131  24.994   2.691  1.00  0.00    -0.000 C 
BRANCH   7   8
ATOM      8  C   UNL     1       4.662  25.386   2.946  1.00  0.00    -0.000 C 
BRANCH   8   9
ATOM      9  C   UNL     1       3.665  24.909   1.875  1.00  0.00    -0.000 C 
BRANCH   9  10
ATOM     10  C   UNL     1       2.466  24.154   2.475  1.00  0.00    -0.000 C 
BRANCH  10  11
ATOM     11  C   UNL     1       2.766  22.666   2.708  1.00  0.00    -0.003 C 
ATOM     12  C   UNL     1       1.838  21.747   1.915  1.00  0.00     0.004 C 
ENDBRANCH  10  11
ENDBRANCH   9  10
ENDBRANCH   8   9
ENDBRANCH   7   8
ENDBRANCH   6   7
ENDBRANCH   5   6
ENDBRANCH   4   5
ENDBRANCH   3   4
ENDBRANCH   2   3
ENDBRANCH   1   2
BRANCH   1  13
ATOM     13  C   UNL     1       2.030  22.116   5.593  1.00  0.00     0.000 C 
BRANCH  13  14
ATOM     14  C   UNL     1       0.713  22.751   6.081  1.00  0.00     0.000 C 
BRANCH  14  15
ATOM     15  C   UNL     1      -0.511  21.813   6.056  1.00  0.00     0.000 C 
BRANCH  15  16
ATOM     16  C   UNL     1      -1.052  21.488   4.652  1.00  0.00     0.000 C 
BRANCH  16  17
ATOM     17  C   UNL     1      -0.864  22.643   3.658  1.00  0.00     0.000 C 
BRANCH  17  18
ATOM     18  C   UNL     1      -2.196  23.006   2.983  1.00  0.00     0.000 C 
BRANCH  18  19
ATOM     19  C   UNL     1      -2.596  22.018   1.876  1.00  0.00     0.000 C 
BRANCH  19  20
ATOM     20  C   UNL     1      -3.694  21.007   2.262  1.00  0.00     0.006 C 
BRANCH  20  21
ATOM     21  C   UNL     1      -4.252  21.201   3.684  1.00  0.00     0.053 C 
BRANCH  21  22
ATOM     22  C   UNL     1      -5.702  21.582   3.684  1.00  0.00     0.041 C 
ATOM     23  O   UNL     1      -6.100  22.565   3.005  1.00  0.00    -0.550 OA
ATOM     24  O   UNL     1      -6.609  20.876   4.466  1.00  0.00    -0.550 OA
ENDBRANCH  21  22
ENDBRANCH  20  21
ENDBRANCH  19  20
ENDBRANCH  18  19
ENDBRANCH  17  18
ENDBRANCH  16  17
ENDBRANCH  15  16
ENDBRANCH  14  15
ENDBRANCH  13  14
ENDBRANCH   1  13
TORSDOF 20
ENDMDL
MODEL 9
REMARK VINA RESULT:    -1.509      4.144      5.281
REMARK INTER + INTRA:          -5.103
REMARK INTER:                  -4.709
REMARK INTRA:                  -0.394
REMARK UNBOUND:                -1.829
REMARK SMILES CCCCCCCCCCCCCCCCCCCCCC(=O)[O-]
REMARK SMILES IDX 12 1 11 2 10 3 9 4 8 5 7 6 6 7 5 8 4 9 3 10 2 11 1 12 13 13
REMARK SMILES IDX 14 14 15 15 16 16 17 17 18 18 19 19 20 20 21 21 22 22 23 23
REMARK SMILES IDX 24 24
REMARK H PARENT
REMARK Flexibility Score: inf
ROOT
ATOM      1  C   UNL     1       0.630  21.947   2.537  1.00  0.00     0.000 C 
ENDROOT
BRANCH   1   2
ATOM      2  C   UNL     1       1.898  21.360   1.889  1.00  0.00     0.000 C 
BRANCH   2   3
ATOM      3  C   UNL     1       3.150  21.523   2.767  1.00  0.00     0.000 C 
BRANCH   3   4
ATOM      4  C   UNL     1       4.180  22.500   2.172  1.00  0.00    -0.000 C 
BRANCH   4   5
ATOM      5  C   UNL     1       3.800  23.991   2.247  1.00  0.00    -0.000 C 
BRANCH   5   6
ATOM      6  C   UNL     1       4.436  24.712   3.448  1.00  0.00    -0.000 C 
BRANCH   6   7
ATOM      7  C   UNL     1       5.974  24.754   3.376  1.00  0.00    -0.000 C 
BRANCH   7   8
ATOM      8  C   UNL     1       6.693  24.951   4.725  1.00  0.00    -0.000 C 
BRANCH   8   9
ATOM      9  C   UNL     1       5.834  24.667   5.970  1.00  0.00    -0.000 C 
BRANCH   9  10
ATOM     10  C   UNL     1       6.295  23.415   6.736  1.00  0.00    -0.000 C 
BRANCH  10  11
ATOM     11  C   UNL     1       5.608  22.134   6.239  1.00  0.00    -0.003 C 
ATOM     12  C   UNL     1       4.679  21.519   7.284  1.00  0.00     0.004 C 
ENDBRANCH  10  11
ENDBRANCH   9  10
ENDBRANCH   8   9
ENDBRANCH   7   8
ENDBRANCH   6   7
ENDBRANCH   5   6
ENDBRANCH   4   5
ENDBRANCH   3   4
ENDBRANCH   2   3
ENDBRANCH   1   2
BRANCH   1  13
ATOM     13  C   UNL     1      -0.703  21.458   1.936  1.00  0.00     0.000 C 
BRANCH  13  14
ATOM     14  C   UNL     1      -1.885  21.410   2.924  1.00  0.00     0.000 C 
BRANCH  14  15
ATOM     15  C   UNL     1      -1.567  21.912   4.346  1.00  0.00     0.000 C 
BRANCH  15  16
ATOM     16  C   UNL     1      -0.254  21.374   4.945  1.00  0.00     0.000 C 
BRANCH  16  17
ATOM     17  C   UNL     1       0.721  22.491   5.346  1.00  0.00     0.000 C 
BRANCH  17  18
ATOM     18  C   UNL     1       0.871  22.565   6.873  1.00  0.00     0.000 C 
BRANCH  18  19
ATOM     19  C   UNL     1       0.910  21.181   7.540  1.00  0.00     0.000 C 
BRANCH  19  20
ATOM     20  C   UNL     1      -0.264  20.876   8.492  1.00  0.00     0.006 C 
BRANCH  20  21
ATOM     21  C   UNL     1      -0.869  22.124   9.160  1.00  0.00     0.053 C 
BRANCH  21  22
ATOM     22  C   UNL     1      -2.179  21.837   9.830  1.00  0.00     0.041 C 
ATOM     23  O   UNL     1      -2.495  22.440  10.890  1.00  0.00    -0.550 OA
ATOM     24  O   UNL     1      -3.035  20.876   9.307  1.00  0.00    -0.550 OA
ENDBRANCH  21  22
ENDBRANCH  20  21
ENDBRANCH  19  20
ENDBRANCH  18  19
ENDBRANCH  17  18
ENDBRANCH  16  17
ENDBRANCH  15  16
ENDBRANCH  14  15
ENDBRANCH  13  14
ENDBRANCH   1  13
TORSDOF 20
ENDMDL
