MODEL 1
REMARK VINA RESULT:    -7.890      0.000      0.000
REMARK INTER + INTRA:          -9.803
REMARK INTER:                  -9.504
REMARK INTRA:                  -0.299
REMARK UNBOUND:                -0.299
REMARK SMILES O=c1c(O)c(-c2ccc(O)c(O)c2)oc2cc(O)cc(O)c12
REMARK SMILES IDX 5 1 3 2 2 3 1 4 22 5 20 6 19 7 17 8 16 9 15 10 14 11 6 12
REMARK SMILES IDX 7 13 8 14 9 15 13 16 11 17 10 18 12 20 4 22 21 24 18 26
REMARK H PARENT 10 19 12 21 4 23 21 25 18 27
REMARK Flexibility Score: inf
ROOT
ATOM      1  C   UNL     1      15.132  21.114 -12.312  1.00  0.00     0.180 A 
ATOM      2  C   UNL     1      16.323  21.068 -11.567  1.00  0.00     0.208 A 
ATOM      3  C   UNL     1      17.516  21.509 -12.164  1.00  0.00     0.238 A 
ATOM      4  O   UNL     1      18.589  21.416 -11.512  1.00  0.00    -0.285 OA
ATOM      5  C   UNL     1      17.499  22.004 -13.491  1.00  0.00     0.111 A 
ATOM      6  C   UNL     1      18.641  22.515 -14.179  1.00  0.00     0.134 A 
ATOM      7  C   UNL     1      18.534  22.857 -15.534  1.00  0.00     0.093 A 
ATOM      8  C   UNL     1      17.312  22.768 -16.204  1.00  0.00     0.123 A 
ATOM      9  C   UNL     1      16.179  22.327 -15.524  1.00  0.00     0.094 A 
ATOM     10  C   UNL     1      16.262  21.945 -14.183  1.00  0.00     0.146 A 
ATOM     11  O   UNL     1      15.160  21.521 -13.575  1.00  0.00    -0.452 OA
ENDROOT
BRANCH   1  12
ATOM     12  C   UNL     1      13.831  20.690 -11.743  1.00  0.00     0.025 A 
ATOM     13  C   UNL     1      13.108  21.521 -10.871  1.00  0.00     0.016 A 
ATOM     14  C   UNL     1      11.872  21.111 -10.367  1.00  0.00     0.051 A 
ATOM     15  C   UNL     1      11.333  19.870 -10.736  1.00  0.00     0.157 A 
ATOM     16  C   UNL     1      13.278  19.457 -12.127  1.00  0.00     0.062 A 
ATOM     17  C   UNL     1      12.041  19.041 -11.623  1.00  0.00     0.158 A 
BRANCH  15  18
ATOM     18  O   UNL     1      10.101  19.462 -10.229  1.00  0.00    -0.504 OA
ATOM     19  H   UNL     1       9.845  18.483 -10.182  1.00  0.00     0.293 HD
ENDBRANCH  15  18
BRANCH  17  20
ATOM     20  O   UNL     1      11.529  17.805 -12.016  1.00  0.00    -0.504 OA
ATOM     21  H   UNL     1      10.560  17.683 -12.282  1.00  0.00     0.293 HD
ENDBRANCH  17  20
ENDBRANCH   1  12
BRANCH   2  22
ATOM     22  O   UNL     1      16.322  20.556 -10.268  1.00  0.00    -0.502 OA
ATOM     23  H   UNL     1      17.169  20.265  -9.796  1.00  0.00     0.293 HD
ENDBRANCH   2  22
BRANCH   6  24
ATOM     24  O   UNL     1      19.884  22.729 -13.578  1.00  0.00    -0.507 OA
ATOM     25  H   UNL     1      20.174  23.597 -13.153  1.00  0.00     0.293 HD
ENDBRANCH   6  24
BRANCH   8  26
ATOM     26  O   UNL     1      17.211  23.125 -17.548  1.00  0.00    -0.508 OA
ATOM     27  H   UNL     1      16.604  22.622 -18.185  1.00  0.00     0.293 HD
ENDBRANCH   8  26
TORSDOF 6
ENDMDL
MODEL 2
REMARK VINA RESULT:    -7.382      0.681      1.483
REMARK INTER + INTRA:          -9.192
REMARK INTER:                  -8.980
REMARK INTRA:                  -0.212
REMARK UNBOUND:                -0.299
REMARK SMILES O=c1c(O)c(-c2ccc(O)c(O)c2)oc2cc(O)cc(O)c12
REMARK SMILES IDX 5 1 3 2 2 3 1 4 22 5 20 6 19 7 17 8 16 9 15 10 14 11 6 12
REMARK SMILES IDX 7 13 8 14 9 15 13 16 11 17 10 18 12 20 4 22 21 24 18 26
REMARK H PARENT 10 19 12 21 4 23 21 25 18 27
REMARK Flexibility Score: inf
ROOT
ATOM      1  C   UNL     1      15.255  21.186 -12.521  1.00  0.00     0.180 A 
ATOM      2  C   UNL     1      16.446  21.242 -11.777  1.00  0.00     0.208 A 
ATOM      3  C   UNL     1      17.611  21.730 -12.392  1.00  0.00     0.238 A 
ATOM      4  O   UNL     1      18.686  21.727 -11.738  1.00  0.00    -0.285 OA
ATOM      5  C   UNL     1      17.566  22.172 -13.736  1.00  0.00     0.111 A 
ATOM      6  C   UNL     1      18.675  22.723 -14.445  1.00  0.00     0.134 A 
ATOM      7  C   UNL     1      18.550  23.006 -15.812  1.00  0.00     0.093 A 
ATOM      8  C   UNL     1      17.336  22.818 -16.477  1.00  0.00     0.123 A 
ATOM      9  C   UNL     1      16.231  22.336 -15.779  1.00  0.00     0.094 A 
ATOM     10  C   UNL     1      16.335  22.012 -14.425  1.00  0.00     0.146 A 
ATOM     11  O   UNL     1      15.260  21.546 -13.800  1.00  0.00    -0.452 OA
ENDROOT
BRANCH   1  12
ATOM     12  C   UNL     1      13.982  20.707 -11.936  1.00  0.00     0.025 A 
ATOM     13  C   UNL     1      13.427  19.469 -12.304  1.00  0.00     0.016 A 
ATOM     14  C   UNL     1      12.237  19.027 -11.720  1.00  0.00     0.051 A 
ATOM     15  C   UNL     1      11.591  19.806 -10.751  1.00  0.00     0.157 A 
ATOM     16  C   UNL     1      13.342  21.475 -10.948  1.00  0.00     0.062 A 
ATOM     17  C   UNL     1      12.150  21.036 -10.362  1.00  0.00     0.158 A 
BRANCH  15  18
ATOM     18  O   UNL     1      10.404  19.363 -10.172  1.00  0.00    -0.504 OA
ATOM     19  H   UNL     1       9.523  19.405 -10.671  1.00  0.00     0.293 HD
ENDBRANCH  15  18
BRANCH  17  20
ATOM     20  O   UNL     1      11.537  21.831  -9.395  1.00  0.00    -0.504 OA
ATOM     21  H   UNL     1      11.767  21.757  -8.411  1.00  0.00     0.293 HD
ENDBRANCH  17  20
ENDBRANCH   1  12
BRANCH   2  22
ATOM     22  O   UNL     1      16.473  20.781 -10.459  1.00  0.00    -0.502 OA
ATOM     23  H   UNL     1      15.688  20.307 -10.031  1.00  0.00     0.293 HD
ENDBRANCH   2  22
BRANCH   6  24
ATOM     24  O   UNL     1      19.902  23.035 -13.854  1.00  0.00    -0.507 OA
ATOM     25  H   UNL     1      20.011  23.561 -13.000  1.00  0.00     0.293 HD
ENDBRANCH   6  24
BRANCH   8  26
ATOM     26  O   UNL     1      17.216  23.116 -17.833  1.00  0.00    -0.508 OA
ATOM     27  H   UNL     1      17.838  22.709 -18.522  1.00  0.00     0.293 HD
ENDBRANCH   8  26
TORSDOF 6
ENDMDL
MODEL 3
REMARK VINA RESULT:    -7.219      1.448      2.202
REMARK INTER + INTRA:          -8.995
REMARK INTER:                  -8.732
REMARK INTRA:                  -0.263
REMARK UNBOUND:                -0.299
REMARK SMILES O=c1c(O)c(-c2ccc(O)c(O)c2)oc2cc(O)cc(O)c12
REMARK SMILES IDX 5 1 3 2 2 3 1 4 22 5 20 6 19 7 17 8 16 9 15 10 14 11 6 12
REMARK SMILES IDX 7 13 8 14 9 15 13 16 11 17 10 18 12 20 4 22 21 24 18 26
REMARK H PARENT 10 19 12 21 4 23 21 25 18 27
REMARK Flexibility Score: inf
ROOT
ATOM      1  C   UNL     1      16.266  21.730 -13.097  1.00  0.00     0.180 A 
ATOM      2  C   UNL     1      17.510  21.751 -12.443  1.00  0.00     0.208 A 
ATOM      3  C   UNL     1      18.657  22.104 -13.171  1.00  0.00     0.238 A 
ATOM      4  O   UNL     1      19.775  22.068 -12.594  1.00  0.00    -0.285 OA
ATOM      5  C   UNL     1      18.545  22.448 -14.541  1.00  0.00     0.111 A 
ATOM      6  C   UNL     1      19.634  22.861 -15.365  1.00  0.00     0.134 A 
ATOM      7  C   UNL     1      19.429  23.051 -16.737  1.00  0.00     0.093 A 
ATOM      8  C   UNL     1      18.159  22.906 -17.302  1.00  0.00     0.123 A 
ATOM      9  C   UNL     1      17.078  22.562 -16.494  1.00  0.00     0.094 A 
ATOM     10  C   UNL     1      17.258  22.331 -15.129  1.00  0.00     0.146 A 
ATOM     11  O   UNL     1      16.203  21.994 -14.397  1.00  0.00    -0.452 OA
ENDROOT
BRANCH   1  12
ATOM     12  C   UNL     1      15.009  21.392 -12.391  1.00  0.00     0.025 A 
ATOM     13  C   UNL     1      14.407  20.130 -12.533  1.00  0.00     0.016 A 
ATOM     14  C   UNL     1      13.235  19.825 -11.837  1.00  0.00     0.051 A 
ATOM     15  C   UNL     1      12.654  20.770 -10.979  1.00  0.00     0.157 A 
ATOM     16  C   UNL     1      14.436  22.327 -11.513  1.00  0.00     0.062 A 
ATOM     17  C   UNL     1      13.261  22.026 -10.816  1.00  0.00     0.158 A 
BRANCH  15  18
ATOM     18  O   UNL     1      11.483  20.463 -10.289  1.00  0.00    -0.504 OA
ATOM     19  H   UNL     1      11.481  20.320  -9.285  1.00  0.00     0.293 HD
ENDBRANCH  15  18
BRANCH  17  20
ATOM     20  O   UNL     1      12.713  22.985  -9.964  1.00  0.00    -0.504 OA
ATOM     21  H   UNL     1      13.290  23.595  -9.398  1.00  0.00     0.293 HD
ENDBRANCH  17  20
ENDBRANCH   1  12
BRANCH   2  22
ATOM     22  O   UNL     1      17.602  21.387 -11.097  1.00  0.00    -0.502 OA
ATOM     23  H   UNL     1      17.332  22.009 -10.345  1.00  0.00     0.293 HD
ENDBRANCH   2  22
BRANCH   6  24
ATOM     24  O   UNL     1      20.920  23.123 -14.884  1.00  0.00    -0.507 OA
ATOM     25  H   UNL     1      21.350  24.035 -14.861  1.00  0.00     0.293 HD
ENDBRANCH   6  24
BRANCH   8  26
ATOM     26  O   UNL     1      17.960  23.112 -18.665  1.00  0.00    -0.508 OA
ATOM     27  H   UNL     1      17.060  22.947 -19.101  1.00  0.00     0.293 HD
ENDBRANCH   8  26
TORSDOF 6
ENDMDL
MODEL 4
REMARK VINA RESULT:    -6.594      1.695      3.503
REMARK INTER + INTRA:          -8.243
REMARK INTER:                  -7.955
REMARK INTRA:                  -0.288
REMARK UNBOUND:                -0.299
REMARK SMILES O=c1c(O)c(-c2ccc(O)c(O)c2)oc2cc(O)cc(O)c12
REMARK SMILES IDX 5 1 3 2 2 3 1 4 22 5 20 6 19 7 17 8 16 9 15 10 14 11 6 12
REMARK SMILES IDX 7 13 8 14 9 15 13 16 11 17 10 18 12 20 4 22 21 24 18 26
REMARK H PARENT 10 19 12 21 4 23 21 25 18 27
REMARK Flexibility Score: inf
ROOT
ATOM      1  C   UNL     1      15.902  21.234 -11.854  1.00  0.00     0.180 A 
ATOM      2  C   UNL     1      16.272  21.727 -13.117  1.00  0.00     0.208 A 
ATOM      3  C   UNL     1      17.628  21.986 -13.376  1.00  0.00     0.238 A 
ATOM      4  O   UNL     1      17.948  22.478 -14.490  1.00  0.00    -0.285 OA
ATOM      5  C   UNL     1      18.598  21.735 -12.375  1.00  0.00     0.111 A 
ATOM      6  C   UNL     1      20.003  21.922 -12.542  1.00  0.00     0.134 A 
ATOM      7  C   UNL     1      20.856  21.766 -11.442  1.00  0.00     0.093 A 
ATOM      8  C   UNL     1      20.361  21.365 -10.199  1.00  0.00     0.123 A 
ATOM      9  C   UNL     1      18.999  21.122 -10.042  1.00  0.00     0.094 A 
ATOM     10  C   UNL     1      18.119  21.304 -11.110  1.00  0.00     0.146 A 
ATOM     11  O   UNL     1      16.826  21.071 -10.915  1.00  0.00    -0.452 OA
ENDROOT
BRANCH   1  12
ATOM     12  C   UNL     1      14.496  20.914 -11.515  1.00  0.00     0.025 A 
ATOM     13  C   UNL     1      13.702  21.804 -10.772  1.00  0.00     0.016 A 
ATOM     14  C   UNL     1      12.371  21.492 -10.485  1.00  0.00     0.051 A 
ATOM     15  C   UNL     1      11.810  20.292 -10.946  1.00  0.00     0.157 A 
ATOM     16  C   UNL     1      13.924  19.723 -11.993  1.00  0.00     0.062 A 
ATOM     17  C   UNL     1      12.591  19.406 -11.706  1.00  0.00     0.158 A 
BRANCH  15  18
ATOM     18  O   UNL     1      10.482  19.982 -10.656  1.00  0.00    -0.504 OA
ATOM     19  H   UNL     1      10.095  20.124  -9.730  1.00  0.00     0.293 HD
ENDBRANCH  15  18
BRANCH  17  20
ATOM     20  O   UNL     1      12.061  18.209 -12.185  1.00  0.00    -0.504 OA
ATOM     21  H   UNL     1      12.605  17.567 -12.750  1.00  0.00     0.293 HD
ENDBRANCH  17  20
ENDBRANCH   1  12
BRANCH   2  22
ATOM     22  O   UNL     1      15.298  21.989 -14.083  1.00  0.00    -0.502 OA
ATOM     23  H   UNL     1      14.308  21.871 -13.905  1.00  0.00     0.293 HD
ENDBRANCH   2  22
BRANCH   6  24
ATOM     24  O   UNL     1      20.609  22.233 -13.763  1.00  0.00    -0.507 OA
ATOM     25  H   UNL     1      21.339  22.918 -13.883  1.00  0.00     0.293 HD
ENDBRANCH   6  24
BRANCH   8  26
ATOM     26  O   UNL     1      21.219  21.197  -9.114  1.00  0.00    -0.508 OA
ATOM     27  H   UNL     1      21.423  20.278  -8.737  1.00  0.00     0.293 HD
ENDBRANCH   8  26
TORSDOF 6
ENDMDL
MODEL 5
REMARK VINA RESULT:    -6.577      1.467      6.857
REMARK INTER + INTRA:          -8.222
REMARK INTER:                  -8.156
REMARK INTRA:                  -0.065
REMARK UNBOUND:                -0.299
REMARK SMILES O=c1c(O)c(-c2ccc(O)c(O)c2)oc2cc(O)cc(O)c12
REMARK SMILES IDX 5 1 3 2 2 3 1 4 22 5 20 6 19 7 17 8 16 9 15 10 14 11 6 12
REMARK SMILES IDX 7 13 8 14 9 15 13 16 11 17 10 18 12 20 4 22 21 24 18 26
REMARK H PARENT 10 19 12 21 4 23 21 25 18 27
REMARK Flexibility Score: inf
ROOT
ATOM      1  C   UNL     1      15.136  21.341 -12.425  1.00  0.00     0.180 A 
ATOM      2  C   UNL     1      15.080  22.048 -11.212  1.00  0.00     0.208 A 
ATOM      3  C   UNL     1      14.122  21.680 -10.253  1.00  0.00     0.238 A 
ATOM      4  O   UNL     1      14.040  22.351  -9.191  1.00  0.00    -0.285 OA
ATOM      5  C   UNL     1      13.244  20.600 -10.513  1.00  0.00     0.111 A 
ATOM      6  C   UNL     1      12.263  20.115  -9.597  1.00  0.00     0.134 A 
ATOM      7  C   UNL     1      11.362  19.125 -10.010  1.00  0.00     0.093 A 
ATOM      8  C   UNL     1      11.450  18.558 -11.283  1.00  0.00     0.123 A 
ATOM      9  C   UNL     1      12.442  18.983 -12.163  1.00  0.00     0.094 A 
ATOM     10  C   UNL     1      13.332  19.993 -11.793  1.00  0.00     0.146 A 
ATOM     11  O   UNL     1      14.256  20.376 -12.666  1.00  0.00    -0.452 OA
ENDROOT
BRANCH   1  12
ATOM     12  C   UNL     1      16.134  21.655 -13.474  1.00  0.00     0.025 A 
ATOM     13  C   UNL     1      15.740  22.028 -14.770  1.00  0.00     0.016 A 
ATOM     14  C   UNL     1      16.699  22.343 -15.736  1.00  0.00     0.051 A 
ATOM     15  C   UNL     1      18.063  22.303 -15.419  1.00  0.00     0.157 A 
ATOM     16  C   UNL     1      17.502  21.637 -13.155  1.00  0.00     0.062 A 
ATOM     17  C   UNL     1      18.465  21.950 -14.120  1.00  0.00     0.158 A 
BRANCH  15  18
ATOM     18  O   UNL     1      19.017  22.615 -16.386  1.00  0.00    -0.504 OA
ATOM     19  H   UNL     1      19.335  21.928 -17.059  1.00  0.00     0.293 HD
ENDBRANCH  15  18
BRANCH  17  20
ATOM     20  O   UNL     1      19.814  21.908 -13.770  1.00  0.00    -0.504 OA
ATOM     21  H   UNL     1      20.456  22.653 -14.011  1.00  0.00     0.293 HD
ENDBRANCH  17  20
ENDBRANCH   1  12
BRANCH   2  22
ATOM     22  O   UNL     1      15.940  23.125 -10.985  1.00  0.00    -0.502 OA
ATOM     23  H   UNL     1      16.936  23.006 -10.843  1.00  0.00     0.293 HD
ENDBRANCH   2  22
BRANCH   6  24
ATOM     24  O   UNL     1      12.149  20.548  -8.273  1.00  0.00    -0.507 OA
ATOM     25  H   UNL     1      12.486  21.434  -7.928  1.00  0.00     0.293 HD
ENDBRANCH   6  24
BRANCH   8  26
ATOM     26  O   UNL     1      10.559  17.563 -11.681  1.00  0.00    -0.508 OA
ATOM     27  H   UNL     1      10.044  17.629 -12.552  1.00  0.00     0.293 HD
ENDBRANCH   8  26
TORSDOF 6
ENDMDL
MODEL 6
REMARK VINA RESULT:    -6.499      1.980      7.595
REMARK INTER + INTRA:          -8.127
REMARK INTER:                  -7.811
REMARK INTRA:                  -0.316
REMARK UNBOUND:                -0.299
REMARK SMILES O=c1c(O)c(-c2ccc(O)c(O)c2)oc2cc(O)cc(O)c12
REMARK SMILES IDX 5 1 3 2 2 3 1 4 22 5 20 6 19 7 17 8 16 9 15 10 14 11 6 12
REMARK SMILES IDX 7 13 8 14 9 15 13 16 11 17 10 18 12 20 4 22 21 24 18 26
REMARK H PARENT 10 19 12 21 4 23 21 25 18 27
REMARK Flexibility Score: inf
ROOT
ATOM      1  C   UNL     1      13.110  20.442 -11.089  1.00  0.00     0.180 A 
ATOM      2  C   UNL     1      12.358  21.266 -10.234  1.00  0.00     0.208 A 
ATOM      3  C   UNL     1      11.149  20.780  -9.709  1.00  0.00     0.238 A 
ATOM      4  O   UNL     1      10.454  21.542  -8.988  1.00  0.00    -0.285 OA
ATOM      5  C   UNL     1      10.715  19.472 -10.034  1.00  0.00     0.111 A 
ATOM      6  C   UNL     1       9.528  18.863  -9.527  1.00  0.00     0.134 A 
ATOM      7  C   UNL     1       9.130  17.612 -10.017  1.00  0.00     0.093 A 
ATOM      8  C   UNL     1       9.911  16.922 -10.947  1.00  0.00     0.123 A 
ATOM      9  C   UNL     1      11.102  17.482 -11.402  1.00  0.00     0.094 A 
ATOM     10  C   UNL     1      11.507  18.743 -10.959  1.00  0.00     0.146 A 
ATOM     11  O   UNL     1      12.644  19.245 -11.426  1.00  0.00    -0.452 OA
ENDROOT
BRANCH   1  12
ATOM     12  C   UNL     1      14.406  20.874 -11.661  1.00  0.00     0.025 A 
ATOM     13  C   UNL     1      15.596  20.796 -10.917  1.00  0.00     0.016 A 
ATOM     14  C   UNL     1      16.811  21.186 -11.486  1.00  0.00     0.051 A 
ATOM     15  C   UNL     1      16.858  21.647 -12.809  1.00  0.00     0.157 A 
ATOM     16  C   UNL     1      14.461  21.316 -12.994  1.00  0.00     0.062 A 
ATOM     17  C   UNL     1      15.675  21.709 -13.566  1.00  0.00     0.158 A 
BRANCH  15  18
ATOM     18  O   UNL     1      18.071  22.038 -13.373  1.00  0.00    -0.504 OA
ATOM     19  H   UNL     1      18.928  22.050 -12.832  1.00  0.00     0.293 HD
ENDBRANCH  15  18
BRANCH  17  20
ATOM     20  O   UNL     1      15.689  22.155 -14.887  1.00  0.00    -0.504 OA
ATOM     21  H   UNL     1      15.036  21.809 -15.579  1.00  0.00     0.293 HD
ENDBRANCH  17  20
ENDBRANCH   1  12
BRANCH   2  22
ATOM     22  O   UNL     1      12.793  22.561  -9.944  1.00  0.00    -0.502 OA
ATOM     23  H   UNL     1      12.281  23.385 -10.233  1.00  0.00     0.293 HD
ENDBRANCH   2  22
BRANCH   6  24
ATOM     24  O   UNL     1       8.726  19.426  -8.531  1.00  0.00    -0.507 OA
ATOM     25  H   UNL     1       7.727  19.308  -8.462  1.00  0.00     0.293 HD
ENDBRANCH   6  24
BRANCH   8  26
ATOM     26  O   UNL     1       9.515  15.672 -11.418  1.00  0.00    -0.508 OA
ATOM     27  H   UNL     1       9.784  15.343 -12.339  1.00  0.00     0.293 HD
ENDBRANCH   8  26
TORSDOF 6
ENDMDL
MODEL 7
REMARK VINA RESULT:    -6.452      1.442      6.746
REMARK INTER + INTRA:          -8.071
REMARK INTER:                  -7.937
REMARK INTRA:                  -0.135
REMARK UNBOUND:                -0.299
REMARK SMILES O=c1c(O)c(-c2ccc(O)c(O)c2)oc2cc(O)cc(O)c12
REMARK SMILES IDX 5 1 3 2 2 3 1 4 22 5 20 6 19 7 17 8 16 9 15 10 14 11 6 12
REMARK SMILES IDX 7 13 8 14 9 15 13 16 11 17 10 18 12 20 4 22 21 24 18 26
REMARK H PARENT 10 19 12 21 4 23 21 25 18 27
REMARK Flexibility Score: inf
ROOT
ATOM      1  C   UNL     1      15.421  21.401 -12.555  1.00  0.00     0.180 A 
ATOM      2  C   UNL     1      15.366  22.075 -11.323  1.00  0.00     0.208 A 
ATOM      3  C   UNL     1      14.388  21.701 -10.386  1.00  0.00     0.238 A 
ATOM      4  O   UNL     1      14.308  22.344  -9.307  1.00  0.00    -0.285 OA
ATOM      5  C   UNL     1      13.490  20.648 -10.686  1.00  0.00     0.111 A 
ATOM      6  C   UNL     1      12.487  20.160  -9.796  1.00  0.00     0.134 A 
ATOM      7  C   UNL     1      11.570  19.203 -10.247  1.00  0.00     0.093 A 
ATOM      8  C   UNL     1      11.661  18.670 -11.535  1.00  0.00     0.123 A 
ATOM      9  C   UNL     1      12.673  19.097 -12.391  1.00  0.00     0.094 A 
ATOM     10  C   UNL     1      13.581  20.076 -11.982  1.00  0.00     0.146 A 
ATOM     11  O   UNL     1      14.524  20.463 -12.833  1.00  0.00    -0.452 OA
ENDROOT
BRANCH   1  12
ATOM     12  C   UNL     1      16.439  21.721 -13.583  1.00  0.00     0.025 A 
ATOM     13  C   UNL     1      17.813  21.609 -13.311  1.00  0.00     0.016 A 
ATOM     14  C   UNL     1      18.754  21.893 -14.304  1.00  0.00     0.051 A 
ATOM     15  C   UNL     1      18.337  22.280 -15.585  1.00  0.00     0.157 A 
ATOM     16  C   UNL     1      16.025  22.088 -14.874  1.00  0.00     0.062 A 
ATOM     17  C   UNL     1      16.965  22.374 -15.871  1.00  0.00     0.158 A 
BRANCH  15  18
ATOM     18  O   UNL     1      19.279  22.564 -16.573  1.00  0.00    -0.504 OA
ATOM     19  H   UNL     1      19.947  21.870 -16.884  1.00  0.00     0.293 HD
ENDBRANCH  15  18
BRANCH  17  20
ATOM     20  O   UNL     1      16.517  22.749 -17.137  1.00  0.00    -0.504 OA
ATOM     21  H   UNL     1      16.237  22.067 -17.832  1.00  0.00     0.293 HD
ENDBRANCH  17  20
ENDBRANCH   1  12
BRANCH   2  22
ATOM     22  O   UNL     1      16.247  23.125 -11.055  1.00  0.00    -0.502 OA
ATOM     23  H   UNL     1      17.224  22.974 -10.836  1.00  0.00     0.293 HD
ENDBRANCH   2  22
BRANCH   6  24
ATOM     24  O   UNL     1      12.367  20.559  -8.462  1.00  0.00    -0.507 OA
ATOM     25  H   UNL     1      12.667  21.451  -8.100  1.00  0.00     0.293 HD
ENDBRANCH   6  24
BRANCH   8  26
ATOM     26  O   UNL     1      10.753  17.706 -11.971  1.00  0.00    -0.508 OA
ATOM     27  H   UNL     1      11.043  16.756 -12.169  1.00  0.00     0.293 HD
ENDBRANCH   8  26
TORSDOF 6
ENDMDL
MODEL 8
REMARK VINA RESULT:    -6.160      2.433      6.801
REMARK INTER + INTRA:          -7.719
REMARK INTER:                  -7.797
REMARK INTRA:                   0.078
REMARK UNBOUND:                -0.299
REMARK SMILES O=c1c(O)c(-c2ccc(O)c(O)c2)oc2cc(O)cc(O)c12
REMARK SMILES IDX 5 1 3 2 2 3 1 4 22 5 20 6 19 7 17 8 16 9 15 10 14 11 6 12
REMARK SMILES IDX 7 13 8 14 9 15 13 16 11 17 10 18 12 20 4 22 21 24 18 26
REMARK H PARENT 10 19 12 21 4 23 21 25 18 27
REMARK Flexibility Score: inf
ROOT
ATOM      1  C   UNL     1      17.834  22.013 -14.173  1.00  0.00     0.180 A 
ATOM      2  C   UNL     1      18.791  21.808 -13.165  1.00  0.00     0.208 A 
ATOM      3  C   UNL     1      18.369  21.754 -11.826  1.00  0.00     0.238 A 
ATOM      4  O   UNL     1      19.237  21.624 -10.924  1.00  0.00    -0.285 OA
ATOM      5  C   UNL     1      16.994  21.890 -11.515  1.00  0.00     0.111 A 
ATOM      6  C   UNL     1      16.451  21.811 -10.197  1.00  0.00     0.134 A 
ATOM      7  C   UNL     1      15.093  22.090  -9.992  1.00  0.00     0.093 A 
ATOM      8  C   UNL     1      14.249  22.382 -11.066  1.00  0.00     0.123 A 
ATOM      9  C   UNL     1      14.758  22.403 -12.362  1.00  0.00     0.094 A 
ATOM     10  C   UNL     1      16.115  22.163 -12.594  1.00  0.00     0.146 A 
ATOM     11  O   UNL     1      16.561  22.203 -13.844  1.00  0.00    -0.452 OA
ENDROOT
BRANCH   1  12
ATOM     12  C   UNL     1      18.198  22.057 -15.608  1.00  0.00     0.025 A 
ATOM     13  C   UNL     1      17.746  23.091 -16.447  1.00  0.00     0.016 A 
ATOM     14  C   UNL     1      18.123  23.125 -17.791  1.00  0.00     0.051 A 
ATOM     15  C   UNL     1      18.966  22.136 -18.316  1.00  0.00     0.157 A 
ATOM     16  C   UNL     1      19.061  21.081 -16.133  1.00  0.00     0.062 A 
ATOM     17  C   UNL     1      19.439  21.110 -17.480  1.00  0.00     0.158 A 
BRANCH  15  18
ATOM     18  O   UNL     1      19.338  22.171 -19.658  1.00  0.00    -0.504 OA
ATOM     19  H   UNL     1      19.099  21.420 -20.295  1.00  0.00     0.293 HD
ENDBRANCH  15  18
BRANCH  17  20
ATOM     20  O   UNL     1      20.286  20.116 -17.968  1.00  0.00    -0.504 OA
ATOM     21  H   UNL     1      20.357  19.206 -17.529  1.00  0.00     0.293 HD
ENDBRANCH  17  20
ENDBRANCH   1  12
BRANCH   2  22
ATOM     22  O   UNL     1      20.145  21.697 -13.492  1.00  0.00    -0.502 OA
ATOM     23  H   UNL     1      20.875  21.684 -12.791  1.00  0.00     0.293 HD
ENDBRANCH   2  22
BRANCH   6  24
ATOM     24  O   UNL     1      17.188  21.439  -9.070  1.00  0.00    -0.507 OA
ATOM     25  H   UNL     1      17.951  21.971  -8.681  1.00  0.00     0.293 HD
ENDBRANCH   6  24
BRANCH   8  26
ATOM     26  O   UNL     1      12.896  22.644 -10.855  1.00  0.00    -0.508 OA
ATOM     27  H   UNL     1      12.517  23.579 -10.949  1.00  0.00     0.293 HD
ENDBRANCH   8  26
TORSDOF 6
ENDMDL
