MODEL 1
REMARK VINA RESULT:    -4.877      0.000      0.000
REMARK INTER + INTRA:          -5.667
REMARK INTER:                  -5.590
REMARK INTRA:                  -0.077
REMARK UNBOUND:                -0.077
REMARK SMILES COc1cc(C=O)ccc1O
REMARK SMILES IDX 3 1 10 2 9 3 8 4 5 5 4 6 2 7 1 8 11 9 6 11 7 12
REMARK H PARENT 11 10
REMARK Flexibility Score: inf
ROOT
ATOM      1  C   UNL     1      12.639  22.581  -1.821  1.00  0.00     0.161 A 
ATOM      2  C   UNL     1      11.854  22.096  -0.765  1.00  0.00     0.157 A 
ATOM      3  C   UNL     1      10.794  21.219  -1.022  1.00  0.00     0.051 A 
ATOM      4  C   UNL     1      10.511  20.819  -2.330  1.00  0.00     0.015 A 
ATOM      5  C   UNL     1      11.287  21.296  -3.398  1.00  0.00     0.018 A 
ATOM      6  C   UNL     1      12.349  22.175  -3.139  1.00  0.00     0.062 A 
ENDROOT
BRANCH   1   7
ATOM      7  O   UNL     1      13.692  23.460  -1.522  1.00  0.00    -0.493 OA
ATOM      8  C   UNL     1      13.625  24.875  -1.662  1.00  0.00     0.278 C 
ENDBRANCH   1   7
BRANCH   2   9
ATOM      9  O   UNL     1      12.135  22.494   0.541  1.00  0.00    -0.504 OA
ATOM     10  H   UNL     1      12.563  21.862   1.208  1.00  0.00     0.293 HD
ENDBRANCH   2   9
BRANCH   5  11
ATOM     11  C   UNL     1      11.003  20.885  -4.787  1.00  0.00     0.260 C 
ATOM     12  O   UNL     1       9.859  20.479  -5.124  1.00  0.00    -0.298 OA
ENDBRANCH   5  11
TORSDOF 3
ENDMDL
MODEL 2
REMARK VINA RESULT:    -4.720      1.496      4.057
REMARK INTER + INTRA:          -5.486
REMARK INTER:                  -5.434
REMARK INTRA:                  -0.052
REMARK UNBOUND:                -0.077
REMARK SMILES COc1cc(C=O)ccc1O
REMARK SMILES IDX 3 1 10 2 9 3 8 4 5 5 4 6 2 7 1 8 11 9 6 11 7 12
REMARK H PARENT 11 10
REMARK Flexibility Score: inf
ROOT
ATOM      1  C   UNL     1      11.368  21.377  -3.025  1.00  0.00     0.161 A 
ATOM      2  C   UNL     1      10.631  21.122  -1.860  1.00  0.00     0.157 A 
ATOM      3  C   UNL     1      10.629  22.052  -0.812  1.00  0.00     0.051 A 
ATOM      4  C   UNL     1      11.359  23.237  -0.920  1.00  0.00     0.015 A 
ATOM      5  C   UNL     1      12.101  23.507  -2.080  1.00  0.00     0.018 A 
ATOM      6  C   UNL     1      12.102  22.575  -3.130  1.00  0.00     0.062 A 
ENDROOT
BRANCH   1   7
ATOM      7  O   UNL     1      11.345  20.420  -4.052  1.00  0.00    -0.493 OA
ATOM      8  C   UNL     1      10.408  20.412  -5.125  1.00  0.00     0.278 C 
ENDBRANCH   1   7
BRANCH   2   9
ATOM      9  O   UNL     1       9.902  19.939  -1.750  1.00  0.00    -0.504 OA
ATOM     10  H   UNL     1       9.178  19.825  -1.050  1.00  0.00     0.293 HD
ENDBRANCH   2   9
BRANCH   5  11
ATOM     11  C   UNL     1      12.879  24.754  -2.213  1.00  0.00     0.260 C 
ATOM     12  O   UNL     1      13.651  25.140  -1.296  1.00  0.00    -0.298 OA
ENDBRANCH   5  11
TORSDOF 3
ENDMDL
MODEL 3
REMARK VINA RESULT:    -4.719      2.199      3.215
REMARK INTER + INTRA:          -5.486
REMARK INTER:                  -5.413
REMARK INTRA:                  -0.073
REMARK UNBOUND:                -0.077
REMARK SMILES COc1cc(C=O)ccc1O
REMARK SMILES IDX 3 1 10 2 9 3 8 4 5 5 4 6 2 7 1 8 11 9 6 11 7 12
REMARK H PARENT 11 10
REMARK Flexibility Score: inf
ROOT
ATOM      1  C   UNL     1      12.348  24.355  -2.305  1.00  0.00     0.161 A 
ATOM      2  C   UNL     1      13.538  24.460  -1.570  1.00  0.00     0.157 A 
ATOM      3  C   UNL     1      13.892  23.459  -0.658  1.00  0.00     0.051 A 
ATOM      4  C   UNL     1      13.066  22.348  -0.475  1.00  0.00     0.015 A 
ATOM      5  C   UNL     1      11.872  22.227  -1.203  1.00  0.00     0.018 A 
ATOM      6  C   UNL     1      11.518  23.232  -2.117  1.00  0.00     0.062 A 
ENDROOT
BRANCH   1   7
ATOM      7  O   UNL     1      12.028  25.380  -3.208  1.00  0.00    -0.493 OA
ATOM      8  C   UNL     1      11.979  25.222  -4.623  1.00  0.00     0.278 C 
ENDBRANCH   1   7
BRANCH   2   9
ATOM      9  O   UNL     1      14.363  25.569  -1.752  1.00  0.00    -0.504 OA
ATOM     10  H   UNL     1      14.461  26.015  -2.656  1.00  0.00     0.293 HD
ENDBRANCH   2   9
BRANCH   5  11
ATOM     11  C   UNL     1      10.986  21.061  -1.023  1.00  0.00     0.260 C 
ATOM     12  O   UNL     1      10.168  20.721  -1.919  1.00  0.00    -0.298 OA
ENDBRANCH   5  11
TORSDOF 3
ENDMDL
MODEL 4
REMARK VINA RESULT:    -4.150      1.963      3.624
REMARK INTER + INTRA:          -4.833
REMARK INTER:                  -4.764
REMARK INTRA:                  -0.069
REMARK UNBOUND:                -0.077
REMARK SMILES COc1cc(C=O)ccc1O
REMARK SMILES IDX 3 1 10 2 9 3 8 4 5 5 4 6 2 7 1 8 11 9 6 11 7 12
REMARK H PARENT 11 10
REMARK Flexibility Score: inf
ROOT
ATOM      1  C   UNL     1      11.542  21.676  -2.401  1.00  0.00     0.161 A 
ATOM      2  C   UNL     1      11.525  21.731  -1.000  1.00  0.00     0.157 A 
ATOM      3  C   UNL     1      11.770  22.942  -0.341  1.00  0.00     0.051 A 
ATOM      4  C   UNL     1      12.032  24.102  -1.072  1.00  0.00     0.015 A 
ATOM      5  C   UNL     1      12.054  24.064  -2.475  1.00  0.00     0.018 A 
ATOM      6  C   UNL     1      11.808  22.850  -3.134  1.00  0.00     0.062 A 
ENDROOT
BRANCH   1   7
ATOM      7  O   UNL     1      11.293  20.444  -3.024  1.00  0.00    -0.493 OA
ATOM      8  C   UNL     1      10.237  20.208  -3.950  1.00  0.00     0.278 C 
ENDBRANCH   1   7
BRANCH   2   9
ATOM      9  O   UNL     1      11.263  20.574  -0.268  1.00  0.00    -0.504 OA
ATOM     10  H   UNL     1      10.432  20.018  -0.434  1.00  0.00     0.293 HD
ENDBRANCH   2   9
BRANCH   5  11
ATOM     11  C   UNL     1      12.330  25.279  -3.265  1.00  0.00     0.260 C 
ATOM     12  O   UNL     1      11.960  25.372  -4.466  1.00  0.00    -0.298 OA
ENDBRANCH   5  11
TORSDOF 3
ENDMDL
MODEL 5
REMARK VINA RESULT:    -4.127      1.637      4.595
REMARK INTER + INTRA:          -4.807
REMARK INTER:                  -4.782
REMARK INTRA:                  -0.025
REMARK UNBOUND:                -0.077
REMARK SMILES COc1cc(C=O)ccc1O
REMARK SMILES IDX 3 1 10 2 9 3 8 4 5 5 4 6 2 7 1 8 11 9 6 11 7 12
REMARK H PARENT 11 10
REMARK Flexibility Score: inf
ROOT
ATOM      1  C   UNL     1      11.345  21.468  -2.954  1.00  0.00     0.161 A 
ATOM      2  C   UNL     1      11.825  22.512  -3.758  1.00  0.00     0.157 A 
ATOM      3  C   UNL     1      12.091  23.767  -3.198  1.00  0.00     0.051 A 
ATOM      4  C   UNL     1      11.882  23.989  -1.835  1.00  0.00     0.015 A 
ATOM      5  C   UNL     1      11.402  22.955  -1.016  1.00  0.00     0.018 A 
ATOM      6  C   UNL     1      11.135  21.698  -1.579  1.00  0.00     0.062 A 
ENDROOT
BRANCH   1   7
ATOM      7  O   UNL     1      11.089  20.225  -3.554  1.00  0.00    -0.493 OA
ATOM      8  C   UNL     1       9.865  19.875  -4.192  1.00  0.00     0.278 C 
ENDBRANCH   1   7
BRANCH   2   9
ATOM      9  O   UNL     1      12.034  22.292  -5.119  1.00  0.00    -0.504 OA
ATOM     10  H   UNL     1      12.967  22.242  -5.511  1.00  0.00     0.293 HD
ENDBRANCH   2   9
BRANCH   5  11
ATOM     11  C   UNL     1      11.175  23.170   0.426  1.00  0.00     0.260 C 
ATOM     12  O   UNL     1      11.905  22.615   1.289  1.00  0.00    -0.298 OA
ENDBRANCH   5  11
TORSDOF 3
ENDMDL
MODEL 6
REMARK VINA RESULT:    -4.121      1.089      2.298
REMARK INTER + INTRA:          -4.800
REMARK INTER:                  -4.731
REMARK INTRA:                  -0.069
REMARK UNBOUND:                -0.077
REMARK SMILES COc1cc(C=O)ccc1O
REMARK SMILES IDX 3 1 10 2 9 3 8 4 5 5 4 6 2 7 1 8 11 9 6 11 7 12
REMARK H PARENT 11 10
REMARK Flexibility Score: inf
ROOT
ATOM      1  C   UNL     1      11.513  22.197  -1.188  1.00  0.00     0.161 A 
ATOM      2  C   UNL     1      12.657  22.516  -1.934  1.00  0.00     0.157 A 
ATOM      3  C   UNL     1      12.838  21.973  -3.212  1.00  0.00     0.051 A 
ATOM      4  C   UNL     1      11.881  21.113  -3.754  1.00  0.00     0.015 A 
ATOM      5  C   UNL     1      10.731  20.783  -3.020  1.00  0.00     0.018 A 
ATOM      6  C   UNL     1      10.551  21.328  -1.740  1.00  0.00     0.062 A 
ENDROOT
BRANCH   1   7
ATOM      7  O   UNL     1      11.369  22.761   0.089  1.00  0.00    -0.493 OA
ATOM      8  C   UNL     1      10.631  23.947   0.368  1.00  0.00     0.278 C 
ENDBRANCH   1   7
BRANCH   2   9
ATOM      9  O   UNL     1      13.613  23.376  -1.394  1.00  0.00    -0.504 OA
ATOM     10  H   UNL     1      13.398  24.343  -1.183  1.00  0.00     0.293 HD
ENDBRANCH   2   9
BRANCH   5  11
ATOM     11  C   UNL     1       9.709  19.875  -3.576  1.00  0.00     0.260 C 
ATOM     12  O   UNL     1       9.426  19.888  -4.803  1.00  0.00    -0.298 OA
ENDBRANCH   5  11
TORSDOF 3
ENDMDL
MODEL 7
REMARK VINA RESULT:    -4.093      1.891      4.241
REMARK INTER + INTRA:          -4.768
REMARK INTER:                  -4.711
REMARK INTRA:                  -0.056
REMARK UNBOUND:                -0.077
REMARK SMILES COc1cc(C=O)ccc1O
REMARK SMILES IDX 3 1 10 2 9 3 8 4 5 5 4 6 2 7 1 8 11 9 6 11 7 12
REMARK H PARENT 11 10
REMARK Flexibility Score: inf
ROOT
ATOM      1  C   UNL     1      11.885  23.019  -3.566  1.00  0.00     0.161 A 
ATOM      2  C   UNL     1      12.158  24.393  -3.491  1.00  0.00     0.157 A 
ATOM      3  C   UNL     1      12.279  25.019  -2.245  1.00  0.00     0.051 A 
ATOM      4  C   UNL     1      12.131  24.282  -1.068  1.00  0.00     0.015 A 
ATOM      5  C   UNL     1      11.858  22.906  -1.126  1.00  0.00     0.018 A 
ATOM      6  C   UNL     1      11.737  22.279  -2.376  1.00  0.00     0.062 A 
ENDROOT
BRANCH   1   7
ATOM      7  O   UNL     1      11.770  22.429  -4.834  1.00  0.00    -0.493 OA
ATOM      8  C   UNL     1      11.061  21.224  -5.101  1.00  0.00     0.278 C 
ENDBRANCH   1   7
BRANCH   2   9
ATOM      9  O   UNL     1      12.306  25.131  -4.665  1.00  0.00    -0.504 OA
ATOM     10  H   UNL     1      13.047  25.813  -4.772  1.00  0.00     0.293 HD
ENDBRANCH   2   9
BRANCH   5  11
ATOM     11  C   UNL     1      11.698  22.110   0.106  1.00  0.00     0.260 C 
ATOM     12  O   UNL     1      11.677  20.851   0.069  1.00  0.00    -0.298 OA
ENDBRANCH   5  11
TORSDOF 3
ENDMDL
MODEL 8
REMARK VINA RESULT:    -3.790      1.971      2.369
REMARK INTER + INTRA:          -4.421
REMARK INTER:                  -4.345
REMARK INTRA:                  -0.076
REMARK UNBOUND:                -0.077
REMARK SMILES COc1cc(C=O)ccc1O
REMARK SMILES IDX 3 1 10 2 9 3 8 4 5 5 4 6 2 7 1 8 11 9 6 11 7 12
REMARK H PARENT 11 10
REMARK Flexibility Score: inf
ROOT
ATOM      1  C   UNL     1      12.878  22.857  -1.174  1.00  0.00     0.161 A 
ATOM      2  C   UNL     1      12.029  23.948  -0.940  1.00  0.00     0.157 A 
ATOM      3  C   UNL     1      10.641  23.766  -0.915  1.00  0.00     0.051 A 
ATOM      4  C   UNL     1      10.092  22.500  -1.121  1.00  0.00     0.015 A 
ATOM      5  C   UNL     1      10.928  21.397  -1.357  1.00  0.00     0.018 A 
ATOM      6  C   UNL     1      12.319  21.580  -1.382  1.00  0.00     0.062 A 
ENDROOT
BRANCH   1   7
ATOM      7  O   UNL     1      14.264  23.080  -1.193  1.00  0.00    -0.493 OA
ATOM      8  C   UNL     1      15.154  22.711  -0.144  1.00  0.00     0.278 C 
ENDBRANCH   1   7
BRANCH   2   9
ATOM      9  O   UNL     1      12.576  25.214  -0.734  1.00  0.00    -0.504 OA
ATOM     10  H   UNL     1      13.578  25.360  -0.701  1.00  0.00     0.293 HD
ENDBRANCH   2   9
BRANCH   5  11
ATOM     11  C   UNL     1      10.367  20.050  -1.577  1.00  0.00     0.260 C 
ATOM     12  O   UNL     1       9.368  19.876  -2.325  1.00  0.00    -0.298 OA
ENDBRANCH   5  11
TORSDOF 3
ENDMDL
