MODEL 1
REMARK VINA RESULT:    -5.554      0.000      0.000
REMARK INTER + INTRA:          -6.093
REMARK INTER:                  -6.041
REMARK INTRA:                  -0.051
REMARK UNBOUND:                -0.051
REMARK SMILES CCc1cccc(O)c1
REMARK SMILES IDX 3 1 9 2 7 3 6 4 5 5 4 6 2 7 1 8 8 9
REMARK H PARENT 8 10
REMARK Flexibility Score: inf
ROOT
ATOM      1  C   UNL     1     -13.000   0.637  -9.798  1.00  0.00    -0.045 A 
ATOM      2  C   UNL     1     -13.737   1.790  -9.480  1.00  0.00     0.049 A 
ATOM      3  C   UNL     1     -13.078   2.987  -9.165  1.00  0.00     0.115 A 
ATOM      4  C   UNL     1     -11.680   3.030  -9.159  1.00  0.00     0.046 A 
ATOM      5  C   UNL     1     -10.941   1.883  -9.462  1.00  0.00     0.004 A 
ATOM      6  C   UNL     1     -11.596   0.688  -9.776  1.00  0.00     0.004 A 
ENDROOT
BRANCH   1   7
ATOM      7  C   UNL     1     -13.707  -0.657 -10.104  1.00  0.00     0.032 C 
ATOM      8  C   UNL     1     -15.028  -0.741  -9.347  1.00  0.00     0.009 C 
ENDBRANCH   1   7
BRANCH   3   9
ATOM      9  O   UNL     1     -13.802   4.135  -8.854  1.00  0.00    -0.508 OA
ATOM     10  H   UNL     1     -14.645   4.096  -8.294  1.00  0.00     0.293 HD
ENDBRANCH   3   9
TORSDOF 2
ENDMDL
MODEL 2
REMARK VINA RESULT:    -5.390      2.089      2.634
REMARK INTER + INTRA:          -5.914
REMARK INTER:                  -5.865
REMARK INTRA:                  -0.049
REMARK UNBOUND:                -0.051
REMARK SMILES CCc1cccc(O)c1
REMARK SMILES IDX 3 1 9 2 7 3 6 4 5 5 4 6 2 7 1 8 8 9
REMARK H PARENT 8 10
REMARK Flexibility Score: inf
ROOT
ATOM      1  C   UNL     1     -13.578   1.193  -9.727  1.00  0.00    -0.045 A 
ATOM      2  C   UNL     1     -12.532   0.256  -9.702  1.00  0.00     0.049 A 
ATOM      3  C   UNL     1     -11.204   0.681  -9.549  1.00  0.00     0.115 A 
ATOM      4  C   UNL     1     -10.921   2.045  -9.430  1.00  0.00     0.046 A 
ATOM      5  C   UNL     1     -11.956   2.983  -9.467  1.00  0.00     0.004 A 
ATOM      6  C   UNL     1     -13.280   2.562  -9.619  1.00  0.00     0.004 A 
ENDROOT
BRANCH   1   7
ATOM      7  C   UNL     1     -15.000   0.740  -9.925  1.00  0.00     0.032 C 
ATOM      8  C   UNL     1     -15.644   0.386  -8.588  1.00  0.00     0.009 C 
ENDBRANCH   1   7
BRANCH   3   9
ATOM      9  O   UNL     1     -10.162  -0.243  -9.518  1.00  0.00    -0.508 OA
ATOM     10  H   UNL     1      -9.808  -0.673 -10.365  1.00  0.00     0.293 HD
ENDBRANCH   3   9
TORSDOF 2
ENDMDL
MODEL 3
REMARK VINA RESULT:    -5.383      1.843      2.729
REMARK INTER + INTRA:          -5.907
REMARK INTER:                  -5.855
REMARK INTRA:                  -0.051
REMARK UNBOUND:                -0.051
REMARK SMILES CCc1cccc(O)c1
REMARK SMILES IDX 3 1 9 2 7 3 6 4 5 5 4 6 2 7 1 8 8 9
REMARK H PARENT 8 10
REMARK Flexibility Score: inf
ROOT
ATOM      1  C   UNL     1     -11.972   0.594  -9.712  1.00  0.00    -0.045 A 
ATOM      2  C   UNL     1     -10.778   1.316  -9.547  1.00  0.00     0.049 A 
ATOM      3  C   UNL     1     -10.814   2.692  -9.273  1.00  0.00     0.115 A 
ATOM      4  C   UNL     1     -12.045   3.348  -9.171  1.00  0.00     0.046 A 
ATOM      5  C   UNL     1     -13.236   2.638  -9.347  1.00  0.00     0.004 A 
ATOM      6  C   UNL     1     -13.202   1.267  -9.621  1.00  0.00     0.004 A 
ENDROOT
BRANCH   1   7
ATOM      7  C   UNL     1     -11.933  -0.874 -10.039  1.00  0.00     0.032 C 
ATOM      8  C   UNL     1     -10.494  -1.370 -10.124  1.00  0.00     0.009 C 
ENDBRANCH   1   7
BRANCH   3   9
ATOM      9  O   UNL     1      -9.634   3.412  -9.103  1.00  0.00    -0.508 OA
ATOM     10  H   UNL     1      -9.616   4.288  -8.594  1.00  0.00     0.293 HD
ENDBRANCH   3   9
TORSDOF 2
ENDMDL
MODEL 4
REMARK VINA RESULT:    -4.955      1.538      3.467
REMARK INTER + INTRA:          -5.441
REMARK INTER:                  -5.365
REMARK INTRA:                  -0.076
REMARK UNBOUND:                -0.051
REMARK SMILES CCc1cccc(O)c1
REMARK SMILES IDX 3 1 9 2 7 3 6 4 5 5 4 6 2 7 1 8 8 9
REMARK H PARENT 8 10
REMARK Flexibility Score: inf
ROOT
ATOM      1  C   UNL     1     -12.256   2.147  -9.583  1.00  0.00    -0.045 A 
ATOM      2  C   UNL     1     -13.660   2.198  -9.616  1.00  0.00     0.049 A 
ATOM      3  C   UNL     1     -14.409   1.018  -9.735  1.00  0.00     0.115 A 
ATOM      4  C   UNL     1     -13.755  -0.214  -9.830  1.00  0.00     0.046 A 
ATOM      5  C   UNL     1     -12.358  -0.271  -9.811  1.00  0.00     0.004 A 
ATOM      6  C   UNL     1     -11.610   0.904  -9.692  1.00  0.00     0.004 A 
ENDROOT
BRANCH   1   7
ATOM      7  C   UNL     1     -11.451   3.415  -9.488  1.00  0.00     0.032 C 
ATOM      8  C   UNL     1      -9.969   3.131  -9.704  1.00  0.00     0.009 C 
ENDBRANCH   1   7
BRANCH   3   9
ATOM      9  O   UNL     1     -15.801   1.062  -9.763  1.00  0.00    -0.508 OA
ATOM     10  H   UNL     1     -16.328   1.614  -9.096  1.00  0.00     0.293 HD
ENDBRANCH   3   9
TORSDOF 2
ENDMDL
MODEL 5
REMARK VINA RESULT:    -4.799     16.124     16.993
REMARK INTER + INTRA:          -5.271
REMARK INTER:                  -5.221
REMARK INTRA:                  -0.050
REMARK UNBOUND:                -0.051
REMARK SMILES CCc1cccc(O)c1
REMARK SMILES IDX 3 1 9 2 7 3 6 4 5 5 4 6 2 7 1 8 8 9
REMARK H PARENT 8 10
REMARK Flexibility Score: inf
ROOT
ATOM      1  C   UNL     1     -10.559   4.895   6.934  1.00  0.00    -0.045 A 
ATOM      2  C   UNL     1     -10.991   3.916   6.022  1.00  0.00     0.049 A 
ATOM      3  C   UNL     1     -11.835   2.879   6.445  1.00  0.00     0.115 A 
ATOM      4  C   UNL     1     -12.242   2.814   7.781  1.00  0.00     0.046 A 
ATOM      5  C   UNL     1     -11.806   3.778   8.695  1.00  0.00     0.004 A 
ATOM      6  C   UNL     1     -10.965   4.812   8.276  1.00  0.00     0.004 A 
ENDROOT
BRANCH   1   7
ATOM      7  C   UNL     1      -9.627   5.990   6.488  1.00  0.00     0.032 C 
ATOM      8  C   UNL     1      -9.727   6.204   4.982  1.00  0.00     0.009 C 
ENDBRANCH   1   7
BRANCH   3   9
ATOM      9  O   UNL     1     -12.270   1.908   5.545  1.00  0.00    -0.508 OA
ATOM     10  H   UNL     1     -11.891   1.845   4.608  1.00  0.00     0.293 HD
ENDBRANCH   3   9
TORSDOF 2
ENDMDL
MODEL 6
REMARK VINA RESULT:    -4.792     16.194     16.904
REMARK INTER + INTRA:          -5.264
REMARK INTER:                  -5.214
REMARK INTRA:                  -0.050
REMARK UNBOUND:                -0.051
REMARK SMILES CCc1cccc(O)c1
REMARK SMILES IDX 3 1 9 2 7 3 6 4 5 5 4 6 2 7 1 8 8 9
REMARK H PARENT 8 10
REMARK Flexibility Score: inf
ROOT
ATOM      1  C   UNL     1     -11.615   4.390   7.585  1.00  0.00    -0.045 A 
ATOM      2  C   UNL     1     -11.575   3.070   7.106  1.00  0.00     0.049 A 
ATOM      3  C   UNL     1     -11.994   2.778   5.800  1.00  0.00     0.115 A 
ATOM      4  C   UNL     1     -12.460   3.804   4.973  1.00  0.00     0.046 A 
ATOM      5  C   UNL     1     -12.513   5.118   5.447  1.00  0.00     0.004 A 
ATOM      6  C   UNL     1     -12.097   5.411   6.750  1.00  0.00     0.004 A 
ENDROOT
BRANCH   1   7
ATOM      7  C   UNL     1     -11.197   4.699   8.998  1.00  0.00     0.032 C 
ATOM      8  C   UNL     1     -11.916   3.785   9.984  1.00  0.00     0.009 C 
ENDBRANCH   1   7
BRANCH   3   9
ATOM      9  O   UNL     1     -11.952   1.471   5.317  1.00  0.00    -0.508 OA
ATOM     10  H   UNL     1     -12.693   0.809   5.514  1.00  0.00     0.293 HD
ENDBRANCH   3   9
TORSDOF 2
ENDMDL
MODEL 7
REMARK VINA RESULT:    -4.749     14.993     15.935
REMARK INTER + INTRA:          -5.217
REMARK INTER:                  -5.167
REMARK INTRA:                  -0.050
REMARK UNBOUND:                -0.051
REMARK SMILES CCc1cccc(O)c1
REMARK SMILES IDX 3 1 9 2 7 3 6 4 5 5 4 6 2 7 1 8 8 9
REMARK H PARENT 8 10
REMARK Flexibility Score: inf
ROOT
ATOM      1  C   UNL     1     -10.413   4.945   6.160  1.00  0.00    -0.045 A 
ATOM      2  C   UNL     1     -10.856   4.632   4.863  1.00  0.00     0.049 A 
ATOM      3  C   UNL     1     -11.691   3.526   4.648  1.00  0.00     0.115 A 
ATOM      4  C   UNL     1     -12.078   2.727   5.728  1.00  0.00     0.046 A 
ATOM      5  C   UNL     1     -11.631   3.024   7.018  1.00  0.00     0.004 A 
ATOM      6  C   UNL     1     -10.798   4.126   7.235  1.00  0.00     0.004 A 
ENDROOT
BRANCH   1   7
ATOM      7  C   UNL     1      -9.490   6.111   6.387  1.00  0.00     0.032 C 
ATOM      8  C   UNL     1      -9.632   7.137   5.268  1.00  0.00     0.009 C 
ENDBRANCH   1   7
BRANCH   3   9
ATOM      9  O   UNL     1     -12.138   3.214   3.366  1.00  0.00    -0.508 OA
ATOM     10  H   UNL     1     -11.745   3.657   2.544  1.00  0.00     0.293 HD
ENDBRANCH   3   9
TORSDOF 2
ENDMDL
MODEL 8
REMARK VINA RESULT:    -4.728     17.530     18.232
REMARK INTER + INTRA:          -5.193
REMARK INTER:                  -5.120
REMARK INTRA:                  -0.073
REMARK UNBOUND:                -0.051
REMARK SMILES CCc1cccc(O)c1
REMARK SMILES IDX 3 1 9 2 7 3 6 4 5 5 4 6 2 7 1 8 8 9
REMARK H PARENT 8 10
REMARK Flexibility Score: inf
ROOT
ATOM      1  C   UNL     1     -11.324   4.020   7.437  1.00  0.00    -0.045 A 
ATOM      2  C   UNL     1     -11.747   2.745   7.849  1.00  0.00     0.049 A 
ATOM      3  C   UNL     1     -12.079   2.509   9.191  1.00  0.00     0.115 A 
ATOM      4  C   UNL     1     -11.981   3.545  10.124  1.00  0.00     0.046 A 
ATOM      5  C   UNL     1     -11.548   4.813   9.723  1.00  0.00     0.004 A 
ATOM      6  C   UNL     1     -11.216   5.050   8.386  1.00  0.00     0.004 A 
ENDROOT
BRANCH   1   7
ATOM      7  C   UNL     1     -10.935   4.265   6.003  1.00  0.00     0.032 C 
ATOM      8  C   UNL     1      -9.819   5.300   5.917  1.00  0.00     0.009 C 
ENDBRANCH   1   7
BRANCH   3   9
ATOM      9  O   UNL     1     -12.505   1.249   9.605  1.00  0.00    -0.508 OA
ATOM     10  H   UNL     1     -13.173   1.135  10.358  1.00  0.00     0.293 HD
ENDBRANCH   3   9
TORSDOF 2
ENDMDL
