MODEL 1
REMARK VINA RESULT:    -5.192      0.000      0.000
REMARK INTER + INTRA:          -6.991
REMARK INTER:                  -6.710
REMARK INTRA:                  -0.282
REMARK UNBOUND:                -0.282
REMARK SMILES CCCCCCC(=O)[O-]
REMARK SMILES IDX 5 1 6 2 7 3 8 4 9 5 4 6 3 7 2 8 1 9
REMARK H PARENT
REMARK Flexibility Score: inf
ROOT
ATOM      1  C   UNL     1      27.611   3.670   4.062  1.00  0.00     0.006 C 
ENDROOT
BRANCH   1   2
ATOM      2  C   UNL     1      28.677   2.590   4.262  1.00  0.00     0.053 C 
BRANCH   2   3
ATOM      3  C   UNL     1      28.060   1.336   4.794  1.00  0.00     0.041 C 
ATOM      4  O   UNL     1      27.415   1.356   5.876  1.00  0.00    -0.550 OA
ATOM      5  O   UNL     1      28.235   0.134   4.120  1.00  0.00    -0.550 OA
ENDBRANCH   2   3
ENDBRANCH   1   2
BRANCH   1   6
ATOM      6  C   UNL     1      27.736   4.771   5.121  1.00  0.00     0.000 C 
BRANCH   6   7
ATOM      7  C   UNL     1      29.029   5.574   4.932  1.00  0.00    -0.000 C 
BRANCH   7   8
ATOM      8  C   UNL     1      29.734   5.803   6.273  1.00  0.00    -0.003 C 
ATOM      9  C   UNL     1      29.074   4.997   7.388  1.00  0.00     0.004 C 
ENDBRANCH   7   8
ENDBRANCH   6   7
ENDBRANCH   1   6
TORSDOF 5
ENDMDL
MODEL 2
REMARK VINA RESULT:    -5.117      1.123      1.663
REMARK INTER + INTRA:          -6.894
REMARK INTER:                  -6.691
REMARK INTRA:                  -0.203
REMARK UNBOUND:                -0.282
REMARK SMILES CCCCCCC(=O)[O-]
REMARK SMILES IDX 5 1 6 2 7 3 8 4 9 5 4 6 3 7 2 8 1 9
REMARK H PARENT
REMARK Flexibility Score: inf
ROOT
ATOM      1  C   UNL     1      27.704   2.942   4.258  1.00  0.00     0.006 C 
ENDROOT
BRANCH   1   2
ATOM      2  C   UNL     1      27.668   1.780   5.255  1.00  0.00     0.053 C 
BRANCH   2   3
ATOM      3  C   UNL     1      28.437   0.613   4.725  1.00  0.00     0.041 C 
ATOM      4  O   UNL     1      28.706   0.534   3.497  1.00  0.00    -0.550 OA
ATOM      5  O   UNL     1      28.818  -0.415   5.579  1.00  0.00    -0.550 OA
ENDBRANCH   2   3
ENDBRANCH   1   2
BRANCH   1   6
ATOM      6  C   UNL     1      28.154   4.239   4.941  1.00  0.00     0.000 C 
BRANCH   6   7
ATOM      7  C   UNL     1      28.826   3.949   6.288  1.00  0.00    -0.000 C 
BRANCH   7   8
ATOM      8  C   UNL     1      29.301   5.244   6.956  1.00  0.00    -0.003 C 
ATOM      9  C   UNL     1      29.831   6.235   5.923  1.00  0.00     0.004 C 
ENDBRANCH   7   8
ENDBRANCH   6   7
ENDBRANCH   1   6
TORSDOF 5
ENDMDL
MODEL 3
REMARK VINA RESULT:    -4.992      2.736      4.694
REMARK INTER + INTRA:          -6.733
REMARK INTER:                  -6.526
REMARK INTRA:                  -0.207
REMARK UNBOUND:                -0.282
REMARK SMILES CCCCCCC(=O)[O-]
REMARK SMILES IDX 5 1 6 2 7 3 8 4 9 5 4 6 3 7 2 8 1 9
REMARK H PARENT
REMARK Flexibility Score: inf
ROOT
ATOM      1  C   UNL     1      29.166   2.920   5.852  1.00  0.00     0.006 C 
ENDROOT
BRANCH   1   2
ATOM      2  C   UNL     1      29.996   4.169   5.543  1.00  0.00     0.053 C 
BRANCH   2   3
ATOM      3  C   UNL     1      29.601   5.295   6.445  1.00  0.00     0.041 C 
ATOM      4  O   UNL     1      28.950   5.066   7.498  1.00  0.00    -0.550 OA
ATOM      5  O   UNL     1      29.911   6.604   6.098  1.00  0.00    -0.550 OA
ENDBRANCH   2   3
ENDBRANCH   1   2
BRANCH   1   6
ATOM      6  C   UNL     1      28.051   2.730   4.816  1.00  0.00     0.000 C 
BRANCH   6   7
ATOM      7  C   UNL     1      27.569   1.274   4.785  1.00  0.00    -0.000 C 
BRANCH   7   8
ATOM      8  C   UNL     1      28.523   0.363   5.566  1.00  0.00    -0.003 C 
ATOM      9  C   UNL     1      28.868  -0.890   4.765  1.00  0.00     0.004 C 
ENDBRANCH   7   8
ENDBRANCH   6   7
ENDBRANCH   1   6
TORSDOF 5
ENDMDL
MODEL 4
REMARK VINA RESULT:    -2.974     17.275     17.740
REMARK INTER + INTRA:          -4.125
REMARK INTER:                  -3.934
REMARK INTRA:                  -0.191
REMARK UNBOUND:                -0.282
REMARK SMILES CCCCCCC(=O)[O-]
REMARK SMILES IDX 5 1 6 2 7 3 8 4 9 5 4 6 3 7 2 8 1 9
REMARK H PARENT
REMARK Flexibility Score: inf
ROOT
ATOM      1  C   UNL     1      27.864  11.636  20.517  1.00  0.00     0.006 C 
ENDROOT
BRANCH   1   2
ATOM      2  C   UNL     1      27.675  11.023  21.907  1.00  0.00     0.053 C 
BRANCH   2   3
ATOM      3  C   UNL     1      28.368   9.701  21.995  1.00  0.00     0.041 C 
ATOM      4  O   UNL     1      29.626   9.643  22.000  1.00  0.00    -0.550 OA
ATOM      5  O   UNL     1      27.625   8.527  22.024  1.00  0.00    -0.550 OA
ENDBRANCH   2   3
ENDBRANCH   1   2
BRANCH   1   6
ATOM      6  C   UNL     1      28.813  12.839  20.569  1.00  0.00     0.000 C 
BRANCH   6   7
ATOM      7  C   UNL     1      29.123  13.359  19.161  1.00  0.00    -0.000 C 
BRANCH   7   8
ATOM      8  C   UNL     1      30.622  13.631  18.993  1.00  0.00    -0.003 C 
ATOM      9  C   UNL     1      31.427  13.000  20.126  1.00  0.00     0.004 C 
ENDBRANCH   7   8
ENDBRANCH   6   7
ENDBRANCH   1   6
TORSDOF 5
ENDMDL
MODEL 5
REMARK VINA RESULT:    -2.942     16.291     17.498
REMARK INTER + INTRA:          -4.084
REMARK INTER:                  -3.976
REMARK INTRA:                  -0.108
REMARK UNBOUND:                -0.282
REMARK SMILES CCCCCCC(=O)[O-]
REMARK SMILES IDX 5 1 6 2 7 3 8 4 9 5 4 6 3 7 2 8 1 9
REMARK H PARENT
REMARK Flexibility Score: inf
ROOT
ATOM      1  C   UNL     1      27.950  11.785  20.426  1.00  0.00     0.006 C 
ENDROOT
BRANCH   1   2
ATOM      2  C   UNL     1      27.821  11.227  21.846  1.00  0.00     0.053 C 
BRANCH   2   3
ATOM      3  C   UNL     1      28.477   9.887  21.944  1.00  0.00     0.041 C 
ATOM      4  O   UNL     1      27.780   8.839  21.965  1.00  0.00    -0.550 OA
ATOM      5  O   UNL     1      29.859   9.796  22.060  1.00  0.00    -0.550 OA
ENDBRANCH   2   3
ENDBRANCH   1   2
BRANCH   1   6
ATOM      6  C   UNL     1      29.114  12.777  20.328  1.00  0.00     0.000 C 
BRANCH   6   7
ATOM      7  C   UNL     1      29.078  13.540  18.999  1.00  0.00    -0.000 C 
BRANCH   7   8
ATOM      8  C   UNL     1      30.457  13.544  18.329  1.00  0.00    -0.003 C 
ATOM      9  C   UNL     1      30.361  13.993  16.874  1.00  0.00     0.004 C 
ENDBRANCH   7   8
ENDBRANCH   6   7
ENDBRANCH   1   6
TORSDOF 5
ENDMDL
MODEL 6
REMARK VINA RESULT:    -2.939     17.027     17.874
REMARK INTER + INTRA:          -4.080
REMARK INTER:                  -3.885
REMARK INTRA:                  -0.195
REMARK UNBOUND:                -0.282
REMARK SMILES CCCCCCC(=O)[O-]
REMARK SMILES IDX 5 1 6 2 7 3 8 4 9 5 4 6 3 7 2 8 1 9
REMARK H PARENT
REMARK Flexibility Score: inf
ROOT
ATOM      1  C   UNL     1      28.668  12.979  19.803  1.00  0.00     0.006 C 
ENDROOT
BRANCH   1   2
ATOM      2  C   UNL     1      30.181  13.210  19.849  1.00  0.00     0.053 C 
BRANCH   2   3
ATOM      3  C   UNL     1      30.647  13.879  18.595  1.00  0.00     0.041 C 
ATOM      4  O   UNL     1      31.271  14.971  18.654  1.00  0.00    -0.550 OA
ATOM      5  O   UNL     1      30.351  13.321  17.358  1.00  0.00    -0.550 OA
ENDBRANCH   2   3
ENDBRANCH   1   2
BRANCH   1   6
ATOM      6  C   UNL     1      28.264  11.799  20.694  1.00  0.00     0.000 C 
BRANCH   6   7
ATOM      7  C   UNL     1      29.359  11.481  21.719  1.00  0.00    -0.000 C 
BRANCH   7   8
ATOM      8  C   UNL     1      29.452   9.973  21.976  1.00  0.00    -0.003 C 
ATOM      9  C   UNL     1      28.065   9.354  22.130  1.00  0.00     0.004 C 
ENDBRANCH   7   8
ENDBRANCH   6   7
ENDBRANCH   1   6
TORSDOF 5
ENDMDL
MODEL 7
REMARK VINA RESULT:    -2.876     17.359     18.042
REMARK INTER + INTRA:          -3.998
REMARK INTER:                  -3.831
REMARK INTRA:                  -0.167
REMARK UNBOUND:                -0.282
REMARK SMILES CCCCCCC(=O)[O-]
REMARK SMILES IDX 5 1 6 2 7 3 8 4 9 5 4 6 3 7 2 8 1 9
REMARK H PARENT
REMARK Flexibility Score: inf
ROOT
ATOM      1  C   UNL     1      28.675  13.080  20.395  1.00  0.00     0.006 C 
ENDROOT
BRANCH   1   2
ATOM      2  C   UNL     1      29.191  13.362  18.981  1.00  0.00     0.053 C 
BRANCH   2   3
ATOM      3  C   UNL     1      30.639  13.731  19.017  1.00  0.00     0.041 C 
ATOM      4  O   UNL     1      31.060  14.716  18.353  1.00  0.00    -0.550 OA
ATOM      5  O   UNL     1      31.536  12.960  19.745  1.00  0.00    -0.550 OA
ENDBRANCH   2   3
ENDBRANCH   1   2
BRANCH   1   6
ATOM      6  C   UNL     1      27.711  11.887  20.401  1.00  0.00     0.000 C 
BRANCH   6   7
ATOM      7  C   UNL     1      27.556  11.311  21.814  1.00  0.00    -0.000 C 
BRANCH   7   8
ATOM      8  C   UNL     1      28.183   9.916  21.911  1.00  0.00    -0.003 C 
ATOM      9  C   UNL     1      29.692  10.004  22.121  1.00  0.00     0.004 C 
ENDBRANCH   7   8
ENDBRANCH   6   7
ENDBRANCH   1   6
TORSDOF 5
ENDMDL
MODEL 8
REMARK VINA RESULT:    -2.846     18.057     18.869
REMARK INTER + INTRA:          -3.960
REMARK INTER:                  -3.869
REMARK INTRA:                  -0.091
REMARK UNBOUND:                -0.282
REMARK SMILES CCCCCCC(=O)[O-]
REMARK SMILES IDX 5 1 6 2 7 3 8 4 9 5 4 6 3 7 2 8 1 9
REMARK H PARENT
REMARK Flexibility Score: inf
ROOT
ATOM      1  C   UNL     1      30.413  12.185  21.140  1.00  0.00     0.006 C 
ENDROOT
BRANCH   1   2
ATOM      2  C   UNL     1      31.716  12.985  21.218  1.00  0.00     0.053 C 
BRANCH   2   3
ATOM      3  C   UNL     1      31.758  14.024  20.143  1.00  0.00     0.041 C 
ATOM      4  O   UNL     1      31.196  13.814  19.036  1.00  0.00    -0.550 OA
ATOM      5  O   UNL     1      32.460  15.205  20.345  1.00  0.00    -0.550 OA
ENDBRANCH   2   3
ENDBRANCH   1   2
BRANCH   1   6
ATOM      6  C   UNL     1      30.173  11.396  22.432  1.00  0.00     0.000 C 
BRANCH   6   7
ATOM      7  C   UNL     1      29.698   9.970  22.127  1.00  0.00    -0.000 C 
BRANCH   7   8
ATOM      8  C   UNL     1      28.170   9.907  22.035  1.00  0.00    -0.003 C 
ATOM      9  C   UNL     1      27.666   8.476  22.202  1.00  0.00     0.004 C 
ENDBRANCH   7   8
ENDBRANCH   6   7
ENDBRANCH   1   6
TORSDOF 5
ENDMDL
MODEL 9
REMARK VINA RESULT:    -2.732     18.071     18.720
REMARK INTER + INTRA:          -3.812
REMARK INTER:                  -3.562
REMARK INTRA:                  -0.250
REMARK UNBOUND:                -0.282
REMARK SMILES CCCCCCC(=O)[O-]
REMARK SMILES IDX 5 1 6 2 7 3 8 4 9 5 4 6 3 7 2 8 1 9
REMARK H PARENT
REMARK Flexibility Score: inf
ROOT
ATOM      1  C   UNL     1      30.221  11.219  23.052  1.00  0.00     0.006 C 
ENDROOT
BRANCH   1   2
ATOM      2  C   UNL     1      29.728  10.223  21.998  1.00  0.00     0.053 C 
BRANCH   2   3
ATOM      3  C   UNL     1      28.273   9.938  22.187  1.00  0.00     0.041 C 
ATOM      4  O   UNL     1      27.831   8.768  22.040  1.00  0.00    -0.550 OA
ATOM      5  O   UNL     1      27.393  10.973  22.479  1.00  0.00    -0.550 OA
ENDBRANCH   2   3
ENDBRANCH   1   2
BRANCH   1   6
ATOM      6  C   UNL     1      30.901  12.425  22.395  1.00  0.00     0.000 C 
BRANCH   6   7
ATOM      7  C   UNL     1      30.631  12.455  20.886  1.00  0.00    -0.000 C 
BRANCH   7   8
ATOM      8  C   UNL     1      31.640  13.357  20.165  1.00  0.00    -0.003 C 
ATOM      9  C   UNL     1      32.647  13.951  21.146  1.00  0.00     0.004 C 
ENDBRANCH   7   8
ENDBRANCH   6   7
ENDBRANCH   1   6
TORSDOF 5
ENDMDL
