MODEL 1
REMARK VINA RESULT:    -0.067      0.000      0.000
REMARK INTER + INTRA:          -0.258
REMARK INTER:                  -0.082
REMARK INTRA:                  -0.176
REMARK UNBOUND:                -0.176
REMARK SMILES Oc1cc(O)c2cc(O)c(-c3cc(O)c(O)c(O)c3)[o+]c2c1
REMARK SMILES IDX 10 1 20 2 21 3 22 4 2 5 3 6 4 7 6 8 7 9 8 10 11 11 12 12
REMARK SMILES IDX 13 13 19 14 15 15 17 16 14 17 16 19 18 21 9 23 1 25 5 27
REMARK H PARENT 14 18 16 20 18 22 9 24 1 26 5 28
REMARK Flexibility Score: inf
ROOT
ATOM      1  C   UNL     1      39.222  21.996  36.658  1.00  0.00     0.402 A 
ATOM      2  O   UNL     1      40.199  21.473  35.921  1.00  0.00    -0.202 OA
ATOM      3  C   UNL     1      40.041  20.397  35.157  1.00  0.00     0.368 A 
ATOM      4  C   UNL     1      41.129  19.919  34.422  1.00  0.00     0.162 A 
ATOM      5  C   UNL     1      40.991  18.788  33.612  1.00  0.00     0.128 A 
ATOM      6  C   UNL     1      39.760  18.132  33.538  1.00  0.00     0.093 A 
ATOM      7  C   UNL     1      38.655  18.591  34.265  1.00  0.00     0.136 A 
ATOM      8  C   UNL     1      38.789  19.740  35.087  1.00  0.00     0.125 A 
ATOM      9  C   UNL     1      37.733  20.278  35.841  1.00  0.00     0.078 A 
ATOM     10  C   UNL     1      37.940  21.417  36.624  1.00  0.00     0.223 A 
ENDROOT
BRANCH   1  11
ATOM     11  C   UNL     1      39.526  23.192  37.477  1.00  0.00     0.091 A 
ATOM     12  C   UNL     1      40.507  23.159  38.483  1.00  0.00     0.068 A 
ATOM     13  C   UNL     1      40.796  24.307  39.232  1.00  0.00     0.162 A 
ATOM     14  C   UNL     1      38.863  24.399  37.208  1.00  0.00     0.068 A 
ATOM     15  C   UNL     1      40.111  25.507  38.972  1.00  0.00     0.200 A 
ATOM     16  C   UNL     1      39.145  25.549  37.953  1.00  0.00     0.162 A 
BRANCH  13  17
ATOM     17  O   UNL     1      41.767  24.262  40.233  1.00  0.00    -0.504 OA
ATOM     18  H   UNL     1      42.291  23.416  40.427  1.00  0.00     0.293 HD
ENDBRANCH  13  17
BRANCH  15  19
ATOM     19  O   UNL     1      40.383  26.658  39.713  1.00  0.00    -0.502 OA
ATOM     20  H   UNL     1      39.712  27.411  39.807  1.00  0.00     0.293 HD
ENDBRANCH  15  19
BRANCH  16  21
ATOM     21  O   UNL     1      38.453  26.725  37.664  1.00  0.00    -0.504 OA
ATOM     22  H   UNL     1      37.569  26.723  37.169  1.00  0.00     0.293 HD
ENDBRANCH  16  21
ENDBRANCH   1  11
BRANCH  10  23
ATOM     23  O   UNL     1      36.879  21.981  37.333  1.00  0.00    -0.500 OA
ATOM     24  H   UNL     1      36.348  21.446  38.010  1.00  0.00     0.294 HD
ENDBRANCH  10  23
BRANCH   5  25
ATOM     25  O   UNL     1      42.071  18.307  32.875  1.00  0.00    -0.507 OA
ATOM     26  H   UNL     1      41.955  17.960  31.930  1.00  0.00     0.293 HD
ENDBRANCH   5  25
BRANCH   7  27
ATOM     27  O   UNL     1      37.461  17.875  34.140  1.00  0.00    -0.507 OA
ATOM     28  H   UNL     1      37.204  17.332  33.328  1.00  0.00     0.293 HD
ENDBRANCH   7  27
TORSDOF 7
ENDMDL
MODEL 2
REMARK VINA RESULT:     0.216      0.077      1.796
REMARK INTER + INTRA:           0.090
REMARK INTER:                   0.276
REMARK INTRA:                  -0.186
REMARK UNBOUND:                -0.176
REMARK SMILES Oc1cc(O)c2cc(O)c(-c3cc(O)c(O)c(O)c3)[o+]c2c1
REMARK SMILES IDX 10 1 20 2 21 3 22 4 2 5 3 6 4 7 6 8 7 9 8 10 11 11 12 12
REMARK SMILES IDX 13 13 19 14 15 15 17 16 14 17 16 19 18 21 9 23 1 25 5 27
REMARK H PARENT 14 18 16 20 18 22 9 24 1 26 5 28
REMARK Flexibility Score: inf
ROOT
ATOM      1  C   UNL     1      39.234  22.076  36.640  1.00  0.00     0.402 A 
ATOM      2  O   UNL     1      40.205  21.554  35.894  1.00  0.00    -0.202 OA
ATOM      3  C   UNL     1      40.050  20.460  35.155  1.00  0.00     0.368 A 
ATOM      4  C   UNL     1      41.132  19.986  34.408  1.00  0.00     0.162 A 
ATOM      5  C   UNL     1      40.997  18.836  33.624  1.00  0.00     0.128 A 
ATOM      6  C   UNL     1      39.777  18.158  33.588  1.00  0.00     0.093 A 
ATOM      7  C   UNL     1      38.678  18.613  34.328  1.00  0.00     0.136 A 
ATOM      8  C   UNL     1      38.808  19.781  35.123  1.00  0.00     0.125 A 
ATOM      9  C   UNL     1      37.759  20.317  35.887  1.00  0.00     0.078 A 
ATOM     10  C   UNL     1      37.961  21.475  36.643  1.00  0.00     0.223 A 
ENDROOT
BRANCH   1  11
ATOM     11  C   UNL     1      39.533  23.293  37.428  1.00  0.00     0.091 A 
ATOM     12  C   UNL     1      38.846  24.498  37.203  1.00  0.00     0.068 A 
ATOM     13  C   UNL     1      39.128  25.633  37.975  1.00  0.00     0.162 A 
ATOM     14  C   UNL     1      40.482  23.230  38.459  1.00  0.00     0.068 A 
ATOM     15  C   UNL     1      40.097  25.568  38.991  1.00  0.00     0.200 A 
ATOM     16  C   UNL     1      40.771  24.360  39.233  1.00  0.00     0.162 A 
BRANCH  13  17
ATOM     17  O   UNL     1      38.444  26.826  37.739  1.00  0.00    -0.504 OA
ATOM     18  H   UNL     1      38.376  27.224  36.809  1.00  0.00     0.293 HD
ENDBRANCH  13  17
BRANCH  15  19
ATOM     19  O   UNL     1      40.394  26.690  39.766  1.00  0.00    -0.502 OA
ATOM     20  H   UNL     1      39.701  27.399  39.978  1.00  0.00     0.293 HD
ENDBRANCH  15  19
BRANCH  16  21
ATOM     21  O   UNL     1      41.732  24.259  40.239  1.00  0.00    -0.504 OA
ATOM     22  H   UNL     1      42.667  24.635  40.131  1.00  0.00     0.293 HD
ENDBRANCH  16  21
ENDBRANCH   1  11
BRANCH  10  23
ATOM     23  O   UNL     1      36.905  22.036  37.362  1.00  0.00    -0.500 OA
ATOM     24  H   UNL     1      36.082  21.497  37.604  1.00  0.00     0.294 HD
ENDBRANCH  10  23
BRANCH   5  25
ATOM     25  O   UNL     1      42.071  18.359  32.876  1.00  0.00    -0.507 OA
ATOM     26  H   UNL     1      43.028  18.467  33.192  1.00  0.00     0.293 HD
ENDBRANCH   5  25
BRANCH   7  27
ATOM     27  O   UNL     1      37.494  17.875  34.241  1.00  0.00    -0.507 OA
ATOM     28  H   UNL     1      36.848  17.924  33.467  1.00  0.00     0.293 HD
ENDBRANCH   7  27
TORSDOF 7
ENDMDL
