MODEL 1
REMARK VINA RESULT:    -4.169      0.000      0.000
REMARK INTER + INTRA:          -4.943
REMARK INTER:                  -4.779
REMARK INTRA:                  -0.164
REMARK UNBOUND:                -0.164
REMARK SMILES CC=Cc1ccc(O)c(OC)c1
REMARK SMILES IDX 4 1 12 2 9 3 7 4 6 5 5 6 3 7 1 8 2 9 10 10 11 11 8 12
REMARK H PARENT 8 13
REMARK Flexibility Score: inf
ROOT
ATOM      1  C   UNL     1      28.851  31.166  23.550  1.00  0.00    -0.022 A 
ATOM      2  C   UNL     1      28.761  30.950  24.935  1.00  0.00     0.058 A 
ATOM      3  C   UNL     1      28.761  29.645  25.467  1.00  0.00     0.161 A 
ATOM      4  C   UNL     1      28.844  28.548  24.592  1.00  0.00     0.157 A 
ATOM      5  C   UNL     1      28.918  28.758  23.213  1.00  0.00     0.051 A 
ATOM      6  C   UNL     1      28.917  30.053  22.691  1.00  0.00     0.012 A 
ENDROOT
BRANCH   1   7
ATOM      7  C   UNL     1      28.836  32.561  23.046  1.00  0.00     0.003 C 
ATOM      8  C   UNL     1      29.101  34.336  21.358  1.00  0.00     0.035 C 
ATOM      9  C   UNL     1      29.124  32.904  21.785  1.00  0.00    -0.030 C 
ENDBRANCH   1   7
BRANCH   3  10
ATOM     10  O   UNL     1      28.682  29.405  26.848  1.00  0.00    -0.493 OA
ATOM     11  C   UNL     1      29.091  30.325  27.854  1.00  0.00     0.278 C 
ENDBRANCH   3  10
BRANCH   4  12
ATOM     12  O   UNL     1      28.849  27.240  25.075  1.00  0.00    -0.504 OA
ATOM     13  H   UNL     1      28.489  26.463  24.534  1.00  0.00     0.293 HD
ENDBRANCH   4  12
TORSDOF 3
ENDMDL
MODEL 2
REMARK VINA RESULT:    -4.079      5.884      8.627
REMARK INTER + INTRA:          -4.839
REMARK INTER:                  -4.681
REMARK INTRA:                  -0.158
REMARK UNBOUND:                -0.164
REMARK SMILES CC=Cc1ccc(O)c(OC)c1
REMARK SMILES IDX 4 1 12 2 9 3 7 4 6 5 5 6 3 7 1 8 2 9 10 10 11 11 8 12
REMARK H PARENT 8 13
REMARK Flexibility Score: inf
ROOT
ATOM      1  C   UNL     1      27.891  35.895  20.889  1.00  0.00    -0.022 A 
ATOM      2  C   UNL     1      26.638  36.421  21.247  1.00  0.00     0.058 A 
ATOM      3  C   UNL     1      26.101  37.536  20.575  1.00  0.00     0.161 A 
ATOM      4  C   UNL     1      26.839  38.131  19.536  1.00  0.00     0.157 A 
ATOM      5  C   UNL     1      28.092  37.621  19.187  1.00  0.00     0.051 A 
ATOM      6  C   UNL     1      28.619  36.515  19.857  1.00  0.00     0.012 A 
ENDROOT
BRANCH   1   7
ATOM      7  C   UNL     1      28.411  34.725  21.639  1.00  0.00     0.003 C 
ATOM      8  C   UNL     1      28.588  33.195  23.563  1.00  0.00     0.035 C 
ATOM      9  C   UNL     1      28.003  34.382  22.866  1.00  0.00    -0.030 C 
ENDBRANCH   1   7
BRANCH   3  10
ATOM     10  O   UNL     1      24.847  38.073  20.908  1.00  0.00    -0.493 OA
ATOM     11  C   UNL     1      23.680  37.301  21.167  1.00  0.00     0.278 C 
ENDBRANCH   3  10
BRANCH   4  12
ATOM     12  O   UNL     1      26.345  39.236  18.843  1.00  0.00    -0.504 OA
ATOM     13  H   UNL     1      26.752  40.159  18.935  1.00  0.00     0.293 HD
ENDBRANCH   4  12
TORSDOF 3
ENDMDL
MODEL 3
REMARK VINA RESULT:    -4.072      9.235     11.437
REMARK INTER + INTRA:          -4.831
REMARK INTER:                  -4.682
REMARK INTRA:                  -0.149
REMARK UNBOUND:                -0.164
REMARK SMILES CC=Cc1ccc(O)c(OC)c1
REMARK SMILES IDX 4 1 12 2 9 3 7 4 6 5 5 6 3 7 1 8 2 9 10 10 11 11 8 12
REMARK H PARENT 8 13
REMARK Flexibility Score: inf
ROOT
ATOM      1  C   UNL     1      26.615  41.378  20.906  1.00  0.00    -0.022 A 
ATOM      2  C   UNL     1      26.076  40.081  20.943  1.00  0.00     0.058 A 
ATOM      3  C   UNL     1      26.234  39.199  19.856  1.00  0.00     0.161 A 
ATOM      4  C   UNL     1      26.935  39.633  18.717  1.00  0.00     0.157 A 
ATOM      5  C   UNL     1      27.459  40.927  18.670  1.00  0.00     0.051 A 
ATOM      6  C   UNL     1      27.300  41.797  19.750  1.00  0.00     0.012 A 
ENDROOT
BRANCH   1   7
ATOM      7  C   UNL     1      26.409  42.267  22.075  1.00  0.00     0.003 C 
ATOM      8  C   UNL     1      27.102  43.571  24.048  1.00  0.00     0.035 C 
ATOM      9  C   UNL     1      27.394  42.687  22.879  1.00  0.00    -0.030 C 
ENDBRANCH   1   7
BRANCH   3  10
ATOM     10  O   UNL     1      25.713  37.895  19.874  1.00  0.00    -0.493 OA
ATOM     11  C   UNL     1      24.805  37.400  20.852  1.00  0.00     0.278 C 
ENDBRANCH   3  10
BRANCH   4  12
ATOM     12  O   UNL     1      27.117  38.793  17.619  1.00  0.00    -0.504 OA
ATOM     13  H   UNL     1      27.800  38.987  16.897  1.00  0.00     0.293 HD
ENDBRANCH   4  12
TORSDOF 3
ENDMDL
MODEL 4
REMARK VINA RESULT:    -4.035      6.988     10.001
REMARK INTER + INTRA:          -4.789
REMARK INTER:                  -4.663
REMARK INTRA:                  -0.126
REMARK UNBOUND:                -0.164
REMARK SMILES CC=Cc1ccc(O)c(OC)c1
REMARK SMILES IDX 4 1 12 2 9 3 7 4 6 5 5 6 3 7 1 8 2 9 10 10 11 11 8 12
REMARK H PARENT 8 13
REMARK Flexibility Score: inf
ROOT
ATOM      1  C   UNL     1      27.762  37.156  20.117  1.00  0.00    -0.022 A 
ATOM      2  C   UNL     1      26.851  38.084  20.648  1.00  0.00     0.058 A 
ATOM      3  C   UNL     1      26.654  39.338  20.037  1.00  0.00     0.161 A 
ATOM      4  C   UNL     1      27.391  39.662  18.884  1.00  0.00     0.157 A 
ATOM      5  C   UNL     1      28.310  38.748  18.362  1.00  0.00     0.051 A 
ATOM      6  C   UNL     1      28.500  37.507  18.971  1.00  0.00     0.012 A 
ENDROOT
BRANCH   1   7
ATOM      7  C   UNL     1      27.936  35.855  20.809  1.00  0.00     0.003 C 
ATOM      8  C   UNL     1      28.759  33.546  21.066  1.00  0.00     0.035 C 
ATOM      9  C   UNL     1      28.643  34.833  20.313  1.00  0.00    -0.030 C 
ENDBRANCH   1   7
BRANCH   3  10
ATOM     10  O   UNL     1      25.742  40.278  20.543  1.00  0.00    -0.493 OA
ATOM     11  C   UNL     1      26.093  41.380  21.373  1.00  0.00     0.278 C 
ENDBRANCH   3  10
BRANCH   4  12
ATOM     12  O   UNL     1      27.227  40.891  18.246  1.00  0.00    -0.504 OA
ATOM     13  H   UNL     1      26.636  41.002  17.431  1.00  0.00     0.293 HD
ENDBRANCH   4  12
TORSDOF 3
ENDMDL
MODEL 5
REMARK VINA RESULT:    -3.991      8.446     10.343
REMARK INTER + INTRA:          -4.739
REMARK INTER:                  -4.585
REMARK INTRA:                  -0.154
REMARK UNBOUND:                -0.164
REMARK SMILES CC=Cc1ccc(O)c(OC)c1
REMARK SMILES IDX 4 1 12 2 9 3 7 4 6 5 5 6 3 7 1 8 2 9 10 10 11 11 8 12
REMARK H PARENT 8 13
REMARK Flexibility Score: inf
ROOT
ATOM      1  C   UNL     1      26.860  40.449  20.233  1.00  0.00    -0.022 A 
ATOM      2  C   UNL     1      25.764  39.614  20.507  1.00  0.00     0.058 A 
ATOM      3  C   UNL     1      25.927  38.219  20.624  1.00  0.00     0.161 A 
ATOM      4  C   UNL     1      27.207  37.662  20.455  1.00  0.00     0.157 A 
ATOM      5  C   UNL     1      28.296  38.488  20.167  1.00  0.00     0.051 A 
ATOM      6  C   UNL     1      28.129  39.868  20.052  1.00  0.00     0.012 A 
ENDROOT
BRANCH   1   7
ATOM      7  C   UNL     1      26.627  41.909  20.109  1.00  0.00     0.003 C 
ATOM      8  C   UNL     1      26.711  44.105  18.994  1.00  0.00     0.035 C 
ATOM      9  C   UNL     1      26.967  42.633  19.036  1.00  0.00    -0.030 C 
ENDBRANCH   1   7
BRANCH   3  10
ATOM     10  O   UNL     1      24.849  37.365  20.908  1.00  0.00    -0.493 OA
ATOM     11  C   UNL     1      23.534  37.804  21.231  1.00  0.00     0.278 C 
ENDBRANCH   3  10
BRANCH   4  12
ATOM     12  O   UNL     1      27.415  36.287  20.565  1.00  0.00    -0.504 OA
ATOM     13  H   UNL     1      28.297  35.853  20.322  1.00  0.00     0.293 HD
ENDBRANCH   4  12
TORSDOF 3
ENDMDL
MODEL 6
REMARK VINA RESULT:    -3.893      6.472      9.479
REMARK INTER + INTRA:          -4.627
REMARK INTER:                  -4.462
REMARK INTRA:                  -0.165
REMARK UNBOUND:                -0.164
REMARK SMILES CC=Cc1ccc(O)c(OC)c1
REMARK SMILES IDX 4 1 12 2 9 3 7 4 6 5 5 6 3 7 1 8 2 9 10 10 11 11 8 12
REMARK H PARENT 8 13
REMARK Flexibility Score: inf
ROOT
ATOM      1  C   UNL     1      27.709  36.311  20.548  1.00  0.00    -0.022 A 
ATOM      2  C   UNL     1      28.169  37.168  19.535  1.00  0.00     0.058 A 
ATOM      3  C   UNL     1      27.536  38.402  19.286  1.00  0.00     0.161 A 
ATOM      4  C   UNL     1      26.421  38.769  20.061  1.00  0.00     0.157 A 
ATOM      5  C   UNL     1      25.951  37.912  21.059  1.00  0.00     0.051 A 
ATOM      6  C   UNL     1      26.582  36.691  21.301  1.00  0.00     0.012 A 
ENDROOT
BRANCH   1   7
ATOM      7  C   UNL     1      28.409  35.020  20.759  1.00  0.00     0.003 C 
ATOM      8  C   UNL     1      29.124  33.043  22.045  1.00  0.00     0.035 C 
ATOM      9  C   UNL     1      28.379  34.331  21.907  1.00  0.00    -0.030 C 
ENDBRANCH   1   7
BRANCH   3  10
ATOM     10  O   UNL     1      27.983  39.280  18.286  1.00  0.00    -0.493 OA
ATOM     11  C   UNL     1      28.508  38.871  17.027  1.00  0.00     0.278 C 
ENDBRANCH   3  10
BRANCH   4  12
ATOM     12  O   UNL     1      25.764  39.981  19.850  1.00  0.00    -0.504 OA
ATOM     13  H   UNL     1      25.750  40.717  20.546  1.00  0.00     0.293 HD
ENDBRANCH   4  12
TORSDOF 3
ENDMDL
MODEL 7
REMARK VINA RESULT:    -3.872      2.634      4.901
REMARK INTER + INTRA:          -4.603
REMARK INTER:                  -4.477
REMARK INTRA:                  -0.126
REMARK UNBOUND:                -0.164
REMARK SMILES CC=Cc1ccc(O)c(OC)c1
REMARK SMILES IDX 4 1 12 2 9 3 7 4 6 5 5 6 3 7 1 8 2 9 10 10 11 11 8 12
REMARK H PARENT 8 13
REMARK Flexibility Score: inf
ROOT
ATOM      1  C   UNL     1      27.832  28.709  24.481  1.00  0.00    -0.022 A 
ATOM      2  C   UNL     1      27.731  30.057  24.865  1.00  0.00     0.058 A 
ATOM      3  C   UNL     1      28.155  31.089  24.004  1.00  0.00     0.161 A 
ATOM      4  C   UNL     1      28.694  30.757  22.748  1.00  0.00     0.157 A 
ATOM      5  C   UNL     1      28.810  29.417  22.370  1.00  0.00     0.051 A 
ATOM      6  C   UNL     1      28.388  28.399  23.226  1.00  0.00     0.012 A 
ENDROOT
BRANCH   1   7
ATOM      7  C   UNL     1      27.379  27.664  25.432  1.00  0.00     0.003 C 
ATOM      8  C   UNL     1      27.374  25.429  26.469  1.00  0.00     0.035 C 
ATOM      9  C   UNL     1      27.896  26.431  25.491  1.00  0.00    -0.030 C 
ENDBRANCH   1   7
BRANCH   3  10
ATOM     10  O   UNL     1      28.056  32.443  24.361  1.00  0.00    -0.493 OA
ATOM     11  C   UNL     1      29.125  33.221  24.890  1.00  0.00     0.278 C 
ENDBRANCH   3  10
BRANCH   4  12
ATOM     12  O   UNL     1      29.125  31.746  21.865  1.00  0.00    -0.504 OA
ATOM     13  H   UNL     1      29.194  31.586  20.867  1.00  0.00     0.293 HD
ENDBRANCH   4  12
TORSDOF 3
ENDMDL
MODEL 8
REMARK VINA RESULT:    -3.601      3.333      5.279
REMARK INTER + INTRA:          -4.292
REMARK INTER:                  -4.125
REMARK INTRA:                  -0.167
REMARK UNBOUND:                -0.164
REMARK SMILES CC=Cc1ccc(O)c(OC)c1
REMARK SMILES IDX 4 1 12 2 9 3 7 4 6 5 5 6 3 7 1 8 2 9 10 10 11 11 8 12
REMARK H PARENT 8 13
REMARK Flexibility Score: inf
ROOT
ATOM      1  C   UNL     1      28.614  31.562  23.724  1.00  0.00    -0.022 A 
ATOM      2  C   UNL     1      28.126  32.806  24.159  1.00  0.00     0.058 A 
ATOM      3  C   UNL     1      28.122  33.923  23.300  1.00  0.00     0.161 A 
ATOM      4  C   UNL     1      28.624  33.785  21.993  1.00  0.00     0.157 A 
ATOM      5  C   UNL     1      29.124  32.554  21.563  1.00  0.00     0.051 A 
ATOM      6  C   UNL     1      29.125  31.451  22.418  1.00  0.00     0.012 A 
ENDROOT
BRANCH   1   7
ATOM      7  C   UNL     1      28.603  30.423  24.675  1.00  0.00     0.003 C 
ATOM      8  C   UNL     1      29.065  29.283  26.810  1.00  0.00     0.035 C 
ATOM      9  C   UNL     1      29.101  30.481  25.916  1.00  0.00    -0.030 C 
ENDBRANCH   1   7
BRANCH   3  10
ATOM     10  O   UNL     1      27.631  35.174  23.708  1.00  0.00    -0.493 OA
ATOM     11  C   UNL     1      26.263  35.453  23.988  1.00  0.00     0.278 C 
ENDBRANCH   3  10
BRANCH   4  12
ATOM     12  O   UNL     1      28.638  34.864  21.109  1.00  0.00    -0.504 OA
ATOM     13  H   UNL     1      29.017  35.767  21.365  1.00  0.00     0.293 HD
ENDBRANCH   4  12
TORSDOF 3
ENDMDL
MODEL 9
REMARK VINA RESULT:    -3.567      2.748      5.313
REMARK INTER + INTRA:          -4.253
REMARK INTER:                  -4.104
REMARK INTRA:                  -0.149
REMARK UNBOUND:                -0.164
REMARK SMILES CC=Cc1ccc(O)c(OC)c1
REMARK SMILES IDX 4 1 12 2 9 3 7 4 6 5 5 6 3 7 1 8 2 9 10 10 11 11 8 12
REMARK H PARENT 8 13
REMARK Flexibility Score: inf
ROOT
ATOM      1  C   UNL     1      27.773  27.477  25.296  1.00  0.00    -0.022 A 
ATOM      2  C   UNL     1      28.358  28.440  26.136  1.00  0.00     0.058 A 
ATOM      3  C   UNL     1      28.316  29.810  25.809  1.00  0.00     0.161 A 
ATOM      4  C   UNL     1      27.684  30.211  24.618  1.00  0.00     0.157 A 
ATOM      5  C   UNL     1      27.114  29.255  23.773  1.00  0.00     0.051 A 
ATOM      6  C   UNL     1      27.159  27.900  24.102  1.00  0.00     0.012 A 
ENDROOT
BRANCH   1   7
ATOM      7  C   UNL     1      27.858  26.048  25.686  1.00  0.00     0.003 C 
ATOM      8  C   UNL     1      26.991  23.901  26.530  1.00  0.00     0.035 C 
ATOM      9  C   UNL     1      26.821  25.336  26.144  1.00  0.00    -0.030 C 
ENDBRANCH   1   7
BRANCH   3  10
ATOM     10  O   UNL     1      28.884  30.790  26.637  1.00  0.00    -0.493 OA
ATOM     11  C   UNL     1      29.125  30.631  28.031  1.00  0.00     0.278 C 
ENDBRANCH   3  10
BRANCH   4  12
ATOM     12  O   UNL     1      27.617  31.556  24.256  1.00  0.00    -0.504 OA
ATOM     13  H   UNL     1      26.749  31.998  23.977  1.00  0.00     0.293 HD
ENDBRANCH   4  12
TORSDOF 3
ENDMDL
