MODEL 1
REMARK VINA RESULT:    -3.361      0.000      0.000
REMARK INTER + INTRA:          -4.357
REMARK INTER:                  -4.146
REMARK INTRA:                  -0.211
REMARK UNBOUND:                -0.211
REMARK SMILES CCCCCC(=O)[O-]
REMARK SMILES IDX 4 1 5 2 6 3 7 4 8 5 3 6 2 7 1 8
REMARK H PARENT
REMARK Flexibility Score: inf
ROOT
ATOM      1  C   UNL     1      24.300   7.250  26.388  1.00  0.00     0.006 C 
ENDROOT
BRANCH   1   2
ATOM      2  C   UNL     1      25.417   6.259  26.752  1.00  0.00     0.053 C 
BRANCH   2   3
ATOM      3  C   UNL     1      26.686   6.959  27.130  1.00  0.00     0.041 C 
ATOM      4  O   UNL     1      27.570   7.182  26.262  1.00  0.00    -0.550 OA
ATOM      5  O   UNL     1      26.877   7.395  28.435  1.00  0.00    -0.550 OA
ENDBRANCH   2   3
ENDBRANCH   1   2
BRANCH   1   6
ATOM      6  C   UNL     1      23.503   7.777  27.595  1.00  0.00     0.000 C 
BRANCH   6   7
ATOM      7  C   UNL     1      23.289   9.297  27.548  1.00  0.00    -0.003 C 
ATOM      8  C   UNL     1      24.622  10.040  27.555  1.00  0.00     0.004 C 
ENDBRANCH   6   7
ENDBRANCH   1   6
TORSDOF 4
ENDMDL
MODEL 2
REMARK VINA RESULT:    -3.148      1.631      1.929
REMARK INTER + INTRA:          -4.095
REMARK INTER:                  -3.833
REMARK INTRA:                  -0.262
REMARK UNBOUND:                -0.211
REMARK SMILES CCCCCC(=O)[O-]
REMARK SMILES IDX 4 1 5 2 6 3 7 4 8 5 3 6 2 7 1 8
REMARK H PARENT
REMARK Flexibility Score: inf
ROOT
ATOM      1  C   UNL     1      25.137   6.610  26.999  1.00  0.00     0.006 C 
ENDROOT
BRANCH   1   2
ATOM      2  C   UNL     1      26.404   7.473  26.891  1.00  0.00     0.053 C 
BRANCH   2   3
ATOM      3  C   UNL     1      26.410   8.309  25.648  1.00  0.00     0.041 C 
ATOM      4  O   UNL     1      26.453   7.761  24.515  1.00  0.00    -0.550 OA
ATOM      5  O   UNL     1      26.334   9.693  25.741  1.00  0.00    -0.550 OA
ENDBRANCH   2   3
ENDBRANCH   1   2
BRANCH   1   6
ATOM      6  C   UNL     1      23.824   7.386  26.797  1.00  0.00     0.000 C 
BRANCH   6   7
ATOM      7  C   UNL     1      23.479   8.292  27.988  1.00  0.00    -0.003 C 
ATOM      8  C   UNL     1      23.199   9.721  27.529  1.00  0.00     0.004 C 
ENDBRANCH   6   7
ENDBRANCH   1   6
TORSDOF 4
ENDMDL
MODEL 3
REMARK VINA RESULT:    -3.131      2.035      3.459
REMARK INTER + INTRA:          -4.073
REMARK INTER:                  -3.792
REMARK INTRA:                  -0.281
REMARK UNBOUND:                -0.211
REMARK SMILES CCCCCC(=O)[O-]
REMARK SMILES IDX 4 1 5 2 6 3 7 4 8 5 3 6 2 7 1 8
REMARK H PARENT
REMARK Flexibility Score: inf
ROOT
ATOM      1  C   UNL     1      24.811   7.089  27.137  1.00  0.00     0.006 C 
ENDROOT
BRANCH   1   2
ATOM      2  C   UNL     1      24.108   7.911  28.229  1.00  0.00     0.053 C 
BRANCH   2   3
ATOM      3  C   UNL     1      24.777   9.232  28.454  1.00  0.00     0.041 C 
ATOM      4  O   UNL     1      25.234   9.527  29.589  1.00  0.00    -0.550 OA
ATOM      5  O   UNL     1      24.924  10.124  27.399  1.00  0.00    -0.550 OA
ENDBRANCH   2   3
ENDBRANCH   1   2
BRANCH   1   6
ATOM      6  C   UNL     1      26.304   6.829  27.402  1.00  0.00     0.000 C 
BRANCH   6   7
ATOM      7  C   UNL     1      27.211   7.387  26.294  1.00  0.00    -0.003 C 
ATOM      8  C   UNL     1      26.389   7.855  25.096  1.00  0.00     0.004 C 
ENDBRANCH   6   7
ENDBRANCH   1   6
TORSDOF 4
ENDMDL
MODEL 4
REMARK VINA RESULT:    -3.122      2.139      3.694
REMARK INTER + INTRA:          -4.063
REMARK INTER:                  -3.820
REMARK INTRA:                  -0.243
REMARK UNBOUND:                -0.211
REMARK SMILES CCCCCC(=O)[O-]
REMARK SMILES IDX 4 1 5 2 6 3 7 4 8 5 3 6 2 7 1 8
REMARK H PARENT
REMARK Flexibility Score: inf
ROOT
ATOM      1  C   UNL     1      26.138   8.337  25.646  1.00  0.00     0.006 C 
ENDROOT
BRANCH   1   2
ATOM      2  C   UNL     1      25.798   9.716  26.235  1.00  0.00     0.053 C 
BRANCH   2   3
ATOM      3  C   UNL     1      24.789   9.621  27.338  1.00  0.00     0.041 C 
ATOM      4  O   UNL     1      23.573   9.433  27.071  1.00  0.00    -0.550 OA
ATOM      5  O   UNL     1      25.197   9.708  28.663  1.00  0.00    -0.550 OA
ENDBRANCH   2   3
ENDBRANCH   1   2
BRANCH   1   6
ATOM      6  C   UNL     1      27.163   7.534  26.465  1.00  0.00     0.000 C 
BRANCH   6   7
ATOM      7  C   UNL     1      26.524   6.375  27.245  1.00  0.00    -0.003 C 
ATOM      8  C   UNL     1      25.155   6.017  26.672  1.00  0.00     0.004 C 
ENDBRANCH   6   7
ENDBRANCH   1   6
TORSDOF 4
ENDMDL
MODEL 5
REMARK VINA RESULT:    -3.083      1.306      2.368
REMARK INTER + INTRA:          -4.015
REMARK INTER:                  -3.759
REMARK INTRA:                  -0.256
REMARK UNBOUND:                -0.211
REMARK SMILES CCCCCC(=O)[O-]
REMARK SMILES IDX 4 1 5 2 6 3 7 4 8 5 3 6 2 7 1 8
REMARK H PARENT
REMARK Flexibility Score: inf
ROOT
ATOM      1  C   UNL     1      24.991   9.766  27.464  1.00  0.00     0.006 C 
ENDROOT
BRANCH   1   2
ATOM      2  C   UNL     1      25.823   9.622  26.179  1.00  0.00     0.053 C 
BRANCH   2   3
ATOM      3  C   UNL     1      26.430   8.258  26.055  1.00  0.00     0.041 C 
ATOM      4  O   UNL     1      26.544   7.715  24.925  1.00  0.00    -0.550 OA
ATOM      5  O   UNL     1      26.900   7.601  27.186  1.00  0.00    -0.550 OA
ENDBRANCH   2   3
ENDBRANCH   1   2
BRANCH   1   6
ATOM      6  C   UNL     1      23.564   9.201  27.360  1.00  0.00     0.000 C 
BRANCH   6   7
ATOM      7  C   UNL     1      23.378   7.904  28.161  1.00  0.00    -0.003 C 
ATOM      8  C   UNL     1      23.296   6.693  27.235  1.00  0.00     0.004 C 
ENDBRANCH   6   7
ENDBRANCH   1   6
TORSDOF 4
ENDMDL
MODEL 6
REMARK VINA RESULT:    -2.936      2.196      3.790
REMARK INTER + INTRA:          -3.834
REMARK INTER:                  -3.688
REMARK INTRA:                  -0.146
REMARK UNBOUND:                -0.211
REMARK SMILES CCCCCC(=O)[O-]
REMARK SMILES IDX 4 1 5 2 6 3 7 4 8 5 3 6 2 7 1 8
REMARK H PARENT
REMARK Flexibility Score: inf
ROOT
ATOM      1  C   UNL     1      25.359   9.392  27.085  1.00  0.00     0.006 C 
ENDROOT
BRANCH   1   2
ATOM      2  C   UNL     1      23.841   9.184  27.210  1.00  0.00     0.053 C 
BRANCH   2   3
ATOM      3  C   UNL     1      23.505   7.848  27.798  1.00  0.00     0.041 C 
ATOM      4  O   UNL     1      23.531   7.679  29.045  1.00  0.00    -0.550 OA
ATOM      5  O   UNL     1      23.130   6.798  26.969  1.00  0.00    -0.550 OA
ENDBRANCH   2   3
ENDBRANCH   1   2
BRANCH   1   6
ATOM      6  C   UNL     1      26.017   8.586  25.951  1.00  0.00     0.000 C 
BRANCH   6   7
ATOM      7  C   UNL     1      27.155   7.682  26.447  1.00  0.00    -0.003 C 
ATOM      8  C   UNL     1      26.608   6.469  27.194  1.00  0.00     0.004 C 
ENDBRANCH   6   7
ENDBRANCH   1   6
TORSDOF 4
ENDMDL
MODEL 7
REMARK VINA RESULT:    -2.897      2.331      3.219
REMARK INTER + INTRA:          -3.786
REMARK INTER:                  -3.512
REMARK INTRA:                  -0.274
REMARK UNBOUND:                -0.211
REMARK SMILES CCCCCC(=O)[O-]
REMARK SMILES IDX 4 1 5 2 6 3 7 4 8 5 3 6 2 7 1 8
REMARK H PARENT
REMARK Flexibility Score: inf
ROOT
ATOM      1  C   UNL     1      25.417   6.279  26.883  1.00  0.00     0.006 C 
ENDROOT
BRANCH   1   2
ATOM      2  C   UNL     1      23.981   6.783  26.668  1.00  0.00     0.053 C 
BRANCH   2   3
ATOM      3  C   UNL     1      23.588   7.806  27.689  1.00  0.00     0.041 C 
ATOM      4  O   UNL     1      23.270   8.970  27.331  1.00  0.00    -0.550 OA
ATOM      5  O   UNL     1      23.540   7.463  29.035  1.00  0.00    -0.550 OA
ENDBRANCH   2   3
ENDBRANCH   1   2
BRANCH   1   6
ATOM      6  C   UNL     1      26.488   7.384  26.849  1.00  0.00     0.000 C 
BRANCH   6   7
ATOM      7  C   UNL     1      26.573   8.088  25.486  1.00  0.00    -0.003 C 
ATOM      8  C   UNL     1      26.402   9.597  25.636  1.00  0.00     0.004 C 
ENDBRANCH   6   7
ENDBRANCH   1   6
TORSDOF 4
ENDMDL
MODEL 8
REMARK VINA RESULT:    -2.862      2.111      2.551
REMARK INTER + INTRA:          -3.742
REMARK INTER:                  -3.524
REMARK INTRA:                  -0.218
REMARK UNBOUND:                -0.211
REMARK SMILES CCCCCC(=O)[O-]
REMARK SMILES IDX 4 1 5 2 6 3 7 4 8 5 3 6 2 7 1 8
REMARK H PARENT
REMARK Flexibility Score: inf
ROOT
ATOM      1  C   UNL     1      25.963   8.374  26.214  1.00  0.00     0.006 C 
ENDROOT
BRANCH   1   2
ATOM      2  C   UNL     1      25.658   7.270  27.239  1.00  0.00     0.053 C 
BRANCH   2   3
ATOM      3  C   UNL     1      24.664   6.279  26.716  1.00  0.00     0.041 C 
ATOM      4  O   UNL     1      23.558   6.669  26.260  1.00  0.00    -0.550 OA
ATOM      5  O   UNL     1      24.975   4.925  26.702  1.00  0.00    -0.550 OA
ENDBRANCH   2   3
ENDBRANCH   1   2
BRANCH   1   6
ATOM      6  C   UNL     1      25.400   9.757  26.586  1.00  0.00     0.000 C 
BRANCH   6   7
ATOM      7  C   UNL     1      24.586   9.736  27.889  1.00  0.00    -0.003 C 
ATOM      8  C   UNL     1      23.097   9.917  27.609  1.00  0.00     0.004 C 
ENDBRANCH   6   7
ENDBRANCH   1   6
TORSDOF 4
ENDMDL
