MODEL 1
REMARK VINA RESULT:    -4.063      0.000      0.000
REMARK INTER + INTRA:          -9.268
REMARK INTER:                  -7.388
REMARK INTRA:                  -1.881
REMARK UNBOUND:                -1.881
REMARK SMILES CCCCCCCCCCCCCCCC(=O)[O-]
REMARK SMILES IDX 9 1 10 2 11 3 12 4 13 5 14 6 15 7 16 8 17 9 18 10 8 11 7 12
REMARK SMILES IDX 6 13 5 14 4 15 3 16 2 17 1 18
REMARK H PARENT
REMARK Flexibility Score: inf
ROOT
ATOM      1  C   UNL     1     -21.984  -2.707  -1.291  1.00  0.00     0.000 C 
ENDROOT
BRANCH   1   2
ATOM      2  C   UNL     1     -21.034  -1.727  -0.575  1.00  0.00     0.000 C 
BRANCH   2   3
ATOM      3  C   UNL     1     -20.719  -2.080   0.893  1.00  0.00     0.000 C 
BRANCH   3   4
ATOM      4  C   UNL     1     -21.918  -1.986   1.856  1.00  0.00     0.000 C 
BRANCH   4   5
ATOM      5  C   UNL     1     -22.446  -3.362   2.287  1.00  0.00     0.000 C 
BRANCH   5   6
ATOM      6  C   UNL     1     -23.982  -3.389   2.274  1.00  0.00     0.006 C 
BRANCH   6   7
ATOM      7  C   UNL     1     -24.587  -1.981   2.175  1.00  0.00     0.053 C 
BRANCH   7   8
ATOM      8  C   UNL     1     -25.987  -2.014   1.643  1.00  0.00     0.041 C 
ATOM      9  O   UNL     1     -26.222  -2.509   0.508  1.00  0.00    -0.550 OA
ATOM     10  O   UNL     1     -27.028  -1.468   2.384  1.00  0.00    -0.550 OA
ENDBRANCH   7   8
ENDBRANCH   6   7
ENDBRANCH   5   6
ENDBRANCH   4   5
ENDBRANCH   3   4
ENDBRANCH   2   3
ENDBRANCH   1   2
BRANCH   1  11
ATOM     11  C   UNL     1     -23.399  -2.161  -1.570  1.00  0.00     0.000 C 
BRANCH  11  12
ATOM     12  C   UNL     1     -24.103  -2.765  -2.800  1.00  0.00    -0.000 C 
BRANCH  12  13
ATOM     13  C   UNL     1     -25.253  -1.888  -3.322  1.00  0.00    -0.000 C 
BRANCH  13  14
ATOM     14  C   UNL     1     -24.984  -1.324  -4.728  1.00  0.00    -0.000 C 
BRANCH  14  15
ATOM     15  C   UNL     1     -23.506  -1.019  -5.045  1.00  0.00    -0.000 C 
BRANCH  15  16
ATOM     16  C   UNL     1     -22.984   0.321  -4.498  1.00  0.00    -0.000 C 
BRANCH  16  17
ATOM     17  C   UNL     1     -21.472   0.307  -4.231  1.00  0.00    -0.003 C 
ATOM     18  C   UNL     1     -20.869  -1.055  -4.565  1.00  0.00     0.004 C 
ENDBRANCH  16  17
ENDBRANCH  15  16
ENDBRANCH  14  15
ENDBRANCH  13  14
ENDBRANCH  12  13
ENDBRANCH  11  12
ENDBRANCH   1  11
TORSDOF 14
ENDMDL
MODEL 2
REMARK VINA RESULT:    -4.018      2.986      4.817
REMARK INTER + INTRA:          -9.187
REMARK INTER:                  -6.925
REMARK INTRA:                  -2.262
REMARK UNBOUND:                -1.881
REMARK SMILES CCCCCCCCCCCCCCCC(=O)[O-]
REMARK SMILES IDX 9 1 10 2 11 3 12 4 13 5 14 6 15 7 16 8 17 9 18 10 8 11 7 12
REMARK SMILES IDX 6 13 5 14 4 15 3 16 2 17 1 18
REMARK H PARENT
REMARK Flexibility Score: inf
ROOT
ATOM      1  C   UNL     1     -21.584   1.935  -3.323  1.00  0.00     0.000 C 
ENDROOT
BRANCH   1   2
ATOM      2  C   UNL     1     -22.895   2.227  -2.567  1.00  0.00     0.000 C 
BRANCH   2   3
ATOM      3  C   UNL     1     -23.337   1.127  -1.580  1.00  0.00     0.000 C 
BRANCH   3   4
ATOM      4  C   UNL     1     -22.188   0.424  -0.834  1.00  0.00     0.000 C 
BRANCH   4   5
ATOM      5  C   UNL     1     -22.474  -1.059  -0.559  1.00  0.00     0.000 C 
BRANCH   5   6
ATOM      6  C   UNL     1     -21.167  -1.852  -0.407  1.00  0.00     0.006 C 
BRANCH   6   7
ATOM      7  C   UNL     1     -20.830  -2.141   1.062  1.00  0.00     0.053 C 
BRANCH   7   8
ATOM      8  C   UNL     1     -19.763  -1.225   1.579  1.00  0.00     0.041 C 
ATOM      9  O   UNL     1     -18.565  -1.610   1.626  1.00  0.00    -0.550 OA
ATOM     10  O   UNL     1     -20.096   0.043   2.040  1.00  0.00    -0.550 OA
ENDBRANCH   7   8
ENDBRANCH   6   7
ENDBRANCH   5   6
ENDBRANCH   4   5
ENDBRANCH   3   4
ENDBRANCH   2   3
ENDBRANCH   1   2
BRANCH   1  11
ATOM     11  C   UNL     1     -21.711   0.934  -4.490  1.00  0.00     0.000 C 
BRANCH  11  12
ATOM     12  C   UNL     1     -20.829  -0.324  -4.372  1.00  0.00    -0.000 C 
BRANCH  12  13
ATOM     13  C   UNL     1     -21.648  -1.617  -4.220  1.00  0.00    -0.000 C 
BRANCH  13  14
ATOM     14  C   UNL     1     -23.164  -1.383  -4.352  1.00  0.00    -0.000 C 
BRANCH  14  15
ATOM     15  C   UNL     1     -24.054  -2.370  -3.570  1.00  0.00    -0.000 C 
BRANCH  15  16
ATOM     16  C   UNL     1     -25.286  -1.744  -2.892  1.00  0.00    -0.000 C 
BRANCH  16  17
ATOM     17  C   UNL     1     -26.120  -0.884  -3.852  1.00  0.00    -0.003 C 
ATOM     18  C   UNL     1     -27.035  -1.752  -4.711  1.00  0.00     0.004 C 
ENDBRANCH  16  17
ENDBRANCH  15  16
ENDBRANCH  14  15
ENDBRANCH  13  14
ENDBRANCH  12  13
ENDBRANCH  11  12
ENDBRANCH   1  11
TORSDOF 14
ENDMDL
MODEL 3
REMARK VINA RESULT:    -4.013      3.153      7.043
REMARK INTER + INTRA:          -9.178
REMARK INTER:                  -6.954
REMARK INTRA:                  -2.224
REMARK UNBOUND:                -1.881
REMARK SMILES CCCCCCCCCCCCCCCC(=O)[O-]
REMARK SMILES IDX 9 1 10 2 11 3 12 4 13 5 14 6 15 7 16 8 17 9 18 10 8 11 7 12
REMARK SMILES IDX 6 13 5 14 4 15 3 16 2 17 1 18
REMARK H PARENT
REMARK Flexibility Score: inf
ROOT
ATOM      1  C   UNL     1     -27.603  -1.355  -1.488  1.00  0.00     0.000 C 
ENDROOT
BRANCH   1   2
ATOM      2  C   UNL     1     -28.365  -1.758  -2.766  1.00  0.00     0.000 C 
BRANCH   2   3
ATOM      3  C   UNL     1     -27.574  -1.586  -4.078  1.00  0.00     0.000 C 
BRANCH   3   4
ATOM      4  C   UNL     1     -27.066  -2.896  -4.707  1.00  0.00     0.000 C 
BRANCH   4   5
ATOM      5  C   UNL     1     -25.546  -3.068  -4.584  1.00  0.00     0.000 C 
BRANCH   5   6
ATOM      6  C   UNL     1     -24.806  -1.858  -5.174  1.00  0.00     0.006 C 
BRANCH   6   7
ATOM      7  C   UNL     1     -23.387  -1.711  -4.607  1.00  0.00     0.053 C 
BRANCH   7   8
ATOM      8  C   UNL     1     -22.988  -0.274  -4.472  1.00  0.00     0.041 C 
ATOM      9  O   UNL     1     -23.864   0.611  -4.274  1.00  0.00    -0.550 OA
ATOM     10  O   UNL     1     -21.654   0.094  -4.598  1.00  0.00    -0.550 OA
ENDBRANCH   7   8
ENDBRANCH   6   7
ENDBRANCH   5   6
ENDBRANCH   4   5
ENDBRANCH   3   4
ENDBRANCH   2   3
ENDBRANCH   1   2
BRANCH   1  11
ATOM     11  C   UNL     1     -26.208  -0.742  -1.725  1.00  0.00     0.000 C 
BRANCH  11  12
ATOM     12  C   UNL     1     -25.024  -1.607  -1.253  1.00  0.00    -0.000 C 
BRANCH  12  13
ATOM     13  C   UNL     1     -25.470  -2.889  -0.531  1.00  0.00    -0.000 C 
BRANCH  13  14
ATOM     14  C   UNL     1     -24.621  -3.200   0.715  1.00  0.00    -0.000 C 
BRANCH  14  15
ATOM     15  C   UNL     1     -24.865  -2.278   1.927  1.00  0.00    -0.000 C 
BRANCH  15  16
ATOM     16  C   UNL     1     -26.327  -1.844   2.134  1.00  0.00    -0.000 C 
BRANCH  16  17
ATOM     17  C   UNL     1     -26.519  -0.326   2.017  1.00  0.00    -0.003 C 
ATOM     18  C   UNL     1     -28.000   0.038   1.961  1.00  0.00     0.004 C 
ENDBRANCH  16  17
ENDBRANCH  15  16
ENDBRANCH  14  15
ENDBRANCH  13  14
ENDBRANCH  12  13
ENDBRANCH  11  12
ENDBRANCH   1  11
TORSDOF 14
ENDMDL
MODEL 4
REMARK VINA RESULT:    -4.004      3.037      4.911
REMARK INTER + INTRA:          -9.162
REMARK INTER:                  -7.493
REMARK INTRA:                  -1.669
REMARK UNBOUND:                -1.881
REMARK SMILES CCCCCCCCCCCCCCCC(=O)[O-]
REMARK SMILES IDX 9 1 10 2 11 3 12 4 13 5 14 6 15 7 16 8 17 9 18 10 8 11 7 12
REMARK SMILES IDX 6 13 5 14 4 15 3 16 2 17 1 18
REMARK H PARENT
REMARK Flexibility Score: inf
ROOT
ATOM      1  C   UNL     1     -29.522  -1.489  -3.814  1.00  0.00     0.000 C 
ENDROOT
BRANCH   1   2
ATOM      2  C   UNL     1     -28.888  -0.295  -4.555  1.00  0.00     0.000 C 
BRANCH   2   3
ATOM      3  C   UNL     1     -28.183   0.735  -3.648  1.00  0.00     0.000 C 
BRANCH   3   4
ATOM      4  C   UNL     1     -26.739   0.374  -3.255  1.00  0.00     0.000 C 
BRANCH   4   5
ATOM      5  C   UNL     1     -26.514   0.378  -1.736  1.00  0.00     0.000 C 
BRANCH   5   6
ATOM      6  C   UNL     1     -27.329  -0.733  -1.057  1.00  0.00     0.006 C 
BRANCH   6   7
ATOM      7  C   UNL     1     -26.491  -1.538  -0.054  1.00  0.00     0.053 C 
BRANCH   7   8
ATOM      8  C   UNL     1     -27.070  -1.479   1.327  1.00  0.00     0.041 C 
ATOM      9  O   UNL     1     -26.310  -1.427   2.331  1.00  0.00    -0.550 OA
ATOM     10  O   UNL     1     -28.447  -1.518   1.508  1.00  0.00    -0.550 OA
ENDBRANCH   7   8
ENDBRANCH   6   7
ENDBRANCH   5   6
ENDBRANCH   4   5
ENDBRANCH   3   4
ENDBRANCH   2   3
ENDBRANCH   1   2
BRANCH   1  11
ATOM     11  C   UNL     1     -28.684  -2.784  -3.825  1.00  0.00     0.000 C 
BRANCH  11  12
ATOM     12  C   UNL     1     -27.594  -2.850  -4.911  1.00  0.00    -0.000 C 
BRANCH  12  13
ATOM     13  C   UNL     1     -26.172  -2.900  -4.329  1.00  0.00    -0.000 C 
BRANCH  13  14
ATOM     14  C   UNL     1     -25.101  -2.414  -5.322  1.00  0.00    -0.000 C 
BRANCH  14  15
ATOM     15  C   UNL     1     -23.788  -1.916  -4.685  1.00  0.00    -0.000 C 
BRANCH  15  16
ATOM     16  C   UNL     1     -23.478  -0.425  -4.906  1.00  0.00    -0.000 C 
BRANCH  16  17
ATOM     17  C   UNL     1     -22.069  -0.034  -4.441  1.00  0.00    -0.003 C 
ATOM     18  C   UNL     1     -21.048  -1.100  -4.827  1.00  0.00     0.004 C 
ENDBRANCH  16  17
ENDBRANCH  15  16
ENDBRANCH  14  15
ENDBRANCH  13  14
ENDBRANCH  12  13
ENDBRANCH  11  12
ENDBRANCH   1  11
TORSDOF 14
ENDMDL
MODEL 5
REMARK VINA RESULT:    -3.967      2.624      4.671
REMARK INTER + INTRA:          -9.095
REMARK INTER:                  -7.052
REMARK INTRA:                  -2.044
REMARK UNBOUND:                -1.881
REMARK SMILES CCCCCCCCCCCCCCCC(=O)[O-]
REMARK SMILES IDX 9 1 10 2 11 3 12 4 13 5 14 6 15 7 16 8 17 9 18 10 8 11 7 12
REMARK SMILES IDX 6 13 5 14 4 15 3 16 2 17 1 18
REMARK H PARENT
REMARK Flexibility Score: inf
ROOT
ATOM      1  C   UNL     1     -28.033   0.360  -3.434  1.00  0.00     0.000 C 
ENDROOT
BRANCH   1   2
ATOM      2  C   UNL     1     -26.753   0.060  -2.630  1.00  0.00     0.000 C 
BRANCH   2   3
ATOM      3  C   UNL     1     -26.900   0.185  -1.100  1.00  0.00     0.000 C 
BRANCH   3   4
ATOM      4  C   UNL     1     -27.774  -0.897  -0.440  1.00  0.00     0.000 C 
BRANCH   4   5
ATOM      5  C   UNL     1     -26.959  -1.908   0.378  1.00  0.00     0.000 C 
BRANCH   5   6
ATOM      6  C   UNL     1     -26.990  -1.556   1.873  1.00  0.00     0.006 C 
BRANCH   6   7
ATOM      7  C   UNL     1     -25.684  -0.900   2.343  1.00  0.00     0.053 C 
BRANCH   7   8
ATOM      8  C   UNL     1     -24.493  -1.761   2.055  1.00  0.00     0.041 C 
ATOM      9  O   UNL     1     -23.575  -1.341   1.301  1.00  0.00    -0.550 OA
ATOM     10  O   UNL     1     -24.413  -3.041   2.590  1.00  0.00    -0.550 OA
ENDBRANCH   7   8
ENDBRANCH   6   7
ENDBRANCH   5   6
ENDBRANCH   4   5
ENDBRANCH   3   4
ENDBRANCH   2   3
ENDBRANCH   1   2
BRANCH   1  11
ATOM     11  C   UNL     1     -28.499  -0.776  -4.368  1.00  0.00     0.000 C 
BRANCH  11  12
ATOM     12  C   UNL     1     -29.100  -2.003  -3.657  1.00  0.00    -0.000 C 
BRANCH  12  13
ATOM     13  C   UNL     1     -28.390  -3.316  -4.028  1.00  0.00    -0.000 C 
BRANCH  13  14
ATOM     14  C   UNL     1     -27.153  -3.594  -3.156  1.00  0.00    -0.000 C 
BRANCH  14  15
ATOM     15  C   UNL     1     -25.879  -3.994  -3.928  1.00  0.00    -0.000 C 
BRANCH  15  16
ATOM     16  C   UNL     1     -25.703  -3.313  -5.297  1.00  0.00    -0.000 C 
BRANCH  16  17
ATOM     17  C   UNL     1     -24.937  -1.986  -5.208  1.00  0.00    -0.003 C 
ATOM     18  C   UNL     1     -23.850  -2.051  -4.139  1.00  0.00     0.004 C 
ENDBRANCH  16  17
ENDBRANCH  15  16
ENDBRANCH  14  15
ENDBRANCH  13  14
ENDBRANCH  12  13
ENDBRANCH  11  12
ENDBRANCH   1  11
TORSDOF 14
ENDMDL
MODEL 6
REMARK VINA RESULT:    -3.964      3.077      6.645
REMARK INTER + INTRA:          -9.089
REMARK INTER:                  -6.684
REMARK INTRA:                  -2.405
REMARK UNBOUND:                -1.881
REMARK SMILES CCCCCCCCCCCCCCCC(=O)[O-]
REMARK SMILES IDX 9 1 10 2 11 3 12 4 13 5 14 6 15 7 16 8 17 9 18 10 8 11 7 12
REMARK SMILES IDX 6 13 5 14 4 15 3 16 2 17 1 18
REMARK H PARENT
REMARK Flexibility Score: inf
ROOT
ATOM      1  C   UNL     1     -23.844  -0.494  -1.137  1.00  0.00     0.000 C 
ENDROOT
BRANCH   1   2
ATOM      2  C   UNL     1     -23.981  -2.025  -1.249  1.00  0.00     0.000 C 
BRANCH   2   3
ATOM      3  C   UNL     1     -23.131  -2.676  -2.358  1.00  0.00     0.000 C 
BRANCH   3   4
ATOM      4  C   UNL     1     -21.823  -1.937  -2.694  1.00  0.00     0.000 C 
BRANCH   4   5
ATOM      5  C   UNL     1     -21.754  -1.479  -4.157  1.00  0.00     0.000 C 
BRANCH   5   6
ATOM      6  C   UNL     1     -21.159  -0.066  -4.263  1.00  0.00     0.006 C 
BRANCH   6   7
ATOM      7  C   UNL     1     -22.202   1.025  -3.989  1.00  0.00     0.053 C 
BRANCH   7   8
ATOM      8  C   UNL     1     -21.570   2.284  -3.480  1.00  0.00     0.041 C 
ATOM      9  O   UNL     1     -21.689   2.608  -2.268  1.00  0.00    -0.550 OA
ATOM     10  O   UNL     1     -20.877   3.118  -4.349  1.00  0.00    -0.550 OA
ENDBRANCH   7   8
ENDBRANCH   6   7
ENDBRANCH   5   6
ENDBRANCH   4   5
ENDBRANCH   3   4
ENDBRANCH   2   3
ENDBRANCH   1   2
BRANCH   1  11
ATOM     11  C   UNL     1     -23.298   0.017   0.213  1.00  0.00     0.000 C 
BRANCH  11  12
ATOM     12  C   UNL     1     -21.762   0.064   0.322  1.00  0.00    -0.000 C 
BRANCH  12  13
ATOM     13  C   UNL     1     -21.221  -0.757   1.504  1.00  0.00    -0.000 C 
BRANCH  13  14
ATOM     14  C   UNL     1     -20.414  -1.989   1.056  1.00  0.00    -0.000 C 
BRANCH  14  15
ATOM     15  C   UNL     1     -21.232  -3.285   0.883  1.00  0.00    -0.000 C 
BRANCH  15  16
ATOM     16  C   UNL     1     -21.996  -3.749   2.136  1.00  0.00    -0.000 C 
BRANCH  16  17
ATOM     17  C   UNL     1     -23.494  -3.956   1.877  1.00  0.00    -0.003 C 
ATOM     18  C   UNL     1     -24.311  -2.780   2.407  1.00  0.00     0.004 C 
ENDBRANCH  16  17
ENDBRANCH  15  16
ENDBRANCH  14  15
ENDBRANCH  13  14
ENDBRANCH  12  13
ENDBRANCH  11  12
ENDBRANCH   1  11
TORSDOF 14
ENDMDL
MODEL 7
REMARK VINA RESULT:    -3.961      3.739      6.802
REMARK INTER + INTRA:          -9.084
REMARK INTER:                  -7.205
REMARK INTRA:                  -1.879
REMARK UNBOUND:                -1.881
REMARK SMILES CCCCCCCCCCCCCCCC(=O)[O-]
REMARK SMILES IDX 9 1 10 2 11 3 12 4 13 5 14 6 15 7 16 8 17 9 18 10 8 11 7 12
REMARK SMILES IDX 6 13 5 14 4 15 3 16 2 17 1 18
REMARK H PARENT
REMARK Flexibility Score: inf
ROOT
ATOM      1  C   UNL     1     -24.396  -0.466  -0.261  1.00  0.00     0.000 C 
ENDROOT
BRANCH   1   2
ATOM      2  C   UNL     1     -25.288  -0.879  -1.448  1.00  0.00     0.000 C 
BRANCH   2   3
ATOM      3  C   UNL     1     -26.135  -2.147  -1.217  1.00  0.00     0.000 C 
BRANCH   3   4
ATOM      4  C   UNL     1     -27.519  -2.136  -1.892  1.00  0.00     0.000 C 
BRANCH   4   5
ATOM      5  C   UNL     1     -27.635  -3.155  -3.035  1.00  0.00     0.000 C 
BRANCH   5   6
ATOM      6  C   UNL     1     -28.032  -2.465  -4.348  1.00  0.00     0.006 C 
BRANCH   6   7
ATOM      7  C   UNL     1     -27.939  -0.936  -4.252  1.00  0.00     0.053 C 
BRANCH   7   8
ATOM      8  C   UNL     1     -29.290  -0.291  -4.330  1.00  0.00     0.041 C 
ATOM      9  O   UNL     1     -30.332  -0.999  -4.310  1.00  0.00    -0.550 OA
ATOM     10  O   UNL     1     -29.397   1.088  -4.461  1.00  0.00    -0.550 OA
ENDBRANCH   7   8
ENDBRANCH   6   7
ENDBRANCH   5   6
ENDBRANCH   4   5
ENDBRANCH   3   4
ENDBRANCH   2   3
ENDBRANCH   1   2
BRANCH   1  11
ATOM     11  C   UNL     1     -23.808  -1.637   0.553  1.00  0.00     0.000 C 
BRANCH  11  12
ATOM     12  C   UNL     1     -24.365  -1.787   1.981  1.00  0.00    -0.000 C 
BRANCH  12  13
ATOM     13  C   UNL     1     -25.527  -0.823   2.274  1.00  0.00    -0.000 C 
BRANCH  13  14
ATOM     14  C   UNL     1     -26.896  -1.526   2.292  1.00  0.00    -0.000 C 
BRANCH  14  15
ATOM     15  C   UNL     1     -28.107  -0.620   1.988  1.00  0.00    -0.000 C 
BRANCH  15  16
ATOM     16  C   UNL     1     -27.848   0.494   0.957  1.00  0.00    -0.000 C 
BRANCH  16  17
ATOM     17  C   UNL     1     -27.968   1.901   1.558  1.00  0.00    -0.003 C 
ATOM     18  C   UNL     1     -26.616   2.608   1.577  1.00  0.00     0.004 C 
ENDBRANCH  16  17
ENDBRANCH  15  16
ENDBRANCH  14  15
ENDBRANCH  13  14
ENDBRANCH  12  13
ENDBRANCH  11  12
ENDBRANCH   1  11
TORSDOF 14
ENDMDL
MODEL 8
REMARK VINA RESULT:    -3.941      3.544      6.345
REMARK INTER + INTRA:          -9.047
REMARK INTER:                  -6.529
REMARK INTRA:                  -2.518
REMARK UNBOUND:                -1.881
REMARK SMILES CCCCCCCCCCCCCCCC(=O)[O-]
REMARK SMILES IDX 9 1 10 2 11 3 12 4 13 5 14 6 15 7 16 8 17 9 18 10 8 11 7 12
REMARK SMILES IDX 6 13 5 14 4 15 3 16 2 17 1 18
REMARK H PARENT
REMARK Flexibility Score: inf
ROOT
ATOM      1  C   UNL     1     -26.202   1.701   0.834  1.00  0.00     0.000 C 
ENDROOT
BRANCH   1   2
ATOM      2  C   UNL     1     -25.692   1.833  -0.614  1.00  0.00     0.000 C 
BRANCH   2   3
ATOM      3  C   UNL     1     -26.338   0.862  -1.624  1.00  0.00     0.000 C 
BRANCH   3   4
ATOM      4  C   UNL     1     -25.567  -0.452  -1.846  1.00  0.00     0.000 C 
BRANCH   4   5
ATOM      5  C   UNL     1     -26.490  -1.673  -1.965  1.00  0.00     0.000 C 
BRANCH   5   6
ATOM      6  C   UNL     1     -27.966  -1.248  -1.974  1.00  0.00     0.006 C 
BRANCH   6   7
ATOM      7  C   UNL     1     -28.771  -1.969  -3.064  1.00  0.00     0.053 C 
BRANCH   7   8
ATOM      8  C   UNL     1     -29.499  -1.003  -3.948  1.00  0.00     0.041 C 
ATOM      9  O   UNL     1     -28.948   0.076  -4.297  1.00  0.00    -0.550 OA
ATOM     10  O   UNL     1     -30.798  -1.276  -4.359  1.00  0.00    -0.550 OA
ENDBRANCH   7   8
ENDBRANCH   6   7
ENDBRANCH   5   6
ENDBRANCH   4   5
ENDBRANCH   3   4
ENDBRANCH   2   3
ENDBRANCH   1   2
BRANCH   1  11
ATOM     11  C   UNL     1     -27.660   1.216   0.973  1.00  0.00     0.000 C 
BRANCH  11  12
ATOM     12  C   UNL     1     -27.886   0.113   2.025  1.00  0.00    -0.000 C 
BRANCH  12  13
ATOM     13  C   UNL     1     -27.258  -1.232   1.625  1.00  0.00    -0.000 C 
BRANCH  13  14
ATOM     14  C   UNL     1     -25.947  -1.527   2.375  1.00  0.00    -0.000 C 
BRANCH  14  15
ATOM     15  C   UNL     1     -25.062  -2.625   1.751  1.00  0.00    -0.000 C 
BRANCH  15  16
ATOM     16  C   UNL     1     -23.906  -2.112   0.873  1.00  0.00    -0.000 C 
BRANCH  16  17
ATOM     17  C   UNL     1     -23.446  -0.700   1.259  1.00  0.00    -0.003 C 
ATOM     18  C   UNL     1     -22.491  -0.129   0.215  1.00  0.00     0.004 C 
ENDBRANCH  16  17
ENDBRANCH  15  16
ENDBRANCH  14  15
ENDBRANCH  13  14
ENDBRANCH  12  13
ENDBRANCH  11  12
ENDBRANCH   1  11
TORSDOF 14
ENDMDL
MODEL 9
REMARK VINA RESULT:    -3.876      3.140      5.309
REMARK INTER + INTRA:          -8.929
REMARK INTER:                  -6.777
REMARK INTRA:                  -2.152
REMARK UNBOUND:                -1.881
REMARK SMILES CCCCCCCCCCCCCCCC(=O)[O-]
REMARK SMILES IDX 9 1 10 2 11 3 12 4 13 5 14 6 15 7 16 8 17 9 18 10 8 11 7 12
REMARK SMILES IDX 6 13 5 14 4 15 3 16 2 17 1 18
REMARK H PARENT
REMARK Flexibility Score: inf
ROOT
ATOM      1  C   UNL     1     -23.925  -2.176  -3.565  1.00  0.00     0.000 C 
ENDROOT
BRANCH   1   2
ATOM      2  C   UNL     1     -23.408  -1.303  -4.725  1.00  0.00     0.000 C 
BRANCH   2   3
ATOM      3  C   UNL     1     -21.873  -1.247  -4.866  1.00  0.00     0.000 C 
BRANCH   3   4
ATOM      4  C   UNL     1     -21.223   0.059  -4.372  1.00  0.00     0.000 C 
BRANCH   4   5
ATOM      5  C   UNL     1     -22.252   1.132  -3.991  1.00  0.00     0.000 C 
BRANCH   5   6
ATOM      6  C   UNL     1     -22.064   1.581  -2.534  1.00  0.00     0.006 C 
BRANCH   6   7
ATOM      7  C   UNL     1     -22.880   0.728  -1.553  1.00  0.00     0.053 C 
BRANCH   7   8
ATOM      8  C   UNL     1     -22.000  -0.118  -0.685  1.00  0.00     0.041 C 
ATOM      9  O   UNL     1     -21.506  -1.187  -1.134  1.00  0.00    -0.550 OA
ATOM     10  O   UNL     1     -21.752   0.255   0.630  1.00  0.00    -0.550 OA
ENDBRANCH   7   8
ENDBRANCH   6   7
ENDBRANCH   5   6
ENDBRANCH   4   5
ENDBRANCH   3   4
ENDBRANCH   2   3
ENDBRANCH   1   2
BRANCH   1  11
ATOM     11  C   UNL     1     -25.035  -3.178  -3.945  1.00  0.00     0.000 C 
BRANCH  11  12
ATOM     12  C   UNL     1     -25.804  -2.843  -5.237  1.00  0.00    -0.000 C 
BRANCH  12  13
ATOM     13  C   UNL     1     -27.313  -3.120  -5.123  1.00  0.00    -0.000 C 
BRANCH  13  14
ATOM     14  C   UNL     1     -27.785  -3.271  -3.666  1.00  0.00    -0.000 C 
BRANCH  14  15
ATOM     15  C   UNL     1     -28.382  -1.999  -3.031  1.00  0.00    -0.000 C 
BRANCH  15  16
ATOM     16  C   UNL     1     -27.712  -1.544  -1.722  1.00  0.00    -0.000 C 
BRANCH  16  17
ATOM     17  C   UNL     1     -26.686  -0.423  -1.937  1.00  0.00    -0.003 C 
ATOM     18  C   UNL     1     -26.940   0.309  -3.253  1.00  0.00     0.004 C 
ENDBRANCH  16  17
ENDBRANCH  15  16
ENDBRANCH  14  15
ENDBRANCH  13  14
ENDBRANCH  12  13
ENDBRANCH  11  12
ENDBRANCH   1  11
TORSDOF 14
ENDMDL
