MODEL 1
REMARK VINA RESULT:    -5.202      0.000      0.000
REMARK INTER + INTRA:          -5.604
REMARK INTER:                  -5.506
REMARK INTRA:                  -0.097
REMARK UNBOUND:                -0.097
REMARK SMILES C=C(C)[C@@H]1CC=C(C)C(=O)C1
REMARK SMILES IDX 8 1 7 2 6 3 5 4 4 5 11 6 9 7 10 8 2 9 1 10 3 11
REMARK H PARENT
REMARK Flexibility Score: inf
ROOT
ATOM      1  C   UNL     1      -1.906 -16.601  -5.750  1.00  0.00     0.048 C 
ATOM      2  C   UNL     1      -2.637 -15.528  -6.511  1.00  0.00    -0.012 C 
ATOM      3  C   UNL     1      -1.966 -14.748  -7.376  1.00  0.00    -0.019 C 
ATOM      4  C   UNL     1      -2.651 -13.672  -8.178  1.00  0.00     0.036 C 
ATOM      5  C   UNL     1      -3.825 -13.058  -7.391  1.00  0.00     0.025 C 
ATOM      6  C   UNL     1      -4.801 -14.160  -6.940  1.00  0.00     0.089 C 
ATOM      7  C   UNL     1      -4.065 -15.254  -6.216  1.00  0.00     0.158 C 
ATOM      8  O   UNL     1      -4.688 -15.963  -5.379  1.00  0.00    -0.295 OA
ENDROOT
BRANCH   5   9
ATOM      9  C   UNL     1      -4.537 -11.983  -8.202  1.00  0.00    -0.077 C 
ATOM     10  C   UNL     1      -3.861 -11.279  -9.124  1.00  0.00     0.008 C 
ATOM     11  C   UNL     1      -6.000 -11.682  -7.995  1.00  0.00     0.039 C 
ENDBRANCH   5   9
TORSDOF 1
ENDMDL
MODEL 2
REMARK VINA RESULT:    -5.025      1.317      1.810
REMARK INTER + INTRA:          -5.416
REMARK INTER:                  -5.320
REMARK INTRA:                  -0.097
REMARK UNBOUND:                -0.097
REMARK SMILES C=C(C)[C@@H]1CC=C(C)C(=O)C1
REMARK SMILES IDX 8 1 7 2 6 3 5 4 4 5 11 6 9 7 10 8 2 9 1 10 3 11
REMARK H PARENT
REMARK Flexibility Score: inf
ROOT
ATOM      1  C   UNL     1      -3.402 -17.453  -6.106  1.00  0.00     0.048 C 
ATOM      2  C   UNL     1      -3.736 -16.090  -6.649  1.00  0.00    -0.012 C 
ATOM      3  C   UNL     1      -4.140 -15.960  -7.925  1.00  0.00    -0.019 C 
ATOM      4  C   UNL     1      -4.504 -14.623  -8.515  1.00  0.00     0.036 C 
ATOM      5  C   UNL     1      -3.660 -13.495  -7.892  1.00  0.00     0.025 C 
ATOM      6  C   UNL     1      -3.793 -13.511  -6.358  1.00  0.00     0.089 C 
ATOM      7  C   UNL     1      -3.501 -14.884  -5.817  1.00  0.00     0.158 C 
ATOM      8  O   UNL     1      -3.089 -15.002  -4.631  1.00  0.00    -0.295 OA
ENDROOT
BRANCH   5   9
ATOM      9  C   UNL     1      -4.035 -12.135  -8.467  1.00  0.00    -0.077 C 
ATOM     10  C   UNL     1      -5.305 -11.702  -8.396  1.00  0.00     0.008 C 
ATOM     11  C   UNL     1      -3.008 -11.249  -9.125  1.00  0.00     0.039 C 
ENDBRANCH   5   9
TORSDOF 1
ENDMDL
MODEL 3
REMARK VINA RESULT:    -4.634      1.530      4.265
REMARK INTER + INTRA:          -5.002
REMARK INTER:                  -4.903
REMARK INTRA:                  -0.098
REMARK UNBOUND:                -0.097
REMARK SMILES C=C(C)[C@@H]1CC=C(C)C(=O)C1
REMARK SMILES IDX 8 1 7 2 6 3 5 4 4 5 11 6 9 7 10 8 2 9 1 10 3 11
REMARK H PARENT
REMARK Flexibility Score: inf
ROOT
ATOM      1  C   UNL     1      -4.207 -11.394  -9.125  1.00  0.00     0.048 C 
ATOM      2  C   UNL     1      -3.820 -12.533  -8.221  1.00  0.00    -0.012 C 
ATOM      3  C   UNL     1      -2.619 -13.120  -8.362  1.00  0.00    -0.019 C 
ATOM      4  C   UNL     1      -2.175 -14.251  -7.472  1.00  0.00     0.036 C 
ATOM      5  C   UNL     1      -3.372 -15.119  -7.039  1.00  0.00     0.025 C 
ATOM      6  C   UNL     1      -4.454 -14.247  -6.377  1.00  0.00     0.089 C 
ATOM      7  C   UNL     1      -4.810 -13.084  -7.261  1.00  0.00     0.158 C 
ATOM      8  O   UNL     1      -5.949 -12.556  -7.152  1.00  0.00    -0.295 OA
ENDROOT
BRANCH   5   9
ATOM      9  C   UNL     1      -2.935 -16.254  -6.123  1.00  0.00    -0.077 C 
ATOM     10  C   UNL     1      -1.833 -16.121  -5.366  1.00  0.00     0.008 C 
ATOM     11  C   UNL     1      -3.714 -17.543  -6.039  1.00  0.00     0.039 C 
ENDBRANCH   5   9
TORSDOF 1
ENDMDL
MODEL 4
REMARK VINA RESULT:    -4.579      1.871      4.620
REMARK INTER + INTRA:          -4.944
REMARK INTER:                  -4.846
REMARK INTRA:                  -0.098
REMARK UNBOUND:                -0.097
REMARK SMILES C=C(C)[C@@H]1CC=C(C)C(=O)C1
REMARK SMILES IDX 8 1 7 2 6 3 5 4 4 5 11 6 9 7 10 8 2 9 1 10 3 11
REMARK H PARENT
REMARK Flexibility Score: inf
ROOT
ATOM      1  C   UNL     1      -5.605 -11.450  -8.293  1.00  0.00     0.048 C 
ATOM      2  C   UNL     1      -4.859 -12.686  -7.871  1.00  0.00    -0.012 C 
ATOM      3  C   UNL     1      -5.489 -13.874  -7.853  1.00  0.00    -0.019 C 
ATOM      4  C   UNL     1      -4.785 -15.145  -7.456  1.00  0.00     0.036 C 
ATOM      5  C   UNL     1      -3.702 -14.871  -6.396  1.00  0.00     0.025 C 
ATOM      6  C   UNL     1      -2.722 -13.794  -6.897  1.00  0.00     0.089 C 
ATOM      7  C   UNL     1      -3.470 -12.574  -7.359  1.00  0.00     0.158 C 
ATOM      8  O   UNL     1      -2.889 -11.455  -7.343  1.00  0.00    -0.295 OA
ENDROOT
BRANCH   5   9
ATOM      9  C   UNL     1      -2.971 -16.148  -6.004  1.00  0.00    -0.077 C 
ATOM     10  C   UNL     1      -1.662 -16.109  -5.705  1.00  0.00     0.008 C 
ATOM     11  C   UNL     1      -3.684 -17.475  -5.941  1.00  0.00     0.039 C 
ENDBRANCH   5   9
TORSDOF 1
ENDMDL
MODEL 5
REMARK VINA RESULT:    -4.199      1.596      2.357
REMARK INTER + INTRA:          -4.542
REMARK INTER:                  -4.454
REMARK INTRA:                  -0.088
REMARK UNBOUND:                -0.097
REMARK SMILES C=C(C)[C@@H]1CC=C(C)C(=O)C1
REMARK SMILES IDX 8 1 7 2 6 3 5 4 4 5 11 6 9 7 10 8 2 9 1 10 3 11
REMARK H PARENT
REMARK Flexibility Score: inf
ROOT
ATOM      1  C   UNL     1      -1.927 -16.636  -5.759  1.00  0.00     0.048 C 
ATOM      2  C   UNL     1      -2.882 -15.588  -6.264  1.00  0.00    -0.012 C 
ATOM      3  C   UNL     1      -4.205 -15.746  -6.083  1.00  0.00    -0.019 C 
ATOM      4  C   UNL     1      -5.203 -14.720  -6.552  1.00  0.00     0.036 C 
ATOM      5  C   UNL     1      -4.715 -14.018  -7.834  1.00  0.00     0.025 C 
ATOM      6  C   UNL     1      -3.316 -13.413  -7.613  1.00  0.00     0.089 C 
ATOM      7  C   UNL     1      -2.373 -14.449  -7.067  1.00  0.00     0.158 C 
ATOM      8  O   UNL     1      -1.134 -14.318  -7.268  1.00  0.00    -0.295 OA
ENDROOT
BRANCH   5   9
ATOM      9  C   UNL     1      -5.708 -12.965  -8.304  1.00  0.00    -0.077 C 
ATOM     10  C   UNL     1      -6.715 -13.308  -9.125  1.00  0.00     0.008 C 
ATOM     11  C   UNL     1      -5.593 -11.525  -7.870  1.00  0.00     0.039 C 
ENDBRANCH   5   9
TORSDOF 1
ENDMDL
MODEL 6
REMARK VINA RESULT:    -3.005      1.922      4.673
REMARK INTER + INTRA:          -3.278
REMARK INTER:                  -3.180
REMARK INTRA:                  -0.098
REMARK UNBOUND:                -0.097
REMARK SMILES C=C(C)[C@@H]1CC=C(C)C(=O)C1
REMARK SMILES IDX 8 1 7 2 6 3 5 4 4 5 11 6 9 7 10 8 2 9 1 10 3 11
REMARK H PARENT
REMARK Flexibility Score: inf
ROOT
ATOM      1  C   UNL     1      -4.099 -12.155  -8.059  1.00  0.00     0.048 C 
ATOM      2  C   UNL     1      -3.806 -13.544  -7.562  1.00  0.00    -0.012 C 
ATOM      3  C   UNL     1      -4.492 -14.590  -8.056  1.00  0.00    -0.019 C 
ATOM      4  C   UNL     1      -4.226 -16.003  -7.608  1.00  0.00     0.036 C 
ATOM      5  C   UNL     1      -3.789 -16.042  -6.131  1.00  0.00     0.025 C 
ATOM      6  C   UNL     1      -2.574 -15.122  -5.908  1.00  0.00     0.089 C 
ATOM      7  C   UNL     1      -2.851 -13.744  -6.443  1.00  0.00     0.158 C 
ATOM      8  O   UNL     1      -2.232 -12.760  -5.955  1.00  0.00    -0.295 OA
ENDROOT
BRANCH   5   9
ATOM      9  C   UNL     1      -3.498 -17.466  -5.675  1.00  0.00    -0.077 C 
ATOM     10  C   UNL     1      -2.238 -17.931  -5.682  1.00  0.00     0.008 C 
ATOM     11  C   UNL     1      -4.601 -18.383  -5.208  1.00  0.00     0.039 C 
ENDBRANCH   5   9
TORSDOF 1
ENDMDL
