MODEL 1
REMARK VINA RESULT:    -6.751      0.000      0.000
REMARK INTER + INTRA:          -8.968
REMARK INTER:                  -7.540
REMARK INTRA:                  -1.428
REMARK UNBOUND:                -1.428
REMARK SMILES C[C@@H]1O[C@H](O[C@@H]2CC[C@]3(C)[C@@H](CC[C@@]4(C)[C@H]3C=C[C@@]35OC[C@@]6(CCC(C)(C)C[C@@H]63)[C@@H](O)C[C@@]45C)[C@@]2(C)CO)[C@H](O)[C@H](O[C@@H]2O[C@H](CO)[C@H](O)[C@H](O)[C@@H]2O)[C@@H]1O
REMARK SMILES IDX 1 1 2 2 54 3 41 4 39 5 4 6 3 7 55 8 42 10 43 11 52 12 44 13
REMARK SMILES IDX 50 14 45 15 48 16 53 17 51 19 46 21 47 22 49 24 5 26 6 27
REMARK SMILES IDX 7 28 35 29 8 30 11 31 36 32 9 33 12 34 10 35 16 36 13 37
REMARK SMILES IDX 14 38 17 39 15 40 33 41 18 42 19 43 32 44 34 45 29 46 20 47
REMARK SMILES IDX 30 48 22 49 28 50 21 51 23 52 25 53 24 54 26 55 27 56 37 57
REMARK SMILES IDX 38 58 31 60 40 62
REMARK H PARENT 55 9 53 18 51 20 47 23 49 25 38 59 31 61 40 63
REMARK Flexibility Score: inf
ROOT
ATOM      1  C   UNL     1      -3.930  90.557  -7.533  1.00  0.00     0.041 C 
ATOM      2  C   UNL     1      -4.776  89.611  -8.829  1.00  0.00     0.150 C 
ATOM      3  C   UNL     1      -6.165  87.552  -8.402  1.00  0.00     0.175 C 
ATOM      4  C   UNL     1      -8.269  86.962  -8.071  1.00  0.00     0.186 C 
ATOM      5  C   UNL     1      -8.290  89.115  -8.894  1.00  0.00     0.202 C 
ATOM      6  C   UNL     1      -6.871  89.465 -10.068  1.00  0.00     0.282 C 
ATOM      7  O   UNL     1      -5.809  88.891  -8.479  1.00  0.00    -0.344 OA
ENDROOT
BRANCH   3   8
ATOM      8  O   UNL     1      -5.336  86.889  -7.352  1.00  0.00    -0.388 OA
ATOM      9  H   UNL     1      -4.285  86.721  -7.456  1.00  0.00     0.211 HD
ENDBRANCH   3   8
BRANCH   4  10
ATOM     10  O   UNL     1      -9.597  85.810  -7.236  1.00  0.00    -0.341 OA
BRANCH  10  11
ATOM     11  C   UNL     1     -11.083  84.508  -7.005  1.00  0.00     0.282 C 
ATOM     12  C   UNL     1     -12.580  85.248  -8.008  1.00  0.00     0.202 C 
ATOM     13  O   UNL     1     -11.935  84.121  -8.398  1.00  0.00    -0.341 OA
ATOM     14  C   UNL     1     -13.985  85.377  -9.529  1.00  0.00     0.179 C 
ATOM     15  C   UNL     1     -12.925  82.732  -8.924  1.00  0.00     0.178 C 
ATOM     16  C   UNL     1     -14.231  83.716  -9.627  1.00  0.00     0.177 C 
BRANCH  12  17
ATOM     17  O   UNL     1     -12.382  86.663  -7.812  1.00  0.00    -0.385 OA
ATOM     18  H   UNL     1     -12.626  87.226  -8.696  1.00  0.00     0.211 HD
ENDBRANCH  12  17
BRANCH  14  19
ATOM     19  O   UNL     1     -13.445  85.952 -10.734  1.00  0.00    -0.387 OA
ATOM     20  H   UNL     1     -12.604  86.540 -10.907  1.00  0.00     0.211 HD
ENDBRANCH  14  19
BRANCH  15  21
ATOM     21  C   UNL     1     -10.365  82.579  -9.339  1.00  0.00     0.191 C 
BRANCH  21  22
ATOM     22  O   UNL     1      -8.990  83.716  -9.698  1.00  0.00    -0.394 OA
ATOM     23  H   UNL     1      -7.879  84.217 -10.343  1.00  0.00     0.210 HD
ENDBRANCH  21  22
ENDBRANCH  15  21
BRANCH  16  24
ATOM     24  O   UNL     1     -14.197  83.285 -11.136  1.00  0.00    -0.387 OA
ATOM     25  H   UNL     1     -14.751  83.878 -11.872  1.00  0.00     0.211 HD
ENDBRANCH  16  24
ENDBRANCH  10  11
ENDBRANCH   4  10
BRANCH   6  26
ATOM     26  O   UNL     1      -8.396  90.906 -10.761  1.00  0.00    -0.346 OA
BRANCH  26  27
ATOM     27  C   UNL     1      -7.633  92.302 -10.065  1.00  0.00     0.130 C 
ATOM     28  C   UNL     1      -9.462  93.278  -9.800  1.00  0.00     0.033 C 
ATOM     29  C   UNL     1      -6.826  92.515 -12.062  1.00  0.00     0.020 C 
ATOM     30  C   UNL     1     -10.861  92.734  -8.861  1.00  0.00     0.010 C 
ATOM     31  C   UNL     1      -8.711  90.406 -12.775  1.00  0.00     0.006 C 
ATOM     32  C   UNL     1      -4.583  91.988 -12.419  1.00  0.00     0.017 C 
ATOM     33  C   UNL     1     -10.951  91.028 -10.915  1.00  0.00    -0.022 C 
ATOM     34  C   UNL     1     -10.180  89.267 -13.438  1.00  0.00     0.005 C 
ATOM     35  C   UNL     1     -11.019  88.559 -10.435  1.00  0.00     0.012 C 
ATOM     36  C   UNL     1     -13.844  92.252 -11.125  1.00  0.00     0.024 C 
ATOM     37  C   UNL     1     -12.419  90.110 -13.183  1.00  0.00     0.008 C 
ATOM     38  C   UNL     1     -14.703  91.206 -12.121  1.00  0.00    -0.017 C 
ATOM     39  C   UNL     1     -15.460  94.738  -9.757  1.00  0.00    -0.024 C 
ATOM     40  C   UNL     1     -16.030  89.468 -12.654  1.00  0.00     0.013 C 
ATOM     41  C   UNL     1     -16.523  93.295 -11.443  1.00  0.00     0.009 C 
ATOM     42  C   UNL     1     -17.108  96.449  -9.116  1.00  0.00     0.005 C 
ATOM     43  C   UNL     1     -17.934  94.709  -9.891  1.00  0.00     0.096 C 
ATOM     44  C   UNL     1     -17.187  94.923 -11.493  1.00  0.00     0.043 C 
ATOM     45  C   UNL     1     -17.109  92.319 -12.854  1.00  0.00     0.015 C 
ATOM     46  C   UNL     1     -19.829  95.163 -10.522  1.00  0.00     0.037 C 
ATOM     47  O   UNL     1     -18.665  94.156  -8.797  1.00  0.00    -0.369 OA
ATOM     48  C   UNL     1     -18.996  94.585 -11.853  1.00  0.00     0.124 C 
ATOM     49  C   UNL     1     -20.417  95.851  -9.583  1.00  0.00     0.026 C 
ATOM     50  C   UNL     1     -21.312  94.507 -11.323  1.00  0.00     0.014 C 
ATOM     51  C   UNL     1     -19.533  95.203  -8.208  1.00  0.00     0.171 C 
ATOM     52  C   UNL     1     -22.263  95.732  -8.335  1.00  0.00     0.013 C 
ATOM     53  C   UNL     1     -22.056  93.474 -10.558  1.00  0.00    -0.035 C 
ATOM     54  C   UNL     1     -22.785  94.373  -9.359  1.00  0.00     0.007 C 
ATOM     55  C   UNL     1     -23.107  92.909 -11.781  1.00  0.00     0.011 C 
ATOM     56  C   UNL     1     -20.898  92.217 -10.572  1.00  0.00     0.011 C 
BRANCH  29  57
ATOM     57  C   UNL     1      -5.886  95.152 -13.092  1.00  0.00     0.165 C 
BRANCH  57  58
ATOM     58  O   UNL     1      -5.004  95.508 -11.884  1.00  0.00    -0.396 OA
ATOM     59  H   UNL     1      -5.425  95.507 -10.740  1.00  0.00     0.210 HD
ENDBRANCH  57  58
ENDBRANCH  29  57
BRANCH  48  60
ATOM     60  O   UNL     1     -18.850  93.806 -13.946  1.00  0.00    -0.392 OA
ATOM     61  H   UNL     1     -17.873  93.801 -14.354  1.00  0.00     0.210 HD
ENDBRANCH  48  60
ENDBRANCH  26  27
ENDBRANCH   6  26
BRANCH   5  62
ATOM     62  O   UNL     1      -8.127  90.066  -7.311  1.00  0.00    -0.385 OA
ATOM     63  H   UNL     1      -7.791  89.196  -8.551  1.00  0.00     0.211 HD
ENDBRANCH   5  62
TORSDOF 14
ENDMDL
MODEL 2
REMARK VINA RESULT:    -6.618      2.724      7.586
REMARK INTER + INTRA:          -8.819
REMARK INTER:                  -7.698
REMARK INTRA:                  -1.122
REMARK UNBOUND:                -1.428
REMARK SMILES C[C@@H]1O[C@H](O[C@@H]2CC[C@]3(C)[C@@H](CC[C@@]4(C)[C@H]3C=C[C@@]35OC[C@@]6(CCC(C)(C)C[C@@H]63)[C@@H](O)C[C@@]45C)[C@@]2(C)CO)[C@H](O)[C@H](O[C@@H]2O[C@H](CO)[C@H](O)[C@H](O)[C@@H]2O)[C@@H]1O
REMARK SMILES IDX 1 1 2 2 54 3 41 4 39 5 4 6 3 7 55 8 42 10 43 11 52 12 44 13
REMARK SMILES IDX 50 14 45 15 48 16 53 17 51 19 46 21 47 22 49 24 5 26 6 27
REMARK SMILES IDX 7 28 35 29 8 30 11 31 36 32 9 33 12 34 10 35 16 36 13 37
REMARK SMILES IDX 14 38 17 39 15 40 33 41 18 42 19 43 32 44 34 45 29 46 20 47
REMARK SMILES IDX 30 48 22 49 28 50 21 51 23 52 25 53 24 54 26 55 27 56 37 57
REMARK SMILES IDX 38 58 31 60 40 62
REMARK H PARENT 55 9 53 18 51 20 47 23 49 25 38 59 31 61 40 63
REMARK Flexibility Score: inf
ROOT
ATOM      1  C   UNL     1      -4.686  85.147  -8.083  1.00  0.00     0.041 C 
ATOM      2  C   UNL     1      -5.327  86.637  -7.273  1.00  0.00     0.150 C 
ATOM      3  C   UNL     1      -4.991  88.978  -8.142  1.00  0.00     0.175 C 
ATOM      4  C   UNL     1      -6.017  90.493  -9.383  1.00  0.00     0.186 C 
ATOM      5  C   UNL     1      -7.580  88.888  -8.843  1.00  0.00     0.202 C 
ATOM      6  C   UNL     1      -7.275  88.102  -7.168  1.00  0.00     0.282 C 
ATOM      7  O   UNL     1      -5.512  87.699  -8.012  1.00  0.00    -0.344 OA
ENDROOT
BRANCH   3   8
ATOM      8  O   UNL     1      -3.579  88.882  -8.617  1.00  0.00    -0.388 OA
ATOM      9  H   UNL     1      -2.746  88.768  -7.956  1.00  0.00     0.211 HD
ENDBRANCH   3   8
BRANCH   4  10
ATOM     10  O   UNL     1      -5.961  91.967 -10.653  1.00  0.00    -0.341 OA
BRANCH  10  11
ATOM     11  C   UNL     1      -5.899  92.976 -12.366  1.00  0.00     0.282 C 
ATOM     12  C   UNL     1      -4.498  92.126 -13.418  1.00  0.00     0.202 C 
ATOM     13  O   UNL     1      -5.807  92.044 -13.758  1.00  0.00    -0.341 OA
ATOM     14  C   UNL     1      -3.677  91.010 -14.962  1.00  0.00     0.179 C 
ATOM     15  C   UNL     1      -6.243  92.292 -15.471  1.00  0.00     0.178 C 
ATOM     16  C   UNL     1      -4.748  91.583 -16.127  1.00  0.00     0.177 C 
BRANCH  12  17
ATOM     17  O   UNL     1      -3.562  91.744 -12.390  1.00  0.00    -0.385 OA
ATOM     18  H   UNL     1      -3.810  90.789 -11.959  1.00  0.00     0.211 HD
ENDBRANCH  12  17
BRANCH  14  19
ATOM     19  O   UNL     1      -3.777  89.592 -14.734  1.00  0.00    -0.387 OA
ATOM     20  H   UNL     1      -3.073  88.827 -14.794  1.00  0.00     0.211 HD
ENDBRANCH  14  19
BRANCH  15  21
ATOM     21  C   UNL     1      -8.112  91.412 -13.896  1.00  0.00     0.191 C 
BRANCH  21  22
ATOM     22  O   UNL     1      -8.288  90.165 -12.583  1.00  0.00    -0.394 OA
ATOM     23  H   UNL     1      -7.989  89.048 -11.829  1.00  0.00     0.210 HD
ENDBRANCH  21  22
ENDBRANCH  15  21
BRANCH  16  24
ATOM     24  O   UNL     1      -5.292  90.367 -16.957  1.00  0.00    -0.387 OA
ATOM     25  H   UNL     1      -5.832  89.567 -16.440  1.00  0.00     0.211 HD
ENDBRANCH  16  24
ENDBRANCH  10  11
ENDBRANCH   4  10
BRANCH   6  26
ATOM     26  O   UNL     1      -9.457  87.841  -7.398  1.00  0.00    -0.346 OA
BRANCH  26  27
ATOM     27  C   UNL     1      -9.351  86.403  -8.365  1.00  0.00     0.130 C 
ATOM     28  C   UNL     1     -11.032  86.930  -9.490  1.00  0.00     0.033 C 
ATOM     29  C   UNL     1      -9.838  85.437  -6.491  1.00  0.00     0.020 C 
ATOM     30  C   UNL     1     -11.277  88.385 -10.467  1.00  0.00     0.010 C 
ATOM     31  C   UNL     1     -10.351  88.141  -5.522  1.00  0.00     0.006 C 
ATOM     32  C   UNL     1      -8.152  84.293  -5.357  1.00  0.00     0.017 C 
ATOM     33  C   UNL     1     -11.382  89.420  -8.006  1.00  0.00    -0.022 C 
ATOM     34  C   UNL     1     -11.074  89.861  -4.880  1.00  0.00     0.005 C 
ATOM     35  C   UNL     1      -9.871  91.351  -7.440  1.00  0.00     0.012 C 
ATOM     36  C   UNL     1     -14.163  90.403  -9.104  1.00  0.00     0.024 C 
ATOM     37  C   UNL     1     -12.976  90.755  -6.052  1.00  0.00     0.008 C 
ATOM     38  C   UNL     1     -14.667  91.604  -8.043  1.00  0.00    -0.017 C 
ATOM     39  C   UNL     1     -15.995  89.828 -11.747  1.00  0.00    -0.024 C 
ATOM     40  C   UNL     1     -14.906  93.690  -7.232  1.00  0.00     0.013 C 
ATOM     41  C   UNL     1     -16.749  91.362  -9.977  1.00  0.00     0.009 C 
ATOM     42  C   UNL     1     -17.770  89.744 -13.448  1.00  0.00     0.005 C 
ATOM     43  C   UNL     1     -17.771  91.467 -12.289  1.00  0.00     0.096 C 
ATOM     44  C   UNL     1     -18.115  90.594 -10.775  1.00  0.00     0.043 C 
ATOM     45  C   UNL     1     -17.293  92.275  -8.508  1.00  0.00     0.015 C 
ATOM     46  C   UNL     1     -19.638  92.299 -12.437  1.00  0.00     0.037 C 
ATOM     47  O   UNL     1     -17.471  92.509 -13.217  1.00  0.00    -0.369 OA
ATOM     48  C   UNL     1     -19.366  91.990 -10.814  1.00  0.00     0.124 C 
ATOM     49  C   UNL     1     -19.980  92.310 -13.695  1.00  0.00     0.026 C 
ATOM     50  C   UNL     1     -20.696  93.653 -11.873  1.00  0.00     0.014 C 
ATOM     51  C   UNL     1     -18.367  92.392 -14.391  1.00  0.00     0.171 C 
ATOM     52  C   UNL     1     -20.621  93.791 -15.236  1.00  0.00     0.013 C 
ATOM     53  C   UNL     1     -20.300  95.012 -12.322  1.00  0.00    -0.035 C 
ATOM     54  C   UNL     1     -20.733  94.997 -13.932  1.00  0.00     0.007 C 
ATOM     55  C   UNL     1     -21.302  95.956 -11.311  1.00  0.00     0.011 C 
ATOM     56  C   UNL     1     -18.817  95.171 -11.485  1.00  0.00     0.011 C 
BRANCH  29  57
ATOM     57  C   UNL     1     -11.086  82.730  -6.409  1.00  0.00     0.165 C 
BRANCH  57  58
ATOM     58  O   UNL     1     -11.034  82.466  -7.922  1.00  0.00    -0.396 OA
ATOM     59  H   UNL     1     -11.220  81.362  -8.404  1.00  0.00     0.210 HD
ENDBRANCH  57  58
ENDBRANCH  29  57
BRANCH  48  60
ATOM     60  O   UNL     1     -19.825  92.179  -8.632  1.00  0.00    -0.392 OA
ATOM     61  H   UNL     1     -20.841  92.031  -8.374  1.00  0.00     0.210 HD
ENDBRANCH  48  60
ENDBRANCH  26  27
ENDBRANCH   6  26
BRANCH   5  62
ATOM     62  O   UNL     1      -7.302  87.689 -10.228  1.00  0.00    -0.385 OA
ATOM     63  H   UNL     1      -7.112  88.502  -8.921  1.00  0.00     0.211 HD
ENDBRANCH   5  62
TORSDOF 14
ENDMDL
MODEL 3
REMARK VINA RESULT:    -6.341      2.410      8.065
REMARK INTER + INTRA:          -8.510
REMARK INTER:                  -7.453
REMARK INTRA:                  -1.057
REMARK UNBOUND:                -1.428
REMARK SMILES C[C@@H]1O[C@H](O[C@@H]2CC[C@]3(C)[C@@H](CC[C@@]4(C)[C@H]3C=C[C@@]35OC[C@@]6(CCC(C)(C)C[C@@H]63)[C@@H](O)C[C@@]45C)[C@@]2(C)CO)[C@H](O)[C@H](O[C@@H]2O[C@H](CO)[C@H](O)[C@H](O)[C@@H]2O)[C@@H]1O
REMARK SMILES IDX 1 1 2 2 54 3 41 4 39 5 4 6 3 7 55 8 42 10 43 11 52 12 44 13
REMARK SMILES IDX 50 14 45 15 48 16 53 17 51 19 46 21 47 22 49 24 5 26 6 27
REMARK SMILES IDX 7 28 35 29 8 30 11 31 36 32 9 33 12 34 10 35 16 36 13 37
REMARK SMILES IDX 14 38 17 39 15 40 33 41 18 42 19 43 32 44 34 45 29 46 20 47
REMARK SMILES IDX 30 48 22 49 28 50 21 51 23 52 25 53 24 54 26 55 27 56 37 57
REMARK SMILES IDX 38 58 31 60 40 62
REMARK H PARENT 55 9 53 18 51 20 47 23 49 25 38 59 31 61 40 63
REMARK Flexibility Score: inf
ROOT
ATOM      1  C   UNL     1      -5.152  84.496  -9.527  1.00  0.00     0.041 C 
ATOM      2  C   UNL     1      -5.720  85.413  -8.070  1.00  0.00     0.150 C 
ATOM      3  C   UNL     1      -5.170  87.828  -7.611  1.00  0.00     0.175 C 
ATOM      4  C   UNL     1      -6.019  89.849  -7.903  1.00  0.00     0.186 C 
ATOM      5  C   UNL     1      -7.721  88.339  -8.270  1.00  0.00     0.202 C 
ATOM      6  C   UNL     1      -7.557  86.784  -7.236  1.00  0.00     0.282 C 
ATOM      7  O   UNL     1      -5.790  86.715  -8.159  1.00  0.00    -0.344 OA
ENDROOT
BRANCH   3   8
ATOM      8  O   UNL     1      -3.747  87.864  -8.063  1.00  0.00    -0.388 OA
ATOM      9  H   UNL     1      -2.932  88.093  -7.409  1.00  0.00     0.211 HD
ENDBRANCH   3   8
BRANCH   4  10
ATOM     10  O   UNL     1      -5.792  91.753  -8.235  1.00  0.00    -0.341 OA
BRANCH  10  11
ATOM     11  C   UNL     1      -6.205  93.674  -8.543  1.00  0.00     0.282 C 
ATOM     12  C   UNL     1      -4.662  94.391  -9.491  1.00  0.00     0.202 C 
ATOM     13  O   UNL     1      -5.874  94.253 -10.082  1.00  0.00    -0.341 OA
ATOM     14  C   UNL     1      -3.596  95.182 -11.085  1.00  0.00     0.179 C 
ATOM     15  C   UNL     1      -6.478  95.608 -11.076  1.00  0.00     0.178 C 
ATOM     16  C   UNL     1      -4.873  96.122 -11.648  1.00  0.00     0.177 C 
BRANCH  12  17
ATOM     17  O   UNL     1      -3.588  93.628  -8.904  1.00  0.00    -0.385 OA
ATOM     18  H   UNL     1      -3.754  92.569  -8.997  1.00  0.00     0.211 HD
ENDBRANCH  12  17
BRANCH  14  19
ATOM     19  O   UNL     1      -3.166  94.174 -12.018  1.00  0.00    -0.387 OA
ATOM     20  H   UNL     1      -3.610  93.288 -12.338  1.00  0.00     0.211 HD
ENDBRANCH  14  19
BRANCH  15  21
ATOM     21  C   UNL     1      -7.802  93.376 -11.197  1.00  0.00     0.191 C 
BRANCH  21  22
ATOM     22  O   UNL     1      -7.443  91.594 -11.133  1.00  0.00    -0.394 OA
ATOM     23  H   UNL     1      -7.615  90.245 -11.364  1.00  0.00     0.210 HD
ENDBRANCH  21  22
ENDBRANCH  15  21
BRANCH  16  24
ATOM     24  O   UNL     1      -4.997  95.931 -13.202  1.00  0.00    -0.387 OA
ATOM     25  H   UNL     1      -4.159  95.492 -13.753  1.00  0.00     0.211 HD
ENDBRANCH  16  24
ENDBRANCH  10  11
ENDBRANCH   4  10
BRANCH   6  26
ATOM     26  O   UNL     1      -9.739  86.872  -7.576  1.00  0.00    -0.346 OA
BRANCH  26  27
ATOM     27  C   UNL     1      -9.794  85.507  -8.648  1.00  0.00     0.130 C 
ATOM     28  C   UNL     1     -11.437  86.278  -9.686  1.00  0.00     0.033 C 
ATOM     29  C   UNL     1     -10.339  84.455  -6.837  1.00  0.00     0.020 C 
ATOM     30  C   UNL     1     -11.554  87.820 -10.548  1.00  0.00     0.010 C 
ATOM     31  C   UNL     1     -10.563  87.115  -5.660  1.00  0.00     0.006 C 
ATOM     32  C   UNL     1      -8.753  83.070  -5.834  1.00  0.00     0.017 C 
ATOM     33  C   UNL     1     -11.509  88.672  -8.016  1.00  0.00    -0.022 C 
ATOM     34  C   UNL     1     -11.099  88.844  -4.875  1.00  0.00     0.005 C 
ATOM     35  C   UNL     1      -9.803  90.399  -7.350  1.00  0.00     0.012 C 
ATOM     36  C   UNL     1     -14.200  90.001  -8.965  1.00  0.00     0.024 C 
ATOM     37  C   UNL     1     -12.925  90.006  -5.928  1.00  0.00     0.008 C 
ATOM     38  C   UNL     1     -14.561  91.163  -7.807  1.00  0.00    -0.017 C 
ATOM     39  C   UNL     1     -16.129  89.807 -11.593  1.00  0.00    -0.024 C 
ATOM     40  C   UNL     1     -14.576  93.195  -6.839  1.00  0.00     0.013 C 
ATOM     41  C   UNL     1     -16.694  91.270  -9.697  1.00  0.00     0.009 C 
ATOM     42  C   UNL     1     -17.937  90.025 -13.249  1.00  0.00     0.005 C 
ATOM     43  C   UNL     1     -17.745  91.648 -11.967  1.00  0.00     0.096 C 
ATOM     44  C   UNL     1     -18.144  90.701 -10.513  1.00  0.00     0.043 C 
ATOM     45  C   UNL     1     -17.117  92.119  -8.152  1.00  0.00     0.015 C 
ATOM     46  C   UNL     1     -19.522  92.666 -12.004  1.00  0.00     0.037 C 
ATOM     47  O   UNL     1     -17.360  92.722 -12.824  1.00  0.00    -0.369 OA
ATOM     48  C   UNL     1     -19.251  92.212 -10.417  1.00  0.00     0.124 C 
ATOM     49  C   UNL     1     -19.885  92.806 -13.249  1.00  0.00     0.026 C 
ATOM     50  C   UNL     1     -20.430  94.071 -11.315  1.00  0.00     0.014 C 
ATOM     51  C   UNL     1     -18.286  92.782 -13.980  1.00  0.00     0.171 C 
ATOM     52  C   UNL     1     -20.406  94.454 -14.660  1.00  0.00     0.013 C 
ATOM     53  C   UNL     1     -19.909  95.415 -11.674  1.00  0.00    -0.035 C 
ATOM     54  C   UNL     1     -20.373  95.563 -13.269  1.00  0.00     0.007 C 
ATOM     55  C   UNL     1     -20.794  96.373 -10.571  1.00  0.00     0.011 C 
ATOM     56  C   UNL     1     -18.403  95.365 -10.868  1.00  0.00     0.011 C 
BRANCH  29  57
ATOM     57  C   UNL     1     -11.847  81.884  -6.920  1.00  0.00     0.165 C 
BRANCH  57  58
ATOM     58  O   UNL     1     -12.619  82.174  -8.216  1.00  0.00    -0.396 OA
ATOM     59  H   UNL     1     -13.748  82.634  -8.221  1.00  0.00     0.210 HD
ENDBRANCH  57  58
ENDBRANCH  29  57
BRANCH  48  60
ATOM     60  O   UNL     1     -19.647  92.280  -8.215  1.00  0.00    -0.392 OA
ATOM     61  H   UNL     1     -19.341  93.172  -7.733  1.00  0.00     0.210 HD
ENDBRANCH  48  60
ENDBRANCH  26  27
ENDBRANCH   6  26
BRANCH   5  62
ATOM     62  O   UNL     1      -7.465  87.998 -10.074  1.00  0.00    -0.385 OA
ATOM     63  H   UNL     1      -8.135  88.349  -8.720  1.00  0.00     0.211 HD
ENDBRANCH   5  62
TORSDOF 14
ENDMDL
MODEL 4
REMARK VINA RESULT:    -6.120      3.914      8.208
REMARK INTER + INTRA:          -8.263
REMARK INTER:                  -6.889
REMARK INTRA:                  -1.374
REMARK UNBOUND:                -1.428
REMARK SMILES C[C@@H]1O[C@H](O[C@@H]2CC[C@]3(C)[C@@H](CC[C@@]4(C)[C@H]3C=C[C@@]35OC[C@@]6(CCC(C)(C)C[C@@H]63)[C@@H](O)C[C@@]45C)[C@@]2(C)CO)[C@H](O)[C@H](O[C@@H]2O[C@H](CO)[C@H](O)[C@H](O)[C@@H]2O)[C@@H]1O
REMARK SMILES IDX 1 1 2 2 54 3 41 4 39 5 4 6 3 7 55 8 42 10 43 11 52 12 44 13
REMARK SMILES IDX 50 14 45 15 48 16 53 17 51 19 46 21 47 22 49 24 5 26 6 27
REMARK SMILES IDX 7 28 35 29 8 30 11 31 36 32 9 33 12 34 10 35 16 36 13 37
REMARK SMILES IDX 14 38 17 39 15 40 33 41 18 42 19 43 32 44 34 45 29 46 20 47
REMARK SMILES IDX 30 48 22 49 28 50 21 51 23 52 25 53 24 54 26 55 27 56 37 57
REMARK SMILES IDX 38 58 31 60 40 62
REMARK H PARENT 55 9 53 18 51 20 47 23 49 25 38 59 31 61 40 63
REMARK Flexibility Score: inf
ROOT
ATOM      1  C   UNL     1      -4.009  89.984 -13.875  1.00  0.00     0.041 C 
ATOM      2  C   UNL     1      -4.382  91.286 -12.669  1.00  0.00     0.150 C 
ATOM      3  C   UNL     1      -5.475  93.482 -13.247  1.00  0.00     0.175 C 
ATOM      4  C   UNL     1      -7.474  94.423 -13.299  1.00  0.00     0.186 C 
ATOM      5  C   UNL     1      -7.666  92.489 -12.059  1.00  0.00     0.202 C 
ATOM      6  C   UNL     1      -6.101  92.061 -11.121  1.00  0.00     0.282 C 
ATOM      7  O   UNL     1      -5.335  92.132 -12.963  1.00  0.00    -0.344 OA
ENDROOT
BRANCH   3   8
ATOM      8  O   UNL     1      -4.800  93.777 -14.547  1.00  0.00    -0.388 OA
ATOM      9  H   UNL     1      -4.141  93.090 -15.032  1.00  0.00     0.211 HD
ENDBRANCH   3   8
BRANCH   4  10
ATOM     10  O   UNL     1      -8.746  95.664 -14.093  1.00  0.00    -0.341 OA
BRANCH  10  11
ATOM     11  C   UNL     1     -10.363  96.377 -15.007  1.00  0.00     0.282 C 
ATOM     12  C   UNL     1     -10.088  96.016 -16.901  1.00  0.00     0.202 C 
ATOM     13  O   UNL     1     -11.038  95.379 -16.174  1.00  0.00    -0.341 OA
ATOM     14  C   UNL     1     -10.413  95.120 -18.744  1.00  0.00     0.179 C 
ATOM     15  C   UNL     1     -12.663  95.203 -16.895  1.00  0.00     0.178 C 
ATOM     16  C   UNL     1     -12.086  95.062 -18.572  1.00  0.00     0.177 C 
BRANCH  12  17
ATOM     17  O   UNL     1      -8.660  96.177 -17.017  1.00  0.00    -0.385 OA
ATOM     18  H   UNL     1      -8.387  96.671 -17.934  1.00  0.00     0.211 HD
ENDBRANCH  12  17
BRANCH  14  19
ATOM     19  O   UNL     1      -9.797  93.823 -18.844  1.00  0.00    -0.387 OA
ATOM     20  H   UNL     1      -9.973  92.929 -18.340  1.00  0.00     0.211 HD
ENDBRANCH  14  19
BRANCH  15  21
ATOM     21  C   UNL     1     -12.191  93.876 -14.712  1.00  0.00     0.191 C 
BRANCH  21  22
ATOM     22  O   UNL     1     -10.810  92.952 -13.971  1.00  0.00    -0.394 OA
ATOM     23  H   UNL     1      -9.710  92.717 -13.173  1.00  0.00     0.210 HD
ENDBRANCH  21  22
ENDBRANCH  15  21
BRANCH  16  24
ATOM     24  O   UNL     1     -12.587  93.631 -18.978  1.00  0.00    -0.387 OA
ATOM     25  H   UNL     1     -13.659  93.466 -19.134  1.00  0.00     0.211 HD
ENDBRANCH  16  24
ENDBRANCH  10  11
ENDBRANCH   4  10
BRANCH   6  26
ATOM     26  O   UNL     1      -7.650  91.097  -9.876  1.00  0.00    -0.346 OA
BRANCH  26  27
ATOM     27  C   UNL     1      -7.349  89.488 -10.454  1.00  0.00     0.130 C 
ATOM     28  C   UNL     1      -9.374  88.978 -10.351  1.00  0.00     0.033 C 
ATOM     29  C   UNL     1      -6.318  89.297  -8.561  1.00  0.00     0.020 C 
ATOM     30  C   UNL     1     -10.735  89.750 -11.179  1.00  0.00     0.010 C 
ATOM     31  C   UNL     1      -7.527  91.876  -7.930  1.00  0.00     0.006 C 
ATOM     32  C   UNL     1      -3.986  89.280  -8.560  1.00  0.00     0.017 C 
ATOM     33  C   UNL     1     -10.109  91.637  -9.394  1.00  0.00    -0.022 C 
ATOM     34  C   UNL     1      -8.571  93.411  -7.261  1.00  0.00     0.005 C 
ATOM     35  C   UNL     1      -9.672  93.977 -10.209  1.00  0.00     0.012 C 
ATOM     36  C   UNL     1     -13.139  91.208  -8.659  1.00  0.00     0.024 C 
ATOM     37  C   UNL     1     -10.956  93.134  -7.117  1.00  0.00     0.008 C 
ATOM     38  C   UNL     1     -13.568  92.537  -7.724  1.00  0.00    -0.017 C 
ATOM     39  C   UNL     1     -15.481  89.073  -9.450  1.00  0.00    -0.024 C 
ATOM     40  C   UNL     1     -14.355  94.600  -7.286  1.00  0.00     0.013 C 
ATOM     41  C   UNL     1     -15.906  90.910  -7.869  1.00  0.00     0.009 C 
ATOM     42  C   UNL     1     -17.560  87.770  -9.634  1.00  0.00     0.005 C 
ATOM     43  C   UNL     1     -17.829  89.736  -9.019  1.00  0.00     0.096 C 
ATOM     44  C   UNL     1     -16.915  89.516  -7.507  1.00  0.00     0.043 C 
ATOM     45  C   UNL     1     -16.025  92.149  -6.551  1.00  0.00     0.015 C 
ATOM     46  C   UNL     1     -19.658  89.842  -8.103  1.00  0.00     0.037 C 
ATOM     47  O   UNL     1     -18.570  90.333 -10.083  1.00  0.00    -0.369 OA
ATOM     48  C   UNL     1     -18.518  90.334  -6.980  1.00  0.00     0.124 C 
ATOM     49  C   UNL     1     -20.527  89.227  -8.855  1.00  0.00     0.026 C 
ATOM     50  C   UNL     1     -20.806  90.932  -7.227  1.00  0.00     0.014 C 
ATOM     51  C   UNL     1     -19.738  89.479 -10.406  1.00  0.00     0.171 C 
ATOM     52  C   UNL     1     -22.464  89.668  -9.871  1.00  0.00     0.013 C 
ATOM     53  C   UNL     1     -21.397  92.029  -8.035  1.00  0.00    -0.035 C 
ATOM     54  C   UNL     1     -22.491  91.217  -8.995  1.00  0.00     0.007 C 
ATOM     55  C   UNL     1     -22.087  92.969  -6.786  1.00  0.00     0.011 C 
ATOM     56  C   UNL     1     -19.990  92.950  -8.343  1.00  0.00     0.011 C 
BRANCH  29  57
ATOM     57  C   UNL     1      -5.871  86.637  -7.289  1.00  0.00     0.165 C 
BRANCH  57  58
ATOM     58  O   UNL     1      -5.311  85.937  -8.537  1.00  0.00    -0.396 OA
ATOM     59  H   UNL     1      -4.190  86.150  -8.964  1.00  0.00     0.210 HD
ENDBRANCH  57  58
ENDBRANCH  29  57
BRANCH  48  60
ATOM     60  O   UNL     1     -17.875  91.273  -5.053  1.00  0.00    -0.392 OA
ATOM     61  H   UNL     1     -18.193  90.765  -4.180  1.00  0.00     0.210 HD
ENDBRANCH  48  60
ENDBRANCH  26  27
ENDBRANCH   6  26
BRANCH   5  62
ATOM     62  O   UNL     1      -8.014  91.273 -13.413  1.00  0.00    -0.385 OA
ATOM     63  H   UNL     1      -7.266  92.171 -12.394  1.00  0.00     0.211 HD
ENDBRANCH   5  62
TORSDOF 14
ENDMDL
MODEL 5
REMARK VINA RESULT:    -6.081      2.636      3.235
REMARK INTER + INTRA:          -8.220
REMARK INTER:                  -7.179
REMARK INTRA:                  -1.040
REMARK UNBOUND:                -1.428
REMARK SMILES C[C@@H]1O[C@H](O[C@@H]2CC[C@]3(C)[C@@H](CC[C@@]4(C)[C@H]3C=C[C@@]35OC[C@@]6(CCC(C)(C)C[C@@H]63)[C@@H](O)C[C@@]45C)[C@@]2(C)CO)[C@H](O)[C@H](O[C@@H]2O[C@H](CO)[C@H](O)[C@H](O)[C@@H]2O)[C@@H]1O
REMARK SMILES IDX 1 1 2 2 54 3 41 4 39 5 4 6 3 7 55 8 42 10 43 11 52 12 44 13
REMARK SMILES IDX 50 14 45 15 48 16 53 17 51 19 46 21 47 22 49 24 5 26 6 27
REMARK SMILES IDX 7 28 35 29 8 30 11 31 36 32 9 33 12 34 10 35 16 36 13 37
REMARK SMILES IDX 14 38 17 39 15 40 33 41 18 42 19 43 32 44 34 45 29 46 20 47
REMARK SMILES IDX 30 48 22 49 28 50 21 51 23 52 25 53 24 54 26 55 27 56 37 57
REMARK SMILES IDX 38 58 31 60 40 62
REMARK H PARENT 55 9 53 18 51 20 47 23 49 25 38 59 31 61 40 63
REMARK Flexibility Score: inf
ROOT
ATOM      1  C   UNL     1      -4.143  93.871  -9.150  1.00  0.00     0.041 C 
ATOM      2  C   UNL     1      -4.750  92.526 -10.205  1.00  0.00     0.150 C 
ATOM      3  C   UNL     1      -5.034  90.142  -9.438  1.00  0.00     0.175 C 
ATOM      4  C   UNL     1      -6.587  88.792  -8.632  1.00  0.00     0.186 C 
ATOM      5  C   UNL     1      -7.670  90.645  -9.471  1.00  0.00     0.202 C 
ATOM      6  C   UNL     1      -6.788  91.407 -10.940  1.00  0.00     0.282 C 
ATOM      7  O   UNL     1      -5.295  91.493  -9.619  1.00  0.00    -0.344 OA
ENDROOT
BRANCH   3   8
ATOM      8  O   UNL     1      -3.816  89.992  -8.588  1.00  0.00    -0.388 OA
ATOM      9  H   UNL     1      -3.299  89.064  -8.465  1.00  0.00     0.211 HD
ENDBRANCH   3   8
BRANCH   4  10
ATOM     10  O   UNL     1      -7.117  87.301  -7.499  1.00  0.00    -0.341 OA
BRANCH  10  11
ATOM     11  C   UNL     1      -7.649  85.476  -6.913  1.00  0.00     0.282 C 
ATOM     12  C   UNL     1      -9.522  85.295  -7.417  1.00  0.00     0.202 C 
ATOM     13  O   UNL     1      -8.539  84.585  -8.022  1.00  0.00    -0.341 OA
ATOM     14  C   UNL     1     -11.158  84.574  -8.468  1.00  0.00     0.179 C 
ATOM     15  C   UNL     1      -8.820  82.845  -8.307  1.00  0.00     0.178 C 
ATOM     16  C   UNL     1     -10.573  83.000  -8.566  1.00  0.00     0.177 C 
BRANCH  12  17
ATOM     17  O   UNL     1     -10.000  86.642  -7.221  1.00  0.00    -0.385 OA
ATOM     18  H   UNL     1     -10.486  86.758  -6.267  1.00  0.00     0.211 HD
ENDBRANCH  12  17
BRANCH  14  19
ATOM     19  O   UNL     1     -11.316  85.211  -9.750  1.00  0.00    -0.387 OA
ATOM     20  H   UNL     1     -11.339  86.214 -10.030  1.00  0.00     0.211 HD
ENDBRANCH  14  19
BRANCH  15  21
ATOM     21  C   UNL     1      -6.734  83.903  -9.439  1.00  0.00     0.191 C 
BRANCH  21  22
ATOM     22  O   UNL     1      -5.168  83.337 -10.171  1.00  0.00    -0.394 OA
ATOM     23  H   UNL     1      -4.166  82.459 -10.529  1.00  0.00     0.210 HD
ENDBRANCH  21  22
ENDBRANCH  15  21
BRANCH  16  24
ATOM     24  O   UNL     1     -10.739  82.487 -10.040  1.00  0.00    -0.387 OA
ATOM     25  H   UNL     1     -10.385  83.113 -10.865  1.00  0.00     0.211 HD
ENDBRANCH  16  24
ENDBRANCH  10  11
ENDBRANCH   4  10
BRANCH   6  26
ATOM     26  O   UNL     1      -8.880  92.020 -11.301  1.00  0.00    -0.346 OA
BRANCH  26  27
ATOM     27  C   UNL     1      -8.589  93.721 -11.108  1.00  0.00     0.130 C 
ATOM     28  C   UNL     1     -10.540  94.068 -10.442  1.00  0.00     0.033 C 
ATOM     29  C   UNL     1      -8.415  93.656 -13.264  1.00  0.00     0.020 C 
ATOM     30  C   UNL     1     -11.355  93.359  -9.040  1.00  0.00     0.010 C 
ATOM     31  C   UNL     1      -9.428  90.932 -13.011  1.00  0.00     0.006 C 
ATOM     32  C   UNL     1      -6.294  93.830 -14.216  1.00  0.00     0.017 C 
ATOM     33  C   UNL     1     -11.238  91.242 -10.667  1.00  0.00    -0.022 C 
ATOM     34  C   UNL     1     -10.441  89.239 -12.993  1.00  0.00     0.005 C 
ATOM     35  C   UNL     1     -10.217  89.109  -9.806  1.00  0.00     0.012 C 
ATOM     36  C   UNL     1     -14.342  91.335 -10.153  1.00  0.00     0.024 C 
ATOM     37  C   UNL     1     -12.706  89.326 -12.188  1.00  0.00     0.008 C 
ATOM     38  C   UNL     1     -14.926  89.840 -10.653  1.00  0.00    -0.017 C 
ATOM     39  C   UNL     1     -16.444  93.410  -8.760  1.00  0.00    -0.024 C 
ATOM     40  C   UNL     1     -15.546  87.685 -10.464  1.00  0.00     0.013 C 
ATOM     41  C   UNL     1     -17.211  91.307  -9.780  1.00  0.00     0.009 C 
ATOM     42  C   UNL     1     -18.435  94.582  -7.915  1.00  0.00     0.005 C 
ATOM     43  C   UNL     1     -18.665  92.527  -8.108  1.00  0.00     0.096 C 
ATOM     44  C   UNL     1     -18.453  92.548  -9.876  1.00  0.00     0.043 C 
ATOM     45  C   UNL     1     -17.674  89.857 -10.764  1.00  0.00     0.015 C 
ATOM     46  C   UNL     1     -20.676  92.144  -8.180  1.00  0.00     0.037 C 
ATOM     47  O   UNL     1     -18.846  92.072  -6.768  1.00  0.00    -0.369 OA
ATOM     48  C   UNL     1     -20.013  91.546  -9.595  1.00  0.00     0.124 C 
ATOM     49  C   UNL     1     -21.253  92.819  -7.225  1.00  0.00     0.026 C 
ATOM     50  C   UNL     1     -21.923  90.846  -8.364  1.00  0.00     0.014 C 
ATOM     51  C   UNL     1     -19.895  92.888  -6.111  1.00  0.00     0.171 C 
ATOM     52  C   UNL     1     -22.562  92.427  -5.461  1.00  0.00     0.013 C 
ATOM     53  C   UNL     1     -22.002  89.865  -7.252  1.00  0.00    -0.035 C 
ATOM     54  C   UNL     1     -22.729  90.753  -6.042  1.00  0.00     0.007 C 
ATOM     55  C   UNL     1     -22.997  88.682  -7.979  1.00  0.00     0.011 C 
ATOM     56  C   UNL     1     -20.480  89.107  -7.427  1.00  0.00     0.011 C 
BRANCH  29  57
ATOM     57  C   UNL     1      -8.852  96.085 -14.938  1.00  0.00     0.165 C 
BRANCH  57  58
ATOM     58  O   UNL     1      -8.898  95.360 -16.292  1.00  0.00    -0.396 OA
ATOM     59  H   UNL     1      -9.197  95.924 -17.331  1.00  0.00     0.210 HD
ENDBRANCH  57  58
ENDBRANCH  29  57
BRANCH  48  60
ATOM     60  O   UNL     1     -20.059  90.338 -11.479  1.00  0.00    -0.392 OA
ATOM     61  H   UNL     1     -19.113  90.012 -11.824  1.00  0.00     0.210 HD
ENDBRANCH  48  60
ENDBRANCH  26  27
ENDBRANCH   6  26
BRANCH   5  62
ATOM     62  O   UNL     1      -7.614  91.750  -7.984  1.00  0.00    -0.385 OA
ATOM     63  H   UNL     1      -7.788  91.245  -9.440  1.00  0.00     0.211 HD
ENDBRANCH   5  62
TORSDOF 14
ENDMDL
MODEL 6
REMARK VINA RESULT:    -5.912      2.863      4.399
REMARK INTER + INTRA:          -8.031
REMARK INTER:                  -7.535
REMARK INTRA:                  -0.496
REMARK UNBOUND:                -1.428
REMARK SMILES C[C@@H]1O[C@H](O[C@@H]2CC[C@]3(C)[C@@H](CC[C@@]4(C)[C@H]3C=C[C@@]35OC[C@@]6(CCC(C)(C)C[C@@H]63)[C@@H](O)C[C@@]45C)[C@@]2(C)CO)[C@H](O)[C@H](O[C@@H]2O[C@H](CO)[C@H](O)[C@H](O)[C@@H]2O)[C@@H]1O
REMARK SMILES IDX 1 1 2 2 54 3 41 4 39 5 4 6 3 7 55 8 42 10 43 11 52 12 44 13
REMARK SMILES IDX 50 14 45 15 48 16 53 17 51 19 46 21 47 22 49 24 5 26 6 27
REMARK SMILES IDX 7 28 35 29 8 30 11 31 36 32 9 33 12 34 10 35 16 36 13 37
REMARK SMILES IDX 14 38 17 39 15 40 33 41 18 42 19 43 32 44 34 45 29 46 20 47
REMARK SMILES IDX 30 48 22 49 28 50 21 51 23 52 25 53 24 54 26 55 27 56 37 57
REMARK SMILES IDX 38 58 31 60 40 62
REMARK H PARENT 55 9 53 18 51 20 47 23 49 25 38 59 31 61 40 63
REMARK Flexibility Score: inf
ROOT
ATOM      1  C   UNL     1      -4.286  94.329  -8.989  1.00  0.00     0.041 C 
ATOM      2  C   UNL     1      -4.689  93.099 -10.260  1.00  0.00     0.150 C 
ATOM      3  C   UNL     1      -4.808  90.617  -9.843  1.00  0.00     0.175 C 
ATOM      4  C   UNL     1      -6.284  89.045  -9.357  1.00  0.00     0.186 C 
ATOM      5  C   UNL     1      -7.469  90.904 -10.030  1.00  0.00     0.202 C 
ATOM      6  C   UNL     1      -6.558  91.932 -11.306  1.00  0.00     0.282 C 
ATOM      7  O   UNL     1      -5.178  91.954  -9.864  1.00  0.00    -0.344 OA
ENDROOT
BRANCH   3   8
ATOM      8  O   UNL     1      -3.645  90.449  -8.921  1.00  0.00    -0.388 OA
ATOM      9  H   UNL     1      -2.730  89.979  -9.213  1.00  0.00     0.211 HD
ENDBRANCH   3   8
BRANCH   4  10
ATOM     10  O   UNL     1      -6.755  87.373  -8.480  1.00  0.00    -0.341 OA
BRANCH  10  11
ATOM     11  C   UNL     1      -6.654  85.759  -7.321  1.00  0.00     0.282 C 
ATOM     12  C   UNL     1      -6.339  84.269  -8.536  1.00  0.00     0.202 C 
ATOM     13  O   UNL     1      -5.398  84.699  -7.659  1.00  0.00    -0.341 OA
ATOM     14  C   UNL     1      -5.287  82.721  -9.430  1.00  0.00     0.179 C 
ATOM     15  C   UNL     1      -4.503  83.468  -6.726  1.00  0.00     0.178 C 
ATOM     16  C   UNL     1      -4.527  82.236  -8.010  1.00  0.00     0.177 C 
BRANCH  12  17
ATOM     17  O   UNL     1      -7.089  84.684  -9.695  1.00  0.00    -0.385 OA
ATOM     18  H   UNL     1      -6.890  84.053 -10.545  1.00  0.00     0.211 HD
ENDBRANCH  12  17
BRANCH  14  19
ATOM     19  O   UNL     1      -4.375  83.185 -10.443  1.00  0.00    -0.387 OA
ATOM     20  H   UNL     1      -4.479  83.890 -11.202  1.00  0.00     0.211 HD
ENDBRANCH  14  19
BRANCH  15  21
ATOM     21  C   UNL     1      -3.631  85.912  -6.594  1.00  0.00     0.191 C 
BRANCH  21  22
ATOM     22  O   UNL     1      -3.624  87.396  -7.646  1.00  0.00    -0.394 OA
ATOM     23  H   UNL     1      -4.125  88.493  -8.316  1.00  0.00     0.210 HD
ENDBRANCH  21  22
ENDBRANCH  15  21
BRANCH  16  24
ATOM     24  O   UNL     1      -2.999  82.025  -8.298  1.00  0.00    -0.387 OA
ATOM     25  H   UNL     1      -2.265  82.356  -7.556  1.00  0.00     0.211 HD
ENDBRANCH  16  24
ENDBRANCH  10  11
ENDBRANCH   4  10
BRANCH   6  26
ATOM     26  O   UNL     1      -8.665  92.418 -11.757  1.00  0.00    -0.346 OA
BRANCH  26  27
ATOM     27  C   UNL     1      -8.403  94.122 -11.958  1.00  0.00     0.130 C 
ATOM     28  C   UNL     1     -10.428  94.557 -11.678  1.00  0.00     0.033 C 
ATOM     29  C   UNL     1      -7.923  93.530 -13.984  1.00  0.00     0.020 C 
ATOM     30  C   UNL     1     -11.436  94.190 -10.269  1.00  0.00     0.010 C 
ATOM     31  C   UNL     1      -8.965  90.921 -13.198  1.00  0.00     0.006 C 
ATOM     32  C   UNL     1      -5.687  93.534 -14.645  1.00  0.00     0.017 C 
ATOM     33  C   UNL     1     -11.091  91.741 -11.281  1.00  0.00    -0.022 C 
ATOM     34  C   UNL     1      -9.973  89.251 -12.896  1.00  0.00     0.005 C 
ATOM     35  C   UNL     1     -10.206  89.926  -9.779  1.00  0.00     0.012 C 
ATOM     36  C   UNL     1     -14.237  91.851 -11.242  1.00  0.00     0.024 C 
ATOM     37  C   UNL     1     -12.330  89.458 -12.461  1.00  0.00     0.008 C 
ATOM     38  C   UNL     1     -14.745  90.261 -11.427  1.00  0.00    -0.017 C 
ATOM     39  C   UNL     1     -16.512  94.135 -10.718  1.00  0.00    -0.024 C 
ATOM     40  C   UNL     1     -15.389  88.199 -10.791  1.00  0.00     0.013 C 
ATOM     41  C   UNL     1     -17.129  91.819 -11.275  1.00  0.00     0.009 C 
ATOM     42  C   UNL     1     -18.603  95.411 -10.479  1.00  0.00     0.005 C 
ATOM     43  C   UNL     1     -18.805  93.365 -10.180  1.00  0.00     0.096 C 
ATOM     44  C   UNL     1     -18.343  92.953 -11.850  1.00  0.00     0.043 C 
ATOM     45  C   UNL     1     -17.449  90.154 -11.918  1.00  0.00     0.015 C 
ATOM     46  C   UNL     1     -20.786  92.907 -10.431  1.00  0.00     0.037 C 
ATOM     47  O   UNL     1     -19.176  93.251  -8.807  1.00  0.00    -0.369 OA
ATOM     48  C   UNL     1     -19.929  92.000 -11.546  1.00  0.00     0.124 C 
ATOM     49  C   UNL     1     -21.493  93.778  -9.766  1.00  0.00     0.026 C 
ATOM     50  C   UNL     1     -21.995  91.562 -10.455  1.00  0.00     0.014 C 
ATOM     51  C   UNL     1     -20.307  94.168  -8.528  1.00  0.00     0.171 C 
ATOM     52  C   UNL     1     -23.040  93.792  -8.158  1.00  0.00     0.013 C 
ATOM     53  C   UNL     1     -22.234  90.886  -9.155  1.00  0.00    -0.035 C 
ATOM     54  C   UNL     1     -23.125  92.021  -8.319  1.00  0.00     0.007 C 
ATOM     55  C   UNL     1     -23.117  89.526  -9.693  1.00  0.00     0.011 C 
ATOM     56  C   UNL     1     -20.704  90.161  -8.921  1.00  0.00     0.011 C 
BRANCH  29  57
ATOM     57  C   UNL     1      -8.113  95.450 -16.257  1.00  0.00     0.165 C 
BRANCH  57  58
ATOM     58  O   UNL     1      -8.269  94.397 -17.365  1.00  0.00    -0.396 OA
ATOM     59  H   UNL     1      -8.151  94.665 -18.548  1.00  0.00     0.210 HD
ENDBRANCH  57  58
ENDBRANCH  29  57
BRANCH  48  60
ATOM     60  O   UNL     1     -19.707  90.361 -13.053  1.00  0.00    -0.392 OA
ATOM     61  H   UNL     1     -20.617  89.935 -13.388  1.00  0.00     0.210 HD
ENDBRANCH  48  60
ENDBRANCH  26  27
ENDBRANCH   6  26
BRANCH   5  62
ATOM     62  O   UNL     1      -7.623  91.791  -8.410  1.00  0.00    -0.385 OA
ATOM     63  H   UNL     1      -7.026  91.155  -9.693  1.00  0.00     0.211 HD
ENDBRANCH   5  62
TORSDOF 14
ENDMDL
MODEL 7
REMARK VINA RESULT:    -5.906      3.699      8.256
REMARK INTER + INTRA:          -8.024
REMARK INTER:                  -6.736
REMARK INTRA:                  -1.287
REMARK UNBOUND:                -1.428
REMARK SMILES C[C@@H]1O[C@H](O[C@@H]2CC[C@]3(C)[C@@H](CC[C@@]4(C)[C@H]3C=C[C@@]35OC[C@@]6(CCC(C)(C)C[C@@H]63)[C@@H](O)C[C@@]45C)[C@@]2(C)CO)[C@H](O)[C@H](O[C@@H]2O[C@H](CO)[C@H](O)[C@H](O)[C@@H]2O)[C@@H]1O
REMARK SMILES IDX 1 1 2 2 54 3 41 4 39 5 4 6 3 7 55 8 42 10 43 11 52 12 44 13
REMARK SMILES IDX 50 14 45 15 48 16 53 17 51 19 46 21 47 22 49 24 5 26 6 27
REMARK SMILES IDX 7 28 35 29 8 30 11 31 36 32 9 33 12 34 10 35 16 36 13 37
REMARK SMILES IDX 14 38 17 39 15 40 33 41 18 42 19 43 32 44 34 45 29 46 20 47
REMARK SMILES IDX 30 48 22 49 28 50 21 51 23 52 25 53 24 54 26 55 27 56 37 57
REMARK SMILES IDX 38 58 31 60 40 62
REMARK H PARENT 55 9 53 18 51 20 47 23 49 25 38 59 31 61 40 63
REMARK Flexibility Score: inf
ROOT
ATOM      1  C   UNL     1      -3.579  90.023 -14.242  1.00  0.00     0.041 C 
ATOM      2  C   UNL     1      -4.064  91.575 -13.438  1.00  0.00     0.150 C 
ATOM      3  C   UNL     1      -5.148  93.511 -14.631  1.00  0.00     0.175 C 
ATOM      4  C   UNL     1      -7.154  94.336 -15.057  1.00  0.00     0.186 C 
ATOM      5  C   UNL     1      -7.405  92.775 -13.380  1.00  0.00     0.202 C 
ATOM      6  C   UNL     1      -5.906  92.655 -12.260  1.00  0.00     0.282 C 
ATOM      7  O   UNL     1      -5.006  92.283 -14.001  1.00  0.00    -0.344 OA
ENDROOT
BRANCH   3   8
ATOM      8  O   UNL     1      -4.383  93.490 -15.914  1.00  0.00    -0.388 OA
ATOM      9  H   UNL     1      -4.542  92.758 -16.677  1.00  0.00     0.211 HD
ENDBRANCH   3   8
BRANCH   4  10
ATOM     10  O   UNL     1      -8.384  95.287 -16.227  1.00  0.00    -0.341 OA
BRANCH  10  11
ATOM     11  C   UNL     1      -9.697  96.625 -16.892  1.00  0.00     0.282 C 
ATOM     12  C   UNL     1     -10.715  95.708 -18.276  1.00  0.00     0.202 C 
ATOM     13  O   UNL     1     -11.267  96.067 -17.092  1.00  0.00    -0.341 OA
ATOM     14  C   UNL     1     -12.366  94.819 -19.164  1.00  0.00     0.179 C 
ATOM     15  C   UNL     1     -12.882  96.829 -17.119  1.00  0.00     0.178 C 
ATOM     16  C   UNL     1     -13.469  95.923 -18.533  1.00  0.00     0.177 C 
BRANCH  12  17
ATOM     17  O   UNL     1      -9.707  94.851 -18.850  1.00  0.00    -0.385 OA
ATOM     18  H   UNL     1      -8.716  95.147 -18.552  1.00  0.00     0.211 HD
ENDBRANCH  12  17
BRANCH  14  19
ATOM     19  O   UNL     1     -12.578  93.469 -18.710  1.00  0.00    -0.387 OA
ATOM     20  H   UNL     1     -12.684  92.571 -19.226  1.00  0.00     0.211 HD
ENDBRANCH  14  19
BRANCH  15  21
ATOM     21  C   UNL     1     -11.946  96.133 -14.797  1.00  0.00     0.191 C 
BRANCH  21  22
ATOM     22  O   UNL     1     -12.442  95.062 -13.414  1.00  0.00    -0.394 OA
ATOM     23  H   UNL     1     -13.198  94.146 -12.710  1.00  0.00     0.210 HD
ENDBRANCH  21  22
ENDBRANCH  15  21
BRANCH  16  24
ATOM     24  O   UNL     1     -14.692  95.137 -17.941  1.00  0.00    -0.387 OA
ATOM     25  H   UNL     1     -14.849  94.095 -18.237  1.00  0.00     0.211 HD
ENDBRANCH  16  24
ENDBRANCH  10  11
ENDBRANCH   4  10
BRANCH   6  26
ATOM     26  O   UNL     1      -7.528  91.985 -10.917  1.00  0.00    -0.346 OA
BRANCH  26  27
ATOM     27  C   UNL     1      -7.304  90.290 -11.221  1.00  0.00     0.130 C 
ATOM     28  C   UNL     1      -9.359  89.968 -11.434  1.00  0.00     0.033 C 
ATOM     29  C   UNL     1      -6.643  90.288  -9.161  1.00  0.00     0.020 C 
ATOM     30  C   UNL     1     -10.465  90.722 -12.592  1.00  0.00     0.010 C 
ATOM     31  C   UNL     1      -7.661  93.021  -9.096  1.00  0.00     0.006 C 
ATOM     32  C   UNL     1      -4.361  90.081  -8.724  1.00  0.00     0.017 C 
ATOM     33  C   UNL     1      -9.961  92.788 -10.973  1.00  0.00    -0.022 C 
ATOM     34  C   UNL     1      -8.636  94.716  -8.832  1.00  0.00     0.005 C 
ATOM     35  C   UNL     1      -9.143  94.943 -11.981  1.00  0.00     0.012 C 
ATOM     36  C   UNL     1     -13.101  92.717 -10.767  1.00  0.00     0.024 C 
ATOM     37  C   UNL     1     -11.026  94.659  -9.100  1.00  0.00     0.008 C 
ATOM     38  C   UNL     1     -13.541  94.197 -10.103  1.00  0.00    -0.017 C 
ATOM     39  C   UNL     1     -15.484  90.690 -11.705  1.00  0.00    -0.024 C 
ATOM     40  C   UNL     1     -14.169  96.359 -10.082  1.00  0.00     0.013 C 
ATOM     41  C   UNL     1     -15.979  92.763 -10.475  1.00  0.00     0.009 C 
ATOM     42  C   UNL     1     -17.626  89.549 -12.107  1.00  0.00     0.005 C 
ATOM     43  C   UNL     1     -17.787  91.598 -11.806  1.00  0.00     0.096 C 
ATOM     44  C   UNL     1     -17.178  91.522 -10.134  1.00  0.00     0.043 C 
ATOM     45  C   UNL     1     -16.192  94.183  -9.368  1.00  0.00     0.015 C 
ATOM     46  C   UNL     1     -19.725  91.983 -11.266  1.00  0.00     0.037 C 
ATOM     47  O   UNL     1     -18.264  92.095 -13.055  1.00  0.00    -0.369 OA
ATOM     48  C   UNL     1     -18.752  92.536 -10.022  1.00  0.00     0.124 C 
ATOM     49  C   UNL     1     -20.511  91.340 -12.083  1.00  0.00     0.026 C 
ATOM     50  C   UNL     1     -20.885  93.277 -10.764  1.00  0.00     0.014 C 
ATOM     51  C   UNL     1     -19.443  91.302 -13.480  1.00  0.00     0.171 C 
ATOM     52  C   UNL     1     -22.184  91.789 -13.490  1.00  0.00     0.013 C 
ATOM     53  C   UNL     1     -21.207  94.293 -11.799  1.00  0.00    -0.035 C 
ATOM     54  C   UNL     1     -22.199  93.444 -12.836  1.00  0.00     0.007 C 
ATOM     55  C   UNL     1     -21.999  95.455 -10.829  1.00  0.00     0.011 C 
ATOM     56  C   UNL     1     -19.678  95.042 -11.953  1.00  0.00     0.011 C 
BRANCH  29  57
ATOM     57  C   UNL     1      -6.708  87.809  -7.504  1.00  0.00     0.165 C 
BRANCH  57  58
ATOM     58  O   UNL     1      -6.001  86.899  -8.520  1.00  0.00    -0.396 OA
ATOM     59  H   UNL     1      -6.582  86.018  -9.129  1.00  0.00     0.210 HD
ENDBRANCH  57  58
ENDBRANCH  29  57
BRANCH  48  60
ATOM     60  O   UNL     1     -18.356  93.685  -8.143  1.00  0.00    -0.392 OA
ATOM     61  H   UNL     1     -17.824  93.154  -7.397  1.00  0.00     0.210 HD
ENDBRANCH  48  60
ENDBRANCH  26  27
ENDBRANCH   6  26
BRANCH   5  62
ATOM     62  O   UNL     1      -7.629  91.242 -14.398  1.00  0.00    -0.385 OA
ATOM     63  H   UNL     1      -7.856  92.363 -13.350  1.00  0.00     0.211 HD
ENDBRANCH   5  62
TORSDOF 14
ENDMDL
MODEL 8
REMARK VINA RESULT:    -5.874      3.838      5.885
REMARK INTER + INTRA:          -7.988
REMARK INTER:                  -8.617
REMARK INTRA:                   0.629
REMARK UNBOUND:                -1.428
REMARK SMILES C[C@@H]1O[C@H](O[C@@H]2CC[C@]3(C)[C@@H](CC[C@@]4(C)[C@H]3C=C[C@@]35OC[C@@]6(CCC(C)(C)C[C@@H]63)[C@@H](O)C[C@@]45C)[C@@]2(C)CO)[C@H](O)[C@H](O[C@@H]2O[C@H](CO)[C@H](O)[C@H](O)[C@@H]2O)[C@@H]1O
REMARK SMILES IDX 1 1 2 2 54 3 41 4 39 5 4 6 3 7 55 8 42 10 43 11 52 12 44 13
REMARK SMILES IDX 50 14 45 15 48 16 53 17 51 19 46 21 47 22 49 24 5 26 6 27
REMARK SMILES IDX 7 28 35 29 8 30 11 31 36 32 9 33 12 34 10 35 16 36 13 37
REMARK SMILES IDX 14 38 17 39 15 40 33 41 18 42 19 43 32 44 34 45 29 46 20 47
REMARK SMILES IDX 30 48 22 49 28 50 21 51 23 52 25 53 24 54 26 55 27 56 37 57
REMARK SMILES IDX 38 58 31 60 40 62
REMARK H PARENT 55 9 53 18 51 20 47 23 49 25 38 59 31 61 40 63
REMARK Flexibility Score: inf
ROOT
ATOM      1  C   UNL     1      -4.691  92.213 -15.673  1.00  0.00     0.041 C 
ATOM      2  C   UNL     1      -6.198  91.440 -15.024  1.00  0.00     0.150 C 
ATOM      3  C   UNL     1      -6.216  89.446 -13.483  1.00  0.00     0.175 C 
ATOM      4  C   UNL     1      -6.308  88.967 -11.327  1.00  0.00     0.186 C 
ATOM      5  C   UNL     1      -6.911  91.179 -11.556  1.00  0.00     0.202 C 
ATOM      6  C   UNL     1      -7.785  91.538 -13.175  1.00  0.00     0.282 C 
ATOM      7  O   UNL     1      -6.101  90.761 -13.912  1.00  0.00    -0.344 OA
ENDROOT
BRANCH   3   8
ATOM      8  O   UNL     1      -5.109  88.642 -14.081  1.00  0.00    -0.388 OA
ATOM      9  H   UNL     1      -4.157  88.517 -13.609  1.00  0.00     0.211 HD
ENDBRANCH   3   8
BRANCH   4  10
ATOM     10  O   UNL     1      -5.828  87.834  -9.819  1.00  0.00    -0.341 OA
BRANCH  10  11
ATOM     11  C   UNL     1      -5.967  86.535  -8.319  1.00  0.00     0.282 C 
ATOM     12  C   UNL     1      -6.039  84.779  -9.161  1.00  0.00     0.202 C 
ATOM     13  O   UNL     1      -4.973  85.187  -8.429  1.00  0.00    -0.341 OA
ATOM     14  C   UNL     1      -5.380  82.886  -9.694  1.00  0.00     0.179 C 
ATOM     15  C   UNL     1      -4.276  84.036  -7.256  1.00  0.00     0.178 C 
ATOM     16  C   UNL     1      -4.634  82.582  -8.217  1.00  0.00     0.177 C 
BRANCH  12  17
ATOM     17  O   UNL     1      -6.771  85.072 -10.368  1.00  0.00    -0.385 OA
ATOM     18  H   UNL     1      -6.575  86.070 -10.721  1.00  0.00     0.211 HD
ENDBRANCH  12  17
BRANCH  14  19
ATOM     19  O   UNL     1      -4.467  82.912 -10.807  1.00  0.00    -0.387 OA
ATOM     20  H   UNL     1      -4.485  82.435 -11.732  1.00  0.00     0.211 HD
ENDBRANCH  14  19
BRANCH  15  21
ATOM     21  C   UNL     1      -2.931  86.211  -7.715  1.00  0.00     0.191 C 
BRANCH  21  22
ATOM     22  O   UNL     1      -3.024  87.971  -7.263  1.00  0.00    -0.394 OA
ATOM     23  H   UNL     1      -3.578  89.223  -7.101  1.00  0.00     0.210 HD
ENDBRANCH  21  22
ENDBRANCH  15  21
BRANCH  16  24
ATOM     24  O   UNL     1      -3.201  81.998  -8.482  1.00  0.00    -0.387 OA
ATOM     25  H   UNL     1      -2.923  81.712  -9.502  1.00  0.00     0.211 HD
ENDBRANCH  16  24
ENDBRANCH  10  11
ENDBRANCH   4  10
BRANCH   6  26
ATOM     26  O   UNL     1      -8.586  93.129 -11.868  1.00  0.00    -0.346 OA
BRANCH  26  27
ATOM     27  C   UNL     1      -8.549  92.182 -10.413  1.00  0.00     0.130 C 
ATOM     28  C   UNL     1     -10.623  91.918 -10.428  1.00  0.00     0.033 C 
ATOM     29  C   UNL     1      -7.928  94.059  -9.533  1.00  0.00     0.020 C 
ATOM     30  C   UNL     1     -11.618  91.178 -11.692  1.00  0.00     0.010 C 
ATOM     31  C   UNL     1      -8.634  95.213 -12.118  1.00  0.00     0.006 C 
ATOM     32  C   UNL     1      -5.693  94.316  -8.922  1.00  0.00     0.017 C 
ATOM     33  C   UNL     1     -10.913  93.459 -12.892  1.00  0.00    -0.022 C 
ATOM     34  C   UNL     1      -9.416  96.144 -13.672  1.00  0.00     0.005 C 
ATOM     35  C   UNL     1      -9.840  93.348 -15.165  1.00  0.00     0.012 C 
ATOM     36  C   UNL     1     -14.044  93.709 -13.094  1.00  0.00     0.024 C 
ATOM     37  C   UNL     1     -11.792  95.942 -13.988  1.00  0.00     0.008 C 
ATOM     38  C   UNL     1     -14.326  94.909 -14.235  1.00  0.00    -0.017 C 
ATOM     39  C   UNL     1     -16.623  92.122 -11.870  1.00  0.00    -0.024 C 
ATOM     40  C   UNL     1     -14.706  95.789 -16.272  1.00  0.00     0.013 C 
ATOM     41  C   UNL     1     -16.903  94.077 -13.339  1.00  0.00     0.009 C 
ATOM     42  C   UNL     1     -18.873  91.368 -11.221  1.00  0.00     0.005 C 
ATOM     43  C   UNL     1     -18.807  92.448 -12.993  1.00  0.00     0.096 C 
ATOM     44  C   UNL     1     -18.239  93.940 -12.204  1.00  0.00     0.043 C 
ATOM     45  C   UNL     1     -16.973  95.655 -14.228  1.00  0.00     0.015 C 
ATOM     46  C   UNL     1     -20.699  93.149 -13.349  1.00  0.00     0.037 C 
ATOM     47  O   UNL     1     -19.204  91.505 -13.988  1.00  0.00    -0.369 OA
ATOM     48  C   UNL     1     -19.691  94.483 -13.260  1.00  0.00     0.124 C 
ATOM     49  C   UNL     1     -21.538  92.168 -13.166  1.00  0.00     0.026 C 
ATOM     50  C   UNL     1     -21.714  94.149 -14.463  1.00  0.00     0.014 C 
ATOM     51  C   UNL     1     -20.457  90.839 -13.559  1.00  0.00     0.171 C 
ATOM     52  C   UNL     1     -23.125  91.096 -14.311  1.00  0.00     0.013 C 
ATOM     53  C   UNL     1     -21.901  93.601 -15.831  1.00  0.00    -0.035 C 
ATOM     54  C   UNL     1     -22.964  92.343 -15.570  1.00  0.00     0.007 C 
ATOM     55  C   UNL     1     -22.574  94.969 -16.602  1.00  0.00     0.011 C 
ATOM     56  C   UNL     1     -20.296  93.708 -16.407  1.00  0.00     0.011 C 
BRANCH  29  57
ATOM     57  C   UNL     1      -8.301  94.619  -6.628  1.00  0.00     0.165 C 
BRANCH  57  58
ATOM     58  O   UNL     1      -8.195  93.162  -6.153  1.00  0.00    -0.396 OA
ATOM     59  H   UNL     1      -9.025  92.647  -5.423  1.00  0.00     0.210 HD
ENDBRANCH  57  58
ENDBRANCH  29  57
BRANCH  48  60
ATOM     60  O   UNL     1     -19.201  96.649 -13.533  1.00  0.00    -0.392 OA
ATOM     61  H   UNL     1     -19.858  97.179 -14.172  1.00  0.00     0.210 HD
ENDBRANCH  48  60
ENDBRANCH  26  27
ENDBRANCH   6  26
BRANCH   5  62
ATOM     62  O   UNL     1      -5.239  91.977 -11.484  1.00  0.00    -0.385 OA
ATOM     63  H   UNL     1      -6.399  90.963 -11.301  1.00  0.00     0.211 HD
ENDBRANCH   5  62
TORSDOF 14
ENDMDL
MODEL 9
REMARK VINA RESULT:    -5.644      2.114      2.783
REMARK INTER + INTRA:          -7.732
REMARK INTER:                  -7.393
REMARK INTRA:                  -0.339
REMARK UNBOUND:                -1.428
REMARK SMILES C[C@@H]1O[C@H](O[C@@H]2CC[C@]3(C)[C@@H](CC[C@@]4(C)[C@H]3C=C[C@@]35OC[C@@]6(CCC(C)(C)C[C@@H]63)[C@@H](O)C[C@@]45C)[C@@]2(C)CO)[C@H](O)[C@H](O[C@@H]2O[C@H](CO)[C@H](O)[C@H](O)[C@@H]2O)[C@@H]1O
REMARK SMILES IDX 1 1 2 2 54 3 41 4 39 5 4 6 3 7 55 8 42 10 43 11 52 12 44 13
REMARK SMILES IDX 50 14 45 15 48 16 53 17 51 19 46 21 47 22 49 24 5 26 6 27
REMARK SMILES IDX 7 28 35 29 8 30 11 31 36 32 9 33 12 34 10 35 16 36 13 37
REMARK SMILES IDX 14 38 17 39 15 40 33 41 18 42 19 43 32 44 34 45 29 46 20 47
REMARK SMILES IDX 30 48 22 49 28 50 21 51 23 52 25 53 24 54 26 55 27 56 37 57
REMARK SMILES IDX 38 58 31 60 40 62
REMARK H PARENT 55 9 53 18 51 20 47 23 49 25 38 59 31 61 40 63
REMARK Flexibility Score: inf
ROOT
ATOM      1  C   UNL     1      -4.160  94.026  -9.067  1.00  0.00     0.041 C 
ATOM      2  C   UNL     1      -4.541  92.732 -10.279  1.00  0.00     0.150 C 
ATOM      3  C   UNL     1      -4.986  90.323  -9.687  1.00  0.00     0.175 C 
ATOM      4  C   UNL     1      -6.676  88.960  -9.274  1.00  0.00     0.186 C 
ATOM      5  C   UNL     1      -7.557  90.858 -10.239  1.00  0.00     0.202 C 
ATOM      6  C   UNL     1      -6.389  91.668 -11.463  1.00  0.00     0.282 C 
ATOM      7  O   UNL     1      -5.199  91.683  -9.861  1.00  0.00    -0.344 OA
ENDROOT
BRANCH   3   8
ATOM      8  O   UNL     1      -3.969  90.124  -8.611  1.00  0.00    -0.388 OA
ATOM      9  H   UNL     1      -3.084  89.540  -8.745  1.00  0.00     0.211 HD
ENDBRANCH   3   8
BRANCH   4  10
ATOM     10  O   UNL     1      -7.433  87.431  -8.337  1.00  0.00    -0.341 OA
BRANCH  10  11
ATOM     11  C   UNL     1      -7.663  85.942  -7.038  1.00  0.00     0.282 C 
ATOM     12  C   UNL     1      -9.454  85.247  -7.359  1.00  0.00     0.202 C 
ATOM     13  O   UNL     1      -8.339  84.536  -7.655  1.00  0.00    -0.341 OA
ATOM     14  C   UNL     1     -10.896  83.885  -7.966  1.00  0.00     0.179 C 
ATOM     15  C   UNL     1      -8.301  82.811  -7.193  1.00  0.00     0.178 C 
ATOM     16  C   UNL     1     -10.043  82.537  -7.431  1.00  0.00     0.177 C 
BRANCH  12  17
ATOM     17  O   UNL     1     -10.166  86.449  -7.715  1.00  0.00    -0.385 OA
ATOM     18  H   UNL     1     -11.149  86.232  -8.097  1.00  0.00     0.211 HD
ENDBRANCH  12  17
BRANCH  14  19
ATOM     19  O   UNL     1     -11.110  83.904  -9.390  1.00  0.00    -0.387 OA
ATOM     20  H   UNL     1     -11.202  84.688 -10.068  1.00  0.00     0.211 HD
ENDBRANCH  14  19
BRANCH  15  21
ATOM     21  C   UNL     1      -6.386  83.662  -8.729  1.00  0.00     0.191 C 
BRANCH  21  22
ATOM     22  O   UNL     1      -6.186  84.836 -10.104  1.00  0.00    -0.394 OA
ATOM     23  H   UNL     1      -6.134  86.054 -10.751  1.00  0.00     0.210 HD
ENDBRANCH  21  22
ENDBRANCH  15  21
BRANCH  16  24
ATOM     24  O   UNL     1     -10.057  81.446  -8.559  1.00  0.00    -0.387 OA
ATOM     25  H   UNL     1      -9.398  81.567  -9.426  1.00  0.00     0.211 HD
ENDBRANCH  16  24
ENDBRANCH  10  11
ENDBRANCH   4  10
BRANCH   6  26
ATOM     26  O   UNL     1      -8.360  92.320 -12.219  1.00  0.00    -0.346 OA
BRANCH  26  27
ATOM     27  C   UNL     1      -7.880  93.958 -12.537  1.00  0.00     0.130 C 
ATOM     28  C   UNL     1      -9.845  94.656 -12.384  1.00  0.00     0.033 C 
ATOM     29  C   UNL     1      -7.405  93.151 -14.488  1.00  0.00     0.020 C 
ATOM     30  C   UNL     1     -10.941  94.529 -10.999  1.00  0.00     0.010 C 
ATOM     31  C   UNL     1      -8.791  90.759 -13.555  1.00  0.00     0.006 C 
ATOM     32  C   UNL     1      -5.163  92.831 -15.045  1.00  0.00     0.017 C 
ATOM     33  C   UNL     1     -10.866  91.982 -11.805  1.00  0.00    -0.022 C 
ATOM     34  C   UNL     1     -10.008  89.253 -13.174  1.00  0.00     0.005 C 
ATOM     35  C   UNL     1     -10.268  90.201 -10.131  1.00  0.00     0.012 C 
ATOM     36  C   UNL     1     -13.973  92.475 -11.919  1.00  0.00     0.024 C 
ATOM     37  C   UNL     1     -12.335  89.777 -12.864  1.00  0.00     0.008 C 
ATOM     38  C   UNL     1     -14.667  90.947 -12.005  1.00  0.00    -0.017 C 
ATOM     39  C   UNL     1     -15.965  95.051 -11.675  1.00  0.00    -0.024 C 
ATOM     40  C   UNL     1     -15.585  89.037 -11.245  1.00  0.00     0.013 C 
ATOM     41  C   UNL     1     -16.844  92.789 -12.081  1.00  0.00     0.009 C 
ATOM     42  C   UNL     1     -17.888  96.585 -11.629  1.00  0.00     0.005 C 
ATOM     43  C   UNL     1     -18.354  94.610 -11.185  1.00  0.00     0.096 C 
ATOM     44  C   UNL     1     -17.886  94.012 -12.796  1.00  0.00     0.043 C 
ATOM     45  C   UNL     1     -17.345  91.129 -12.610  1.00  0.00     0.015 C 
ATOM     46  C   UNL     1     -20.366  94.376 -11.491  1.00  0.00     0.037 C 
ATOM     47  O   UNL     1     -18.785  94.653  -9.826  1.00  0.00    -0.369 OA
ATOM     48  C   UNL     1     -19.588  93.285 -12.493  1.00  0.00     0.124 C 
ATOM     49  C   UNL     1     -20.983  95.377 -10.926  1.00  0.00     0.026 C 
ATOM     50  C   UNL     1     -21.731  93.190 -11.468  1.00  0.00     0.014 C 
ATOM     51  C   UNL     1     -19.803  95.720  -9.669  1.00  0.00     0.171 C 
ATOM     52  C   UNL     1     -22.574  95.707  -9.397  1.00  0.00     0.013 C 
ATOM     53  C   UNL     1     -22.099  92.655 -10.132  1.00  0.00    -0.035 C 
ATOM     54  C   UNL     1     -22.871  93.953  -9.427  1.00  0.00     0.007 C 
ATOM     55  C   UNL     1     -23.123  91.372 -10.605  1.00  0.00     0.011 C 
ATOM     56  C   UNL     1     -20.679  91.771  -9.775  1.00  0.00     0.011 C 
BRANCH  29  57
ATOM     57  C   UNL     1      -7.273  94.890 -16.907  1.00  0.00     0.165 C 
BRANCH  57  58
ATOM     58  O   UNL     1      -8.206  94.041 -17.785  1.00  0.00    -0.396 OA
ATOM     59  H   UNL     1      -9.145  94.518 -18.400  1.00  0.00     0.210 HD
ENDBRANCH  57  58
ENDBRANCH  29  57
BRANCH  48  60
ATOM     60  O   UNL     1     -19.517  91.514 -13.860  1.00  0.00    -0.392 OA
ATOM     61  H   UNL     1     -18.597  91.375 -14.365  1.00  0.00     0.210 HD
ENDBRANCH  48  60
ENDBRANCH  26  27
ENDBRANCH   6  26
BRANCH   5  62
ATOM     62  O   UNL     1      -7.804  91.902  -8.728  1.00  0.00    -0.385 OA
ATOM     63  H   UNL     1      -8.064  90.925  -9.904  1.00  0.00     0.211 HD
ENDBRANCH   5  62
TORSDOF 14
ENDMDL
