MODEL 1
REMARK VINA RESULT:    -3.571      0.000      0.000
REMARK INTER + INTRA:          -4.832
REMARK INTER:                  -4.407
REMARK INTRA:                  -0.426
REMARK UNBOUND:                -0.426
REMARK SMILES CCCCC=CC(C)=O
REMARK SMILES IDX 4 1 3 2 2 3 1 4 5 5 6 6 7 7 9 8 8 9
REMARK H PARENT
REMARK Flexibility Score: inf
ROOT
ATOM      1  C   UNL     1     100.529 133.764 126.291  1.00  0.00     0.027 C 
ENDROOT
BRANCH   1   2
ATOM      2  C   UNL     1     101.178 135.104 125.919  1.00  0.00     0.004 C 
BRANCH   2   3
ATOM      3  C   UNL     1     100.282 135.900 124.966  1.00  0.00    -0.003 C 
ATOM      4  C   UNL     1      98.807 135.592 125.208  1.00  0.00     0.004 C 
ENDBRANCH   2   3
ENDBRANCH   1   2
BRANCH   1   5
ATOM      5  C   UNL     1     101.464 132.613 126.036  1.00  0.00    -0.023 C 
ATOM      6  C   UNL     1     101.283 131.635 125.132  1.00  0.00     0.042 C 
BRANCH   6   7
ATOM      7  C   UNL     1     100.113 131.466 124.240  1.00  0.00     0.152 C 
ATOM      8  O   UNL     1      99.198 130.639 124.496  1.00  0.00    -0.295 OA
ATOM      9  C   UNL     1     100.047 132.248 122.968  1.00  0.00     0.093 C 
ENDBRANCH   6   7
ENDBRANCH   1   5
TORSDOF 4
ENDMDL
MODEL 2
REMARK VINA RESULT:    -3.525      1.957      2.780
REMARK INTER + INTRA:          -4.774
REMARK INTER:                  -4.525
REMARK INTRA:                  -0.249
REMARK UNBOUND:                -0.426
REMARK SMILES CCCCC=CC(C)=O
REMARK SMILES IDX 4 1 3 2 2 3 1 4 5 5 6 6 7 7 9 8 8 9
REMARK H PARENT
REMARK Flexibility Score: inf
ROOT
ATOM      1  C   UNL     1     100.742 134.323 125.916  1.00  0.00     0.027 C 
ENDROOT
BRANCH   1   2
ATOM      2  C   UNL     1     100.087 135.566 125.302  1.00  0.00     0.004 C 
BRANCH   2   3
ATOM      3  C   UNL     1     101.144 136.593 124.882  1.00  0.00    -0.003 C 
ATOM      4  C   UNL     1     101.701 136.276 123.497  1.00  0.00     0.004 C 
ENDBRANCH   2   3
ENDBRANCH   1   2
BRANCH   1   5
ATOM      5  C   UNL     1     100.436 133.089 125.111  1.00  0.00    -0.023 C 
ATOM      6  C   UNL     1     100.767 131.828 125.443  1.00  0.00     0.042 C 
BRANCH   6   7
ATOM      7  C   UNL     1     101.534 131.404 126.637  1.00  0.00     0.152 C 
ATOM      8  O   UNL     1     102.787 131.281 126.610  1.00  0.00    -0.295 OA
ATOM      9  C   UNL     1     100.798 131.048 127.888  1.00  0.00     0.093 C 
ENDBRANCH   6   7
ENDBRANCH   1   5
TORSDOF 4
ENDMDL
MODEL 3
REMARK VINA RESULT:    -3.503      1.057      1.747
REMARK INTER + INTRA:          -4.747
REMARK INTER:                  -4.324
REMARK INTRA:                  -0.424
REMARK UNBOUND:                -0.426
REMARK SMILES CCCCC=CC(C)=O
REMARK SMILES IDX 4 1 3 2 2 3 1 4 5 5 6 6 7 7 9 8 8 9
REMARK H PARENT
REMARK Flexibility Score: inf
ROOT
ATOM      1  C   UNL     1      99.398 134.827 125.343  1.00  0.00     0.027 C 
ENDROOT
BRANCH   1   2
ATOM      2  C   UNL     1      99.905 136.222 124.952  1.00  0.00     0.004 C 
BRANCH   2   3
ATOM      3  C   UNL     1     101.402 136.190 124.627  1.00  0.00    -0.003 C 
ATOM      4  C   UNL     1     101.638 136.097 123.122  1.00  0.00     0.004 C 
ENDBRANCH   2   3
ENDBRANCH   1   2
BRANCH   1   5
ATOM      5  C   UNL     1     100.473 134.027 126.029  1.00  0.00    -0.023 C 
ATOM      6  C   UNL     1     100.912 132.813 125.656  1.00  0.00     0.042 C 
BRANCH   6   7
ATOM      7  C   UNL     1     100.401 131.999 124.529  1.00  0.00     0.152 C 
ATOM      8  O   UNL     1      99.660 130.999 124.716  1.00  0.00    -0.295 OA
ATOM      9  C   UNL     1     100.830 132.333 123.136  1.00  0.00     0.093 C 
ENDBRANCH   6   7
ENDBRANCH   1   5
TORSDOF 4
ENDMDL
MODEL 4
REMARK VINA RESULT:    -3.471      1.810      2.591
REMARK INTER + INTRA:          -4.709
REMARK INTER:                  -4.203
REMARK INTRA:                  -0.506
REMARK UNBOUND:                -0.426
REMARK SMILES CCCCC=CC(C)=O
REMARK SMILES IDX 4 1 3 2 2 3 1 4 5 5 6 6 7 7 9 8 8 9
REMARK H PARENT
REMARK Flexibility Score: inf
ROOT
ATOM      1  C   UNL     1     100.212 135.784 124.911  1.00  0.00     0.027 C 
ENDROOT
BRANCH   1   2
ATOM      2  C   UNL     1     101.459 136.533 124.420  1.00  0.00     0.004 C 
BRANCH   2   3
ATOM      3  C   UNL     1     101.721 136.247 122.938  1.00  0.00    -0.003 C 
ATOM      4  C   UNL     1     103.023 135.475 122.746  1.00  0.00     0.004 C 
ENDBRANCH   2   3
ENDBRANCH   1   2
BRANCH   1   5
ATOM      5  C   UNL     1     100.556 134.806 126.001  1.00  0.00    -0.023 C 
ATOM      6  C   UNL     1     100.762 133.487 125.842  1.00  0.00     0.042 C 
BRANCH   6   7
ATOM      7  C   UNL     1     100.648 132.725 124.577  1.00  0.00     0.152 C 
ATOM      8  O   UNL     1      99.531 132.465 124.058  1.00  0.00    -0.295 OA
ATOM      9  C   UNL     1     101.888 132.191 123.934  1.00  0.00     0.093 C 
ENDBRANCH   6   7
ENDBRANCH   1   5
TORSDOF 4
ENDMDL
MODEL 5
REMARK VINA RESULT:    -3.468      2.081      4.455
REMARK INTER + INTRA:          -4.705
REMARK INTER:                  -4.494
REMARK INTRA:                  -0.211
REMARK UNBOUND:                -0.426
REMARK SMILES CCCCC=CC(C)=O
REMARK SMILES IDX 4 1 3 2 2 3 1 4 5 5 6 6 7 7 9 8 8 9
REMARK H PARENT
REMARK Flexibility Score: inf
ROOT
ATOM      1  C   UNL     1     100.072 132.601 124.323  1.00  0.00     0.027 C 
ENDROOT
BRANCH   1   2
ATOM      2  C   UNL     1      99.714 131.110 124.381  1.00  0.00     0.004 C 
BRANCH   2   3
ATOM      3  C   UNL     1     100.074 130.409 123.067  1.00  0.00    -0.003 C 
ATOM      4  C   UNL     1     101.564 130.083 123.005  1.00  0.00     0.004 C 
ENDBRANCH   2   3
ENDBRANCH   1   2
BRANCH   1   5
ATOM      5  C   UNL     1     100.600 133.089 125.645  1.00  0.00    -0.023 C 
ATOM      6  C   UNL     1     100.565 134.358 126.089  1.00  0.00     0.042 C 
BRANCH   6   7
ATOM      7  C   UNL     1     100.045 135.534 125.353  1.00  0.00     0.152 C 
ATOM      8  O   UNL     1      98.810 135.750 125.236  1.00  0.00    -0.295 OA
ATOM      9  C   UNL     1     101.008 136.453 124.674  1.00  0.00     0.093 C 
ENDBRANCH   6   7
ENDBRANCH   1   5
TORSDOF 4
ENDMDL
MODEL 6
REMARK VINA RESULT:    -3.453      2.627      4.247
REMARK INTER + INTRA:          -4.686
REMARK INTER:                  -4.182
REMARK INTRA:                  -0.504
REMARK UNBOUND:                -0.426
REMARK SMILES CCCCC=CC(C)=O
REMARK SMILES IDX 4 1 3 2 2 3 1 4 5 5 6 6 7 7 9 8 8 9
REMARK H PARENT
REMARK Flexibility Score: inf
ROOT
ATOM      1  C   UNL     1     100.706 133.904 126.180  1.00  0.00     0.027 C 
ENDROOT
BRANCH   1   2
ATOM      2  C   UNL     1     101.119 132.819 125.177  1.00  0.00     0.004 C 
BRANCH   2   3
ATOM      3  C   UNL     1      99.904 132.298 124.403  1.00  0.00    -0.003 C 
ATOM      4  C   UNL     1     100.185 132.245 122.904  1.00  0.00     0.004 C 
ENDBRANCH   2   3
ENDBRANCH   1   2
BRANCH   1   5
ATOM      5  C   UNL     1      99.611 134.774 125.625  1.00  0.00    -0.023 C 
ATOM      6  C   UNL     1      99.784 135.883 124.885  1.00  0.00     0.042 C 
BRANCH   6   7
ATOM      7  C   UNL     1     101.078 136.496 124.506  1.00  0.00     0.152 C 
ATOM      8  O   UNL     1     101.592 137.429 125.177  1.00  0.00    -0.295 OA
ATOM      9  C   UNL     1     101.760 136.043 123.255  1.00  0.00     0.093 C 
ENDBRANCH   6   7
ENDBRANCH   1   5
TORSDOF 4
ENDMDL
MODEL 7
REMARK VINA RESULT:    -3.445      2.339      4.237
REMARK INTER + INTRA:          -4.676
REMARK INTER:                  -4.048
REMARK INTRA:                  -0.628
REMARK UNBOUND:                -0.426
REMARK SMILES CCCCC=CC(C)=O
REMARK SMILES IDX 4 1 3 2 2 3 1 4 5 5 6 6 7 7 9 8 8 9
REMARK H PARENT
REMARK Flexibility Score: inf
ROOT
ATOM      1  C   UNL     1     102.035 133.688 123.475  1.00  0.00     0.027 C 
ENDROOT
BRANCH   1   2
ATOM      2  C   UNL     1     100.955 132.823 122.810  1.00  0.00     0.004 C 
BRANCH   2   3
ATOM      3  C   UNL     1     100.022 132.209 123.859  1.00  0.00    -0.003 C 
ATOM      4  C   UNL     1     100.746 131.999 125.186  1.00  0.00     0.004 C 
ENDBRANCH   2   3
ENDBRANCH   1   2
BRANCH   1   5
ATOM      5  C   UNL     1     101.841 135.146 123.155  1.00  0.00    -0.023 C 
ATOM      6  C   UNL     1     101.202 136.044 123.925  1.00  0.00     0.042 C 
BRANCH   6   7
ATOM      7  C   UNL     1     100.524 135.775 125.214  1.00  0.00     0.152 C 
ATOM      8  O   UNL     1     101.168 135.651 126.289  1.00  0.00    -0.295 OA
ATOM      9  C   UNL     1      99.042 135.579 125.231  1.00  0.00     0.093 C 
ENDBRANCH   6   7
ENDBRANCH   1   5
TORSDOF 4
ENDMDL
MODEL 8
REMARK VINA RESULT:    -3.422      2.999      4.547
REMARK INTER + INTRA:          -4.647
REMARK INTER:                  -4.467
REMARK INTRA:                  -0.181
REMARK UNBOUND:                -0.426
REMARK SMILES CCCCC=CC(C)=O
REMARK SMILES IDX 4 1 3 2 2 3 1 4 5 5 6 6 7 7 9 8 8 9
REMARK H PARENT
REMARK Flexibility Score: inf
ROOT
ATOM      1  C   UNL     1     100.655 131.265 127.657  1.00  0.00     0.027 C 
ENDROOT
BRANCH   1   2
ATOM      2  C   UNL     1     101.096 130.241 128.711  1.00  0.00     0.004 C 
BRANCH   2   3
ATOM      3  C   UNL     1      99.953 129.928 129.682  1.00  0.00    -0.003 C 
ATOM      4  C   UNL     1     100.140 130.660 131.009  1.00  0.00     0.004 C 
ENDBRANCH   2   3
ENDBRANCH   1   2
BRANCH   1   5
ATOM      5  C   UNL     1     101.714 131.456 126.604  1.00  0.00    -0.023 C 
ATOM      6  C   UNL     1     101.682 132.358 125.608  1.00  0.00     0.042 C 
BRANCH   6   7
ATOM      7  C   UNL     1     100.586 133.312 125.318  1.00  0.00     0.152 C 
ATOM      8  O   UNL     1      99.691 133.056 124.470  1.00  0.00    -0.295 OA
ATOM      9  C   UNL     1     100.577 134.641 126.001  1.00  0.00     0.093 C 
ENDBRANCH   6   7
ENDBRANCH   1   5
TORSDOF 4
ENDMDL
MODEL 9
REMARK VINA RESULT:    -3.419     12.452     13.931
REMARK INTER + INTRA:          -4.644
REMARK INTER:                  -4.142
REMARK INTRA:                  -0.502
REMARK UNBOUND:                -0.426
REMARK SMILES CCCCC=CC(C)=O
REMARK SMILES IDX 4 1 3 2 2 3 1 4 5 5 6 6 7 7 9 8 8 9
REMARK H PARENT
REMARK Flexibility Score: inf
ROOT
ATOM      1  C   UNL     1      98.557 140.920 134.399  1.00  0.00     0.027 C 
ENDROOT
BRANCH   1   2
ATOM      2  C   UNL     1      97.706 139.644 134.362  1.00  0.00     0.004 C 
BRANCH   2   3
ATOM      3  C   UNL     1      97.324 139.199 135.777  1.00  0.00    -0.003 C 
ATOM      4  C   UNL     1      95.977 138.481 135.785  1.00  0.00     0.004 C 
ENDBRANCH   2   3
ENDBRANCH   1   2
BRANCH   1   5
ATOM      5  C   UNL     1      97.916 142.029 133.608  1.00  0.00    -0.023 C 
ATOM      6  C   UNL     1      97.039 142.931 134.083  1.00  0.00     0.042 C 
BRANCH   6   7
ATOM      7  C   UNL     1      96.495 142.990 135.459  1.00  0.00     0.152 C 
ATOM      8  O   UNL     1      97.107 143.577 136.390  1.00  0.00    -0.295 OA
ATOM      9  C   UNL     1      95.218 142.277 135.769  1.00  0.00     0.093 C 
ENDBRANCH   6   7
ENDBRANCH   1   5
TORSDOF 4
ENDMDL
