MODEL 1
REMARK VINA RESULT:    -7.395      0.000      0.000
REMARK INTER + INTRA:          -9.009
REMARK INTER:                  -8.692
REMARK INTRA:                  -0.317
REMARK UNBOUND:                -0.317
REMARK SMILES O=c1cc(-c2ccc(O)c(O)c2)oc2cc(O)cc(O)c12
REMARK SMILES IDX 4 1 3 2 2 3 1 4 21 5 19 6 18 7 16 8 15 9 14 10 13 11 5 12
REMARK SMILES IDX 6 13 7 14 8 15 12 16 10 17 9 18 11 20 20 22 17 24
REMARK H PARENT 9 19 11 21 20 23 17 25
REMARK Flexibility Score: inf
ROOT
ATOM      1  C   UNL     1      45.677 -28.199  18.602  1.00  0.00     0.138 A 
ATOM      2  C   UNL     1      46.201 -27.471  19.679  1.00  0.00     0.100 A 
ATOM      3  C   UNL     1      47.038 -26.382  19.435  1.00  0.00     0.197 A 
ATOM      4  O   UNL     1      47.544 -25.788  20.422  1.00  0.00    -0.289 OA
ATOM      5  C   UNL     1      47.325 -26.001  18.103  1.00  0.00     0.107 A 
ATOM      6  C   UNL     1      48.132 -24.883  17.733  1.00  0.00     0.134 A 
ATOM      7  C   UNL     1      48.442 -24.672  16.384  1.00  0.00     0.093 A 
ATOM      8  C   UNL     1      47.925 -25.502  15.387  1.00  0.00     0.123 A 
ATOM      9  C   UNL     1      47.092 -26.564  15.733  1.00  0.00     0.094 A 
ATOM     10  C   UNL     1      46.793 -26.821  17.072  1.00  0.00     0.146 A 
ATOM     11  O   UNL     1      46.006 -27.853  17.362  1.00  0.00    -0.456 OA
ENDROOT
BRANCH   1  12
ATOM     12  C   UNL     1      44.781 -29.365  18.805  1.00  0.00     0.021 A 
ATOM     13  C   UNL     1      44.358 -29.696  20.103  1.00  0.00     0.016 A 
ATOM     14  C   UNL     1      43.521 -30.793  20.321  1.00  0.00     0.051 A 
ATOM     15  C   UNL     1      43.101 -31.585  19.245  1.00  0.00     0.157 A 
ATOM     16  C   UNL     1      44.365 -30.174  17.729  1.00  0.00     0.062 A 
ATOM     17  C   UNL     1      43.526 -31.276  17.947  1.00  0.00     0.158 A 
BRANCH  15  18
ATOM     18  O   UNL     1      42.266 -32.679  19.457  1.00  0.00    -0.504 OA
ATOM     19  H   UNL     1      42.415 -33.561  18.977  1.00  0.00     0.293 HD
ENDBRANCH  15  18
BRANCH  17  20
ATOM     20  O   UNL     1      43.115 -32.073  16.879  1.00  0.00    -0.504 OA
ATOM     21  H   UNL     1      43.695 -32.201  16.058  1.00  0.00     0.293 HD
ENDBRANCH  17  20
ENDBRANCH   1  12
BRANCH   6  22
ATOM     22  O   UNL     1      48.629 -23.944  18.642  1.00  0.00    -0.507 OA
ATOM     23  H   UNL     1      49.418 -24.094  19.252  1.00  0.00     0.293 HD
ENDBRANCH   6  22
BRANCH   8  24
ATOM     24  O   UNL     1      48.226 -25.275  14.046  1.00  0.00    -0.508 OA
ATOM     25  H   UNL     1      48.060 -25.983  13.338  1.00  0.00     0.293 HD
ENDBRANCH   8  24
TORSDOF 5
ENDMDL
MODEL 2
REMARK VINA RESULT:    -7.275      2.023      6.882
REMARK INTER + INTRA:          -8.868
REMARK INTER:                  -8.551
REMARK INTRA:                  -0.317
REMARK UNBOUND:                -0.317
REMARK SMILES O=c1cc(-c2ccc(O)c(O)c2)oc2cc(O)cc(O)c12
REMARK SMILES IDX 4 1 3 2 2 3 1 4 21 5 19 6 18 7 16 8 15 9 14 10 13 11 5 12
REMARK SMILES IDX 6 13 7 14 8 15 12 16 10 17 9 18 11 20 20 22 17 24
REMARK H PARENT 9 19 11 21 20 23 17 25
REMARK Flexibility Score: inf
ROOT
ATOM      1  C   UNL     1      46.256 -29.007  17.926  1.00  0.00     0.138 A 
ATOM      2  C   UNL     1      46.897 -29.293  19.139  1.00  0.00     0.100 A 
ATOM      3  C   UNL     1      46.367 -30.266  19.986  1.00  0.00     0.197 A 
ATOM      4  O   UNL     1      46.928 -30.457  21.097  1.00  0.00    -0.289 OA
ATOM      5  C   UNL     1      45.205 -30.977  19.602  1.00  0.00     0.107 A 
ATOM      6  C   UNL     1      44.599 -32.018  20.367  1.00  0.00     0.134 A 
ATOM      7  C   UNL     1      43.385 -32.570  19.940  1.00  0.00     0.093 A 
ATOM      8  C   UNL     1      42.787 -32.162  18.746  1.00  0.00     0.123 A 
ATOM      9  C   UNL     1      43.399 -31.184  17.964  1.00  0.00     0.094 A 
ATOM     10  C   UNL     1      44.592 -30.590  18.380  1.00  0.00     0.146 A 
ATOM     11  O   UNL     1      45.137 -29.650  17.613  1.00  0.00    -0.456 OA
ENDROOT
BRANCH   1  12
ATOM     12  C   UNL     1      46.777 -27.983  16.985  1.00  0.00     0.021 A 
ATOM     13  C   UNL     1      47.999 -27.345  17.263  1.00  0.00     0.016 A 
ATOM     14  C   UNL     1      48.507 -26.373  16.398  1.00  0.00     0.051 A 
ATOM     15  C   UNL     1      47.797 -26.014  15.245  1.00  0.00     0.157 A 
ATOM     16  C   UNL     1      46.063 -27.607  15.830  1.00  0.00     0.062 A 
ATOM     17  C   UNL     1      46.572 -26.629  14.963  1.00  0.00     0.158 A 
BRANCH  15  18
ATOM     18  O   UNL     1      48.300 -25.046  14.379  1.00  0.00    -0.504 OA
ATOM     19  H   UNL     1      48.790 -24.228  14.726  1.00  0.00     0.293 HD
ENDBRANCH  15  18
BRANCH  17  20
ATOM     20  O   UNL     1      45.863 -26.262  13.820  1.00  0.00    -0.504 OA
ATOM     21  H   UNL     1      45.984 -25.353  13.390  1.00  0.00     0.293 HD
ENDBRANCH  17  20
ENDBRANCH   1  12
BRANCH   6  22
ATOM     22  O   UNL     1      45.156 -32.559  21.530  1.00  0.00    -0.507 OA
ATOM     23  H   UNL     1      45.564 -33.479  21.599  1.00  0.00     0.293 HD
ENDBRANCH   6  22
BRANCH   8  24
ATOM     24  O   UNL     1      41.587 -32.728  18.321  1.00  0.00    -0.508 OA
ATOM     25  H   UNL     1      41.318 -32.727  17.343  1.00  0.00     0.293 HD
ENDBRANCH   8  24
TORSDOF 5
ENDMDL
MODEL 3
REMARK VINA RESULT:    -6.712      1.267      2.790
REMARK INTER + INTRA:          -8.207
REMARK INTER:                  -7.910
REMARK INTRA:                  -0.296
REMARK UNBOUND:                -0.317
REMARK SMILES O=c1cc(-c2ccc(O)c(O)c2)oc2cc(O)cc(O)c12
REMARK SMILES IDX 4 1 3 2 2 3 1 4 21 5 19 6 18 7 16 8 15 9 14 10 13 11 5 12
REMARK SMILES IDX 6 13 7 14 8 15 12 16 10 17 9 18 11 20 20 22 17 24
REMARK H PARENT 9 19 11 21 20 23 17 25
REMARK Flexibility Score: inf
ROOT
ATOM      1  C   UNL     1      46.165 -27.601  18.029  1.00  0.00     0.138 A 
ATOM      2  C   UNL     1      46.388 -27.410  16.659  1.00  0.00     0.100 A 
ATOM      3  C   UNL     1      47.250 -26.399  16.234  1.00  0.00     0.197 A 
ATOM      4  O   UNL     1      47.381 -26.211  14.996  1.00  0.00    -0.289 OA
ATOM      5  C   UNL     1      47.917 -25.596  17.189  1.00  0.00     0.107 A 
ATOM      6  C   UNL     1      48.850 -24.563  16.873  1.00  0.00     0.134 A 
ATOM      7  C   UNL     1      49.359 -23.756  17.898  1.00  0.00     0.093 A 
ATOM      8  C   UNL     1      49.017 -23.984  19.233  1.00  0.00     0.123 A 
ATOM      9  C   UNL     1      48.149 -25.025  19.557  1.00  0.00     0.094 A 
ATOM     10  C   UNL     1      47.597 -25.824  18.554  1.00  0.00     0.146 A 
ATOM     11  O   UNL     1      46.762 -26.798  18.904  1.00  0.00    -0.456 OA
ENDROOT
BRANCH   1  12
ATOM     12  C   UNL     1      45.259 -28.662  18.537  1.00  0.00     0.021 A 
ATOM     13  C   UNL     1      44.958 -28.717  19.909  1.00  0.00     0.016 A 
ATOM     14  C   UNL     1      44.114 -29.710  20.413  1.00  0.00     0.051 A 
ATOM     15  C   UNL     1      43.564 -30.670  19.555  1.00  0.00     0.157 A 
ATOM     16  C   UNL     1      44.712 -29.639  17.682  1.00  0.00     0.062 A 
ATOM     17  C   UNL     1      43.866 -30.637  18.188  1.00  0.00     0.158 A 
BRANCH  15  18
ATOM     18  O   UNL     1      42.721 -31.662  20.052  1.00  0.00    -0.504 OA
ATOM     19  H   UNL     1      42.853 -32.639  19.814  1.00  0.00     0.293 HD
ENDBRANCH  15  18
BRANCH  17  20
ATOM     20  O   UNL     1      43.326 -31.601  17.339  1.00  0.00    -0.504 OA
ATOM     21  H   UNL     1      42.372 -31.927  17.443  1.00  0.00     0.293 HD
ENDBRANCH  17  20
ENDBRANCH   1  12
BRANCH   6  22
ATOM     22  O   UNL     1      49.324 -24.306  15.583  1.00  0.00    -0.507 OA
ATOM     23  H   UNL     1      49.313 -24.969  14.822  1.00  0.00     0.293 HD
ENDBRANCH   6  22
BRANCH   8  24
ATOM     24  O   UNL     1      49.541 -23.186  20.247  1.00  0.00    -0.508 OA
ATOM     25  H   UNL     1      49.799 -23.576  21.148  1.00  0.00     0.293 HD
ENDBRANCH   8  24
TORSDOF 5
ENDMDL
MODEL 4
REMARK VINA RESULT:    -6.535      2.663      7.535
REMARK INTER + INTRA:          -7.999
REMARK INTER:                  -7.721
REMARK INTRA:                  -0.278
REMARK UNBOUND:                -0.317
REMARK SMILES O=c1cc(-c2ccc(O)c(O)c2)oc2cc(O)cc(O)c12
REMARK SMILES IDX 4 1 3 2 2 3 1 4 21 5 19 6 18 7 16 8 15 9 14 10 13 11 5 12
REMARK SMILES IDX 6 13 7 14 8 15 12 16 10 17 9 18 11 20 20 22 17 24
REMARK H PARENT 9 19 11 21 20 23 17 25
REMARK Flexibility Score: inf
ROOT
ATOM      1  C   UNL     1      48.532 -26.126  18.913  1.00  0.00     0.138 A 
ATOM      2  C   UNL     1      49.268 -27.315  18.810  1.00  0.00     0.100 A 
ATOM      3  C   UNL     1      48.604 -28.520  18.578  1.00  0.00     0.197 A 
ATOM      4  O   UNL     1      49.284 -29.578  18.554  1.00  0.00    -0.289 OA
ATOM      5  C   UNL     1      47.198 -28.528  18.416  1.00  0.00     0.107 A 
ATOM      6  C   UNL     1      46.419 -29.691  18.135  1.00  0.00     0.134 A 
ATOM      7  C   UNL     1      45.022 -29.596  18.110  1.00  0.00     0.093 A 
ATOM      8  C   UNL     1      44.379 -28.371  18.297  1.00  0.00     0.123 A 
ATOM      9  C   UNL     1      45.132 -27.220  18.519  1.00  0.00     0.094 A 
ATOM     10  C   UNL     1      46.526 -27.288  18.583  1.00  0.00     0.146 A 
ATOM     11  O   UNL     1      47.208 -26.169  18.811  1.00  0.00    -0.456 OA
ENDROOT
BRANCH   1  12
ATOM     12  C   UNL     1      49.187 -24.817  19.158  1.00  0.00     0.021 A 
ATOM     13  C   UNL     1      50.139 -24.336  18.242  1.00  0.00     0.016 A 
ATOM     14  C   UNL     1      50.775 -23.110  18.455  1.00  0.00     0.051 A 
ATOM     15  C   UNL     1      50.477 -22.349  19.592  1.00  0.00     0.157 A 
ATOM     16  C   UNL     1      48.903 -24.051  20.306  1.00  0.00     0.062 A 
ATOM     17  C   UNL     1      49.542 -22.821  20.520  1.00  0.00     0.158 A 
BRANCH  15  18
ATOM     18  O   UNL     1      51.108 -21.125  19.807  1.00  0.00    -0.504 OA
ATOM     19  H   UNL     1      50.916 -20.320  19.221  1.00  0.00     0.293 HD
ENDBRANCH  15  18
BRANCH  17  20
ATOM     20  O   UNL     1      49.256 -22.066  21.657  1.00  0.00    -0.504 OA
ATOM     21  H   UNL     1      48.446 -21.460  21.702  1.00  0.00     0.293 HD
ENDBRANCH  17  20
ENDBRANCH   1  12
BRANCH   6  22
ATOM     22  O   UNL     1      46.964 -30.946  17.849  1.00  0.00    -0.507 OA
ATOM     23  H   UNL     1      47.359 -31.215  16.960  1.00  0.00     0.293 HD
ENDBRANCH   6  22
BRANCH   8  24
ATOM     24  O   UNL     1      42.989 -28.283  18.256  1.00  0.00    -0.508 OA
ATOM     25  H   UNL     1      42.403 -28.904  18.802  1.00  0.00     0.293 HD
ENDBRANCH   8  24
TORSDOF 5
ENDMDL
MODEL 5
REMARK VINA RESULT:    -6.446      2.683      7.380
REMARK INTER + INTRA:          -7.894
REMARK INTER:                  -7.625
REMARK INTRA:                  -0.269
REMARK UNBOUND:                -0.317
REMARK SMILES O=c1cc(-c2ccc(O)c(O)c2)oc2cc(O)cc(O)c12
REMARK SMILES IDX 4 1 3 2 2 3 1 4 21 5 19 6 18 7 16 8 15 9 14 10 13 11 5 12
REMARK SMILES IDX 6 13 7 14 8 15 12 16 10 17 9 18 11 20 20 22 17 24
REMARK H PARENT 9 19 11 21 20 23 17 25
REMARK Flexibility Score: inf
ROOT
ATOM      1  C   UNL     1      47.827 -26.278  20.328  1.00  0.00     0.138 A 
ATOM      2  C   UNL     1      48.205 -27.341  21.159  1.00  0.00     0.100 A 
ATOM      3  C   UNL     1      47.441 -28.508  21.179  1.00  0.00     0.197 A 
ATOM      4  O   UNL     1      47.769 -29.420  21.981  1.00  0.00    -0.289 OA
ATOM      5  C   UNL     1      46.308 -28.621  20.338  1.00  0.00     0.107 A 
ATOM      6  C   UNL     1      45.478 -29.778  20.244  1.00  0.00     0.134 A 
ATOM      7  C   UNL     1      44.316 -29.732  19.463  1.00  0.00     0.093 A 
ATOM      8  C   UNL     1      43.987 -28.592  18.726  1.00  0.00     0.123 A 
ATOM      9  C   UNL     1      44.820 -27.476  18.768  1.00  0.00     0.094 A 
ATOM     10  C   UNL     1      45.967 -27.479  19.565  1.00  0.00     0.146 A 
ATOM     11  O   UNL     1      46.728 -26.388  19.589  1.00  0.00    -0.456 OA
ENDROOT
BRANCH   1  12
ATOM     12  C   UNL     1      48.604 -25.014  20.267  1.00  0.00     0.021 A 
ATOM     13  C   UNL     1      48.502 -24.087  21.318  1.00  0.00     0.016 A 
ATOM     14  C   UNL     1      49.217 -22.887  21.281  1.00  0.00     0.051 A 
ATOM     15  C   UNL     1      50.039 -22.590  20.187  1.00  0.00     0.157 A 
ATOM     16  C   UNL     1      49.422 -24.702  19.164  1.00  0.00     0.062 A 
ATOM     17  C   UNL     1      50.139 -23.497  19.125  1.00  0.00     0.158 A 
BRANCH  15  18
ATOM     18  O   UNL     1      50.755 -21.396  20.146  1.00  0.00    -0.504 OA
ATOM     19  H   UNL     1      50.359 -20.554  19.741  1.00  0.00     0.293 HD
ENDBRANCH  15  18
BRANCH  17  20
ATOM     20  O   UNL     1      50.949 -23.193  18.032  1.00  0.00    -0.504 OA
ATOM     21  H   UNL     1      51.784 -22.626  18.131  1.00  0.00     0.293 HD
ENDBRANCH  17  20
ENDBRANCH   1  12
BRANCH   6  22
ATOM     22  O   UNL     1      45.760 -30.995  20.872  1.00  0.00    -0.507 OA
ATOM     23  H   UNL     1      45.183 -31.427  21.578  1.00  0.00     0.293 HD
ENDBRANCH   6  22
BRANCH   8  24
ATOM     24  O   UNL     1      42.838 -28.561  17.940  1.00  0.00    -0.508 OA
ATOM     25  H   UNL     1      42.885 -28.400  16.939  1.00  0.00     0.293 HD
ENDBRANCH   8  24
TORSDOF 5
ENDMDL
MODEL 6
REMARK VINA RESULT:    -6.375      4.569      7.123
REMARK INTER + INTRA:          -7.811
REMARK INTER:                  -7.544
REMARK INTRA:                  -0.266
REMARK UNBOUND:                -0.317
REMARK SMILES O=c1cc(-c2ccc(O)c(O)c2)oc2cc(O)cc(O)c12
REMARK SMILES IDX 4 1 3 2 2 3 1 4 21 5 19 6 18 7 16 8 15 9 14 10 13 11 5 12
REMARK SMILES IDX 6 13 7 14 8 15 12 16 10 17 9 18 11 20 20 22 17 24
REMARK H PARENT 9 19 11 21 20 23 17 25
REMARK Flexibility Score: inf
ROOT
ATOM      1  C   UNL     1      48.915 -25.468  17.968  1.00  0.00     0.138 A 
ATOM      2  C   UNL     1      49.789 -26.561  17.881  1.00  0.00     0.100 A 
ATOM      3  C   UNL     1      49.597 -27.521  16.888  1.00  0.00     0.197 A 
ATOM      4  O   UNL     1      50.359 -28.523  16.875  1.00  0.00    -0.289 OA
ATOM      5  C   UNL     1      48.542 -27.370  15.957  1.00  0.00     0.107 A 
ATOM      6  C   UNL     1      48.275 -28.264  14.878  1.00  0.00     0.134 A 
ATOM      7  C   UNL     1      47.132 -28.075  14.091  1.00  0.00     0.093 A 
ATOM      8  C   UNL     1      46.281 -26.989  14.306  1.00  0.00     0.123 A 
ATOM      9  C   UNL     1      46.562 -26.079  15.323  1.00  0.00     0.094 A 
ATOM     10  C   UNL     1      47.675 -26.260  16.147  1.00  0.00     0.146 A 
ATOM     11  O   UNL     1      47.900 -25.377  17.115  1.00  0.00    -0.456 OA
ENDROOT
BRANCH   1  12
ATOM     12  C   UNL     1      49.074 -24.416  19.003  1.00  0.00     0.021 A 
ATOM     13  C   UNL     1      48.264 -24.449  20.152  1.00  0.00     0.016 A 
ATOM     14  C   UNL     1      48.389 -23.466  21.138  1.00  0.00     0.051 A 
ATOM     15  C   UNL     1      49.318 -22.430  20.987  1.00  0.00     0.157 A 
ATOM     16  C   UNL     1      49.997 -23.363  18.853  1.00  0.00     0.062 A 
ATOM     17  C   UNL     1      50.121 -22.376  19.842  1.00  0.00     0.158 A 
BRANCH  15  18
ATOM     18  O   UNL     1      49.447 -21.448  21.968  1.00  0.00    -0.504 OA
ATOM     19  H   UNL     1      50.165 -20.734  21.913  1.00  0.00     0.293 HD
ENDBRANCH  15  18
BRANCH  17  20
ATOM     20  O   UNL     1      51.037 -21.336  19.690  1.00  0.00    -0.504 OA
ATOM     21  H   UNL     1      51.766 -21.166  20.373  1.00  0.00     0.293 HD
ENDBRANCH  17  20
ENDBRANCH   1  12
BRANCH   6  22
ATOM     22  O   UNL     1      49.107 -29.331  14.524  1.00  0.00    -0.507 OA
ATOM     23  H   UNL     1      49.939 -29.250  13.960  1.00  0.00     0.293 HD
ENDBRANCH   6  22
BRANCH   8  24
ATOM     24  O   UNL     1      45.155 -26.799  13.508  1.00  0.00    -0.508 OA
ATOM     25  H   UNL     1      45.163 -26.155  12.725  1.00  0.00     0.293 HD
ENDBRANCH   8  24
TORSDOF 5
ENDMDL
MODEL 7
REMARK VINA RESULT:    -6.344      2.314      3.944
REMARK INTER + INTRA:          -7.774
REMARK INTER:                  -7.509
REMARK INTRA:                  -0.265
REMARK UNBOUND:                -0.317
REMARK SMILES O=c1cc(-c2ccc(O)c(O)c2)oc2cc(O)cc(O)c12
REMARK SMILES IDX 4 1 3 2 2 3 1 4 21 5 19 6 18 7 16 8 15 9 14 10 13 11 5 12
REMARK SMILES IDX 6 13 7 14 8 15 12 16 10 17 9 18 11 20 20 22 17 24
REMARK H PARENT 9 19 11 21 20 23 17 25
REMARK Flexibility Score: inf
ROOT
ATOM      1  C   UNL     1      47.264 -26.611  18.904  1.00  0.00     0.138 A 
ATOM      2  C   UNL     1      48.003 -26.582  17.714  1.00  0.00     0.100 A 
ATOM      3  C   UNL     1      48.962 -25.588  17.520  1.00  0.00     0.197 A 
ATOM      4  O   UNL     1      49.565 -25.550  16.416  1.00  0.00    -0.289 OA
ATOM      5  C   UNL     1      49.204 -24.636  18.539  1.00  0.00     0.107 A 
ATOM      6  C   UNL     1      50.185 -23.602  18.469  1.00  0.00     0.134 A 
ATOM      7  C   UNL     1      50.255 -22.646  19.490  1.00  0.00     0.093 A 
ATOM      8  C   UNL     1      49.419 -22.723  20.607  1.00  0.00     0.123 A 
ATOM      9  C   UNL     1      48.494 -23.759  20.711  1.00  0.00     0.094 A 
ATOM     10  C   UNL     1      48.377 -24.708  19.692  1.00  0.00     0.146 A 
ATOM     11  O   UNL     1      47.472 -25.673  19.822  1.00  0.00    -0.456 OA
ENDROOT
BRANCH   1  12
ATOM     12  C   UNL     1      46.232 -27.646  19.163  1.00  0.00     0.021 A 
ATOM     13  C   UNL     1      44.924 -27.455  18.685  1.00  0.00     0.016 A 
ATOM     14  C   UNL     1      43.933 -28.411  18.921  1.00  0.00     0.051 A 
ATOM     15  C   UNL     1      44.230 -29.570  19.649  1.00  0.00     0.157 A 
ATOM     16  C   UNL     1      46.520 -28.809  19.905  1.00  0.00     0.062 A 
ATOM     17  C   UNL     1      45.525 -29.768  20.144  1.00  0.00     0.158 A 
BRANCH  15  18
ATOM     18  O   UNL     1      43.246 -30.527  19.886  1.00  0.00    -0.504 OA
ATOM     19  H   UNL     1      42.354 -30.501  19.404  1.00  0.00     0.293 HD
ENDBRANCH  15  18
BRANCH  17  20
ATOM     20  O   UNL     1      45.815 -30.917  20.877  1.00  0.00    -0.504 OA
ATOM     21  H   UNL     1      45.777 -30.925  21.890  1.00  0.00     0.293 HD
ENDBRANCH  17  20
ENDBRANCH   1  12
BRANCH   6  22
ATOM     22  O   UNL     1      51.124 -23.485  17.440  1.00  0.00    -0.507 OA
ATOM     23  H   UNL     1      51.571 -24.261  16.976  1.00  0.00     0.293 HD
ENDBRANCH   6  22
BRANCH   8  24
ATOM     24  O   UNL     1      49.506 -21.777  21.626  1.00  0.00    -0.508 OA
ATOM     25  H   UNL     1      50.099 -20.959  21.541  1.00  0.00     0.293 HD
ENDBRANCH   8  24
TORSDOF 5
ENDMDL
MODEL 8
REMARK VINA RESULT:    -6.302      2.325      7.007
REMARK INTER + INTRA:          -7.725
REMARK INTER:                  -7.439
REMARK INTRA:                  -0.286
REMARK UNBOUND:                -0.317
REMARK SMILES O=c1cc(-c2ccc(O)c(O)c2)oc2cc(O)cc(O)c12
REMARK SMILES IDX 4 1 3 2 2 3 1 4 21 5 19 6 18 7 16 8 15 9 14 10 13 11 5 12
REMARK SMILES IDX 6 13 7 14 8 15 12 16 10 17 9 18 11 20 20 22 17 24
REMARK H PARENT 9 19 11 21 20 23 17 25
REMARK Flexibility Score: inf
ROOT
ATOM      1  C   UNL     1      46.344 -28.645  17.598  1.00  0.00     0.138 A 
ATOM      2  C   UNL     1      44.980 -28.968  17.558  1.00  0.00     0.100 A 
ATOM      3  C   UNL     1      44.492 -30.001  18.357  1.00  0.00     0.197 A 
ATOM      4  O   UNL     1      43.276 -30.310  18.252  1.00  0.00    -0.289 OA
ATOM      5  C   UNL     1      45.369 -30.693  19.226  1.00  0.00     0.107 A 
ATOM      6  C   UNL     1      44.975 -31.737  20.116  1.00  0.00     0.134 A 
ATOM      7  C   UNL     1      45.951 -32.428  20.844  1.00  0.00     0.093 A 
ATOM      8  C   UNL     1      47.299 -32.074  20.760  1.00  0.00     0.123 A 
ATOM      9  C   UNL     1      47.688 -31.021  19.934  1.00  0.00     0.094 A 
ATOM     10  C   UNL     1      46.742 -30.335  19.169  1.00  0.00     0.146 A 
ATOM     11  O   UNL     1      47.156 -29.346  18.382  1.00  0.00    -0.456 OA
ENDROOT
BRANCH   1  12
ATOM     12  C   UNL     1      46.917 -27.554  16.770  1.00  0.00     0.021 A 
ATOM     13  C   UNL     1      48.009 -26.816  17.257  1.00  0.00     0.016 A 
ATOM     14  C   UNL     1      48.562 -25.780  16.499  1.00  0.00     0.051 A 
ATOM     15  C   UNL     1      48.026 -25.459  15.246  1.00  0.00     0.157 A 
ATOM     16  C   UNL     1      46.375 -27.217  15.514  1.00  0.00     0.062 A 
ATOM     17  C   UNL     1      46.929 -26.176  14.754  1.00  0.00     0.158 A 
BRANCH  15  18
ATOM     18  O   UNL     1      48.574 -24.427  14.487  1.00  0.00    -0.504 OA
ATOM     19  H   UNL     1      49.279 -24.607  13.780  1.00  0.00     0.293 HD
ENDBRANCH  15  18
BRANCH  17  20
ATOM     20  O   UNL     1      46.391 -25.846  13.511  1.00  0.00    -0.504 OA
ATOM     21  H   UNL     1      46.944 -25.387  12.797  1.00  0.00     0.293 HD
ENDBRANCH  17  20
ENDBRANCH   1  12
BRANCH   6  22
ATOM     22  O   UNL     1      43.647 -32.113  20.341  1.00  0.00    -0.507 OA
ATOM     23  H   UNL     1      43.257 -32.340  21.243  1.00  0.00     0.293 HD
ENDBRANCH   6  22
BRANCH   8  24
ATOM     24  O   UNL     1      48.262 -32.757  21.499  1.00  0.00    -0.508 OA
ATOM     25  H   UNL     1      48.022 -33.257  22.348  1.00  0.00     0.293 HD
ENDBRANCH   8  24
TORSDOF 5
ENDMDL
MODEL 9
REMARK VINA RESULT:    -6.172      2.524      7.767
REMARK INTER + INTRA:          -7.572
REMARK INTER:                  -7.287
REMARK INTRA:                  -0.285
REMARK UNBOUND:                -0.317
REMARK SMILES O=c1cc(-c2ccc(O)c(O)c2)oc2cc(O)cc(O)c12
REMARK SMILES IDX 4 1 3 2 2 3 1 4 21 5 19 6 18 7 16 8 15 9 14 10 13 11 5 12
REMARK SMILES IDX 6 13 7 14 8 15 12 16 10 17 9 18 11 20 20 22 17 24
REMARK H PARENT 9 19 11 21 20 23 17 25
REMARK Flexibility Score: inf
ROOT
ATOM      1  C   UNL     1      48.097 -25.839  18.724  1.00  0.00     0.138 A 
ATOM      2  C   UNL     1      47.453 -26.037  17.496  1.00  0.00     0.100 A 
ATOM      3  C   UNL     1      46.738 -27.214  17.273  1.00  0.00     0.197 A 
ATOM      4  O   UNL     1      46.223 -27.392  16.138  1.00  0.00    -0.289 OA
ATOM      5  C   UNL     1      46.642 -28.184  18.299  1.00  0.00     0.107 A 
ATOM      6  C   UNL     1      45.907 -29.403  18.199  1.00  0.00     0.134 A 
ATOM      7  C   UNL     1      45.980 -30.340  19.237  1.00  0.00     0.093 A 
ATOM      8  C   UNL     1      46.713 -30.076  20.396  1.00  0.00     0.123 A 
ATOM      9  C   UNL     1      47.391 -28.866  20.527  1.00  0.00     0.094 A 
ATOM     10  C   UNL     1      47.365 -27.926  19.494  1.00  0.00     0.146 A 
ATOM     11  O   UNL     1      48.037 -26.789  19.652  1.00  0.00    -0.456 OA
ENDROOT
BRANCH   1  12
ATOM     12  C   UNL     1      48.871 -24.606  19.015  1.00  0.00     0.021 A 
ATOM     13  C   UNL     1      49.866 -24.184  18.117  1.00  0.00     0.016 A 
ATOM     14  C   UNL     1      50.613 -23.031  18.372  1.00  0.00     0.051 A 
ATOM     15  C   UNL     1      50.384 -22.285  19.534  1.00  0.00     0.157 A 
ATOM     16  C   UNL     1      48.655 -23.857  20.189  1.00  0.00     0.062 A 
ATOM     17  C   UNL     1      49.406 -22.701  20.446  1.00  0.00     0.158 A 
BRANCH  15  18
ATOM     18  O   UNL     1      51.125 -21.134  19.792  1.00  0.00    -0.504 OA
ATOM     19  H   UNL     1      51.888 -21.134  20.460  1.00  0.00     0.293 HD
ENDBRANCH  15  18
BRANCH  17  20
ATOM     20  O   UNL     1      49.188 -21.962  21.608  1.00  0.00    -0.504 OA
ATOM     21  H   UNL     1      49.344 -22.359  22.527  1.00  0.00     0.293 HD
ENDBRANCH  17  20
ENDBRANCH   1  12
BRANCH   6  22
ATOM     22  O   UNL     1      45.076 -29.728  17.122  1.00  0.00    -0.507 OA
ATOM     23  H   UNL     1      44.138 -30.090  17.207  1.00  0.00     0.293 HD
ENDBRANCH   6  22
BRANCH   8  24
ATOM     24  O   UNL     1      46.767 -31.007  21.431  1.00  0.00    -0.508 OA
ATOM     25  H   UNL     1      46.090 -31.759  21.504  1.00  0.00     0.293 HD
ENDBRANCH   8  24
TORSDOF 5
ENDMDL
