MODEL 1
REMARK VINA RESULT:    -5.347      0.000      0.000
REMARK INTER + INTRA:          -8.250
REMARK INTER:                  -7.222
REMARK INTRA:                  -1.028
REMARK UNBOUND:                -1.028
REMARK SMILES CC(=O)CCC=C(C)CCC=C(C)C
REMARK SMILES IDX 7 1 6 2 8 3 9 4 10 5 11 6 13 7 12 8 14 9 5 10 4 11 2 12 3 13
REMARK SMILES IDX 1 14
REMARK H PARENT
REMARK Flexibility Score: inf
ROOT
ATOM      1  C   UNL     1      -2.130  28.600  53.644  1.00  0.00    -0.077 C 
ATOM      2  C   UNL     1      -2.041  29.690  52.850  1.00  0.00    -0.028 C 
ATOM      3  C   UNL     1      -2.128  28.800  55.138  1.00  0.00     0.039 C 
ENDROOT
BRANCH   1   4
ATOM      4  C   UNL     1      -2.248  27.186  53.103  1.00  0.00     0.034 C 
BRANCH   4   5
ATOM      5  C   UNL     1      -0.903  26.650  52.595  1.00  0.00     0.032 C 
BRANCH   5   6
ATOM      6  C   UNL     1      -0.020  26.201  53.736  1.00  0.00    -0.028 C 
ATOM      7  C   UNL     1       1.835  26.285  55.342  1.00  0.00     0.039 C 
ATOM      8  C   UNL     1       1.101  26.834  54.147  1.00  0.00    -0.080 C 
ATOM      9  C   UNL     1       1.630  28.063  53.449  1.00  0.00     0.039 C 
ENDBRANCH   5   6
ENDBRANCH   4   5
ENDBRANCH   1   4
BRANCH   2  10
ATOM     10  C   UNL     1      -1.988  29.635  51.340  1.00  0.00     0.035 C 
BRANCH  10  11
ATOM     11  C   UNL     1      -0.593  29.973  50.797  1.00  0.00     0.079 C 
BRANCH  11  12
ATOM     12  C   UNL     1      -0.654  30.503  49.388  1.00  0.00     0.130 C 
ATOM     13  O   UNL     1       0.324  30.405  48.662  1.00  0.00    -0.300 OA
ATOM     14  C   UNL     1      -1.908  31.124  48.850  1.00  0.00     0.087 C 
ENDBRANCH  11  12
ENDBRANCH  10  11
ENDBRANCH   2  10
TORSDOF 6
ENDMDL
MODEL 2
REMARK VINA RESULT:    -5.274      0.586      1.048
REMARK INTER + INTRA:          -8.152
REMARK INTER:                  -7.148
REMARK INTRA:                  -1.004
REMARK UNBOUND:                -1.028
REMARK SMILES CC(=O)CCC=C(C)CCC=C(C)C
REMARK SMILES IDX 7 1 6 2 8 3 9 4 10 5 11 6 13 7 12 8 14 9 5 10 4 11 2 12 3 13
REMARK SMILES IDX 1 14
REMARK H PARENT
REMARK Flexibility Score: inf
ROOT
ATOM      1  C   UNL     1      -2.061  28.451  53.476  1.00  0.00    -0.077 C 
ATOM      2  C   UNL     1      -2.074  29.568  52.716  1.00  0.00    -0.028 C 
ATOM      3  C   UNL     1      -2.202  28.600  54.969  1.00  0.00     0.039 C 
ENDROOT
BRANCH   1   4
ATOM      4  C   UNL     1      -1.926  27.054  52.897  1.00  0.00     0.034 C 
BRANCH   4   5
ATOM      5  C   UNL     1      -0.748  26.287  53.512  1.00  0.00     0.032 C 
BRANCH   5   6
ATOM      6  C   UNL     1       0.574  26.922  53.152  1.00  0.00    -0.028 C 
ATOM      7  C   UNL     1       2.859  27.759  53.487  1.00  0.00     0.039 C 
ATOM      8  C   UNL     1       1.578  27.173  54.021  1.00  0.00    -0.080 C 
ATOM      9  C   UNL     1       1.452  26.885  55.498  1.00  0.00     0.039 C 
ENDBRANCH   5   6
ENDBRANCH   4   5
ENDBRANCH   1   4
BRANCH   2  10
ATOM     10  C   UNL     1      -1.899  29.572  51.214  1.00  0.00     0.035 C 
BRANCH  10  11
ATOM     11  C   UNL     1      -0.503  30.052  50.795  1.00  0.00     0.079 C 
BRANCH  11  12
ATOM     12  C   UNL     1      -0.474  30.508  49.360  1.00  0.00     0.130 C 
ATOM     13  O   UNL     1       0.539  30.354  48.696  1.00  0.00    -0.300 OA
ATOM     14  C   UNL     1      -1.683  31.124  48.721  1.00  0.00     0.087 C 
ENDBRANCH  11  12
ENDBRANCH  10  11
ENDBRANCH   2  10
TORSDOF 6
ENDMDL
MODEL 3
REMARK VINA RESULT:    -5.036      2.286      5.324
REMARK INTER + INTRA:          -7.830
REMARK INTER:                  -7.140
REMARK INTRA:                  -0.691
REMARK UNBOUND:                -1.028
REMARK SMILES CC(=O)CCC=C(C)CCC=C(C)C
REMARK SMILES IDX 7 1 6 2 8 3 9 4 10 5 11 6 13 7 12 8 14 9 5 10 4 11 2 12 3 13
REMARK SMILES IDX 1 14
REMARK H PARENT
REMARK Flexibility Score: inf
ROOT
ATOM      1  C   UNL     1      -2.112  28.551  53.695  1.00  0.00    -0.077 C 
ATOM      2  C   UNL     1      -1.261  27.583  54.101  1.00  0.00    -0.028 C 
ATOM      3  C   UNL     1      -2.954  29.246  54.734  1.00  0.00     0.039 C 
ENDROOT
BRANCH   1   4
ATOM      4  C   UNL     1      -2.249  28.982  52.245  1.00  0.00     0.034 C 
BRANCH   4   5
ATOM      5  C   UNL     1      -1.494  30.287  51.959  1.00  0.00     0.032 C 
BRANCH   5   6
ATOM      6  C   UNL     1      -0.509  30.119  50.826  1.00  0.00    -0.028 C 
ATOM      7  C   UNL     1       0.380  30.296  48.543  1.00  0.00     0.039 C 
ATOM      8  C   UNL     1      -0.733  30.478  49.542  1.00  0.00    -0.080 C 
ATOM      9  C   UNL     1      -2.053  31.052  49.088  1.00  0.00     0.039 C 
ENDBRANCH   5   6
ENDBRANCH   4   5
ENDBRANCH   1   4
BRANCH   2  10
ATOM     10  C   UNL     1      -0.391  26.774  53.165  1.00  0.00     0.035 C 
BRANCH  10  11
ATOM     11  C   UNL     1       0.713  26.014  53.912  1.00  0.00     0.079 C 
BRANCH  11  12
ATOM     12  C   UNL     1       1.745  26.947  54.488  1.00  0.00     0.130 C 
ATOM     13  O   UNL     1       1.876  27.031  55.700  1.00  0.00    -0.300 OA
ATOM     14  C   UNL     1       2.638  27.756  53.596  1.00  0.00     0.087 C 
ENDBRANCH  11  12
ENDBRANCH  10  11
ENDBRANCH   2  10
TORSDOF 6
ENDMDL
MODEL 4
REMARK VINA RESULT:    -4.961      2.281      5.053
REMARK INTER + INTRA:          -7.730
REMARK INTER:                  -6.551
REMARK INTRA:                  -1.178
REMARK UNBOUND:                -1.028
REMARK SMILES CC(=O)CCC=C(C)CCC=C(C)C
REMARK SMILES IDX 7 1 6 2 8 3 9 4 10 5 11 6 13 7 12 8 14 9 5 10 4 11 2 12 3 13
REMARK SMILES IDX 1 14
REMARK H PARENT
REMARK Flexibility Score: inf
ROOT
ATOM      1  C   UNL     1      -1.536  28.134  54.028  1.00  0.00    -0.077 C 
ATOM      2  C   UNL     1      -0.253  28.512  54.220  1.00  0.00    -0.028 C 
ATOM      3  C   UNL     1      -2.555  28.500  55.077  1.00  0.00     0.039 C 
ENDROOT
BRANCH   1   4
ATOM      4  C   UNL     1      -2.002  27.372  52.800  1.00  0.00     0.034 C 
BRANCH   4   5
ATOM      5  C   UNL     1      -2.660  28.295  51.765  1.00  0.00     0.032 C 
BRANCH   5   6
ATOM      6  C   UNL     1      -1.658  28.784  50.745  1.00  0.00    -0.028 C 
ATOM      7  C   UNL     1      -0.115  30.345  49.643  1.00  0.00     0.039 C 
ATOM      8  C   UNL     1      -1.154  30.036  50.691  1.00  0.00    -0.080 C 
ATOM      9  C   UNL     1      -1.597  31.123  51.640  1.00  0.00     0.039 C 
ENDBRANCH   5   6
ENDBRANCH   4   5
ENDBRANCH   1   4
BRANCH   2  10
ATOM     10  C   UNL     1       0.878  28.177  53.275  1.00  0.00     0.035 C 
BRANCH  10  11
ATOM     11  C   UNL     1       2.161  27.789  54.022  1.00  0.00     0.079 C 
BRANCH  11  12
ATOM     12  C   UNL     1       2.303  26.296  54.155  1.00  0.00     0.130 C 
ATOM     13  O   UNL     1       3.050  25.689  53.402  1.00  0.00    -0.300 OA
ATOM     14  C   UNL     1       1.563  25.542  55.218  1.00  0.00     0.087 C 
ENDBRANCH  11  12
ENDBRANCH  10  11
ENDBRANCH   2  10
TORSDOF 6
ENDMDL
MODEL 5
REMARK VINA RESULT:    -4.857      3.067      4.957
REMARK INTER + INTRA:          -7.589
REMARK INTER:                  -6.500
REMARK INTRA:                  -1.089
REMARK UNBOUND:                -1.028
REMARK SMILES CC(=O)CCC=C(C)CCC=C(C)C
REMARK SMILES IDX 7 1 6 2 8 3 9 4 10 5 11 6 13 7 12 8 14 9 5 10 4 11 2 12 3 13
REMARK SMILES IDX 1 14
REMARK H PARENT
REMARK Flexibility Score: inf
ROOT
ATOM      1  C   UNL     1      -2.210  28.509  52.969  1.00  0.00    -0.077 C 
ATOM      2  C   UNL     1      -2.015  29.270  54.070  1.00  0.00    -0.028 C 
ATOM      3  C   UNL     1      -2.448  29.203  51.652  1.00  0.00     0.039 C 
ENDROOT
BRANCH   1   4
ATOM      4  C   UNL     1      -2.184  26.991  52.994  1.00  0.00     0.034 C 
BRANCH   4   5
ATOM      5  C   UNL     1      -0.831  26.431  52.536  1.00  0.00     0.032 C 
BRANCH   5   6
ATOM      6  C   UNL     1       0.038  26.052  53.712  1.00  0.00    -0.028 C 
ATOM      7  C   UNL     1       1.813  26.283  55.393  1.00  0.00     0.039 C 
ATOM      8  C   UNL     1       1.086  26.773  54.168  1.00  0.00    -0.080 C 
ATOM      9  C   UNL     1       1.542  28.042  53.491  1.00  0.00     0.039 C 
ENDBRANCH   5   6
ENDBRANCH   4   5
ENDBRANCH   1   4
BRANCH   2  10
ATOM     10  C   UNL     1      -1.810  28.710  55.459  1.00  0.00     0.035 C 
BRANCH  10  11
ATOM     11  C   UNL     1      -2.902  29.167  56.435  1.00  0.00     0.079 C 
BRANCH  11  12
ATOM     12  C   UNL     1      -2.372  29.323  57.836  1.00  0.00     0.130 C 
ATOM     13  O   UNL     1      -1.752  28.407  58.355  1.00  0.00    -0.300 OA
ATOM     14  C   UNL     1      -2.567  30.599  58.598  1.00  0.00     0.087 C 
ENDBRANCH  11  12
ENDBRANCH  10  11
ENDBRANCH   2  10
TORSDOF 6
ENDMDL
MODEL 6
REMARK VINA RESULT:    -4.781      1.136      2.174
REMARK INTER + INTRA:          -7.486
REMARK INTER:                  -6.904
REMARK INTRA:                  -0.583
REMARK UNBOUND:                -1.028
REMARK SMILES CC(=O)CCC=C(C)CCC=C(C)C
REMARK SMILES IDX 7 1 6 2 8 3 9 4 10 5 11 6 13 7 12 8 14 9 5 10 4 11 2 12 3 13
REMARK SMILES IDX 1 14
REMARK H PARENT
REMARK Flexibility Score: inf
ROOT
ATOM      1  C   UNL     1      -1.961  27.669  52.755  1.00  0.00    -0.077 C 
ATOM      2  C   UNL     1      -2.418  28.159  51.582  1.00  0.00    -0.028 C 
ATOM      3  C   UNL     1      -1.492  26.237  52.799  1.00  0.00     0.039 C 
ENDROOT
BRANCH   1   4
ATOM      4  C   UNL     1      -1.881  28.496  54.026  1.00  0.00     0.034 C 
BRANCH   4   5
ATOM      5  C   UNL     1      -0.647  28.143  54.867  1.00  0.00     0.032 C 
BRANCH   5   6
ATOM      6  C   UNL     1       0.607  28.118  54.024  1.00  0.00    -0.028 C 
ATOM      7  C   UNL     1       2.880  27.476  53.353  1.00  0.00     0.039 C 
ATOM      8  C   UNL     1       1.737  27.445  54.334  1.00  0.00    -0.080 C 
ATOM      9  C   UNL     1       1.883  26.670  55.621  1.00  0.00     0.039 C 
ENDBRANCH   5   6
ENDBRANCH   4   5
ENDBRANCH   1   4
BRANCH   2  10
ATOM     10  C   UNL     1      -2.960  29.560  51.403  1.00  0.00     0.035 C 
BRANCH  10  11
ATOM     11  C   UNL     1      -2.208  30.337  50.315  1.00  0.00     0.079 C 
BRANCH  11  12
ATOM     12  C   UNL     1      -0.765  30.563  50.684  1.00  0.00     0.130 C 
ATOM     13  O   UNL     1       0.110  30.371  49.852  1.00  0.00    -0.300 OA
ATOM     14  C   UNL     1      -0.384  31.049  52.049  1.00  0.00     0.087 C 
ENDBRANCH  11  12
ENDBRANCH  10  11
ENDBRANCH   2  10
TORSDOF 6
ENDMDL
MODEL 7
REMARK VINA RESULT:    -4.683      3.205      6.308
REMARK INTER + INTRA:          -7.354
REMARK INTER:                  -6.551
REMARK INTRA:                  -0.804
REMARK UNBOUND:                -1.028
REMARK SMILES CC(=O)CCC=C(C)CCC=C(C)C
REMARK SMILES IDX 7 1 6 2 8 3 9 4 10 5 11 6 13 7 12 8 14 9 5 10 4 11 2 12 3 13
REMARK SMILES IDX 1 14
REMARK H PARENT
REMARK Flexibility Score: inf
ROOT
ATOM      1  C   UNL     1      -1.191  28.214  52.664  1.00  0.00    -0.077 C 
ATOM      2  C   UNL     1      -1.750  27.816  53.829  1.00  0.00    -0.028 C 
ATOM      3  C   UNL     1      -1.445  27.388  51.429  1.00  0.00     0.039 C 
ENDROOT
BRANCH   1   4
ATOM      4  C   UNL     1      -0.334  29.461  52.538  1.00  0.00     0.034 C 
BRANCH   4   5
ATOM      5  C   UNL     1      -1.146  30.671  52.059  1.00  0.00     0.032 C 
BRANCH   5   6
ATOM      6  C   UNL     1      -0.988  30.890  50.572  1.00  0.00    -0.028 C 
ATOM      7  C   UNL     1      -1.677  31.165  48.231  1.00  0.00     0.039 C 
ATOM      8  C   UNL     1      -1.997  30.869  49.673  1.00  0.00    -0.080 C 
ATOM      9  C   UNL     1      -3.420  30.562  50.070  1.00  0.00     0.039 C 
ENDBRANCH   5   6
ENDBRANCH   4   5
ENDBRANCH   1   4
BRANCH   2  10
ATOM     10  C   UNL     1      -1.544  28.522  55.150  1.00  0.00     0.035 C 
BRANCH  10  11
ATOM     11  C   UNL     1      -2.866  29.006  55.760  1.00  0.00     0.079 C 
BRANCH  11  12
ATOM     12  C   UNL     1      -2.709  29.382  57.211  1.00  0.00     0.130 C 
ATOM     13  O   UNL     1      -3.267  30.381  57.640  1.00  0.00    -0.300 OA
ATOM     14  C   UNL     1      -1.902  28.534  58.145  1.00  0.00     0.087 C 
ENDBRANCH  11  12
ENDBRANCH  10  11
ENDBRANCH   2  10
TORSDOF 6
ENDMDL
MODEL 8
REMARK VINA RESULT:    -4.523      1.510      3.367
REMARK INTER + INTRA:          -7.138
REMARK INTER:                  -6.530
REMARK INTRA:                  -0.608
REMARK UNBOUND:                -1.028
REMARK SMILES CC(=O)CCC=C(C)CCC=C(C)C
REMARK SMILES IDX 7 1 6 2 8 3 9 4 10 5 11 6 13 7 12 8 14 9 5 10 4 11 2 12 3 13
REMARK SMILES IDX 1 14
REMARK H PARENT
REMARK Flexibility Score: inf
ROOT
ATOM      1  C   UNL     1      -0.533  27.766  53.099  1.00  0.00    -0.077 C 
ATOM      2  C   UNL     1       0.268  28.777  52.693  1.00  0.00    -0.028 C 
ATOM      3  C   UNL     1       0.111  26.507  53.620  1.00  0.00     0.039 C 
ENDROOT
BRANCH   1   4
ATOM      4  C   UNL     1      -2.049  27.846  53.070  1.00  0.00     0.034 C 
BRANCH   4   5
ATOM      5  C   UNL     1      -2.588  28.911  54.035  1.00  0.00     0.032 C 
BRANCH   5   6
ATOM      6  C   UNL     1      -2.104  28.673  55.446  1.00  0.00    -0.028 C 
ATOM      7  C   UNL     1      -2.161  28.695  57.901  1.00  0.00     0.039 C 
ATOM      8  C   UNL     1      -2.752  29.064  56.565  1.00  0.00    -0.080 C 
ATOM      9  C   UNL     1      -4.039  29.851  56.514  1.00  0.00     0.039 C 
ENDBRANCH   5   6
ENDBRANCH   4   5
ENDBRANCH   1   4
BRANCH   2  10
ATOM     10  C   UNL     1      -0.239  30.076  52.109  1.00  0.00     0.035 C 
BRANCH  10  11
ATOM     11  C   UNL     1      -0.276  30.047  50.576  1.00  0.00     0.079 C 
BRANCH  11  12
ATOM     12  C   UNL     1      -1.487  30.758  50.031  1.00  0.00     0.130 C 
ATOM     13  O   UNL     1      -1.425  31.311  48.943  1.00  0.00    -0.300 OA
ATOM     14  C   UNL     1      -2.779  30.776  50.791  1.00  0.00     0.087 C 
ENDBRANCH  11  12
ENDBRANCH  10  11
ENDBRANCH   2  10
TORSDOF 6
ENDMDL
