MODEL 1
REMARK VINA RESULT:    -5.075      0.000      0.000
REMARK INTER + INTRA:          -5.869
REMARK INTER:                  -5.816
REMARK INTRA:                  -0.053
REMARK UNBOUND:                -0.053
REMARK SMILES O=C([O-])c1cc(O)c(O)c(O)c1
REMARK SMILES IDX 4 1 5 2 12 3 6 4 10 5 8 6 2 7 1 8 3 9 7 10 11 12 9 14
REMARK H PARENT 7 11 11 13 9 15
REMARK Flexibility Score: inf
ROOT
ATOM      1  C   UNL     1     221.961 129.175 222.430  1.00  0.00     0.005 A 
ATOM      2  C   UNL     1     221.454 127.969 221.916  1.00  0.00     0.060 A 
ATOM      3  C   UNL     1     223.301 129.229 222.846  1.00  0.00     0.060 A 
ATOM      4  C   UNL     1     222.272 126.835 221.820  1.00  0.00     0.162 A 
ATOM      5  C   UNL     1     224.124 128.102 222.754  1.00  0.00     0.162 A 
ATOM      6  C   UNL     1     223.612 126.899 222.240  1.00  0.00     0.200 A 
ENDROOT
BRANCH   1   7
ATOM      7  C   UNL     1     221.099 130.375 222.531  1.00  0.00     0.072 C 
ATOM      8  O   UNL     1     219.894 130.329 222.168  1.00  0.00    -0.545 OA
ATOM      9  O   UNL     1     221.608 131.569 223.028  1.00  0.00    -0.545 OA
ENDBRANCH   1   7
BRANCH   4  10
ATOM     10  O   UNL     1     221.757 125.644 221.310  1.00  0.00    -0.504 OA
ATOM     11  H   UNL     1     222.109 124.741 221.609  1.00  0.00     0.293 HD
ENDBRANCH   4  10
BRANCH   5  12
ATOM     12  O   UNL     1     225.449 128.197 223.179  1.00  0.00    -0.504 OA
ATOM     13  H   UNL     1     225.880 129.086 223.408  1.00  0.00     0.293 HD
ENDBRANCH   5  12
BRANCH   6  14
ATOM     14  O   UNL     1     224.439 125.779 222.151  1.00  0.00    -0.502 OA
ATOM     15  H   UNL     1     225.416 125.806 222.418  1.00  0.00     0.293 HD
ENDBRANCH   6  14
TORSDOF 4
ENDMDL
MODEL 2
REMARK VINA RESULT:    -5.041      0.096      2.431
REMARK INTER + INTRA:          -5.831
REMARK INTER:                  -5.778
REMARK INTRA:                  -0.053
REMARK UNBOUND:                -0.053
REMARK SMILES O=C([O-])c1cc(O)c(O)c(O)c1
REMARK SMILES IDX 4 1 5 2 12 3 6 4 10 5 8 6 2 7 1 8 3 9 7 10 11 12 9 14
REMARK H PARENT 7 11 11 13 9 15
REMARK Flexibility Score: inf
ROOT
ATOM      1  C   UNL     1     222.011 129.162 222.449  1.00  0.00     0.005 A 
ATOM      2  C   UNL     1     223.347 129.256 222.877  1.00  0.00     0.060 A 
ATOM      3  C   UNL     1     221.540 127.939 221.944  1.00  0.00     0.060 A 
ATOM      4  C   UNL     1     224.199 128.145 222.801  1.00  0.00     0.162 A 
ATOM      5  C   UNL     1     222.384 126.827 221.865  1.00  0.00     0.162 A 
ATOM      6  C   UNL     1     223.718 126.926 222.294  1.00  0.00     0.200 A 
ENDROOT
BRANCH   1   7
ATOM      7  C   UNL     1     221.109 130.334 222.529  1.00  0.00     0.072 C 
ATOM      8  O   UNL     1     219.910 130.246 222.151  1.00  0.00    -0.545 OA
ATOM      9  O   UNL     1     221.573 131.548 223.022  1.00  0.00    -0.545 OA
ENDBRANCH   1   7
BRANCH   4  10
ATOM     10  O   UNL     1     225.522 128.251 223.227  1.00  0.00    -0.504 OA
ATOM     11  H   UNL     1     226.072 129.084 223.053  1.00  0.00     0.293 HD
ENDBRANCH   4  10
BRANCH   5  12
ATOM     12  O   UNL     1     221.877 125.631 221.357  1.00  0.00    -0.504 OA
ATOM     13  H   UNL     1     220.966 125.574 220.918  1.00  0.00     0.293 HD
ENDBRANCH   5  12
BRANCH   6  14
ATOM     14  O   UNL     1     224.554 125.811 222.212  1.00  0.00    -0.502 OA
ATOM     15  H   UNL     1     224.859 125.303 223.033  1.00  0.00     0.293 HD
ENDBRANCH   6  14
TORSDOF 4
ENDMDL
MODEL 3
REMARK VINA RESULT:    -4.638      9.026     10.517
REMARK INTER + INTRA:          -5.369
REMARK INTER:                  -5.323
REMARK INTRA:                  -0.046
REMARK UNBOUND:                -0.053
REMARK SMILES O=C([O-])c1cc(O)c(O)c(O)c1
REMARK SMILES IDX 4 1 5 2 12 3 6 4 10 5 8 6 2 7 1 8 3 9 7 10 11 12 9 14
REMARK H PARENT 7 11 11 13 9 15
REMARK Flexibility Score: inf
ROOT
ATOM      1  C   UNL     1     219.423 126.600 213.558  1.00  0.00     0.005 A 
ATOM      2  C   UNL     1     218.681 125.880 212.606  1.00  0.00     0.060 A 
ATOM      3  C   UNL     1     218.756 127.169 214.655  1.00  0.00     0.060 A 
ATOM      4  C   UNL     1     217.294 125.732 212.747  1.00  0.00     0.162 A 
ATOM      5  C   UNL     1     217.373 127.026 214.803  1.00  0.00     0.162 A 
ATOM      6  C   UNL     1     216.636 126.306 213.848  1.00  0.00     0.200 A 
ENDROOT
BRANCH   1   7
ATOM      7  C   UNL     1     220.888 126.758 213.412  1.00  0.00     0.072 C 
ATOM      8  O   UNL     1     221.677 126.183 214.209  1.00  0.00    -0.545 OA
ATOM      9  O   UNL     1     221.414 127.542 212.391  1.00  0.00    -0.545 OA
ENDBRANCH   1   7
BRANCH   4  10
ATOM     10  O   UNL     1     216.569 125.017 211.795  1.00  0.00    -0.504 OA
ATOM     11  H   UNL     1     216.829 125.020 210.815  1.00  0.00     0.293 HD
ENDBRANCH   4  10
BRANCH   5  12
ATOM     12  O   UNL     1     216.748 127.607 215.906  1.00  0.00    -0.504 OA
ATOM     13  H   UNL     1     217.253 128.183 216.570  1.00  0.00     0.293 HD
ENDBRANCH   5  12
BRANCH   6  14
ATOM     14  O   UNL     1     215.256 126.167 214.002  1.00  0.00    -0.502 OA
ATOM     15  H   UNL     1     214.752 126.599 214.768  1.00  0.00     0.293 HD
ENDBRANCH   6  14
TORSDOF 4
ENDMDL
MODEL 4
REMARK VINA RESULT:    -4.613      8.665      9.837
REMARK INTER + INTRA:          -5.340
REMARK INTER:                  -5.295
REMARK INTRA:                  -0.045
REMARK UNBOUND:                -0.053
REMARK SMILES O=C([O-])c1cc(O)c(O)c(O)c1
REMARK SMILES IDX 4 1 5 2 12 3 6 4 10 5 8 6 2 7 1 8 3 9 7 10 11 12 9 14
REMARK H PARENT 7 11 11 13 9 15
REMARK Flexibility Score: inf
ROOT
ATOM      1  C   UNL     1     218.037 128.987 213.379  1.00  0.00     0.005 A 
ATOM      2  C   UNL     1     219.384 128.603 213.503  1.00  0.00     0.060 A 
ATOM      3  C   UNL     1     217.055 128.260 214.071  1.00  0.00     0.060 A 
ATOM      4  C   UNL     1     219.744 127.511 214.304  1.00  0.00     0.162 A 
ATOM      5  C   UNL     1     217.405 127.170 214.873  1.00  0.00     0.162 A 
ATOM      6  C   UNL     1     218.752 126.790 214.992  1.00  0.00     0.200 A 
ENDROOT
BRANCH   1   7
ATOM      7  C   UNL     1     217.656 130.141 212.533  1.00  0.00     0.072 C 
ATOM      8  O   UNL     1     217.317 131.235 213.058  1.00  0.00    -0.545 OA
ATOM      9  O   UNL     1     217.666 130.032 211.147  1.00  0.00    -0.545 OA
ENDBRANCH   1   7
BRANCH   4  10
ATOM     10  O   UNL     1     221.082 127.139 214.418  1.00  0.00    -0.504 OA
ATOM     11  H   UNL     1     221.425 126.626 215.222  1.00  0.00     0.293 HD
ENDBRANCH   4  10
BRANCH   5  12
ATOM     12  O   UNL     1     216.399 126.474 215.543  1.00  0.00    -0.504 OA
ATOM     13  H   UNL     1     216.304 126.502 216.552  1.00  0.00     0.293 HD
ENDBRANCH   5  12
BRANCH   6  14
ATOM     14  O   UNL     1     219.094 125.700 215.794  1.00  0.00    -0.502 OA
ATOM     15  H   UNL     1     219.904 125.123 215.605  1.00  0.00     0.293 HD
ENDBRANCH   6  14
TORSDOF 4
ENDMDL
MODEL 5
REMARK VINA RESULT:    -4.600      8.664      9.618
REMARK INTER + INTRA:          -5.325
REMARK INTER:                  -5.280
REMARK INTRA:                  -0.045
REMARK UNBOUND:                -0.053
REMARK SMILES O=C([O-])c1cc(O)c(O)c(O)c1
REMARK SMILES IDX 4 1 5 2 12 3 6 4 10 5 8 6 2 7 1 8 3 9 7 10 11 12 9 14
REMARK H PARENT 7 11 11 13 9 15
REMARK Flexibility Score: inf
ROOT
ATOM      1  C   UNL     1     218.045 128.982 213.375  1.00  0.00     0.005 A 
ATOM      2  C   UNL     1     217.054 128.260 214.063  1.00  0.00     0.060 A 
ATOM      3  C   UNL     1     219.388 128.595 213.509  1.00  0.00     0.060 A 
ATOM      4  C   UNL     1     217.399 127.169 214.873  1.00  0.00     0.162 A 
ATOM      5  C   UNL     1     219.740 127.507 214.315  1.00  0.00     0.162 A 
ATOM      6  C   UNL     1     218.746 126.790 215.000  1.00  0.00     0.200 A 
ENDROOT
BRANCH   1   7
ATOM      7  C   UNL     1     217.682 130.135 212.519  1.00  0.00     0.072 C 
ATOM      8  O   UNL     1     217.339 131.232 213.035  1.00  0.00    -0.545 OA
ATOM      9  O   UNL     1     217.714 130.022 211.134  1.00  0.00    -0.545 OA
ENDBRANCH   1   7
BRANCH   4  10
ATOM     10  O   UNL     1     216.408 126.462 215.550  1.00  0.00    -0.504 OA
ATOM     11  H   UNL     1     215.507 126.878 215.761  1.00  0.00     0.293 HD
ENDBRANCH   4  10
BRANCH   5  12
ATOM     12  O   UNL     1     221.086 127.155 214.422  1.00  0.00    -0.504 OA
ATOM     13  H   UNL     1     221.826 127.730 214.037  1.00  0.00     0.293 HD
ENDBRANCH   5  12
BRANCH   6  14
ATOM     14  O   UNL     1     219.106 125.706 215.802  1.00  0.00    -0.502 OA
ATOM     15  H   UNL     1     219.860 125.076 215.553  1.00  0.00     0.293 HD
ENDBRANCH   6  14
TORSDOF 4
ENDMDL
MODEL 6
REMARK VINA RESULT:    -4.598      9.222     10.972
REMARK INTER + INTRA:          -5.323
REMARK INTER:                  -5.273
REMARK INTRA:                  -0.050
REMARK UNBOUND:                -0.053
REMARK SMILES O=C([O-])c1cc(O)c(O)c(O)c1
REMARK SMILES IDX 4 1 5 2 12 3 6 4 10 5 8 6 2 7 1 8 3 9 7 10 11 12 9 14
REMARK H PARENT 7 11 11 13 9 15
REMARK Flexibility Score: inf
ROOT
ATOM      1  C   UNL     1     219.314 126.167 213.400  1.00  0.00     0.005 A 
ATOM      2  C   UNL     1     218.730 126.823 214.498  1.00  0.00     0.060 A 
ATOM      3  C   UNL     1     218.482 125.522 212.471  1.00  0.00     0.060 A 
ATOM      4  C   UNL     1     217.339 126.834 214.666  1.00  0.00     0.162 A 
ATOM      5  C   UNL     1     217.093 125.528 212.631  1.00  0.00     0.162 A 
ATOM      6  C   UNL     1     216.515 126.185 213.730  1.00  0.00     0.200 A 
ENDROOT
BRANCH   1   7
ATOM      7  C   UNL     1     220.783 126.155 213.222  1.00  0.00     0.072 C 
ATOM      8  O   UNL     1     221.550 126.134 214.221  1.00  0.00    -0.545 OA
ATOM      9  O   UNL     1     221.338 126.165 211.947  1.00  0.00    -0.545 OA
ENDBRANCH   1   7
BRANCH   4  10
ATOM     10  O   UNL     1     216.773 127.488 215.759  1.00  0.00    -0.504 OA
ATOM     11  H   UNL     1     216.612 128.489 215.756  1.00  0.00     0.293 HD
ENDBRANCH   4  10
BRANCH   5  12
ATOM     12  O   UNL     1     216.301 124.875 211.686  1.00  0.00    -0.504 OA
ATOM     13  H   UNL     1     216.696 124.439 210.860  1.00  0.00     0.293 HD
ENDBRANCH   5  12
BRANCH   6  14
ATOM     14  O   UNL     1     215.128 126.187 213.882  1.00  0.00    -0.502 OA
ATOM     15  H   UNL     1     214.684 126.185 214.793  1.00  0.00     0.293 HD
ENDBRANCH   6  14
TORSDOF 4
ENDMDL
MODEL 7
REMARK VINA RESULT:    -4.597      1.513      4.820
REMARK INTER + INTRA:          -5.321
REMARK INTER:                  -5.269
REMARK INTRA:                  -0.052
REMARK UNBOUND:                -0.053
REMARK SMILES O=C([O-])c1cc(O)c(O)c(O)c1
REMARK SMILES IDX 4 1 5 2 12 3 6 4 10 5 8 6 2 7 1 8 3 9 7 10 11 12 9 14
REMARK H PARENT 7 11 11 13 9 15
REMARK Flexibility Score: inf
ROOT
ATOM      1  C   UNL     1     224.807 127.362 223.203  1.00  0.00     0.005 A 
ATOM      2  C   UNL     1     224.489 128.710 223.443  1.00  0.00     0.060 A 
ATOM      3  C   UNL     1     223.942 126.587 222.415  1.00  0.00     0.060 A 
ATOM      4  C   UNL     1     223.325 129.275 222.905  1.00  0.00     0.162 A 
ATOM      5  C   UNL     1     222.778 127.143 221.874  1.00  0.00     0.162 A 
ATOM      6  C   UNL     1     222.465 128.491 222.117  1.00  0.00     0.200 A 
ENDROOT
BRANCH   1   7
ATOM      7  C   UNL     1     226.037 126.764 223.771  1.00  0.00     0.072 C 
ATOM      8  O   UNL     1     226.970 127.497 224.192  1.00  0.00    -0.545 OA
ATOM      9  O   UNL     1     226.178 125.383 223.848  1.00  0.00    -0.545 OA
ENDBRANCH   1   7
BRANCH   4  10
ATOM     10  O   UNL     1     223.020 130.612 223.151  1.00  0.00    -0.504 OA
ATOM     11  H   UNL     1     223.417 131.360 222.593  1.00  0.00     0.293 HD
ENDBRANCH   4  10
BRANCH   5  12
ATOM     12  O   UNL     1     221.944 126.339 221.096  1.00  0.00    -0.504 OA
ATOM     13  H   UNL     1     221.994 125.327 221.122  1.00  0.00     0.293 HD
ENDBRANCH   5  12
BRANCH   6  14
ATOM     14  O   UNL     1     221.302 129.038 221.574  1.00  0.00    -0.502 OA
ATOM     15  H   UNL     1     220.659 128.492 221.013  1.00  0.00     0.293 HD
ENDBRANCH   6  14
TORSDOF 4
ENDMDL
MODEL 8
REMARK VINA RESULT:    -4.589      1.525      4.314
REMARK INTER + INTRA:          -5.313
REMARK INTER:                  -5.261
REMARK INTRA:                  -0.052
REMARK UNBOUND:                -0.053
REMARK SMILES O=C([O-])c1cc(O)c(O)c(O)c1
REMARK SMILES IDX 4 1 5 2 12 3 6 4 10 5 8 6 2 7 1 8 3 9 7 10 11 12 9 14
REMARK H PARENT 7 11 11 13 9 15
REMARK Flexibility Score: inf
ROOT
ATOM      1  C   UNL     1     224.817 127.343 223.199  1.00  0.00     0.005 A 
ATOM      2  C   UNL     1     223.947 126.572 222.408  1.00  0.00     0.060 A 
ATOM      3  C   UNL     1     224.503 128.690 223.445  1.00  0.00     0.060 A 
ATOM      4  C   UNL     1     222.783 127.138 221.870  1.00  0.00     0.162 A 
ATOM      5  C   UNL     1     223.343 129.261 222.912  1.00  0.00     0.162 A 
ATOM      6  C   UNL     1     222.477 128.486 222.122  1.00  0.00     0.200 A 
ENDROOT
BRANCH   1   7
ATOM      7  C   UNL     1     226.047 126.748 223.769  1.00  0.00     0.072 C 
ATOM      8  O   UNL     1     226.993 127.482 224.157  1.00  0.00    -0.545 OA
ATOM      9  O   UNL     1     226.175 125.368 223.882  1.00  0.00    -0.545 OA
ENDBRANCH   1   7
BRANCH   4  10
ATOM     10  O   UNL     1     221.929 126.364 221.087  1.00  0.00    -0.504 OA
ATOM     11  H   UNL     1     222.247 125.921 220.232  1.00  0.00     0.293 HD
ENDBRANCH   4  10
BRANCH   5  12
ATOM     12  O   UNL     1     223.067 130.602 223.179  1.00  0.00    -0.504 OA
ATOM     13  H   UNL     1     222.277 130.888 223.745  1.00  0.00     0.293 HD
ENDBRANCH   5  12
BRANCH   6  14
ATOM     14  O   UNL     1     221.322 129.064 221.594  1.00  0.00    -0.502 OA
ATOM     15  H   UNL     1     221.334 129.959 221.120  1.00  0.00     0.293 HD
ENDBRANCH   6  14
TORSDOF 4
ENDMDL
MODEL 9
REMARK VINA RESULT:    -4.339      8.720     10.125
REMARK INTER + INTRA:          -5.026
REMARK INTER:                  -4.975
REMARK INTRA:                  -0.051
REMARK UNBOUND:                -0.053
REMARK SMILES O=C([O-])c1cc(O)c(O)c(O)c1
REMARK SMILES IDX 4 1 5 2 12 3 6 4 10 5 8 6 2 7 1 8 3 9 7 10 11 12 9 14
REMARK H PARENT 7 11 11 13 9 15
REMARK Flexibility Score: inf
ROOT
ATOM      1  C   UNL     1     219.850 127.410 213.049  1.00  0.00     0.005 A 
ATOM      2  C   UNL     1     218.678 128.150 212.816  1.00  0.00     0.060 A 
ATOM      3  C   UNL     1     219.922 126.588 214.185  1.00  0.00     0.060 A 
ATOM      4  C   UNL     1     217.596 128.072 213.704  1.00  0.00     0.162 A 
ATOM      5  C   UNL     1     218.848 126.504 215.076  1.00  0.00     0.162 A 
ATOM      6  C   UNL     1     217.679 127.247 214.839  1.00  0.00     0.200 A 
ENDROOT
BRANCH   1   7
ATOM      7  C   UNL     1     220.993 127.491 212.111  1.00  0.00     0.072 C 
ATOM      8  O   UNL     1     220.817 127.849 210.916  1.00  0.00    -0.545 OA
ATOM      9  O   UNL     1     222.278 127.173 212.537  1.00  0.00    -0.545 OA
ENDBRANCH   1   7
BRANCH   4  10
ATOM     10  O   UNL     1     216.440 128.812 213.463  1.00  0.00    -0.504 OA
ATOM     11  H   UNL     1     215.780 128.547 212.740  1.00  0.00     0.293 HD
ENDBRANCH   4  10
BRANCH   5  12
ATOM     12  O   UNL     1     218.961 125.676 216.193  1.00  0.00    -0.504 OA
ATOM     13  H   UNL     1     218.153 125.241 216.626  1.00  0.00     0.293 HD
ENDBRANCH   5  12
BRANCH   6  14
ATOM     14  O   UNL     1     216.611 127.157 215.733  1.00  0.00    -0.502 OA
ATOM     15  H   UNL     1     216.334 126.280 216.157  1.00  0.00     0.293 HD
ENDBRANCH   6  14
TORSDOF 4
ENDMDL
