MODEL 1
REMARK VINA RESULT:    -3.632      0.000      0.000
REMARK INTER + INTRA:          -5.924
REMARK INTER:                  -5.544
REMARK INTRA:                  -0.380
REMARK UNBOUND:                -0.380
REMARK SMILES CC1=CCC[C@@H](C)C(=O)C[C@H](C(C)C)C(=O)C1
REMARK SMILES IDX 8 1 9 2 6 3 7 4 5 5 4 6 3 7 2 8 1 9 10 11 11 12 15 13 16 14
REMARK SMILES IDX 17 15 12 17 13 18 14 19
REMARK H PARENT
REMARK Flexibility Score: 70.00
ROOT
ATOM      1  C   UNL     1      -5.847   3.041  14.498  1.00  0.00     0.136 C 
ATOM      2  O   UNL     1      -5.852   2.085  13.736  1.00  0.00    -0.299 OA
ENDROOT
BRANCH   1   3
ATOM      3  C   UNL     1      -7.083   3.291  15.348  1.00  0.00     0.053 C 
ATOM      4  C   UNL     1      -8.146   4.065  14.560  1.00  0.00     0.016 C 
BRANCH   3   5
ATOM      5  C   UNL     1      -6.754   4.001  16.677  1.00  0.00     0.015 C 
BRANCH   5   6
ATOM      6  C   UNL     1      -7.226   5.473  16.707  1.00  0.00     0.028 C 
BRANCH   6   7
ATOM      7  C   UNL     1      -6.063   6.406  16.954  1.00  0.00    -0.028 C 
ATOM      8  C   UNL     1      -5.405   7.107  16.000  1.00  0.00    -0.070 CG0
ATOM      9  C   UNL     1      -4.358   8.096  16.445  1.00  0.00     0.039 C 
ATOM     10  G   UNL     1      -5.669   6.939  14.511  1.00  0.00     0.000 G0
ENDBRANCH   6   7
ENDBRANCH   5   6
ENDBRANCH   3   5
ENDBRANCH   1   3
BRANCH   1  11
ATOM     11  C   UNL     1      -4.611   3.919  14.547  1.00  0.00     0.087 C 
BRANCH  11  12
ATOM     12  C   UNL     1      -4.465   4.845  13.309  1.00  0.00     0.066 C 
BRANCH  12  13
ATOM     13  C   UNL     1      -4.526   6.323  13.688  1.00  0.00     0.140 C 
ATOM     14  O   UNL     1      -3.623   7.060  13.321  1.00  0.00    -0.299 OA
BRANCH  13  15
ATOM     15  C   UNL     1      -5.646   6.945  14.502  1.00  0.00     0.106 CG0
ATOM     16  G   UNL     1      -5.379   7.081  15.993  1.00  0.00     0.000 G0
ENDBRANCH  13  15
ENDBRANCH  12  13
BRANCH  12  17
ATOM     17  C   UNL     1      -3.211   4.542  12.432  1.00  0.00    -0.006 C 
ATOM     18  C   UNL     1      -2.365   3.350  12.915  1.00  0.00     0.008 C 
ATOM     19  C   UNL     1      -3.584   4.350  10.952  1.00  0.00     0.008 C 
ENDBRANCH  12  17
ENDBRANCH  11  12
ENDBRANCH   1  11
TORSDOF 1
ENDMDL
MODEL 2
REMARK VINA RESULT:    -3.607      1.733      2.325
REMARK INTER + INTRA:          -5.884
REMARK INTER:                  -5.485
REMARK INTRA:                  -0.399
REMARK UNBOUND:                -0.380
REMARK SMILES CC1=CCC[C@@H](C)C(=O)C[C@H](C(C)C)C(=O)C1
REMARK SMILES IDX 8 1 9 2 6 3 7 4 5 5 4 6 3 7 2 8 1 9 10 11 11 12 15 13 16 14
REMARK SMILES IDX 17 15 12 17 13 18 14 19
REMARK H PARENT
REMARK Flexibility Score: 70.00
ROOT
ATOM      1  C   UNL     1      -6.205   3.401  16.342  1.00  0.00     0.136 C 
ATOM      2  O   UNL     1      -6.534   2.298  16.754  1.00  0.00    -0.299 OA
ENDROOT
BRANCH   1   3
ATOM      3  C   UNL     1      -7.272   4.480  16.240  1.00  0.00     0.053 C 
ATOM      4  C   UNL     1      -8.023   4.388  14.906  1.00  0.00     0.016 C 
BRANCH   3   5
ATOM      5  C   UNL     1      -6.704   5.897  16.457  1.00  0.00     0.015 C 
BRANCH   5   6
ATOM      6  C   UNL     1      -6.533   6.687  15.139  1.00  0.00     0.028 C 
BRANCH   6   7
ATOM      7  C   UNL     1      -5.236   7.463  15.140  1.00  0.00    -0.028 C 
ATOM      8  C   UNL     1      -4.176   7.217  14.332  1.00  0.00    -0.070 CG0
ATOM      9  C   UNL     1      -3.017   8.180  14.375  1.00  0.00     0.039 C 
ATOM     10  G   UNL     1      -4.102   6.022  13.395  1.00  0.00     0.000 G0
ENDBRANCH   6   7
ENDBRANCH   5   6
ENDBRANCH   3   5
ENDBRANCH   1   3
BRANCH   1  11
ATOM     11  C   UNL     1      -4.755   3.624  15.957  1.00  0.00     0.087 C 
BRANCH  11  12
ATOM     12  C   UNL     1      -4.515   3.596  14.422  1.00  0.00     0.066 C 
BRANCH  12  13
ATOM     13  C   UNL     1      -3.601   4.729  13.963  1.00  0.00     0.140 C 
ATOM     14  O   UNL     1      -2.392   4.589  14.074  1.00  0.00    -0.299 OA
BRANCH  13  15
ATOM     15  C   UNL     1      -4.100   6.035  13.373  1.00  0.00     0.106 CG0
ATOM     16  G   UNL     1      -4.168   7.211  14.335  1.00  0.00     0.000 G0
ENDBRANCH  13  15
ENDBRANCH  12  13
BRANCH  12  17
ATOM     17  C   UNL     1      -4.017   2.219  13.882  1.00  0.00    -0.006 C 
ATOM     18  C   UNL     1      -3.216   1.385  14.898  1.00  0.00     0.008 C 
ATOM     19  C   UNL     1      -5.172   1.378  13.314  1.00  0.00     0.008 C 
ENDBRANCH  12  17
ENDBRANCH  11  12
ENDBRANCH   1  11
TORSDOF 1
ENDMDL
MODEL 3
REMARK VINA RESULT:    -3.510      6.690      9.374
REMARK INTER + INTRA:          -5.737
REMARK INTER:                  -5.394
REMARK INTRA:                  -0.344
REMARK UNBOUND:                -0.380
REMARK SMILES CC1=CCC[C@@H](C)C(=O)C[C@H](C(C)C)C(=O)C1
REMARK SMILES IDX 8 1 9 2 6 3 7 4 5 5 4 6 3 7 2 8 1 9 10 11 11 12 15 13 16 14
REMARK SMILES IDX 17 15 12 17 13 18 14 19
REMARK H PARENT
REMARK Flexibility Score: 70.00
ROOT
ATOM      1  C   UNL     1      -3.701  -1.623   8.985  1.00  0.00     0.136 C 
ATOM      2  O   UNL     1      -4.856  -1.337   8.705  1.00  0.00    -0.299 OA
ENDROOT
BRANCH   1   3
ATOM      3  C   UNL     1      -3.257  -3.069   8.827  1.00  0.00     0.053 C 
ATOM      4  C   UNL     1      -3.841  -3.950   9.937  1.00  0.00     0.016 C 
BRANCH   3   5
ATOM      5  C   UNL     1      -1.723  -3.212   8.757  1.00  0.00     0.015 C 
BRANCH   5   6
ATOM      6  C   UNL     1      -1.123  -3.883  10.014  1.00  0.00     0.028 C 
BRANCH   6   7
ATOM      7  C   UNL     1       0.180  -3.226  10.405  1.00  0.00    -0.028 C 
ATOM      8  C   UNL     1       0.330  -2.315  11.397  1.00  0.00    -0.070 CG0
ATOM      9  C   UNL     1       1.728  -1.867  11.740  1.00  0.00     0.039 C 
ATOM     10  G   UNL     1      -0.839  -1.725  12.171  1.00  0.00     0.000 G0
ENDBRANCH   6   7
ENDBRANCH   5   6
ENDBRANCH   3   5
ENDBRANCH   1   3
BRANCH   1  11
ATOM     11  C   UNL     1      -2.784  -0.518   9.475  1.00  0.00     0.087 C 
BRANCH  11  12
ATOM     12  C   UNL     1      -2.820  -0.327  11.016  1.00  0.00     0.066 C 
BRANCH  12  13
ATOM     13  C   UNL     1      -1.431  -0.428  11.640  1.00  0.00     0.140 C 
ATOM     14  O   UNL     1      -0.743   0.580  11.706  1.00  0.00    -0.299 OA
BRANCH  13  15
ATOM     15  C   UNL     1      -0.839  -1.713  12.189  1.00  0.00     0.106 CG0
ATOM     16  G   UNL     1       0.312  -2.304  11.388  1.00  0.00     0.000 G0
ENDBRANCH  13  15
ENDBRANCH  12  13
BRANCH  12  17
ATOM     17  C   UNL     1      -3.551   0.972  11.479  1.00  0.00    -0.006 C 
ATOM     18  C   UNL     1      -4.108   1.836  10.333  1.00  0.00     0.008 C 
ATOM     19  C   UNL     1      -4.667   0.668  12.492  1.00  0.00     0.008 C 
ENDBRANCH  12  17
ENDBRANCH  11  12
ENDBRANCH   1  11
TORSDOF 1
ENDMDL
MODEL 4
REMARK VINA RESULT:    -3.498      1.579      2.235
REMARK INTER + INTRA:          -5.719
REMARK INTER:                  -5.372
REMARK INTRA:                  -0.347
REMARK UNBOUND:                -0.380
REMARK SMILES CC1=CCC[C@@H](C)C(=O)C[C@H](C(C)C)C(=O)C1
REMARK SMILES IDX 8 1 9 2 6 3 7 4 5 5 4 6 3 7 2 8 1 9 10 11 11 12 15 13 16 14
REMARK SMILES IDX 17 15 12 17 13 18 14 19
REMARK H PARENT
REMARK Flexibility Score: 70.00
ROOT
ATOM      1  C   UNL     1      -5.085   2.997  13.886  1.00  0.00     0.136 C 
ATOM      2  O   UNL     1      -5.793   2.108  13.437  1.00  0.00    -0.299 OA
ENDROOT
BRANCH   1   3
ATOM      3  C   UNL     1      -5.625   3.840  15.031  1.00  0.00     0.053 C 
ATOM      4  C   UNL     1      -6.034   2.960  16.217  1.00  0.00     0.016 C 
BRANCH   3   5
ATOM      5  C   UNL     1      -6.786   4.757  14.596  1.00  0.00     0.015 C 
BRANCH   5   6
ATOM      6  C   UNL     1      -6.307   6.023  13.849  1.00  0.00     0.028 C 
BRANCH   6   7
ATOM      7  C   UNL     1      -5.217   6.726  14.624  1.00  0.00    -0.028 C 
ATOM      8  C   UNL     1      -4.038   7.148  14.109  1.00  0.00    -0.070 CG0
ATOM      9  C   UNL     1      -3.126   7.954  14.997  1.00  0.00     0.039 C 
ATOM     10  G   UNL     1      -3.593   6.843  12.686  1.00  0.00     0.000 G0
ENDBRANCH   6   7
ENDBRANCH   5   6
ENDBRANCH   3   5
ENDBRANCH   1   3
BRANCH   1  11
ATOM     11  C   UNL     1      -3.714   3.207  13.271  1.00  0.00     0.087 C 
BRANCH  11  12
ATOM     12  C   UNL     1      -3.713   4.235  12.107  1.00  0.00     0.066 C 
BRANCH  12  13
ATOM     13  C   UNL     1      -2.937   5.502  12.459  1.00  0.00     0.140 C 
ATOM     14  O   UNL     1      -1.722   5.432  12.575  1.00  0.00    -0.299 OA
BRANCH  13  15
ATOM     15  C   UNL     1      -3.582   6.857  12.681  1.00  0.00     0.106 CG0
ATOM     16  G   UNL     1      -4.045   7.143  14.101  1.00  0.00     0.000 G0
ENDBRANCH  13  15
ENDBRANCH  12  13
BRANCH  12  17
ATOM     17  C   UNL     1      -3.239   3.649  10.741  1.00  0.00    -0.006 C 
ATOM     18  C   UNL     1      -3.954   2.352  10.318  1.00  0.00     0.008 C 
ATOM     19  C   UNL     1      -3.334   4.687   9.611  1.00  0.00     0.008 C 
ENDBRANCH  12  17
ENDBRANCH  11  12
ENDBRANCH   1  11
TORSDOF 1
ENDMDL
MODEL 5
REMARK VINA RESULT:    -3.381      2.121      2.903
REMARK INTER + INTRA:          -5.540
REMARK INTER:                  -5.220
REMARK INTRA:                  -0.320
REMARK UNBOUND:                -0.380
REMARK SMILES CC1=CCC[C@@H](C)C(=O)C[C@H](C(C)C)C(=O)C1
REMARK SMILES IDX 8 1 9 2 6 3 7 4 5 5 4 6 3 7 2 8 1 9 10 11 11 12 15 13 16 14
REMARK SMILES IDX 17 15 12 17 13 18 14 19
REMARK H PARENT
REMARK Flexibility Score: 70.00
ROOT
ATOM      1  C   UNL     1      -5.789   3.569  15.543  1.00  0.00     0.136 C 
ATOM      2  O   UNL     1      -6.752   2.870  15.820  1.00  0.00    -0.299 OA
ENDROOT
BRANCH   1   3
ATOM      3  C   UNL     1      -5.941   5.079  15.644  1.00  0.00     0.053 C 
ATOM      4  C   UNL     1      -6.810   5.466  16.847  1.00  0.00     0.016 C 
BRANCH   3   5
ATOM      5  C   UNL     1      -6.483   5.709  14.345  1.00  0.00     0.015 C 
BRANCH   5   6
ATOM      6  C   UNL     1      -5.482   6.684  13.684  1.00  0.00     0.028 C 
BRANCH   6   7
ATOM      7  C   UNL     1      -4.277   6.901  14.570  1.00  0.00    -0.028 C 
ATOM      8  C   UNL     1      -3.036   6.411  14.337  1.00  0.00    -0.070 CG0
ATOM      9  C   UNL     1      -1.921   6.844  15.256  1.00  0.00     0.039 C 
ATOM     10  G   UNL     1      -2.719   5.447  13.204  1.00  0.00     0.000 G0
ENDBRANCH   6   7
ENDBRANCH   5   6
ENDBRANCH   3   5
ENDBRANCH   1   3
BRANCH   1  11
ATOM     11  C   UNL     1      -4.503   2.889  15.113  1.00  0.00     0.087 C 
BRANCH  11  12
ATOM     12  C   UNL     1      -4.110   3.191  13.641  1.00  0.00     0.066 C 
BRANCH  12  13
ATOM     13  C   UNL     1      -2.796   3.962  13.544  1.00  0.00     0.140 C 
ATOM     14  O   UNL     1      -1.750   3.368  13.758  1.00  0.00    -0.299 OA
BRANCH  13  15
ATOM     15  C   UNL     1      -2.703   5.438  13.199  1.00  0.00     0.106 CG0
ATOM     16  G   UNL     1      -3.035   6.401  14.328  1.00  0.00     0.000 G0
ENDBRANCH  13  15
ENDBRANCH  12  13
BRANCH  12  17
ATOM     17  C   UNL     1      -4.091   1.934  12.716  1.00  0.00    -0.006 C 
ATOM     18  C   UNL     1      -5.221   0.923  12.988  1.00  0.00     0.008 C 
ATOM     19  C   UNL     1      -4.087   2.321  11.229  1.00  0.00     0.008 C 
ENDBRANCH  12  17
ENDBRANCH  11  12
ENDBRANCH   1  11
TORSDOF 1
ENDMDL
MODEL 6
REMARK VINA RESULT:    -3.362      2.234      4.118
REMARK INTER + INTRA:          -5.511
REMARK INTER:                  -5.254
REMARK INTRA:                  -0.257
REMARK UNBOUND:                -0.380
REMARK SMILES CC1=CCC[C@@H](C)C(=O)C[C@H](C(C)C)C(=O)C1
REMARK SMILES IDX 8 1 9 2 6 3 7 4 5 5 4 6 3 7 2 8 1 9 10 11 11 12 15 13 16 14
REMARK SMILES IDX 17 15 12 17 13 18 14 19
REMARK H PARENT
REMARK Flexibility Score: 70.00
ROOT
ATOM      1  C   UNL     1      -6.833   5.437  15.262  1.00  0.00     0.136 C 
ATOM      2  O   UNL     1      -7.137   5.918  16.343  1.00  0.00    -0.299 OA
ENDROOT
BRANCH   1   3
ATOM      3  C   UNL     1      -7.381   4.064  14.903  1.00  0.00     0.053 C 
ATOM      4  C   UNL     1      -8.914   4.078  14.857  1.00  0.00     0.016 C 
BRANCH   3   5
ATOM      5  C   UNL     1      -6.867   2.956  15.845  1.00  0.00     0.015 C 
BRANCH   5   6
ATOM      6  C   UNL     1      -5.394   2.572  15.575  1.00  0.00     0.028 C 
BRANCH   6   7
ATOM      7  C   UNL     1      -5.209   2.116  14.146  1.00  0.00    -0.028 C 
ATOM      8  C   UNL     1      -4.245   2.557  13.303  1.00  0.00    -0.070 CG0
ATOM      9  C   UNL     1      -4.126   1.890  11.956  1.00  0.00     0.039 C 
ATOM     10  G   UNL     1      -3.289   3.688  13.648  1.00  0.00     0.000 G0
ENDBRANCH   6   7
ENDBRANCH   5   6
ENDBRANCH   3   5
ENDBRANCH   1   3
BRANCH   1  11
ATOM     11  C   UNL     1      -5.926   6.236  14.346  1.00  0.00     0.087 C 
BRANCH  11  12
ATOM     12  C   UNL     1      -4.416   5.951  14.573  1.00  0.00     0.066 C 
BRANCH  12  13
ATOM     13  C   UNL     1      -3.817   5.104  13.453  1.00  0.00     0.140 C 
ATOM     14  O   UNL     1      -3.755   5.578  12.328  1.00  0.00    -0.299 OA
BRANCH  13  15
ATOM     15  C   UNL     1      -3.288   3.694  13.646  1.00  0.00     0.106 CG0
ATOM     16  G   UNL     1      -4.264   2.574  13.320  1.00  0.00     0.000 G0
ENDBRANCH  13  15
ENDBRANCH  12  13
BRANCH  12  17
ATOM     17  C   UNL     1      -3.559   7.229  14.830  1.00  0.00    -0.006 C 
ATOM     18  C   UNL     1      -4.017   8.475  14.049  1.00  0.00     0.008 C 
ATOM     19  C   UNL     1      -3.465   7.560  16.329  1.00  0.00     0.008 C 
ENDBRANCH  12  17
ENDBRANCH  11  12
ENDBRANCH   1  11
TORSDOF 1
ENDMDL
MODEL 7
REMARK VINA RESULT:    -3.312      6.772      8.935
REMARK INTER + INTRA:          -5.435
REMARK INTER:                  -5.055
REMARK INTRA:                  -0.380
REMARK UNBOUND:                -0.380
REMARK SMILES CC1=CCC[C@@H](C)C(=O)C[C@H](C(C)C)C(=O)C1
REMARK SMILES IDX 8 1 9 2 6 3 7 4 5 5 4 6 3 7 2 8 1 9 10 11 11 12 15 13 16 14
REMARK SMILES IDX 17 15 12 17 13 18 14 19
REMARK H PARENT
REMARK Flexibility Score: 70.00
ROOT
ATOM      1  C   UNL     1      -3.678  -0.483   9.801  1.00  0.00     0.136 C 
ATOM      2  O   UNL     1      -4.492  -0.552   8.892  1.00  0.00    -0.299 OA
ENDROOT
BRANCH   1   3
ATOM      3  C   UNL     1      -3.035   0.864  10.094  1.00  0.00     0.053 C 
ATOM      4  C   UNL     1      -4.086   1.980  10.129  1.00  0.00     0.016 C 
BRANCH   3   5
ATOM      5  C   UNL     1      -1.899   1.204   9.109  1.00  0.00     0.015 C 
BRANCH   5   6
ATOM      6  C   UNL     1      -0.493   0.954   9.700  1.00  0.00     0.028 C 
BRANCH   6   7
ATOM      7  C   UNL     1      -0.530   0.987  11.211  1.00  0.00    -0.028 C 
ATOM      8  C   UNL     1      -0.186  -0.040  12.025  1.00  0.00    -0.070 CG0
ATOM      9  C   UNL     1      -0.152   0.217  13.510  1.00  0.00     0.039 C 
ATOM     10  G   UNL     1       0.159  -1.430  11.513  1.00  0.00     0.000 G0
ENDBRANCH   6   7
ENDBRANCH   5   6
ENDBRANCH   3   5
ENDBRANCH   1   3
BRANCH   1  11
ATOM     11  C   UNL     1      -3.359  -1.746  10.580  1.00  0.00     0.087 C 
BRANCH  11  12
ATOM     12  C   UNL     1      -1.990  -2.373  10.200  1.00  0.00     0.066 C 
BRANCH  12  13
ATOM     13  C   UNL     1      -1.019  -2.391  11.377  1.00  0.00     0.140 C 
ATOM     14  O   UNL     1      -1.190  -3.212  12.266  1.00  0.00    -0.299 OA
BRANCH  13  15
ATOM     15  C   UNL     1       0.157  -1.442  11.520  1.00  0.00     0.106 CG0
ATOM     16  G   UNL     1      -0.179  -0.045  12.018  1.00  0.00     0.000 G0
ENDBRANCH  13  15
ENDBRANCH  12  13
BRANCH  12  17
ATOM     17  C   UNL     1      -2.099  -3.784   9.541  1.00  0.00    -0.006 C 
ATOM     18  C   UNL     1      -3.517  -4.168   9.082  1.00  0.00     0.008 C 
ATOM     19  C   UNL     1      -1.112  -3.944   8.372  1.00  0.00     0.008 C 
ENDBRANCH  12  17
ENDBRANCH  11  12
ENDBRANCH   1  11
TORSDOF 1
ENDMDL
MODEL 8
REMARK VINA RESULT:    -3.232      6.433      8.799
REMARK INTER + INTRA:          -5.313
REMARK INTER:                  -4.924
REMARK INTRA:                  -0.389
REMARK UNBOUND:                -0.380
REMARK SMILES CC1=CCC[C@@H](C)C(=O)C[C@H](C(C)C)C(=O)C1
REMARK SMILES IDX 8 1 9 2 6 3 7 4 5 5 4 6 3 7 2 8 1 9 10 11 11 12 15 13 16 14
REMARK SMILES IDX 17 15 12 17 13 18 14 19
REMARK H PARENT
REMARK Flexibility Score: 70.00
ROOT
ATOM      1  C   UNL     1      -2.048  -3.370  10.485  1.00  0.00     0.136 C 
ATOM      2  O   UNL     1      -1.401  -4.112   9.761  1.00  0.00    -0.299 OA
ENDROOT
BRANCH   1   3
ATOM      3  C   UNL     1      -3.451  -2.978  10.047  1.00  0.00     0.053 C 
ATOM      4  C   UNL     1      -4.370  -4.203   9.980  1.00  0.00     0.016 C 
BRANCH   3   5
ATOM      5  C   UNL     1      -3.461  -2.207   8.712  1.00  0.00     0.015 C 
BRANCH   5   6
ATOM      6  C   UNL     1      -2.765  -0.829   8.807  1.00  0.00     0.028 C 
BRANCH   6   7
ATOM      7  C   UNL     1      -3.401   0.022   9.881  1.00  0.00    -0.028 C 
ATOM      8  C   UNL     1      -2.727   0.716  10.831  1.00  0.00    -0.070 CG0
ATOM      9  C   UNL     1      -3.519   1.623  11.738  1.00  0.00     0.039 C 
ATOM     10  G   UNL     1      -1.222   0.618  11.023  1.00  0.00     0.000 G0
ENDBRANCH   6   7
ENDBRANCH   5   6
ENDBRANCH   3   5
ENDBRANCH   1   3
BRANCH   1  11
ATOM     11  C   UNL     1      -1.412  -2.886  11.774  1.00  0.00     0.087 C 
BRANCH  11  12
ATOM     12  C   UNL     1      -0.291  -1.836  11.550  1.00  0.00     0.066 C 
BRANCH  12  13
ATOM     13  C   UNL     1      -0.720  -0.436  11.982  1.00  0.00     0.140 C 
ATOM     14  O   UNL     1      -0.673  -0.148  13.168  1.00  0.00    -0.299 OA
BRANCH  13  15
ATOM     15  C   UNL     1      -1.210   0.634  11.023  1.00  0.00     0.106 CG0
ATOM     16  G   UNL     1      -2.718   0.718  10.843  1.00  0.00     0.000 G0
ENDBRANCH  13  15
ENDBRANCH  12  13
BRANCH  12  17
ATOM     17  C   UNL     1       1.080  -2.223  12.187  1.00  0.00    -0.006 C 
ATOM     18  C   UNL     1       1.303  -3.738  12.354  1.00  0.00     0.008 C 
ATOM     19  C   UNL     1       2.260  -1.605  11.419  1.00  0.00     0.008 C 
ENDBRANCH  12  17
ENDBRANCH  11  12
ENDBRANCH   1  11
TORSDOF 1
ENDMDL
MODEL 9
REMARK VINA RESULT:    -3.140      2.229      5.022
REMARK INTER + INTRA:          -5.173
REMARK INTER:                  -4.805
REMARK INTRA:                  -0.368
REMARK UNBOUND:                -0.380
REMARK SMILES CC1=CCC[C@@H](C)C(=O)C[C@H](C(C)C)C(=O)C1
REMARK SMILES IDX 8 1 9 2 6 3 7 4 5 5 4 6 3 7 2 8 1 9 10 11 11 12 15 13 16 14
REMARK SMILES IDX 17 15 12 17 13 18 14 19
REMARK H PARENT
REMARK Flexibility Score: 70.00
ROOT
ATOM      1  C   UNL     1      -4.434   5.987  15.954  1.00  0.00     0.136 C 
ATOM      2  O   UNL     1      -5.182   6.685  16.622  1.00  0.00    -0.299 OA
ENDROOT
BRANCH   1   3
ATOM      3  C   UNL     1      -3.369   6.671  15.112  1.00  0.00     0.053 C 
ATOM      4  C   UNL     1      -2.638   7.750  15.920  1.00  0.00     0.016 C 
BRANCH   3   5
ATOM      5  C   UNL     1      -3.933   7.251  13.799  1.00  0.00     0.015 C 
BRANCH   5   6
ATOM      6  C   UNL     1      -3.682   6.335  12.579  1.00  0.00     0.028 C 
BRANCH   6   7
ATOM      7  C   UNL     1      -2.521   5.402  12.836  1.00  0.00    -0.028 C 
ATOM      8  C   UNL     1      -2.590   4.049  12.830  1.00  0.00    -0.070 CG0
ATOM      9  C   UNL     1      -1.303   3.276  12.970  1.00  0.00     0.039 C 
ATOM     10  G   UNL     1      -3.895   3.281  12.696  1.00  0.00     0.000 G0
ENDBRANCH   6   7
ENDBRANCH   5   6
ENDBRANCH   3   5
ENDBRANCH   1   3
BRANCH   1  11
ATOM     11  C   UNL     1      -4.616   4.481  16.004  1.00  0.00     0.087 C 
BRANCH  11  12
ATOM     12  C   UNL     1      -5.419   3.919  14.799  1.00  0.00     0.066 C 
BRANCH  12  13
ATOM     13  C   UNL     1      -4.603   2.921  13.982  1.00  0.00     0.140 C 
ATOM     14  O   UNL     1      -4.507   1.771  14.385  1.00  0.00    -0.299 OA
BRANCH  13  15
ATOM     15  C   UNL     1      -3.892   3.267  12.686  1.00  0.00     0.106 CG0
ATOM     16  G   UNL     1      -2.597   4.051  12.834  1.00  0.00     0.000 G0
ENDBRANCH  13  15
ENDBRANCH  12  13
BRANCH  12  17
ATOM     17  C   UNL     1      -6.810   3.325  15.184  1.00  0.00    -0.006 C 
ATOM     18  C   UNL     1      -6.957   2.950  16.670  1.00  0.00     0.008 C 
ATOM     19  C   UNL     1      -7.962   4.253  14.765  1.00  0.00     0.008 C 
ENDBRANCH  12  17
ENDBRANCH  11  12
ENDBRANCH   1  11
TORSDOF 1
ENDMDL
