MODEL 1
REMARK VINA RESULT:    -4.651      0.000      0.000
REMARK INTER + INTRA:          -5.114
REMARK INTER:                  -4.923
REMARK INTRA:                  -0.191
REMARK UNBOUND:                -0.191
REMARK SMILES CC1=CC[C@H](C(C)C)C=C1
REMARK SMILES IDX 1 1 2 2 3 3 4 4 5 5 9 6 10 7 6 8 7 9 8 10
REMARK H PARENT
REMARK Flexibility Score: inf
ROOT
ATOM      1  C   UNL     1      30.159  29.802  11.436  1.00  0.00     0.044 C 
ATOM      2  C   UNL     1      29.734  28.390  11.710  1.00  0.00    -0.055 C 
ATOM      3  C   UNL     1      28.461  28.015  11.513  1.00  0.00    -0.023 C 
ATOM      4  C   UNL     1      28.013  26.619  11.854  1.00  0.00     0.035 C 
ATOM      5  C   UNL     1      29.127  25.594  11.539  1.00  0.00     0.018 C 
ATOM      6  C   UNL     1      30.456  26.077  12.088  1.00  0.00    -0.023 C 
ATOM      7  C   UNL     1      30.744  27.383  12.114  1.00  0.00    -0.001 C 
ENDROOT
BRANCH   5   8
ATOM      8  C   UNL     1      28.749  24.154  11.999  1.00  0.00    -0.010 C 
ATOM      9  C   UNL     1      27.506  24.104  12.905  1.00  0.00     0.008 C 
ATOM     10  C   UNL     1      29.934  23.459  12.688  1.00  0.00     0.008 C 
ENDBRANCH   5   8
TORSDOF 1
ENDMDL
MODEL 2
REMARK VINA RESULT:    -4.513      1.173      4.610
REMARK INTER + INTRA:          -4.967
REMARK INTER:                  -4.778
REMARK INTRA:                  -0.189
REMARK UNBOUND:                -0.191
REMARK SMILES CC1=CC[C@H](C(C)C)C=C1
REMARK SMILES IDX 1 1 2 2 3 3 4 4 5 5 9 6 10 7 6 8 7 9 8 10
REMARK H PARENT
REMARK Flexibility Score: inf
ROOT
ATOM      1  C   UNL     1      29.859  21.884  13.701  1.00  0.00     0.044 C 
ATOM      2  C   UNL     1      29.748  23.248  13.090  1.00  0.00    -0.055 C 
ATOM      3  C   UNL     1      30.838  23.862  12.601  1.00  0.00    -0.023 C 
ATOM      4  C   UNL     1      30.745  25.261  12.051  1.00  0.00     0.035 C 
ATOM      5  C   UNL     1      29.402  25.472  11.314  1.00  0.00     0.018 C 
ATOM      6  C   UNL     1      28.253  24.954  12.157  1.00  0.00    -0.023 C 
ATOM      7  C   UNL     1      28.418  23.884  12.942  1.00  0.00    -0.001 C 
ENDROOT
BRANCH   5   8
ATOM      8  C   UNL     1      29.216  26.946  10.843  1.00  0.00    -0.010 C 
ATOM      9  C   UNL     1      30.540  27.716  10.692  1.00  0.00     0.008 C 
ATOM     10  C   UNL     1      28.262  27.712  11.774  1.00  0.00     0.008 C 
ENDBRANCH   5   8
TORSDOF 1
ENDMDL
MODEL 3
REMARK VINA RESULT:    -4.498      1.280      4.437
REMARK INTER + INTRA:          -4.952
REMARK INTER:                  -4.828
REMARK INTRA:                  -0.124
REMARK UNBOUND:                -0.191
REMARK SMILES CC1=CC[C@H](C(C)C)C=C1
REMARK SMILES IDX 1 1 2 2 3 3 4 4 5 5 9 6 10 7 6 8 7 9 8 10
REMARK H PARENT
REMARK Flexibility Score: inf
ROOT
ATOM      1  C   UNL     1      29.914  21.893  13.654  1.00  0.00     0.044 C 
ATOM      2  C   UNL     1      29.619  23.143  12.881  1.00  0.00    -0.055 C 
ATOM      3  C   UNL     1      28.441  23.770  13.029  1.00  0.00    -0.023 C 
ATOM      4  C   UNL     1      28.113  24.985  12.203  1.00  0.00     0.035 C 
ATOM      5  C   UNL     1      29.373  25.854  11.979  1.00  0.00     0.018 C 
ATOM      6  C   UNL     1      30.539  24.986  11.548  1.00  0.00    -0.023 C 
ATOM      7  C   UNL     1      30.666  23.740  12.019  1.00  0.00    -0.001 C 
ENDROOT
BRANCH   5   8
ATOM      8  C   UNL     1      29.098  27.051  11.021  1.00  0.00    -0.010 C 
ATOM      9  C   UNL     1      30.378  27.737  10.511  1.00  0.00     0.008 C 
ATOM     10  C   UNL     1      28.168  28.086  11.674  1.00  0.00     0.008 C 
ENDBRANCH   5   8
TORSDOF 1
ENDMDL
MODEL 4
REMARK VINA RESULT:    -4.469      0.687      1.607
REMARK INTER + INTRA:          -4.922
REMARK INTER:                  -4.786
REMARK INTRA:                  -0.135
REMARK UNBOUND:                -0.191
REMARK SMILES CC1=CC[C@H](C(C)C)C=C1
REMARK SMILES IDX 1 1 2 2 3 3 4 4 5 5 9 6 10 7 6 8 7 9 8 10
REMARK H PARENT
REMARK Flexibility Score: inf
ROOT
ATOM      1  C   UNL     1      30.128  29.816  11.328  1.00  0.00     0.044 C 
ATOM      2  C   UNL     1      29.758  28.363  11.304  1.00  0.00    -0.055 C 
ATOM      3  C   UNL     1      30.678  27.434  11.001  1.00  0.00    -0.023 C 
ATOM      4  C   UNL     1      30.294  25.981  10.906  1.00  0.00     0.035 C 
ATOM      5  C   UNL     1      29.227  25.625  11.967  1.00  0.00     0.018 C 
ATOM      6  C   UNL     1      28.120  26.661  11.967  1.00  0.00    -0.023 C 
ATOM      7  C   UNL     1      28.394  27.944  11.705  1.00  0.00    -0.001 C 
ENDROOT
BRANCH   5   8
ATOM      8  C   UNL     1      28.712  24.162  11.815  1.00  0.00    -0.010 C 
ATOM      9  C   UNL     1      27.180  24.038  11.882  1.00  0.00     0.008 C 
ATOM     10  C   UNL     1      29.363  23.231  12.850  1.00  0.00     0.008 C 
ENDBRANCH   5   8
TORSDOF 1
ENDMDL
MODEL 5
REMARK VINA RESULT:    -4.366      1.973      3.881
REMARK INTER + INTRA:          -4.812
REMARK INTER:                  -4.621
REMARK INTRA:                  -0.191
REMARK UNBOUND:                -0.191
REMARK SMILES CC1=CC[C@H](C(C)C)C=C1
REMARK SMILES IDX 1 1 2 2 3 3 4 4 5 5 9 6 10 7 6 8 7 9 8 10
REMARK H PARENT
REMARK Flexibility Score: inf
ROOT
ATOM      1  C   UNL     1      27.989  26.334  11.867  1.00  0.00     0.044 C 
ATOM      2  C   UNL     1      28.778  25.076  12.070  1.00  0.00    -0.055 C 
ATOM      3  C   UNL     1      29.995  24.943  11.519  1.00  0.00    -0.023 C 
ATOM      4  C   UNL     1      30.762  23.654  11.659  1.00  0.00     0.035 C 
ATOM      5  C   UNL     1      30.524  23.024  13.051  1.00  0.00     0.018 C 
ATOM      6  C   UNL     1      29.044  23.019  13.380  1.00  0.00    -0.023 C 
ATOM      7  C   UNL     1      28.252  24.011  12.956  1.00  0.00    -0.001 C 
ENDROOT
BRANCH   5   8
ATOM      8  C   UNL     1      31.198  21.626  13.186  1.00  0.00    -0.010 C 
ATOM      9  C   UNL     1      31.696  21.051  11.848  1.00  0.00     0.008 C 
ATOM     10  C   UNL     1      30.263  20.620  13.877  1.00  0.00     0.008 C 
ENDBRANCH   5   8
TORSDOF 1
ENDMDL
MODEL 6
REMARK VINA RESULT:    -4.236      1.240      2.066
REMARK INTER + INTRA:          -4.675
REMARK INTER:                  -4.483
REMARK INTRA:                  -0.192
REMARK UNBOUND:                -0.191
REMARK SMILES CC1=CC[C@H](C(C)C)C=C1
REMARK SMILES IDX 1 1 2 2 3 3 4 4 5 5 9 6 10 7 6 8 7 9 8 10
REMARK H PARENT
REMARK Flexibility Score: inf
ROOT
ATOM      1  C   UNL     1      28.073  28.232  11.455  1.00  0.00     0.044 C 
ATOM      2  C   UNL     1      28.698  26.946  11.905  1.00  0.00    -0.055 C 
ATOM      3  C   UNL     1      27.962  25.825  11.981  1.00  0.00    -0.023 C 
ATOM      4  C   UNL     1      28.567  24.548  12.500  1.00  0.00     0.035 C 
ATOM      5  C   UNL     1      30.041  24.417  12.053  1.00  0.00     0.018 C 
ATOM      6  C   UNL     1      30.783  25.716  12.303  1.00  0.00    -0.023 C 
ATOM      7  C   UNL     1      30.153  26.890  12.180  1.00  0.00    -0.001 C 
ENDROOT
BRANCH   5   8
ATOM      8  C   UNL     1      30.737  23.172  12.678  1.00  0.00    -0.010 C 
ATOM      9  C   UNL     1      29.790  22.292  13.513  1.00  0.00     0.008 C 
ATOM     10  C   UNL     1      31.959  23.578  13.518  1.00  0.00     0.008 C 
ENDBRANCH   5   8
TORSDOF 1
ENDMDL
MODEL 7
REMARK VINA RESULT:    -4.095      2.135      5.128
REMARK INTER + INTRA:          -4.525
REMARK INTER:                  -4.334
REMARK INTRA:                  -0.191
REMARK UNBOUND:                -0.191
REMARK SMILES CC1=CC[C@H](C(C)C)C=C1
REMARK SMILES IDX 1 1 2 2 3 3 4 4 5 5 9 6 10 7 6 8 7 9 8 10
REMARK H PARENT
REMARK Flexibility Score: inf
ROOT
ATOM      1  C   UNL     1      31.878  20.215  13.323  1.00  0.00     0.044 C 
ATOM      2  C   UNL     1      31.093  21.443  12.970  1.00  0.00    -0.055 C 
ATOM      3  C   UNL     1      30.058  21.828  13.733  1.00  0.00    -0.023 C 
ATOM      4  C   UNL     1      29.223  23.019  13.343  1.00  0.00     0.035 C 
ATOM      5  C   UNL     1      30.102  24.120  12.705  1.00  0.00     0.018 C 
ATOM      6  C   UNL     1      31.024  23.517  11.662  1.00  0.00    -0.023 C 
ATOM      7  C   UNL     1      31.519  22.285  11.827  1.00  0.00    -0.001 C 
ENDROOT
BRANCH   5   8
ATOM      8  C   UNL     1      29.254  25.313  12.172  1.00  0.00    -0.010 C 
ATOM      9  C   UNL     1      27.745  25.017  12.108  1.00  0.00     0.008 C 
ATOM     10  C   UNL     1      29.758  25.786  10.799  1.00  0.00     0.008 C 
ENDBRANCH   5   8
TORSDOF 1
ENDMDL
MODEL 8
REMARK VINA RESULT:    -3.941      2.060      5.613
REMARK INTER + INTRA:          -4.363
REMARK INTER:                  -4.181
REMARK INTRA:                  -0.182
REMARK UNBOUND:                -0.191
REMARK SMILES CC1=CC[C@H](C(C)C)C=C1
REMARK SMILES IDX 1 1 2 2 3 3 4 4 5 5 9 6 10 7 6 8 7 9 8 10
REMARK H PARENT
REMARK Flexibility Score: inf
ROOT
ATOM      1  C   UNL     1      30.844  19.722  13.737  1.00  0.00     0.044 C 
ATOM      2  C   UNL     1      30.756  21.140  13.257  1.00  0.00    -0.055 C 
ATOM      3  C   UNL     1      31.556  21.572  12.271  1.00  0.00    -0.023 C 
ATOM      4  C   UNL     1      31.521  23.012  11.834  1.00  0.00     0.035 C 
ATOM      5  C   UNL     1      30.080  23.569  11.893  1.00  0.00     0.018 C 
ATOM      6  C   UNL     1      29.430  23.203  13.213  1.00  0.00    -0.023 C 
ATOM      7  C   UNL     1      29.718  22.041  13.812  1.00  0.00    -0.001 C 
ENDROOT
BRANCH   5   8
ATOM      8  C   UNL     1      30.024  25.092  11.572  1.00  0.00    -0.010 C 
ATOM      9  C   UNL     1      31.095  25.917  12.308  1.00  0.00     0.008 C 
ATOM     10  C   UNL     1      28.628  25.671  11.852  1.00  0.00     0.008 C 
ENDBRANCH   5   8
TORSDOF 1
ENDMDL
MODEL 9
REMARK VINA RESULT:    -3.814      1.300      2.490
REMARK INTER + INTRA:          -4.228
REMARK INTER:                  -4.066
REMARK INTRA:                  -0.161
REMARK UNBOUND:                -0.191
REMARK SMILES CC1=CC[C@H](C(C)C)C=C1
REMARK SMILES IDX 1 1 2 2 3 3 4 4 5 5 9 6 10 7 6 8 7 9 8 10
REMARK H PARENT
REMARK Flexibility Score: inf
ROOT
ATOM      1  C   UNL     1      29.513  28.992  12.171  1.00  0.00     0.044 C 
ATOM      2  C   UNL     1      29.984  27.570  12.120  1.00  0.00    -0.055 C 
ATOM      3  C   UNL     1      31.203  27.243  12.578  1.00  0.00    -0.023 C 
ATOM      4  C   UNL     1      31.709  25.829  12.463  1.00  0.00     0.035 C 
ATOM      5  C   UNL     1      30.559  24.817  12.677  1.00  0.00     0.018 C 
ATOM      6  C   UNL     1      29.349  25.215  11.855  1.00  0.00    -0.023 C 
ATOM      7  C   UNL     1      29.066  26.506  11.647  1.00  0.00    -0.001 C 
ENDROOT
BRANCH   5   8
ATOM      8  C   UNL     1      31.019  23.348  12.439  1.00  0.00    -0.010 C 
ATOM      9  C   UNL     1      31.150  22.976  10.951  1.00  0.00     0.008 C 
ATOM     10  C   UNL     1      30.092  22.350  13.152  1.00  0.00     0.008 C 
ENDBRANCH   5   8
TORSDOF 1
ENDMDL
