MODEL 1
REMARK VINA RESULT:    -3.421      0.000      0.000
REMARK INTER + INTRA:          -5.629
REMARK INTER:                  -5.020
REMARK INTRA:                  -0.608
REMARK UNBOUND:                -0.608
REMARK SMILES C=C1C=C[C@H](C(C)C)CCC(C)=CCC1
REMARK SMILES IDX 3 1 4 2 5 3 9 4 10 5 11 6 12 7 13 8 6 10 7 11 8 12 2 13 1 14
REMARK SMILES IDX 15 15 14 16
REMARK H PARENT
REMARK Flexibility Score: 70.00
ROOT
ATOM      1  C   UNL     1     132.433 136.212 131.131  1.00  0.00    -0.001 C 
ATOM      2  C   UNL     1     132.911 136.655 132.302  1.00  0.00    -0.023 C 
ENDROOT
BRANCH   2   3
ATOM      3  C   UNL     1     134.394 136.798 132.588  1.00  0.00     0.014 C 
BRANCH   3   4
ATOM      4  C   UNL     1     134.747 138.318 132.591  1.00  0.00     0.012 C 
BRANCH   4   5
ATOM      5  C   UNL     1     135.923 138.659 131.655  1.00  0.00     0.031 C 
BRANCH   5   6
ATOM      6  C   UNL     1     135.428 139.410 130.438  1.00  0.00    -0.077 C 
ATOM      7  C   UNL     1     135.321 140.911 130.513  1.00  0.00     0.039 C 
ATOM      8  C   UNL     1     134.996 138.789 129.315  1.00  0.00    -0.028 CG0
ATOM      9  G   UNL     1     135.059 137.298 129.054  1.00  0.00     0.000 G0
ENDBRANCH   5   6
ENDBRANCH   4   5
ENDBRANCH   3   4
BRANCH   3  10
ATOM     10  C   UNL     1     134.804 136.090 133.917  1.00  0.00    -0.010 C 
ATOM     11  C   UNL     1     135.113 134.598 133.687  1.00  0.00     0.008 C 
ATOM     12  C   UNL     1     133.695 136.200 134.983  1.00  0.00     0.008 C 
ENDBRANCH   3  10
ENDBRANCH   2   3
BRANCH   1  13
ATOM     13  C   UNL     1     133.292 135.707 130.039  1.00  0.00    -0.055 C 
ATOM     14  C   UNL     1     133.507 134.390 129.951  1.00  0.00     0.012 C 
BRANCH  13  15
ATOM     15  C   UNL     1     133.665 136.639 128.905  1.00  0.00     0.039 C 
BRANCH  15  16
ATOM     16  C   UNL     1     135.056 137.305 129.050  1.00  0.00     0.032 CG0
ATOM     17  G   UNL     1     134.990 138.792 129.329  1.00  0.00     0.000 G0
ENDBRANCH  15  16
ENDBRANCH  13  15
ENDBRANCH   1  13
TORSDOF 1
ENDMDL
MODEL 2
REMARK VINA RESULT:    -3.400      3.041      4.509
REMARK INTER + INTRA:          -5.598
REMARK INTER:                  -5.160
REMARK INTRA:                  -0.438
REMARK UNBOUND:                -0.608
REMARK SMILES C=C1C=C[C@H](C(C)C)CCC(C)=CCC1
REMARK SMILES IDX 3 1 4 2 5 3 9 4 10 5 11 6 12 7 13 8 6 10 7 11 8 12 2 13 1 14
REMARK SMILES IDX 15 15 14 16
REMARK H PARENT
REMARK Flexibility Score: 70.00
ROOT
ATOM      1  C   UNL     1     136.240 141.380 131.249  1.00  0.00    -0.001 C 
ATOM      2  C   UNL     1     136.740 140.973 132.424  1.00  0.00    -0.023 C 
ENDROOT
BRANCH   2   3
ATOM      3  C   UNL     1     136.941 139.510 132.773  1.00  0.00     0.014 C 
BRANCH   3   4
ATOM      4  C   UNL     1     138.475 139.225 132.822  1.00  0.00     0.012 C 
BRANCH   4   5
ATOM      5  C   UNL     1     138.864 137.926 132.089  1.00  0.00     0.031 C 
BRANCH   5   6
ATOM      6  C   UNL     1     139.525 138.245 130.766  1.00  0.00    -0.077 C 
ATOM      7  C   UNL     1     141.030 138.282 130.704  1.00  0.00     0.039 C 
ATOM      8  C   UNL     1     138.826 138.581 129.656  1.00  0.00    -0.028 CG0
ATOM      9  G   UNL     1     137.316 138.566 129.528  1.00  0.00     0.000 G0
ENDBRANCH   5   6
ENDBRANCH   4   5
ENDBRANCH   3   4
BRANCH   3  10
ATOM     10  C   UNL     1     136.223 139.123 134.103  1.00  0.00    -0.010 C 
ATOM     11  C   UNL     1     134.906 138.369 133.831  1.00  0.00     0.008 C 
ATOM     12  C   UNL     1     135.905 140.366 134.958  1.00  0.00     0.008 C 
ENDBRANCH   3  10
ENDBRANCH   2   3
BRANCH   1  13
ATOM     13  C   UNL     1     135.722 140.455 130.220  1.00  0.00    -0.055 C 
ATOM     14  C   UNL     1     134.398 140.318 130.089  1.00  0.00     0.012 C 
BRANCH  13  15
ATOM     15  C   UNL     1     136.672 139.916 129.171  1.00  0.00     0.039 C 
BRANCH  15  16
ATOM     16  C   UNL     1     137.303 138.544 129.518  1.00  0.00     0.032 CG0
ATOM     17  G   UNL     1     138.812 138.588 129.648  1.00  0.00     0.000 G0
ENDBRANCH  15  16
ENDBRANCH  13  15
ENDBRANCH   1  13
TORSDOF 1
ENDMDL
MODEL 3
REMARK VINA RESULT:    -3.388      3.050      4.544
REMARK INTER + INTRA:          -5.581
REMARK INTER:                  -5.035
REMARK INTRA:                  -0.545
REMARK UNBOUND:                -0.608
REMARK SMILES C=C1C=C[C@H](C(C)C)CCC(C)=CCC1
REMARK SMILES IDX 3 1 4 2 5 3 9 4 10 5 11 6 12 7 13 8 6 10 7 11 8 12 2 13 1 14
REMARK SMILES IDX 15 15 14 16
REMARK H PARENT
REMARK Flexibility Score: 70.00
ROOT
ATOM      1  C   UNL     1     137.801 132.449 130.952  1.00  0.00    -0.001 C 
ATOM      2  C   UNL     1     137.066 132.513 132.071  1.00  0.00    -0.023 C 
ENDROOT
BRANCH   2   3
ATOM      3  C   UNL     1     136.596 133.823 132.676  1.00  0.00     0.014 C 
BRANCH   3   4
ATOM      4  C   UNL     1     135.055 133.937 132.459  1.00  0.00     0.012 C 
BRANCH   4   5
ATOM      5  C   UNL     1     134.652 135.224 131.712  1.00  0.00     0.031 C 
BRANCH   5   6
ATOM      6  C   UNL     1     134.267 134.906 130.284  1.00  0.00    -0.077 C 
ATOM      7  C   UNL     1     132.853 134.469 130.000  1.00  0.00     0.039 C 
ATOM      8  C   UNL     1     135.155 134.914 129.262  1.00  0.00    -0.028 CG0
ATOM      9  G   UNL     1     136.602 135.354 129.357  1.00  0.00     0.000 G0
ENDBRANCH   5   6
ENDBRANCH   4   5
ENDBRANCH   3   4
BRANCH   3  10
ATOM     10  C   UNL     1     136.994 133.947 134.180  1.00  0.00    -0.010 C 
ATOM     11  C   UNL     1     135.971 133.241 135.092  1.00  0.00     0.008 C 
ATOM     12  C   UNL     1     137.102 135.422 134.618  1.00  0.00     0.008 C 
ENDBRANCH   3  10
ENDBRANCH   2   3
BRANCH   1  13
ATOM     13  C   UNL     1     138.332 133.641 130.257  1.00  0.00    -0.055 C 
ATOM     14  C   UNL     1     139.567 134.060 130.557  1.00  0.00     0.012 C 
BRANCH  13  15
ATOM     15  C   UNL     1     137.596 134.175 129.046  1.00  0.00     0.039 C 
BRANCH  15  16
ATOM     16  C   UNL     1     136.610 135.330 129.350  1.00  0.00     0.032 CG0
ATOM     17  G   UNL     1     135.154 134.919 129.273  1.00  0.00     0.000 G0
ENDBRANCH  15  16
ENDBRANCH  13  15
ENDBRANCH   1  13
TORSDOF 1
ENDMDL
MODEL 4
REMARK VINA RESULT:    -3.338      3.067      5.600
REMARK INTER + INTRA:          -5.507
REMARK INTER:                  -4.984
REMARK INTRA:                  -0.524
REMARK UNBOUND:                -0.608
REMARK SMILES C=C1C=C[C@H](C(C)C)CCC(C)=CCC1
REMARK SMILES IDX 3 1 4 2 5 3 9 4 10 5 11 6 12 7 13 8 6 10 7 11 8 12 2 13 1 14
REMARK SMILES IDX 15 15 14 16
REMARK H PARENT
REMARK Flexibility Score: 70.00
ROOT
ATOM      1  C   UNL     1     135.322 135.726 134.867  1.00  0.00    -0.001 C 
ATOM      2  C   UNL     1     134.424 135.251 133.994  1.00  0.00    -0.023 C 
ENDROOT
BRANCH   2   3
ATOM      3  C   UNL     1     134.516 135.496 132.499  1.00  0.00     0.014 C 
BRANCH   3   4
ATOM      4  C   UNL     1     134.791 134.130 131.796  1.00  0.00     0.012 C 
BRANCH   4   5
ATOM      5  C   UNL     1     135.641 133.176 132.657  1.00  0.00     0.031 C 
BRANCH   5   6
ATOM      6  C   UNL     1     137.091 133.229 132.227  1.00  0.00    -0.077 C 
ATOM      7  C   UNL     1     137.481 132.575 130.926  1.00  0.00     0.039 C 
ATOM      8  C   UNL     1     138.069 133.763 132.997  1.00  0.00    -0.028 CG0
ATOM      9  G   UNL     1     137.858 134.486 134.311  1.00  0.00     0.000 G0
ENDBRANCH   5   6
ENDBRANCH   4   5
ENDBRANCH   3   4
BRANCH   3  10
ATOM     10  C   UNL     1     133.241 136.204 131.943  1.00  0.00    -0.010 C 
ATOM     11  C   UNL     1     133.199 136.156 130.404  1.00  0.00     0.008 C 
ATOM     12  C   UNL     1     133.174 137.679 132.387  1.00  0.00     0.008 C 
ENDBRANCH   3  10
ENDBRANCH   2   3
BRANCH   1  13
ATOM     13  C   UNL     1     136.427 136.633 134.488  1.00  0.00    -0.055 C 
ATOM     14  C   UNL     1     136.283 137.944 134.709  1.00  0.00     0.012 C 
BRANCH  13  15
ATOM     15  C   UNL     1     137.775 136.041 134.134  1.00  0.00     0.039 C 
BRANCH  15  16
ATOM     16  C   UNL     1     137.870 134.505 134.310  1.00  0.00     0.032 CG0
ATOM     17  G   UNL     1     138.064 133.756 133.007  1.00  0.00     0.000 G0
ENDBRANCH  15  16
ENDBRANCH  13  15
ENDBRANCH   1  13
TORSDOF 1
ENDMDL
MODEL 5
REMARK VINA RESULT:    -3.334      4.300      6.137
REMARK INTER + INTRA:          -5.501
REMARK INTER:                  -4.878
REMARK INTRA:                  -0.623
REMARK UNBOUND:                -0.608
REMARK SMILES C=C1C=C[C@H](C(C)C)CCC(C)=CCC1
REMARK SMILES IDX 3 1 4 2 5 3 9 4 10 5 11 6 12 7 13 8 6 10 7 11 8 12 2 13 1 14
REMARK SMILES IDX 15 15 14 16
REMARK H PARENT
REMARK Flexibility Score: 70.00
ROOT
ATOM      1  C   UNL     1     141.115 137.479 131.298  1.00  0.00    -0.001 C 
ATOM      2  C   UNL     1     140.768 137.088 132.532  1.00  0.00    -0.023 C 
ENDROOT
BRANCH   2   3
ATOM      3  C   UNL     1     139.325 136.948 132.979  1.00  0.00     0.014 C 
BRANCH   3   4
ATOM      4  C   UNL     1     138.956 135.432 132.974  1.00  0.00     0.012 C 
BRANCH   4   5
ATOM      5  C   UNL     1     137.673 135.133 132.175  1.00  0.00     0.031 C 
BRANCH   5   6
ATOM      6  C   UNL     1     137.996 134.312 130.945  1.00  0.00    -0.077 C 
ATOM      7  C   UNL     1     138.054 132.812 131.078  1.00  0.00     0.039 C 
ATOM      8  C   UNL     1     138.318 134.866 129.753  1.00  0.00    -0.028 CG0
ATOM      9  G   UNL     1     138.282 136.346 129.432  1.00  0.00     0.000 G0
ENDBRANCH   5   6
ENDBRANCH   4   5
ENDBRANCH   3   4
BRANCH   3  10
ATOM     10  C   UNL     1     139.076 137.615 134.368  1.00  0.00    -0.010 C 
ATOM     11  C   UNL     1     138.653 139.089 134.215  1.00  0.00     0.008 C 
ATOM     12  C   UNL     1     140.335 137.559 135.257  1.00  0.00     0.008 C 
ENDBRANCH   3  10
ENDBRANCH   2   3
BRANCH   1  13
ATOM     13  C   UNL     1     140.141 137.929 130.282  1.00  0.00    -0.055 C 
ATOM     14  C   UNL     1     139.869 139.235 130.188  1.00  0.00     0.012 C 
BRANCH  13  15
ATOM     15  C   UNL     1     139.700 136.958 129.206  1.00  0.00     0.039 C 
BRANCH  15  16
ATOM     16  C   UNL     1     138.292 136.349 129.426  1.00  0.00     0.032 CG0
ATOM     17  G   UNL     1     138.316 134.869 129.747  1.00  0.00     0.000 G0
ENDBRANCH  15  16
ENDBRANCH  13  15
ENDBRANCH   1  13
TORSDOF 1
ENDMDL
MODEL 6
REMARK VINA RESULT:    -3.289      2.378      5.120
REMARK INTER + INTRA:          -5.435
REMARK INTER:                  -4.869
REMARK INTRA:                  -0.566
REMARK UNBOUND:                -0.608
REMARK SMILES C=C1C=C[C@H](C(C)C)CCC(C)=CCC1
REMARK SMILES IDX 3 1 4 2 5 3 9 4 10 5 11 6 12 7 13 8 6 10 7 11 8 12 2 13 1 14
REMARK SMILES IDX 15 15 14 16
REMARK H PARENT
REMARK Flexibility Score: 70.00
ROOT
ATOM      1  C   UNL     1     132.587 136.587 132.020  1.00  0.00    -0.001 C 
ATOM      2  C   UNL     1     132.897 135.512 131.283  1.00  0.00    -0.023 C 
ENDROOT
BRANCH   2   3
ATOM      3  C   UNL     1     134.326 135.107 130.974  1.00  0.00     0.014 C 
BRANCH   3   4
ATOM      4  C   UNL     1     134.758 134.014 132.001  1.00  0.00     0.012 C 
BRANCH   4   5
ATOM      5  C   UNL     1     136.040 134.392 132.768  1.00  0.00     0.031 C 
BRANCH   5   6
ATOM      6  C   UNL     1     135.762 134.472 134.254  1.00  0.00    -0.077 C 
ATOM      7  C   UNL     1     135.756 133.195 135.054  1.00  0.00     0.039 C 
ATOM      8  C   UNL     1     135.435 135.627 134.881  1.00  0.00    -0.028 CG0
ATOM      9  G   UNL     1     135.422 137.001 134.243  1.00  0.00     0.000 G0
ENDBRANCH   5   6
ENDBRANCH   4   5
ENDBRANCH   3   4
BRANCH   3  10
ATOM     10  C   UNL     1     134.491 134.631 129.497  1.00  0.00    -0.010 C 
ATOM     11  C   UNL     1     135.975 134.421 129.137  1.00  0.00     0.008 C 
ATOM     12  C   UNL     1     133.888 135.645 128.503  1.00  0.00     0.008 C 
ENDBRANCH   3  10
ENDBRANCH   2   3
BRANCH   1  13
ATOM     13  C   UNL     1     133.591 137.556 132.510  1.00  0.00    -0.055 C 
ATOM     14  C   UNL     1     133.940 138.574 131.715  1.00  0.00     0.012 C 
BRANCH  13  15
ATOM     15  C   UNL     1     133.977 137.539 133.974  1.00  0.00     0.039 C 
BRANCH  15  16
ATOM     16  C   UNL     1     135.408 137.018 134.256  1.00  0.00     0.032 CG0
ATOM     17  G   UNL     1     135.439 135.637 134.878  1.00  0.00     0.000 G0
ENDBRANCH  15  16
ENDBRANCH  13  15
ENDBRANCH   1  13
TORSDOF 1
ENDMDL
MODEL 7
REMARK VINA RESULT:    -3.249      1.998      3.122
REMARK INTER + INTRA:          -5.377
REMARK INTER:                  -4.756
REMARK INTRA:                  -0.621
REMARK UNBOUND:                -0.608
REMARK SMILES C=C1C=C[C@H](C(C)C)CCC(C)=CCC1
REMARK SMILES IDX 3 1 4 2 5 3 9 4 10 5 11 6 12 7 13 8 6 10 7 11 8 12 2 13 1 14
REMARK SMILES IDX 15 15 14 16
REMARK H PARENT
REMARK Flexibility Score: 70.00
ROOT
ATOM      1  C   UNL     1     133.824 135.967 133.554  1.00  0.00    -0.001 C 
ATOM      2  C   UNL     1     135.033 135.389 133.606  1.00  0.00    -0.023 C 
ENDROOT
BRANCH   2   3
ATOM      3  C   UNL     1     136.052 135.507 132.488  1.00  0.00     0.014 C 
BRANCH   3   4
ATOM      4  C   UNL     1     137.134 136.546 132.919  1.00  0.00     0.012 C 
BRANCH   4   5
ATOM      5  C   UNL     1     137.242 137.734 131.943  1.00  0.00     0.031 C 
BRANCH   5   6
ATOM      6  C   UNL     1     136.762 139.007 132.606  1.00  0.00    -0.077 C 
ATOM      7  C   UNL     1     137.712 139.749 133.510  1.00  0.00     0.039 C 
ATOM      8  C   UNL     1     135.492 139.464 132.491  1.00  0.00    -0.028 CG0
ATOM      9  G   UNL     1     134.419 138.865 131.606  1.00  0.00     0.000 G0
ENDBRANCH   5   6
ENDBRANCH   4   5
ENDBRANCH   3   4
BRANCH   3  10
ATOM     10  C   UNL     1     136.673 134.124 132.116  1.00  0.00    -0.010 C 
ATOM     11  C   UNL     1     136.987 134.037 130.610  1.00  0.00     0.008 C 
ATOM     12  C   UNL     1     135.729 132.961 132.485  1.00  0.00     0.008 C 
ENDBRANCH   3  10
ENDBRANCH   2   3
BRANCH   1  13
ATOM     13  C   UNL     1     133.310 136.676 132.363  1.00  0.00    -0.055 C 
ATOM     14  C   UNL     1     132.676 135.969 131.421  1.00  0.00     0.012 C 
BRANCH  13  15
ATOM     15  C   UNL     1     133.261 138.189 132.373  1.00  0.00     0.039 C 
BRANCH  15  16
ATOM     16  C   UNL     1     134.410 138.876 131.594  1.00  0.00     0.032 CG0
ATOM     17  G   UNL     1     135.486 139.456 132.489  1.00  0.00     0.000 G0
ENDBRANCH  15  16
ENDBRANCH  13  15
ENDBRANCH   1  13
TORSDOF 1
ENDMDL
MODEL 8
REMARK VINA RESULT:    -3.173      4.508      6.445
REMARK INTER + INTRA:          -5.266
REMARK INTER:                  -4.646
REMARK INTRA:                  -0.620
REMARK UNBOUND:                -0.608
REMARK SMILES C=C1C=C[C@H](C(C)C)CCC(C)=CCC1
REMARK SMILES IDX 3 1 4 2 5 3 9 4 10 5 11 6 12 7 13 8 6 10 7 11 8 12 2 13 1 14
REMARK SMILES IDX 15 15 14 16
REMARK H PARENT
REMARK Flexibility Score: 70.00
ROOT
ATOM      1  C   UNL     1     140.668 136.103 132.379  1.00  0.00    -0.001 C 
ATOM      2  C   UNL     1     140.566 137.397 132.049  1.00  0.00    -0.023 C 
ENDROOT
BRANCH   2   3
ATOM      3  C   UNL     1     139.241 138.066 131.732  1.00  0.00     0.014 C 
BRANCH   3   4
ATOM      4  C   UNL     1     138.803 138.897 132.978  1.00  0.00     0.012 C 
BRANCH   4   5
ATOM      5  C   UNL     1     137.419 138.482 133.514  1.00  0.00     0.031 C 
BRANCH   5   6
ATOM      6  C   UNL     1     137.550 137.855 134.885  1.00  0.00    -0.077 C 
ATOM      7  C   UNL     1     137.648 138.762 136.085  1.00  0.00     0.039 C 
ATOM      8  C   UNL     1     137.669 136.520 135.076  1.00  0.00    -0.028 CG0
ATOM      9  G   UNL     1     137.563 135.463 133.996  1.00  0.00     0.000 G0
ENDBRANCH   5   6
ENDBRANCH   4   5
ENDBRANCH   3   4
BRANCH   3  10
ATOM     10  C   UNL     1     139.321 138.934 130.438  1.00  0.00    -0.010 C 
ATOM     11  C   UNL     1     138.632 138.235 129.249  1.00  0.00     0.008 C 
ATOM     12  C   UNL     1     140.781 139.236 130.046  1.00  0.00     0.008 C 
ENDBRANCH   3  10
ENDBRANCH   2   3
BRANCH   1  13
ATOM     13  C   UNL     1     139.527 135.163 132.356  1.00  0.00    -0.055 C 
ATOM     14  C   UNL     1     139.251 134.520 131.217  1.00  0.00     0.012 C 
BRANCH  13  15
ATOM     15  C   UNL     1     138.892 134.745 133.666  1.00  0.00     0.039 C 
BRANCH  15  16
ATOM     16  C   UNL     1     137.554 135.455 133.988  1.00  0.00     0.032 CG0
ATOM     17  G   UNL     1     137.673 136.511 135.068  1.00  0.00     0.000 G0
ENDBRANCH  15  16
ENDBRANCH  13  15
ENDBRANCH   1  13
TORSDOF 1
ENDMDL
MODEL 9
REMARK VINA RESULT:    -3.157      3.670      4.857
REMARK INTER + INTRA:          -5.242
REMARK INTER:                  -4.658
REMARK INTRA:                  -0.584
REMARK UNBOUND:                -0.608
REMARK SMILES C=C1C=C[C@H](C(C)C)CCC(C)=CCC1
REMARK SMILES IDX 3 1 4 2 5 3 9 4 10 5 11 6 12 7 13 8 6 10 7 11 8 12 2 13 1 14
REMARK SMILES IDX 15 15 14 16
REMARK H PARENT
REMARK Flexibility Score: 70.00
ROOT
ATOM      1  C   UNL     1     136.175 134.775 132.600  1.00  0.00    -0.001 C 
ATOM      2  C   UNL     1     137.384 134.198 132.611  1.00  0.00    -0.023 C 
ENDROOT
BRANCH   2   3
ATOM      3  C   UNL     1     138.457 134.509 131.584  1.00  0.00     0.014 C 
BRANCH   3   4
ATOM      4  C   UNL     1     139.681 135.130 132.328  1.00  0.00     0.012 C 
BRANCH   4   5
ATOM      5  C   UNL     1     139.866 136.629 132.024  1.00  0.00     0.031 C 
BRANCH   5   6
ATOM      6  C   UNL     1     139.146 137.469 133.056  1.00  0.00    -0.077 C 
ATOM      7  C   UNL     1     139.807 137.691 134.392  1.00  0.00     0.039 C 
ATOM      8  C   UNL     1     137.898 137.961 132.865  1.00  0.00    -0.028 CG0
ATOM      9  G   UNL     1     137.100 137.862 131.581  1.00  0.00     0.000 G0
ENDBRANCH   5   6
ENDBRANCH   4   5
ENDBRANCH   3   4
BRANCH   3  10
ATOM     10  C   UNL     1     138.847 133.251 130.747  1.00  0.00    -0.010 C 
ATOM     11  C   UNL     1     139.006 133.598 129.254  1.00  0.00     0.008 C 
ATOM     12  C   UNL     1     137.792 132.134 130.878  1.00  0.00     0.008 C 
ENDBRANCH   3  10
ENDBRANCH   2   3
BRANCH   1  13
ATOM     13  C   UNL     1     135.714 135.682 131.527  1.00  0.00    -0.055 C 
ATOM     14  C   UNL     1     135.081 135.156 130.473  1.00  0.00     0.012 C 
BRANCH  13  15
ATOM     15  C   UNL     1     135.715 137.176 131.776  1.00  0.00     0.039 C 
BRANCH  15  16
ATOM     16  C   UNL     1     137.091 137.861 131.580  1.00  0.00     0.032 CG0
ATOM     17  G   UNL     1     137.903 137.962 132.855  1.00  0.00     0.000 G0
ENDBRANCH  15  16
ENDBRANCH  13  15
ENDBRANCH   1  13
TORSDOF 1
ENDMDL
