MODEL 1
REMARK VINA RESULT:    -4.134      0.000      0.000
REMARK INTER + INTRA:          -4.458
REMARK INTER:                  -4.376
REMARK INTRA:                  -0.083
REMARK UNBOUND:                -0.083
REMARK SMILES CC(C)[C@H]1CC[C@@H](C)CC1=O
REMARK SMILES IDX 8 1 7 2 6 3 5 4 4 5 10 6 11 7 9 8 2 9 1 10 3 11
REMARK H PARENT
REMARK Flexibility Score: inf
ROOT
ATOM      1  C   UNL     1     -28.555 -50.952  51.610  1.00  0.00     0.008 C 
ATOM      2  C   UNL     1     -27.603 -52.147  51.439  1.00  0.00    -0.007 C 
ATOM      3  C   UNL     1     -28.286 -53.489  51.780  1.00  0.00     0.004 C 
ATOM      4  C   UNL     1     -28.571 -53.638  53.285  1.00  0.00     0.012 C 
ATOM      5  C   UNL     1     -27.285 -53.487  54.127  1.00  0.00     0.058 C 
ATOM      6  C   UNL     1     -26.558 -52.214  53.725  1.00  0.00     0.136 C 
ATOM      7  O   UNL     1     -26.091 -51.448  54.553  1.00  0.00    -0.299 OA
ATOM      8  C   UNL     1     -26.314 -51.959  52.262  1.00  0.00     0.079 C 
ENDROOT
BRANCH   5   9
ATOM      9  C   UNL     1     -27.573 -53.659  55.654  1.00  0.00    -0.007 C 
ATOM     10  C   UNL     1     -28.808 -54.539  55.909  1.00  0.00     0.008 C 
ATOM     11  C   UNL     1     -26.372 -54.161  56.477  1.00  0.00     0.008 C 
ENDBRANCH   5   9
TORSDOF 1
ENDMDL
MODEL 2
REMARK VINA RESULT:    -4.013      1.049      3.964
REMARK INTER + INTRA:          -4.330
REMARK INTER:                  -4.217
REMARK INTRA:                  -0.113
REMARK UNBOUND:                -0.083
REMARK SMILES CC(C)[C@H]1CC[C@@H](C)CC1=O
REMARK SMILES IDX 8 1 7 2 6 3 5 4 4 5 10 6 11 7 9 8 2 9 1 10 3 11
REMARK H PARENT
REMARK Flexibility Score: inf
ROOT
ATOM      1  C   UNL     1     -26.371 -55.504  55.164  1.00  0.00     0.008 C 
ATOM      2  C   UNL     1     -27.320 -54.380  55.612  1.00  0.00    -0.007 C 
ATOM      3  C   UNL     1     -28.719 -54.510  54.969  1.00  0.00     0.004 C 
ATOM      4  C   UNL     1     -28.702 -54.208  53.461  1.00  0.00     0.012 C 
ATOM      5  C   UNL     1     -28.129 -52.803  53.166  1.00  0.00     0.058 C 
ATOM      6  C   UNL     1     -26.796 -52.637  53.878  1.00  0.00     0.136 C 
ATOM      7  O   UNL     1     -25.826 -52.142  53.326  1.00  0.00    -0.299 OA
ATOM      8  C   UNL     1     -26.713 -52.991  55.338  1.00  0.00     0.079 C 
ENDROOT
BRANCH   5   9
ATOM      9  C   UNL     1     -28.132 -52.489  51.634  1.00  0.00    -0.007 C 
ATOM     10  C   UNL     1     -29.164 -53.341  50.877  1.00  0.00     0.008 C 
ATOM     11  C   UNL     1     -28.303 -50.998  51.289  1.00  0.00     0.008 C 
ENDBRANCH   5   9
TORSDOF 1
ENDMDL
MODEL 3
REMARK VINA RESULT:    -3.901     14.110     15.097
REMARK INTER + INTRA:          -4.211
REMARK INTER:                  -4.035
REMARK INTRA:                  -0.176
REMARK UNBOUND:                -0.083
REMARK SMILES CC(C)[C@H]1CC[C@@H](C)CC1=O
REMARK SMILES IDX 8 1 7 2 6 3 5 4 4 5 10 6 11 7 9 8 2 9 1 10 3 11
REMARK H PARENT
REMARK Flexibility Score: inf
ROOT
ATOM      1  C   UNL     1     -33.976 -49.542  68.187  1.00  0.00     0.008 C 
ATOM      2  C   UNL     1     -32.641 -49.617  67.428  1.00  0.00    -0.007 C 
ATOM      3  C   UNL     1     -32.710 -50.579  66.221  1.00  0.00     0.004 C 
ATOM      4  C   UNL     1     -32.811 -52.053  66.651  1.00  0.00     0.012 C 
ATOM      5  C   UNL     1     -31.637 -52.462  67.568  1.00  0.00     0.058 C 
ATOM      6  C   UNL     1     -31.504 -51.461  68.704  1.00  0.00     0.136 C 
ATOM      7  O   UNL     1     -31.326 -51.815  69.859  1.00  0.00    -0.299 OA
ATOM      8  C   UNL     1     -31.480 -49.994  68.368  1.00  0.00     0.079 C 
ENDROOT
BRANCH   5   9
ATOM      9  C   UNL     1     -31.730 -53.966  67.986  1.00  0.00    -0.007 C 
ATOM     10  C   UNL     1     -33.172 -54.377  68.329  1.00  0.00     0.008 C 
ATOM     11  C   UNL     1     -31.113 -54.949  66.974  1.00  0.00     0.008 C 
ENDBRANCH   5   9
TORSDOF 1
ENDMDL
MODEL 4
REMARK VINA RESULT:    -3.875      1.338      4.124
REMARK INTER + INTRA:          -4.184
REMARK INTER:                  -4.027
REMARK INTRA:                  -0.156
REMARK UNBOUND:                -0.083
REMARK SMILES CC(C)[C@H]1CC[C@@H](C)CC1=O
REMARK SMILES IDX 8 1 7 2 6 3 5 4 4 5 10 6 11 7 9 8 2 9 1 10 3 11
REMARK H PARENT
REMARK Flexibility Score: inf
ROOT
ATOM      1  C   UNL     1     -28.150 -56.598  55.731  1.00  0.00     0.008 C 
ATOM      2  C   UNL     1     -29.139 -55.420  55.712  1.00  0.00    -0.007 C 
ATOM      3  C   UNL     1     -29.794 -55.232  54.326  1.00  0.00     0.004 C 
ATOM      4  C   UNL     1     -28.801 -54.713  53.272  1.00  0.00     0.012 C 
ATOM      5  C   UNL     1     -28.142 -53.386  53.714  1.00  0.00     0.058 C 
ATOM      6  C   UNL     1     -27.582 -53.538  55.118  1.00  0.00     0.136 C 
ATOM      7  O   UNL     1     -26.474 -53.123  55.420  1.00  0.00    -0.299 OA
ATOM      8  C   UNL     1     -28.469 -54.117  56.187  1.00  0.00     0.079 C 
ENDROOT
BRANCH   5   9
ATOM      9  C   UNL     1     -27.149 -52.849  52.633  1.00  0.00    -0.007 C 
ATOM     10  C   UNL     1     -27.296 -53.596  51.297  1.00  0.00     0.008 C 
ATOM     11  C   UNL     1     -27.210 -51.326  52.411  1.00  0.00     0.008 C 
ENDBRANCH   5   9
TORSDOF 1
ENDMDL
MODEL 5
REMARK VINA RESULT:    -3.782      2.191      4.360
REMARK INTER + INTRA:          -4.085
REMARK INTER:                  -3.926
REMARK INTRA:                  -0.159
REMARK UNBOUND:                -0.083
REMARK SMILES CC(C)[C@H]1CC[C@@H](C)CC1=O
REMARK SMILES IDX 8 1 7 2 6 3 5 4 4 5 10 6 11 7 9 8 2 9 1 10 3 11
REMARK H PARENT
REMARK Flexibility Score: inf
ROOT
ATOM      1  C   UNL     1     -27.908 -56.669  55.388  1.00  0.00     0.008 C 
ATOM      2  C   UNL     1     -26.604 -55.853  55.379  1.00  0.00    -0.007 C 
ATOM      3  C   UNL     1     -26.841 -54.372  55.747  1.00  0.00     0.004 C 
ATOM      4  C   UNL     1     -27.597 -53.607  54.647  1.00  0.00     0.012 C 
ATOM      5  C   UNL     1     -26.863 -53.688  53.289  1.00  0.00     0.058 C 
ATOM      6  C   UNL     1     -26.541 -55.139  52.970  1.00  0.00     0.136 C 
ATOM      7  O   UNL     1     -26.723 -55.611  51.858  1.00  0.00    -0.299 OA
ATOM      8  C   UNL     1     -25.875 -55.976  54.027  1.00  0.00     0.079 C 
ENDROOT
BRANCH   5   9
ATOM      9  C   UNL     1     -27.621 -52.893  52.177  1.00  0.00    -0.007 C 
ATOM     10  C   UNL     1     -29.132 -53.179  52.196  1.00  0.00     0.008 C 
ATOM     11  C   UNL     1     -27.358 -51.376  52.186  1.00  0.00     0.008 C 
ENDBRANCH   5   9
TORSDOF 1
ENDMDL
MODEL 6
REMARK VINA RESULT:    -3.708     15.197     16.978
REMARK INTER + INTRA:          -4.007
REMARK INTER:                  -3.844
REMARK INTRA:                  -0.164
REMARK UNBOUND:                -0.083
REMARK SMILES CC(C)[C@H]1CC[C@@H](C)CC1=O
REMARK SMILES IDX 8 1 7 2 6 3 5 4 4 5 10 6 11 7 9 8 2 9 1 10 3 11
REMARK H PARENT
REMARK Flexibility Score: inf
ROOT
ATOM      1  C   UNL     1     -24.110 -66.908  56.323  1.00  0.00     0.008 C 
ATOM      2  C   UNL     1     -24.068 -68.347  56.863  1.00  0.00    -0.007 C 
ATOM      3  C   UNL     1     -24.078 -68.391  58.407  1.00  0.00     0.004 C 
ATOM      4  C   UNL     1     -22.760 -67.880  59.016  1.00  0.00     0.012 C 
ATOM      5  C   UNL     1     -21.542 -68.670  58.487  1.00  0.00     0.058 C 
ATOM      6  C   UNL     1     -21.584 -68.713  56.968  1.00  0.00     0.136 C 
ATOM      7  O   UNL     1     -20.588 -68.513  56.289  1.00  0.00    -0.299 OA
ATOM      8  C   UNL     1     -22.865 -69.125  56.296  1.00  0.00     0.079 C 
ENDROOT
BRANCH   5   9
ATOM      9  C   UNL     1     -20.207 -68.163  59.123  1.00  0.00    -0.007 C 
ATOM     10  C   UNL     1     -20.128 -66.628  59.144  1.00  0.00     0.008 C 
ATOM     11  C   UNL     1     -19.907 -68.740  60.519  1.00  0.00     0.008 C 
ENDBRANCH   5   9
TORSDOF 1
ENDMDL
MODEL 7
REMARK VINA RESULT:    -3.682     13.047     14.681
REMARK INTER + INTRA:          -3.980
REMARK INTER:                  -3.835
REMARK INTRA:                  -0.145
REMARK UNBOUND:                -0.083
REMARK SMILES CC(C)[C@H]1CC[C@@H](C)CC1=O
REMARK SMILES IDX 8 1 7 2 6 3 5 4 4 5 10 6 11 7 9 8 2 9 1 10 3 11
REMARK H PARENT
REMARK Flexibility Score: inf
ROOT
ATOM      1  C   UNL     1     -33.555 -55.085  66.844  1.00  0.00     0.008 C 
ATOM      2  C   UNL     1     -32.291 -54.525  66.171  1.00  0.00    -0.007 C 
ATOM      3  C   UNL     1     -31.153 -54.276  67.186  1.00  0.00     0.004 C 
ATOM      4  C   UNL     1     -31.453 -53.096  68.126  1.00  0.00     0.012 C 
ATOM      5  C   UNL     1     -31.734 -51.796  67.340  1.00  0.00     0.058 C 
ATOM      6  C   UNL     1     -32.785 -52.062  66.274  1.00  0.00     0.136 C 
ATOM      7  O   UNL     1     -33.714 -51.294  66.077  1.00  0.00    -0.299 OA
ATOM      8  C   UNL     1     -32.602 -53.248  65.367  1.00  0.00     0.079 C 
ENDROOT
BRANCH   5   9
ATOM      9  C   UNL     1     -32.018 -50.593  68.297  1.00  0.00    -0.007 C 
ATOM     10  C   UNL     1     -31.552 -50.882  69.734  1.00  0.00     0.008 C 
ATOM     11  C   UNL     1     -31.458 -49.244  67.809  1.00  0.00     0.008 C 
ENDBRANCH   5   9
TORSDOF 1
ENDMDL
MODEL 8
REMARK VINA RESULT:    -3.646     13.763     15.695
REMARK INTER + INTRA:          -3.941
REMARK INTER:                  -3.787
REMARK INTRA:                  -0.154
REMARK UNBOUND:                -0.083
REMARK SMILES CC(C)[C@H]1CC[C@@H](C)CC1=O
REMARK SMILES IDX 8 1 7 2 6 3 5 4 4 5 10 6 11 7 9 8 2 9 1 10 3 11
REMARK H PARENT
REMARK Flexibility Score: inf
ROOT
ATOM      1  C   UNL     1     -21.010 -69.125  56.621  1.00  0.00     0.008 C 
ATOM      2  C   UNL     1     -21.438 -68.836  58.069  1.00  0.00    -0.007 C 
ATOM      3  C   UNL     1     -22.952 -69.052  58.284  1.00  0.00     0.004 C 
ATOM      4  C   UNL     1     -23.804 -67.984  57.576  1.00  0.00     0.012 C 
ATOM      5  C   UNL     1     -23.419 -66.557  58.027  1.00  0.00     0.058 C 
ATOM      6  C   UNL     1     -21.915 -66.373  57.910  1.00  0.00     0.136 C 
ATOM      7  O   UNL     1     -21.423 -65.363  57.431  1.00  0.00    -0.299 OA
ATOM      8  C   UNL     1     -21.015 -67.420  58.507  1.00  0.00     0.079 C 
ENDROOT
BRANCH   5   9
ATOM      9  C   UNL     1     -24.300 -65.473  57.324  1.00  0.00    -0.007 C 
ATOM     10  C   UNL     1     -25.526 -66.092  56.632  1.00  0.00     0.008 C 
ATOM     11  C   UNL     1     -24.724 -64.306  58.234  1.00  0.00     0.008 C 
ENDBRANCH   5   9
TORSDOF 1
ENDMDL
MODEL 9
REMARK VINA RESULT:    -3.582      1.958      2.168
REMARK INTER + INTRA:          -3.873
REMARK INTER:                  -3.726
REMARK INTRA:                  -0.147
REMARK UNBOUND:                -0.083
REMARK SMILES CC(C)[C@H]1CC[C@@H](C)CC1=O
REMARK SMILES IDX 8 1 7 2 6 3 5 4 4 5 10 6 11 7 9 8 2 9 1 10 3 11
REMARK H PARENT
REMARK Flexibility Score: inf
ROOT
ATOM      1  C   UNL     1     -28.510 -52.681  52.057  1.00  0.00     0.008 C 
ATOM      2  C   UNL     1     -27.013 -52.920  52.314  1.00  0.00    -0.007 C 
ATOM      3  C   UNL     1     -26.588 -54.366  51.975  1.00  0.00     0.004 C 
ATOM      4  C   UNL     1     -27.157 -55.393  52.968  1.00  0.00     0.012 C 
ATOM      5  C   UNL     1     -26.751 -55.066  54.423  1.00  0.00     0.058 C 
ATOM      6  C   UNL     1     -27.079 -53.614  54.729  1.00  0.00     0.136 C 
ATOM      7  O   UNL     1     -27.614 -53.279  55.775  1.00  0.00    -0.299 OA
ATOM      8  C   UNL     1     -26.626 -52.556  53.760  1.00  0.00     0.079 C 
ENDROOT
BRANCH   5   9
ATOM      9  C   UNL     1     -27.312 -56.123  55.429  1.00  0.00    -0.007 C 
ATOM     10  C   UNL     1     -28.803 -56.411  55.186  1.00  0.00     0.008 C 
ATOM     11  C   UNL     1     -26.511 -57.436  55.488  1.00  0.00     0.008 C 
ENDBRANCH   5   9
TORSDOF 1
ENDMDL
