MODEL 1
REMARK VINA RESULT:    -4.783      0.000      0.000
REMARK INTER + INTRA:          -8.150
REMARK INTER:                  -6.741
REMARK INTRA:                  -1.409
REMARK UNBOUND:                -1.409
REMARK SMILES COc1c(O[C@@H]2O[C@@H](C(=O)[O-])[C@@H](O)[C@@H](O)[C@H]2O)cc(O)c2c(=O)cc(-c3ccccc3)oc12
REMARK SMILES IDX 5 1 6 2 8 3 12 4 7 5 14 6 16 7 9 8 10 9 11 10 13 11 15 13
REMARK SMILES IDX 17 15 4 17 3 18 18 19 33 20 19 21 21 22 32 23 22 24 25 25
REMARK SMILES IDX 24 26 23 27 2 28 1 29 20 30 26 32 27 33 31 34 28 35 30 36
REMARK SMILES IDX 29 37
REMARK H PARENT 13 12 15 14 17 16 20 31
REMARK Flexibility Score: inf
ROOT
ATOM      1  O   UNL     1      -3.312  -8.469 -14.185  1.00  0.00    -0.458 OA
ENDROOT
BRANCH   1   2
ATOM      2  C   UNL     1      -3.488  -8.822 -15.561  1.00  0.00     0.339 C 
ATOM      3  C   UNL     1      -1.616 -10.309 -15.892  1.00  0.00     0.199 C 
ATOM      4  C   UNL     1      -0.760  -9.051 -15.551  1.00  0.00     0.180 C 
ATOM      5  O   UNL     1      -3.031 -10.151 -15.773  1.00  0.00    -0.328 OA
ATOM      6  C   UNL     1      -1.270  -7.780 -16.271  1.00  0.00     0.181 C 
ATOM      7  C   UNL     1      -2.801  -7.806 -16.504  1.00  0.00     0.214 C 
BRANCH   3   8
ATOM      8  C   UNL     1      -1.287 -10.871 -17.252  1.00  0.00     0.073 C 
ATOM      9  O   UNL     1      -2.199 -11.106 -18.086  1.00  0.00    -0.547 OA
ATOM     10  O   UNL     1       0.035 -11.125 -17.598  1.00  0.00    -0.547 OA
ENDBRANCH   3   8
BRANCH   4  11
ATOM     11  O   UNL     1       0.600  -9.262 -15.839  1.00  0.00    -0.387 OA
ATOM     12  H   UNL     1       1.117  -8.881 -15.082  1.00  0.00     0.211 HD
ENDBRANCH   4  11
BRANCH   6  13
ATOM     13  O   UNL     1      -0.572  -7.520 -17.467  1.00  0.00    -0.387 OA
ATOM     14  H   UNL     1       0.393  -7.676 -17.298  1.00  0.00     0.211 HD
ENDBRANCH   6  13
BRANCH   7  15
ATOM     15  O   UNL     1      -3.097  -8.134 -17.838  1.00  0.00    -0.384 OA
ATOM     16  H   UNL     1      -2.468  -8.855 -18.108  1.00  0.00     0.211 HD
ENDBRANCH   7  15
ENDBRANCH   1   2
BRANCH   1  17
ATOM     17  C   UNL     1      -4.270  -7.863 -13.353  1.00  0.00     0.172 A 
ATOM     18  C   UNL     1      -4.642  -8.539 -12.186  1.00  0.00     0.205 A 
ATOM     19  C   UNL     1      -4.847  -6.622 -13.655  1.00  0.00     0.097 A 
ATOM     20  C   UNL     1      -5.641  -7.990 -11.344  1.00  0.00     0.188 A 
ATOM     21  C   UNL     1      -5.779  -6.028 -12.806  1.00  0.00     0.134 A 
ATOM     22  C   UNL     1      -6.230  -6.731 -11.655  1.00  0.00     0.111 A 
ATOM     23  O   UNL     1      -6.037  -8.659 -10.263  1.00  0.00    -0.452 OA
ATOM     24  C   UNL     1      -7.266  -6.273 -10.805  1.00  0.00     0.197 A 
ATOM     25  C   UNL     1      -6.966  -8.221  -9.420  1.00  0.00     0.138 A 
ATOM     26  C   UNL     1      -7.611  -7.009  -9.675  1.00  0.00     0.100 A 
ATOM     27  O   UNL     1      -7.923  -5.228 -11.053  1.00  0.00    -0.289 OA
BRANCH  18  28
ATOM     28  O   UNL     1      -3.971  -9.747 -11.919  1.00  0.00    -0.490 OA
ATOM     29  C   UNL     1      -4.401 -11.058 -12.281  1.00  0.00     0.278 C 
ENDBRANCH  18  28
BRANCH  21  30
ATOM     30  O   UNL     1      -6.196  -4.737 -13.144  1.00  0.00    -0.507 OA
ATOM     31  H   UNL     1      -7.158  -4.456 -13.259  1.00  0.00     0.293 HD
ENDBRANCH  21  30
BRANCH  25  32
ATOM     32  C   UNL     1      -7.317  -9.044  -8.241  1.00  0.00     0.017 A 
ATOM     33  C   UNL     1      -7.184  -8.507  -6.949  1.00  0.00     0.012 A 
ATOM     34  C   UNL     1      -7.796 -10.359  -8.385  1.00  0.00     0.012 A 
ATOM     35  C   UNL     1      -7.499  -9.277  -5.825  1.00  0.00     0.001 A 
ATOM     36  C   UNL     1      -8.113 -11.124  -7.259  1.00  0.00     0.001 A 
ATOM     37  C   UNL     1      -7.956 -10.588  -5.981  1.00  0.00     0.000 A 
ENDBRANCH  25  32
ENDBRANCH   1  17
TORSDOF 9
ENDMDL
MODEL 2
REMARK VINA RESULT:    -4.132     12.396     16.409
REMARK INTER + INTRA:          -7.233
REMARK INTER:                  -6.040
REMARK INTRA:                  -1.193
REMARK UNBOUND:                -1.409
REMARK SMILES COc1c(O[C@@H]2O[C@@H](C(=O)[O-])[C@@H](O)[C@@H](O)[C@H]2O)cc(O)c2c(=O)cc(-c3ccccc3)oc12
REMARK SMILES IDX 5 1 6 2 8 3 12 4 7 5 14 6 16 7 9 8 10 9 11 10 13 11 15 13
REMARK SMILES IDX 17 15 4 17 3 18 18 19 33 20 19 21 21 22 32 23 22 24 25 25
REMARK SMILES IDX 24 26 23 27 2 28 1 29 20 30 26 32 27 33 31 34 28 35 30 36
REMARK SMILES IDX 29 37
REMARK H PARENT 13 12 15 14 17 16 20 31
REMARK Flexibility Score: inf
ROOT
ATOM      1  O   UNL     1      -7.372   7.285 -12.061  1.00  0.00    -0.458 OA
ENDROOT
BRANCH   1   2
ATOM      2  C   UNL     1      -6.678   8.048 -11.069  1.00  0.00     0.339 C 
ATOM      3  C   UNL     1      -5.492   6.301  -9.900  1.00  0.00     0.199 C 
ATOM      4  C   UNL     1      -6.919   5.772  -9.566  1.00  0.00     0.180 C 
ATOM      5  O   UNL     1      -5.433   7.428 -10.778  1.00  0.00    -0.328 OA
ATOM      6  C   UNL     1      -7.879   6.905  -9.129  1.00  0.00     0.181 C 
ATOM      7  C   UNL     1      -7.541   8.258  -9.802  1.00  0.00     0.214 C 
BRANCH   3   8
ATOM      8  C   UNL     1      -4.685   6.590  -8.659  1.00  0.00     0.073 C 
ATOM      9  O   UNL     1      -4.146   7.714  -8.492  1.00  0.00    -0.547 OA
ATOM     10  O   UNL     1      -4.541   5.612  -7.681  1.00  0.00    -0.547 OA
ENDBRANCH   3   8
BRANCH   4  11
ATOM     11  O   UNL     1      -6.877   4.763  -8.587  1.00  0.00    -0.387 OA
ATOM     12  H   UNL     1      -6.612   3.925  -9.049  1.00  0.00     0.211 HD
ENDBRANCH   4  11
BRANCH   6  13
ATOM     13  O   UNL     1      -7.960   7.032  -7.728  1.00  0.00    -0.387 OA
ATOM     14  H   UNL     1      -7.059   6.857  -7.353  1.00  0.00     0.211 HD
ENDBRANCH   6  13
BRANCH   7  15
ATOM     15  O   UNL     1      -6.861   9.103  -8.908  1.00  0.00    -0.384 OA
ATOM     16  H   UNL     1      -7.267  10.006  -8.993  1.00  0.00     0.211 HD
ENDBRANCH   7  15
ENDBRANCH   1   2
BRANCH   1  17
ATOM     17  C   UNL     1      -6.976   7.103 -13.398  1.00  0.00     0.172 A 
ATOM     18  C   UNL     1      -6.973   5.800 -13.906  1.00  0.00     0.205 A 
ATOM     19  C   UNL     1      -6.595   8.174 -14.218  1.00  0.00     0.097 A 
ATOM     20  C   UNL     1      -6.533   5.563 -15.232  1.00  0.00     0.188 A 
ATOM     21  C   UNL     1      -6.226   7.974 -15.548  1.00  0.00     0.134 A 
ATOM     22  C   UNL     1      -6.141   6.651 -16.064  1.00  0.00     0.111 A 
ATOM     23  O   UNL     1      -6.476   4.318 -15.699  1.00  0.00    -0.452 OA
ATOM     24  C   UNL     1      -5.651   6.337 -17.355  1.00  0.00     0.197 A 
ATOM     25  C   UNL     1      -6.075   4.005 -16.926  1.00  0.00     0.138 A 
ATOM     26  C   UNL     1      -5.646   5.015 -17.790  1.00  0.00     0.100 A 
ATOM     27  O   UNL     1      -5.181   7.216 -18.125  1.00  0.00    -0.289 OA
BRANCH  18  28
ATOM     28  O   UNL     1      -7.431   4.788 -13.041  1.00  0.00    -0.490 OA
ATOM     29  C   UNL     1      -8.122   3.598 -13.415  1.00  0.00     0.278 C 
ENDBRANCH  18  28
BRANCH  21  30
ATOM     30  O   UNL     1      -5.984   9.124 -16.306  1.00  0.00    -0.507 OA
ATOM     31  H   UNL     1      -5.121   9.322 -16.788  1.00  0.00     0.293 HD
ENDBRANCH  21  30
BRANCH  25  32
ATOM     32  C   UNL     1      -6.066   2.584 -17.343  1.00  0.00     0.017 A 
ATOM     33  C   UNL     1      -7.267   1.857 -17.376  1.00  0.00     0.012 A 
ATOM     34  C   UNL     1      -4.871   1.944 -17.723  1.00  0.00     0.012 A 
ATOM     35  C   UNL     1      -7.272   0.511 -17.756  1.00  0.00     0.001 A 
ATOM     36  C   UNL     1      -4.881   0.599 -18.104  1.00  0.00     0.001 A 
ATOM     37  C   UNL     1      -6.077  -0.119 -18.111  1.00  0.00     0.000 A 
ENDBRANCH  25  32
ENDBRANCH   1  17
TORSDOF 9
ENDMDL
MODEL 3
REMARK VINA RESULT:    -3.889      3.373      9.567
REMARK INTER + INTRA:          -6.890
REMARK INTER:                  -5.789
REMARK INTRA:                  -1.101
REMARK UNBOUND:                -1.409
REMARK SMILES COc1c(O[C@@H]2O[C@@H](C(=O)[O-])[C@@H](O)[C@@H](O)[C@H]2O)cc(O)c2c(=O)cc(-c3ccccc3)oc12
REMARK SMILES IDX 5 1 6 2 8 3 12 4 7 5 14 6 16 7 9 8 10 9 11 10 13 11 15 13
REMARK SMILES IDX 17 15 4 17 3 18 18 19 33 20 19 21 21 22 32 23 22 24 25 25
REMARK SMILES IDX 24 26 23 27 2 28 1 29 20 30 26 32 27 33 31 34 28 35 30 36
REMARK SMILES IDX 29 37
REMARK H PARENT 13 12 15 14 17 16 20 31
REMARK Flexibility Score: inf
ROOT
ATOM      1  O   UNL     1      -6.267  -8.359  -7.075  1.00  0.00    -0.458 OA
ENDROOT
BRANCH   1   2
ATOM      2  C   UNL     1      -7.270  -9.075  -6.346  1.00  0.00     0.339 C 
ATOM      3  C   UNL     1      -7.012  -8.109  -4.150  1.00  0.00     0.199 C 
ATOM      4  C   UNL     1      -5.576  -8.711  -4.226  1.00  0.00     0.180 C 
ATOM      5  O   UNL     1      -7.806  -8.239  -5.331  1.00  0.00    -0.328 OA
ATOM      6  C   UNL     1      -5.574 -10.158  -4.777  1.00  0.00     0.181 C 
ATOM      7  C   UNL     1      -6.723 -10.409  -5.784  1.00  0.00     0.214 C 
BRANCH   3   8
ATOM      8  C   UNL     1      -7.786  -8.628  -2.965  1.00  0.00     0.073 C 
ATOM      9  O   UNL     1      -8.124  -9.838  -2.899  1.00  0.00    -0.547 OA
ATOM     10  O   UNL     1      -8.124  -7.769  -1.925  1.00  0.00    -0.547 OA
ENDBRANCH   3   8
BRANCH   4  11
ATOM     11  O   UNL     1      -4.932  -8.664  -2.977  1.00  0.00    -0.387 OA
ATOM     12  H   UNL     1      -4.409  -9.504  -2.890  1.00  0.00     0.211 HD
ENDBRANCH   4  11
BRANCH   6  13
ATOM     13  O   UNL     1      -5.565 -11.125  -3.752  1.00  0.00    -0.387 OA
ATOM     14  H   UNL     1      -5.581 -10.649  -2.882  1.00  0.00     0.211 HD
ENDBRANCH   6  13
BRANCH   7  15
ATOM     15  O   UNL     1      -7.770 -11.123  -5.176  1.00  0.00    -0.384 OA
ATOM     16  H   UNL     1      -7.564 -11.174  -4.204  1.00  0.00     0.211 HD
ENDBRANCH   7  15
ENDBRANCH   1   2
BRANCH   1  17
ATOM     17  C   UNL     1      -6.354  -7.937  -8.414  1.00  0.00     0.172 A 
ATOM     18  C   UNL     1      -5.633  -8.656  -9.373  1.00  0.00     0.205 A 
ATOM     19  C   UNL     1      -7.133  -6.839  -8.804  1.00  0.00     0.097 A 
ATOM     20  C   UNL     1      -5.651  -8.237 -10.726  1.00  0.00     0.188 A 
ATOM     21  C   UNL     1      -7.222  -6.451 -10.140  1.00  0.00     0.134 A 
ATOM     22  C   UNL     1      -6.438  -7.118 -11.121  1.00  0.00     0.111 A 
ATOM     23  O   UNL     1      -4.921  -8.887 -11.631  1.00  0.00    -0.452 OA
ATOM     24  C   UNL     1      -6.359  -6.716 -12.476  1.00  0.00     0.197 A 
ATOM     25  C   UNL     1      -4.876  -8.562 -12.918  1.00  0.00     0.138 A 
ATOM     26  C   UNL     1      -5.597  -7.457 -13.375  1.00  0.00     0.100 A 
ATOM     27  O   UNL     1      -6.930  -5.677 -12.901  1.00  0.00    -0.289 OA
BRANCH  18  28
ATOM     28  O   UNL     1      -4.928  -9.785  -8.912  1.00  0.00    -0.490 OA
ATOM     29  C   UNL     1      -5.420 -11.122  -8.834  1.00  0.00     0.278 C 
ENDBRANCH  18  28
BRANCH  21  30
ATOM     30  O   UNL     1      -8.122  -5.420 -10.429  1.00  0.00    -0.507 OA
ATOM     31  H   UNL     1      -7.866  -4.451 -10.544  1.00  0.00     0.293 HD
ENDBRANCH  21  30
BRANCH  25  32
ATOM     32  C   UNL     1      -4.039  -9.366 -13.837  1.00  0.00     0.017 A 
ATOM     33  C   UNL     1      -4.360  -9.425 -15.204  1.00  0.00     0.012 A 
ATOM     34  C   UNL     1      -2.912 -10.068 -13.371  1.00  0.00     0.012 A 
ATOM     35  C   UNL     1      -3.585 -10.191 -16.081  1.00  0.00     0.001 A 
ATOM     36  C   UNL     1      -2.140 -10.830 -14.252  1.00  0.00     0.001 A 
ATOM     37  C   UNL     1      -2.480 -10.900 -15.603  1.00  0.00     0.000 A 
ENDBRANCH  25  32
ENDBRANCH   1  17
TORSDOF 9
ENDMDL
MODEL 4
REMARK VINA RESULT:    -3.210     12.640     16.720
REMARK INTER + INTRA:          -5.934
REMARK INTER:                  -4.838
REMARK INTRA:                  -1.096
REMARK UNBOUND:                -1.409
REMARK SMILES COc1c(O[C@@H]2O[C@@H](C(=O)[O-])[C@@H](O)[C@@H](O)[C@H]2O)cc(O)c2c(=O)cc(-c3ccccc3)oc12
REMARK SMILES IDX 5 1 6 2 8 3 12 4 7 5 14 6 16 7 9 8 10 9 11 10 13 11 15 13
REMARK SMILES IDX 17 15 4 17 3 18 18 19 33 20 19 21 21 22 32 23 22 24 25 25
REMARK SMILES IDX 24 26 23 27 2 28 1 29 20 30 26 32 27 33 31 34 28 35 30 36
REMARK SMILES IDX 29 37
REMARK H PARENT 13 12 15 14 17 16 20 31
REMARK Flexibility Score: inf
ROOT
ATOM      1  O   UNL     1      -6.406   7.123 -11.152  1.00  0.00    -0.458 OA
ENDROOT
BRANCH   1   2
ATOM      2  C   UNL     1      -7.348   7.022 -10.078  1.00  0.00     0.339 C 
ATOM      3  C   UNL     1      -6.226   8.304  -8.368  1.00  0.00     0.199 C 
ATOM      4  C   UNL     1      -5.123   7.210  -8.494  1.00  0.00     0.180 C 
ATOM      5  O   UNL     1      -7.308   8.209  -9.298  1.00  0.00    -0.328 OA
ATOM      6  C   UNL     1      -5.715   5.782  -8.559  1.00  0.00     0.181 C 
ATOM      7  C   UNL     1      -7.111   5.751  -9.229  1.00  0.00     0.214 C 
BRANCH   3   8
ATOM      8  C   UNL     1      -6.777   8.401  -6.968  1.00  0.00     0.073 C 
ATOM      9  O   UNL     1      -8.011   8.284  -6.754  1.00  0.00    -0.547 OA
ATOM     10  O   UNL     1      -5.917   8.611  -5.896  1.00  0.00    -0.547 OA
ENDBRANCH   3   8
BRANCH   4  11
ATOM     11  O   UNL     1      -4.187   7.303  -7.449  1.00  0.00    -0.387 OA
ATOM     12  H   UNL     1      -3.376   6.810  -7.744  1.00  0.00     0.211 HD
ENDBRANCH   4  11
BRANCH   6  13
ATOM     13  O   UNL     1      -5.733   5.148  -7.301  1.00  0.00    -0.387 OA
ATOM     14  H   UNL     1      -6.261   5.713  -6.681  1.00  0.00     0.211 HD
ENDBRANCH   6  13
BRANCH   7  15
ATOM     15  O   UNL     1      -8.125   5.641  -8.262  1.00  0.00    -0.384 OA
ATOM     16  H   UNL     1      -7.682   5.644  -7.372  1.00  0.00     0.211 HD
ENDBRANCH   7  15
ENDBRANCH   1   2
BRANCH   1  17
ATOM     17  C   UNL     1      -6.698   7.033 -12.524  1.00  0.00     0.172 A 
ATOM     18  C   UNL     1      -6.467   5.809 -13.161  1.00  0.00     0.205 A 
ATOM     19  C   UNL     1      -7.207   8.115 -13.255  1.00  0.00     0.097 A 
ATOM     20  C   UNL     1      -6.698   5.686 -14.553  1.00  0.00     0.188 A 
ATOM     21  C   UNL     1      -7.509   7.997 -14.611  1.00  0.00     0.134 A 
ATOM     22  C   UNL     1      -7.211   6.788 -15.296  1.00  0.00     0.111 A 
ATOM     23  O   UNL     1      -6.426   4.539 -15.172  1.00  0.00    -0.452 OA
ATOM     24  C   UNL     1      -7.357   6.615 -16.694  1.00  0.00     0.197 A 
ATOM     25  C   UNL     1      -6.610   4.336 -16.472  1.00  0.00     0.138 A 
ATOM     26  C   UNL     1      -7.080   5.379 -17.272  1.00  0.00     0.100 A 
ATOM     27  O   UNL     1      -7.700   7.560 -17.453  1.00  0.00    -0.289 OA
BRANCH  18  28
ATOM     28  O   UNL     1      -6.017   4.752 -12.346  1.00  0.00    -0.490 OA
ATOM     29  C   UNL     1      -5.042   3.769 -12.688  1.00  0.00     0.278 C 
ENDBRANCH  18  28
BRANCH  21  30
ATOM     30  O   UNL     1      -8.125   9.101 -15.209  1.00  0.00    -0.507 OA
ATOM     31  H   UNL     1      -8.529   9.102 -16.133  1.00  0.00     0.293 HD
ENDBRANCH  21  30
BRANCH  25  32
ATOM     32  C   UNL     1      -6.285   3.012 -17.050  1.00  0.00     0.017 A 
ATOM     33  C   UNL     1      -7.284   2.030 -17.152  1.00  0.00     0.012 A 
ATOM     34  C   UNL     1      -4.990   2.717 -17.514  1.00  0.00     0.012 A 
ATOM     35  C   UNL     1      -6.988   0.771 -17.685  1.00  0.00     0.001 A 
ATOM     36  C   UNL     1      -4.699   1.459 -18.048  1.00  0.00     0.001 A 
ATOM     37  C   UNL     1      -5.694   0.483 -18.124  1.00  0.00     0.000 A 
ENDBRANCH  25  32
ENDBRANCH   1  17
TORSDOF 9
ENDMDL
MODEL 5
REMARK VINA RESULT:    -3.141     13.082     16.893
REMARK INTER + INTRA:          -5.836
REMARK INTER:                  -5.464
REMARK INTRA:                  -0.372
REMARK UNBOUND:                -1.409
REMARK SMILES COc1c(O[C@@H]2O[C@@H](C(=O)[O-])[C@@H](O)[C@@H](O)[C@H]2O)cc(O)c2c(=O)cc(-c3ccccc3)oc12
REMARK SMILES IDX 5 1 6 2 8 3 12 4 7 5 14 6 16 7 9 8 10 9 11 10 13 11 15 13
REMARK SMILES IDX 17 15 4 17 3 18 18 19 33 20 19 21 21 22 32 23 22 24 25 25
REMARK SMILES IDX 24 26 23 27 2 28 1 29 20 30 26 32 27 33 31 34 28 35 30 36
REMARK SMILES IDX 29 37
REMARK H PARENT 13 12 15 14 17 16 20 31
REMARK Flexibility Score: inf
ROOT
ATOM      1  O   UNL     1      -5.034   6.887  -7.795  1.00  0.00    -0.458 OA
ENDROOT
BRANCH   1   2
ATOM      2  C   UNL     1      -5.498   7.444  -6.561  1.00  0.00     0.339 C 
ATOM      3  C   UNL     1      -4.806   5.735  -5.003  1.00  0.00     0.199 C 
ATOM      4  C   UNL     1      -5.774   4.823  -5.817  1.00  0.00     0.180 C 
ATOM      5  O   UNL     1      -4.625   7.060  -5.508  1.00  0.00    -0.328 OA
ATOM      6  C   UNL     1      -7.120   5.522  -6.127  1.00  0.00     0.181 C 
ATOM      7  C   UNL     1      -6.969   7.056  -6.277  1.00  0.00     0.214 C 
BRANCH   3   8
ATOM      8  C   UNL     1      -5.178   5.802  -3.544  1.00  0.00     0.073 C 
ATOM      9  O   UNL     1      -5.393   6.909  -2.987  1.00  0.00    -0.547 OA
ATOM     10  O   UNL     1      -5.298   4.632  -2.803  1.00  0.00    -0.547 OA
ENDBRANCH   3   8
BRANCH   4  11
ATOM     11  O   UNL     1      -5.999   3.600  -5.163  1.00  0.00    -0.387 OA
ATOM     12  H   UNL     1      -5.334   2.954  -5.522  1.00  0.00     0.211 HD
ENDBRANCH   4  11
BRANCH   6  13
ATOM     13  O   UNL     1      -8.125   5.192  -5.197  1.00  0.00    -0.387 OA
ATOM     14  H   UNL     1      -8.162   4.203  -5.125  1.00  0.00     0.211 HD
ENDBRANCH   6  13
BRANCH   7  15
ATOM     15  O   UNL     1      -7.409   7.715  -5.116  1.00  0.00    -0.384 OA
ATOM     16  H   UNL     1      -7.597   7.015  -4.436  1.00  0.00     0.211 HD
ENDBRANCH   7  15
ENDBRANCH   1   2
BRANCH   1  17
ATOM     17  C   UNL     1      -5.675   6.982  -9.043  1.00  0.00     0.172 A 
ATOM     18  C   UNL     1      -5.424   5.978  -9.984  1.00  0.00     0.205 A 
ATOM     19  C   UNL     1      -6.545   8.035  -9.360  1.00  0.00     0.097 A 
ATOM     20  C   UNL     1      -6.009   6.059 -11.272  1.00  0.00     0.188 A 
ATOM     21  C   UNL     1      -7.188   8.098 -10.595  1.00  0.00     0.134 A 
ATOM     22  C   UNL     1      -6.889   7.132 -11.595  1.00  0.00     0.111 A 
ATOM     23  O   UNL     1      -5.727   5.134 -12.187  1.00  0.00    -0.452 OA
ATOM     24  C   UNL     1      -7.386   7.186 -12.920  1.00  0.00     0.197 A 
ATOM     25  C   UNL     1      -6.227   5.133 -13.418  1.00  0.00     0.138 A 
ATOM     26  C   UNL     1      -7.074   6.169 -13.819  1.00  0.00     0.100 A 
ATOM     27  O   UNL     1      -8.083   8.149 -13.335  1.00  0.00    -0.289 OA
BRANCH  18  28
ATOM     28  O   UNL     1      -4.592   4.922  -9.567  1.00  0.00    -0.490 OA
ATOM     29  C   UNL     1      -3.574   4.983  -8.570  1.00  0.00     0.278 C 
ENDBRANCH  18  28
BRANCH  21  30
ATOM     30  O   UNL     1      -8.125   9.123 -10.757  1.00  0.00    -0.507 OA
ATOM     31  H   UNL     1      -7.902  10.066 -11.038  1.00  0.00     0.293 HD
ENDBRANCH  21  30
BRANCH  25  32
ATOM     32  C   UNL     1      -5.855   4.044 -14.348  1.00  0.00     0.017 A 
ATOM     33  C   UNL     1      -4.669   3.319 -14.139  1.00  0.00     0.012 A 
ATOM     34  C   UNL     1      -6.674   3.708 -15.442  1.00  0.00     0.012 A 
ATOM     35  C   UNL     1      -4.299   2.296 -15.018  1.00  0.00     0.001 A 
ATOM     36  C   UNL     1      -6.301   2.683 -16.316  1.00  0.00     0.001 A 
ATOM     37  C   UNL     1      -5.111   1.985 -16.111  1.00  0.00     0.000 A 
ENDBRANCH  25  32
ENDBRANCH   1  17
TORSDOF 9
ENDMDL
MODEL 6
REMARK VINA RESULT:    -3.072     12.032     14.258
REMARK INTER + INTRA:          -5.739
REMARK INTER:                  -5.183
REMARK INTRA:                  -0.556
REMARK UNBOUND:                -1.409
REMARK SMILES COc1c(O[C@@H]2O[C@@H](C(=O)[O-])[C@@H](O)[C@@H](O)[C@H]2O)cc(O)c2c(=O)cc(-c3ccccc3)oc12
REMARK SMILES IDX 5 1 6 2 8 3 12 4 7 5 14 6 16 7 9 8 10 9 11 10 13 11 15 13
REMARK SMILES IDX 17 15 4 17 3 18 18 19 33 20 19 21 21 22 32 23 22 24 25 25
REMARK SMILES IDX 24 26 23 27 2 28 1 29 20 30 26 32 27 33 31 34 28 35 30 36
REMARK SMILES IDX 29 37
REMARK H PARENT 13 12 15 14 17 16 20 31
REMARK Flexibility Score: inf
ROOT
ATOM      1  O   UNL     1      -6.277   5.062 -14.198  1.00  0.00    -0.458 OA
ENDROOT
BRANCH   1   2
ATOM      2  C   UNL     1      -7.063   4.980 -15.392  1.00  0.00     0.339 C 
ATOM      3  C   UNL     1      -7.041   2.599 -15.787  1.00  0.00     0.199 C 
ATOM      4  C   UNL     1      -5.501   2.795 -15.924  1.00  0.00     0.180 C 
ATOM      5  O   UNL     1      -7.786   3.757 -15.401  1.00  0.00    -0.328 OA
ATOM      6  C   UNL     1      -5.139   4.035 -16.777  1.00  0.00     0.181 C 
ATOM      7  C   UNL     1      -6.196   5.162 -16.660  1.00  0.00     0.214 C 
BRANCH   3   8
ATOM      8  C   UNL     1      -7.653   2.002 -17.029  1.00  0.00     0.073 C 
ATOM      9  O   UNL     1      -8.079   2.740 -17.954  1.00  0.00    -0.547 OA
ATOM     10  O   UNL     1      -7.740   0.621 -17.164  1.00  0.00    -0.547 OA
ENDBRANCH   3   8
BRANCH   4  11
ATOM     11  O   UNL     1      -4.882   1.646 -16.446  1.00  0.00    -0.387 OA
ATOM     12  H   UNL     1      -4.036   1.520 -15.941  1.00  0.00     0.211 HD
ENDBRANCH   4  11
BRANCH   6  13
ATOM     13  O   UNL     1      -4.882   3.707 -18.123  1.00  0.00    -0.387 OA
ATOM     14  H   UNL     1      -5.665   3.208 -18.471  1.00  0.00     0.211 HD
ENDBRANCH   6  13
BRANCH   7  15
ATOM     15  O   UNL     1      -7.026   5.185 -17.794  1.00  0.00    -0.384 OA
ATOM     16  H   UNL     1      -7.954   5.015 -17.480  1.00  0.00     0.211 HD
ENDBRANCH   7  15
ENDBRANCH   1   2
BRANCH   1  17
ATOM     17  C   UNL     1      -6.546   5.871 -13.080  1.00  0.00     0.172 A 
ATOM     18  C   UNL     1      -6.086   5.435 -11.833  1.00  0.00     0.205 A 
ATOM     19  C   UNL     1      -7.246   7.081 -13.181  1.00  0.00     0.097 A 
ATOM     20  C   UNL     1      -6.377   6.192 -10.672  1.00  0.00     0.188 A 
ATOM     21  C   UNL     1      -7.483   7.879 -12.063  1.00  0.00     0.134 A 
ATOM     22  C   UNL     1      -7.093   7.419 -10.775  1.00  0.00     0.111 A 
ATOM     23  O   UNL     1      -5.988   5.750  -9.477  1.00  0.00    -0.452 OA
ATOM     24  C   UNL     1      -7.405   8.091  -9.568  1.00  0.00     0.197 A 
ATOM     25  C   UNL     1      -6.220   6.393  -8.338  1.00  0.00     0.138 A 
ATOM     26  C   UNL     1      -6.943   7.588  -8.356  1.00  0.00     0.100 A 
ATOM     27  O   UNL     1      -8.125   9.124  -9.544  1.00  0.00    -0.289 OA
BRANCH  18  28
ATOM     28  O   UNL     1      -5.334   4.244 -11.823  1.00  0.00    -0.490 OA
ATOM     29  C   UNL     1      -4.412   3.811 -12.822  1.00  0.00     0.278 C 
ENDBRANCH  18  28
BRANCH  21  30
ATOM     30  O   UNL     1      -8.083   9.120 -12.300  1.00  0.00    -0.507 OA
ATOM     31  H   UNL     1      -8.083   9.890 -11.649  1.00  0.00     0.293 HD
ENDBRANCH  21  30
BRANCH  25  32
ATOM     32  C   UNL     1      -5.727   5.813  -7.068  1.00  0.00     0.017 A 
ATOM     33  C   UNL     1      -5.366   4.457  -7.012  1.00  0.00     0.012 A 
ATOM     34  C   UNL     1      -5.600   6.601  -5.909  1.00  0.00     0.012 A 
ATOM     35  C   UNL     1      -4.911   3.893  -5.815  1.00  0.00     0.001 A 
ATOM     36  C   UNL     1      -5.143   6.034  -4.716  1.00  0.00     0.001 A 
ATOM     37  C   UNL     1      -4.808   4.680  -4.666  1.00  0.00     0.000 A 
ENDBRANCH  25  32
ENDBRANCH   1  17
TORSDOF 9
ENDMDL
MODEL 7
REMARK VINA RESULT:    -2.670     12.980     16.934
REMARK INTER + INTRA:          -5.172
REMARK INTER:                  -4.081
REMARK INTRA:                  -1.091
REMARK UNBOUND:                -1.409
REMARK SMILES COc1c(O[C@@H]2O[C@@H](C(=O)[O-])[C@@H](O)[C@@H](O)[C@H]2O)cc(O)c2c(=O)cc(-c3ccccc3)oc12
REMARK SMILES IDX 5 1 6 2 8 3 12 4 7 5 14 6 16 7 9 8 10 9 11 10 13 11 15 13
REMARK SMILES IDX 17 15 4 17 3 18 18 19 33 20 19 21 21 22 32 23 22 24 25 25
REMARK SMILES IDX 24 26 23 27 2 28 1 29 20 30 26 32 27 33 31 34 28 35 30 36
REMARK SMILES IDX 29 37
REMARK H PARENT 13 12 15 14 17 16 20 31
REMARK Flexibility Score: inf
ROOT
ATOM      1  O   UNL     1      -6.146   6.511  -7.295  1.00  0.00    -0.458 OA
ENDROOT
BRANCH   1   2
ATOM      2  C   UNL     1      -6.825   5.593  -6.432  1.00  0.00     0.339 C 
ATOM      3  C   UNL     1      -6.698   6.768  -4.328  1.00  0.00     0.199 C 
ATOM      4  C   UNL     1      -5.158   6.612  -4.514  1.00  0.00     0.180 C 
ATOM      5  O   UNL     1      -7.507   6.313  -5.415  1.00  0.00    -0.328 OA
ATOM      6  C   UNL     1      -4.763   5.191  -4.983  1.00  0.00     0.181 C 
ATOM      7  C   UNL     1      -5.860   4.530  -5.855  1.00  0.00     0.214 C 
BRANCH   3   8
ATOM      8  C   UNL     1      -7.183   6.142  -3.045  1.00  0.00     0.073 C 
ATOM      9  O   UNL     1      -6.777   6.563  -1.931  1.00  0.00    -0.547 OA
ATOM     10  O   UNL     1      -8.098   5.096  -3.085  1.00  0.00    -0.547 OA
ENDBRANCH   3   8
BRANCH   4  11
ATOM     11  O   UNL     1      -4.462   6.949  -3.340  1.00  0.00    -0.387 OA
ATOM     12  H   UNL     1      -3.503   6.749  -3.506  1.00  0.00     0.211 HD
ENDBRANCH   4  11
BRANCH   6  13
ATOM     13  O   UNL     1      -4.383   4.357  -3.914  1.00  0.00    -0.387 OA
ATOM     14  H   UNL     1      -4.242   4.928  -3.115  1.00  0.00     0.211 HD
ENDBRANCH   6  13
BRANCH   7  15
ATOM     15  O   UNL     1      -6.591   3.592  -5.108  1.00  0.00    -0.384 OA
ATOM     16  H   UNL     1      -6.676   3.954  -4.186  1.00  0.00     0.211 HD
ENDBRANCH   7  15
ENDBRANCH   1   2
BRANCH   1  17
ATOM     17  C   UNL     1      -6.405   6.713  -8.662  1.00  0.00     0.172 A 
ATOM     18  C   UNL     1      -5.970   5.733  -9.561  1.00  0.00     0.205 A 
ATOM     19  C   UNL     1      -7.077   7.847  -9.138  1.00  0.00     0.097 A 
ATOM     20  C   UNL     1      -6.164   5.918 -10.952  1.00  0.00     0.188 A 
ATOM     21  C   UNL     1      -7.342   8.018 -10.496  1.00  0.00     0.134 A 
ATOM     22  C   UNL     1      -6.843   7.074 -11.435  1.00  0.00     0.111 A 
ATOM     23  O   UNL     1      -5.701   5.014 -11.812  1.00  0.00    -0.452 OA
ATOM     24  C   UNL     1      -6.945   7.226 -12.839  1.00  0.00     0.197 A 
ATOM     25  C   UNL     1      -5.836   5.107 -13.130  1.00  0.00     0.138 A 
ATOM     26  C   UNL     1      -6.463   6.227 -13.680  1.00  0.00     0.100 A 
ATOM     27  O   UNL     1      -7.430   8.262 -13.366  1.00  0.00    -0.289 OA
BRANCH  18  28
ATOM     28  O   UNL     1      -5.361   4.594  -9.000  1.00  0.00    -0.490 OA
ATOM     29  C   UNL     1      -3.977   4.431  -8.697  1.00  0.00     0.278 C 
ENDBRANCH  18  28
BRANCH  21  30
ATOM     30  O   UNL     1      -8.124   9.124 -10.843  1.00  0.00    -0.507 OA
ATOM     31  H   UNL     1      -8.940   9.432 -10.336  1.00  0.00     0.293 HD
ENDBRANCH  21  30
BRANCH  25  32
ATOM     32  C   UNL     1      -5.293   4.032 -13.990  1.00  0.00     0.017 A 
ATOM     33  C   UNL     1      -4.141   3.334 -13.594  1.00  0.00     0.012 A 
ATOM     34  C   UNL     1      -5.918   3.683 -15.202  1.00  0.00     0.012 A 
ATOM     35  C   UNL     1      -3.610   2.324 -14.404  1.00  0.00     0.001 A 
ATOM     36  C   UNL     1      -5.385   2.672 -16.007  1.00  0.00     0.001 A 
ATOM     37  C   UNL     1      -4.228   2.000 -15.614  1.00  0.00     0.000 A 
ENDBRANCH  25  32
ENDBRANCH   1  17
TORSDOF 9
ENDMDL
