MODEL 1
REMARK VINA RESULT:    -4.476      0.000      0.000
REMARK INTER + INTRA:          -5.577
REMARK INTER:                  -5.392
REMARK INTRA:                  -0.184
REMARK UNBOUND:                -0.184
REMARK SMILES C=CCc1ccc(O)c(OC)c1
REMARK SMILES IDX 9 1 7 2 6 3 5 4 4 5 12 6 10 7 11 8 8 9 3 11 2 12 1 13
REMARK H PARENT 8 10
REMARK Flexibility Score: inf
ROOT
ATOM      1  C   UNL     1      75.643  34.006  52.388  1.00  0.00     0.160 A 
ATOM      2  C   UNL     1      75.564  35.359  52.011  1.00  0.00     0.157 A 
ATOM      3  C   UNL     1      74.452  36.124  52.377  1.00  0.00     0.050 A 
ATOM      4  C   UNL     1      73.415  35.556  53.118  1.00  0.00     0.008 A 
ATOM      5  C   UNL     1      73.483  34.212  53.512  1.00  0.00    -0.040 A 
ATOM      6  C   UNL     1      74.593  33.438  53.139  1.00  0.00     0.054 A 
ENDROOT
BRANCH   1   7
ATOM      7  O   UNL     1      76.768  33.259  52.002  1.00  0.00    -0.493 OA
ATOM      8  C   UNL     1      77.007  31.905  52.375  1.00  0.00     0.278 C 
ENDBRANCH   1   7
BRANCH   2   9
ATOM      9  O   UNL     1      76.581  35.961  51.270  1.00  0.00    -0.504 OA
ATOM     10  H   UNL     1      76.429  36.318  50.334  1.00  0.00     0.293 HD
ENDBRANCH   2   9
BRANCH   5  11
ATOM     11  C   UNL     1      72.348  33.595  54.286  1.00  0.00     0.062 C 
BRANCH  11  12
ATOM     12  C   UNL     1      72.431  33.965  55.740  1.00  0.00    -0.030 C 
ATOM     13  C   UNL     1      71.346  34.010  56.518  1.00  0.00     0.004 C 
ENDBRANCH  11  12
ENDBRANCH   5  11
TORSDOF 4
ENDMDL
MODEL 2
REMARK VINA RESULT:    -4.423     16.195     17.453
REMARK INTER + INTRA:          -5.512
REMARK INTER:                  -5.291
REMARK INTRA:                  -0.221
REMARK UNBOUND:                -0.184
REMARK SMILES C=CCc1ccc(O)c(OC)c1
REMARK SMILES IDX 9 1 7 2 6 3 5 4 4 5 12 6 10 7 11 8 8 9 3 11 2 12 1 13
REMARK H PARENT 8 10
REMARK Flexibility Score: inf
ROOT
ATOM      1  C   UNL     1      83.899  31.276  65.749  1.00  0.00     0.160 A 
ATOM      2  C   UNL     1      83.355  31.330  67.046  1.00  0.00     0.157 A 
ATOM      3  C   UNL     1      84.154  31.720  68.125  1.00  0.00     0.050 A 
ATOM      4  C   UNL     1      85.492  32.062  67.927  1.00  0.00     0.008 A 
ATOM      5  C   UNL     1      86.048  32.025  66.640  1.00  0.00    -0.040 A 
ATOM      6  C   UNL     1      85.252  31.624  65.556  1.00  0.00     0.054 A 
ENDROOT
BRANCH   1   7
ATOM      7  O   UNL     1      83.076  30.874  64.685  1.00  0.00    -0.493 OA
ATOM      8  C   UNL     1      82.959  29.533  64.216  1.00  0.00     0.278 C 
ENDBRANCH   1   7
BRANCH   2   9
ATOM      9  O   UNL     1      82.022  30.995  67.282  1.00  0.00    -0.504 OA
ATOM     10  H   UNL     1      81.751  30.103  67.678  1.00  0.00     0.293 HD
ENDBRANCH   2   9
BRANCH   5  11
ATOM     11  C   UNL     1      87.501  32.365  66.436  1.00  0.00     0.062 C 
BRANCH  11  12
ATOM     12  C   UNL     1      87.707  33.052  65.115  1.00  0.00    -0.030 C 
ATOM     13  C   UNL     1      88.125  34.319  65.038  1.00  0.00     0.004 C 
ENDBRANCH  11  12
ENDBRANCH   5  11
TORSDOF 4
ENDMDL
MODEL 3
REMARK VINA RESULT:    -4.065      2.243      3.883
REMARK INTER + INTRA:          -5.081
REMARK INTER:                  -4.829
REMARK INTRA:                  -0.253
REMARK UNBOUND:                -0.184
REMARK SMILES C=CCc1ccc(O)c(OC)c1
REMARK SMILES IDX 9 1 7 2 6 3 5 4 4 5 12 6 10 7 11 8 8 9 3 11 2 12 1 13
REMARK H PARENT 8 10
REMARK Flexibility Score: inf
ROOT
ATOM      1  C   UNL     1      78.503  33.886  51.606  1.00  0.00     0.160 A 
ATOM      2  C   UNL     1      78.177  32.555  51.927  1.00  0.00     0.157 A 
ATOM      3  C   UNL     1      76.879  32.230  52.334  1.00  0.00     0.050 A 
ATOM      4  C   UNL     1      75.898  33.218  52.423  1.00  0.00     0.008 A 
ATOM      5  C   UNL     1      76.202  34.547  52.096  1.00  0.00    -0.040 A 
ATOM      6  C   UNL     1      77.506  34.879  51.696  1.00  0.00     0.054 A 
ENDROOT
BRANCH   1   7
ATOM      7  O   UNL     1      79.815  34.184  51.207  1.00  0.00    -0.493 OA
ATOM      8  C   UNL     1      80.177  34.670  49.917  1.00  0.00     0.278 C 
ENDBRANCH   1   7
BRANCH   2   9
ATOM      9  O   UNL     1      79.132  31.541  51.850  1.00  0.00    -0.504 OA
ATOM     10  H   UNL     1      79.157  30.771  52.508  1.00  0.00     0.293 HD
ENDBRANCH   2   9
BRANCH   5  11
ATOM     11  C   UNL     1      75.147  35.616  52.222  1.00  0.00     0.062 C 
BRANCH  11  12
ATOM     12  C   UNL     1      74.076  35.195  53.189  1.00  0.00    -0.030 C 
ATOM     13  C   UNL     1      74.010  35.694  54.427  1.00  0.00     0.004 C 
ENDBRANCH  11  12
ENDBRANCH   5  11
TORSDOF 4
ENDMDL
MODEL 4
REMARK VINA RESULT:    -4.063     16.178     17.226
REMARK INTER + INTRA:          -5.078
REMARK INTER:                  -4.815
REMARK INTRA:                  -0.263
REMARK UNBOUND:                -0.184
REMARK SMILES C=CCc1ccc(O)c(OC)c1
REMARK SMILES IDX 9 1 7 2 6 3 5 4 4 5 12 6 10 7 11 8 8 9 3 11 2 12 1 13
REMARK H PARENT 8 10
REMARK Flexibility Score: inf
ROOT
ATOM      1  C   UNL     1      86.682  32.414  65.835  1.00  0.00     0.160 A 
ATOM      2  C   UNL     1      86.494  32.243  67.219  1.00  0.00     0.157 A 
ATOM      3  C   UNL     1      85.268  31.783  67.707  1.00  0.00     0.050 A 
ATOM      4  C   UNL     1      84.223  31.488  66.831  1.00  0.00     0.008 A 
ATOM      5  C   UNL     1      84.396  31.642  65.448  1.00  0.00    -0.040 A 
ATOM      6  C   UNL     1      85.623  32.112  64.954  1.00  0.00     0.054 A 
ENDROOT
BRANCH   1   7
ATOM      7  O   UNL     1      87.922  32.884  65.372  1.00  0.00    -0.493 OA
ATOM      8  C   UNL     1      88.125  34.147  64.746  1.00  0.00     0.278 C 
ENDBRANCH   1   7
BRANCH   2   9
ATOM      9  O   UNL     1      87.516  32.528  68.125  1.00  0.00    -0.504 OA
ATOM     10  H   UNL     1      88.261  31.871  68.323  1.00  0.00     0.293 HD
ENDBRANCH   2   9
BRANCH   5  11
ATOM     11  C   UNL     1      83.256  31.351  64.507  1.00  0.00     0.062 C 
BRANCH  11  12
ATOM     12  C   UNL     1      82.824  29.916  64.622  1.00  0.00    -0.030 C 
ATOM     13  C   UNL     1      83.662  28.907  64.366  1.00  0.00     0.004 C 
ENDBRANCH  11  12
ENDBRANCH   5  11
TORSDOF 4
ENDMDL
MODEL 5
REMARK VINA RESULT:    -4.056      3.074      6.404
REMARK INTER + INTRA:          -5.070
REMARK INTER:                  -4.846
REMARK INTRA:                  -0.224
REMARK UNBOUND:                -0.184
REMARK SMILES C=CCc1ccc(O)c(OC)c1
REMARK SMILES IDX 9 1 7 2 6 3 5 4 4 5 12 6 10 7 11 8 8 9 3 11 2 12 1 13
REMARK H PARENT 8 10
REMARK Flexibility Score: inf
ROOT
ATOM      1  C   UNL     1      77.052  33.289  52.037  1.00  0.00     0.160 A 
ATOM      2  C   UNL     1      77.629  32.016  52.203  1.00  0.00     0.157 A 
ATOM      3  C   UNL     1      79.019  31.867  52.169  1.00  0.00     0.050 A 
ATOM      4  C   UNL     1      79.844  32.975  51.973  1.00  0.00     0.008 A 
ATOM      5  C   UNL     1      79.286  34.252  51.817  1.00  0.00    -0.040 A 
ATOM      6  C   UNL     1      77.891  34.404  51.842  1.00  0.00     0.054 A 
ENDROOT
BRANCH   1   7
ATOM      7  O   UNL     1      75.653  33.407  52.069  1.00  0.00    -0.493 OA
ATOM      8  C   UNL     1      74.950  34.548  52.554  1.00  0.00     0.278 C 
ENDBRANCH   1   7
BRANCH   2   9
ATOM      9  O   UNL     1      76.835  30.886  52.401  1.00  0.00    -0.504 OA
ATOM     10  H   UNL     1      76.709  30.467  53.314  1.00  0.00     0.293 HD
ENDBRANCH   2   9
BRANCH   5  11
ATOM     11  C   UNL     1      80.180  35.441  51.576  1.00  0.00     0.062 C 
BRANCH  11  12
ATOM     12  C   UNL     1      79.932  36.025  50.213  1.00  0.00    -0.030 C 
ATOM     13  C   UNL     1      80.073  35.300  49.101  1.00  0.00     0.004 C 
ENDBRANCH  11  12
ENDBRANCH   5  11
TORSDOF 4
ENDMDL
MODEL 6
REMARK VINA RESULT:    -3.909     16.630     18.299
REMARK INTER + INTRA:          -4.893
REMARK INTER:                  -4.690
REMARK INTRA:                  -0.203
REMARK UNBOUND:                -0.184
REMARK SMILES C=CCc1ccc(O)c(OC)c1
REMARK SMILES IDX 9 1 7 2 6 3 5 4 4 5 12 6 10 7 11 8 8 9 3 11 2 12 1 13
REMARK H PARENT 8 10
REMARK Flexibility Score: inf
ROOT
ATOM      1  C   UNL     1      85.315  30.860  65.923  1.00  0.00     0.160 A 
ATOM      2  C   UNL     1      86.015  31.386  67.025  1.00  0.00     0.157 A 
ATOM      3  C   UNL     1      87.384  31.141  67.166  1.00  0.00     0.050 A 
ATOM      4  C   UNL     1      88.068  30.378  66.219  1.00  0.00     0.008 A 
ATOM      5  C   UNL     1      87.389  29.857  65.108  1.00  0.00    -0.040 A 
ATOM      6  C   UNL     1      86.012  30.092  64.968  1.00  0.00     0.054 A 
ENDROOT
BRANCH   1   7
ATOM      7  O   UNL     1      83.939  31.116  65.810  1.00  0.00    -0.493 OA
ATOM      8  C   UNL     1      83.338  31.849  64.746  1.00  0.00     0.278 C 
ENDBRANCH   1   7
BRANCH   2   9
ATOM      9  O   UNL     1      85.364  32.151  67.992  1.00  0.00    -0.504 OA
ATOM     10  H   UNL     1      85.108  33.119  67.833  1.00  0.00     0.293 HD
ENDBRANCH   2   9
BRANCH   5  11
ATOM     11  C   UNL     1      88.125  29.009  64.104  1.00  0.00     0.062 C 
BRANCH  11  12
ATOM     12  C   UNL     1      88.125  27.566  64.523  1.00  0.00    -0.030 C 
ATOM     13  C   UNL     1      88.113  26.573  63.628  1.00  0.00     0.004 C 
ENDBRANCH  11  12
ENDBRANCH   5  11
TORSDOF 4
ENDMDL
MODEL 7
REMARK VINA RESULT:    -3.907      2.473      3.646
REMARK INTER + INTRA:          -4.890
REMARK INTER:                  -4.694
REMARK INTRA:                  -0.196
REMARK UNBOUND:                -0.184
REMARK SMILES C=CCc1ccc(O)c(OC)c1
REMARK SMILES IDX 9 1 7 2 6 3 5 4 4 5 12 6 10 7 11 8 8 9 3 11 2 12 1 13
REMARK H PARENT 8 10
REMARK Flexibility Score: inf
ROOT
ATOM      1  C   UNL     1      78.613  34.110  51.586  1.00  0.00     0.160 A 
ATOM      2  C   UNL     1      79.090  34.937  50.552  1.00  0.00     0.157 A 
ATOM      3  C   UNL     1      78.269  35.937  50.020  1.00  0.00     0.050 A 
ATOM      4  C   UNL     1      76.976  36.125  50.508  1.00  0.00     0.008 A 
ATOM      5  C   UNL     1      76.489  35.317  51.547  1.00  0.00    -0.040 A 
ATOM      6  C   UNL     1      77.306  34.307  52.077  1.00  0.00     0.054 A 
ENDROOT
BRANCH   1   7
ATOM      7  O   UNL     1      79.457  33.110  52.096  1.00  0.00    -0.493 OA
ATOM      8  C   UNL     1      79.053  31.769  52.360  1.00  0.00     0.278 C 
ENDBRANCH   1   7
BRANCH   2   9
ATOM      9  O   UNL     1      80.377  34.778  50.038  1.00  0.00    -0.504 OA
ATOM     10  H   UNL     1      80.585  34.903  49.054  1.00  0.00     0.293 HD
ENDBRANCH   2   9
BRANCH   5  11
ATOM     11  C   UNL     1      75.082  35.504  52.051  1.00  0.00     0.062 C 
BRANCH  11  12
ATOM     12  C   UNL     1      74.602  34.269  52.760  1.00  0.00    -0.030 C 
ATOM     13  C   UNL     1      73.821  34.338  53.842  1.00  0.00     0.004 C 
ENDBRANCH  11  12
ENDBRANCH   5  11
TORSDOF 4
ENDMDL
MODEL 8
REMARK VINA RESULT:    -3.867      2.752      5.880
REMARK INTER + INTRA:          -4.842
REMARK INTER:                  -4.707
REMARK INTRA:                  -0.135
REMARK UNBOUND:                -0.184
REMARK SMILES C=CCc1ccc(O)c(OC)c1
REMARK SMILES IDX 9 1 7 2 6 3 5 4 4 5 12 6 10 7 11 8 8 9 3 11 2 12 1 13
REMARK H PARENT 8 10
REMARK Flexibility Score: inf
ROOT
ATOM      1  C   UNL     1      75.335  35.359  52.192  1.00  0.00     0.160 A 
ATOM      2  C   UNL     1      75.351  33.965  52.390  1.00  0.00     0.157 A 
ATOM      3  C   UNL     1      76.506  33.231  52.108  1.00  0.00     0.050 A 
ATOM      4  C   UNL     1      77.652  33.869  51.632  1.00  0.00     0.008 A 
ATOM      5  C   UNL     1      77.658  35.259  51.441  1.00  0.00    -0.040 A 
ATOM      6  C   UNL     1      76.497  35.999  51.714  1.00  0.00     0.054 A 
ENDROOT
BRANCH   1   7
ATOM      7  O   UNL     1      74.159  36.071  52.477  1.00  0.00    -0.493 OA
ATOM      8  C   UNL     1      73.021  36.125  51.622  1.00  0.00     0.278 C 
ENDBRANCH   1   7
BRANCH   2   9
ATOM      9  O   UNL     1      74.224  33.293  52.863  1.00  0.00    -0.504 OA
ATOM     10  H   UNL     1      73.435  33.074  52.266  1.00  0.00     0.293 HD
ENDBRANCH   2   9
BRANCH   5  11
ATOM     11  C   UNL     1      78.888  35.940  50.899  1.00  0.00     0.062 C 
BRANCH  11  12
ATOM     12  C   UNL     1      79.954  34.933  50.570  1.00  0.00    -0.030 C 
ATOM     13  C   UNL     1      80.253  34.611  49.308  1.00  0.00     0.004 C 
ENDBRANCH  11  12
ENDBRANCH   5  11
TORSDOF 4
ENDMDL
MODEL 9
REMARK VINA RESULT:    -1.684     16.218     17.676
REMARK INTER + INTRA:          -2.213
REMARK INTER:                  -2.119
REMARK INTRA:                  -0.095
REMARK UNBOUND:                -0.184
REMARK SMILES C=CCc1ccc(O)c(OC)c1
REMARK SMILES IDX 9 1 7 2 6 3 5 4 4 5 12 6 10 7 11 8 8 9 3 11 2 12 1 13
REMARK H PARENT 8 10
REMARK Flexibility Score: inf
ROOT
ATOM      1  C   UNL     1      84.349  31.294  65.817  1.00  0.00     0.160 A 
ATOM      2  C   UNL     1      84.412  31.627  67.183  1.00  0.00     0.157 A 
ATOM      3  C   UNL     1      85.636  31.973  67.764  1.00  0.00     0.050 A 
ATOM      4  C   UNL     1      86.802  31.994  66.998  1.00  0.00     0.008 A 
ATOM      5  C   UNL     1      86.755  31.677  65.632  1.00  0.00    -0.040 A 
ATOM      6  C   UNL     1      85.530  31.320  65.048  1.00  0.00     0.054 A 
ENDROOT
BRANCH   1   7
ATOM      7  O   UNL     1      83.108  30.944  65.262  1.00  0.00    -0.493 OA
ATOM      8  C   UNL     1      82.897  29.842  64.384  1.00  0.00     0.278 C 
ENDBRANCH   1   7
BRANCH   2   9
ATOM      9  O   UNL     1      83.268  31.617  67.981  1.00  0.00    -0.504 OA
ATOM     10  H   UNL     1      82.542  32.318  67.893  1.00  0.00     0.293 HD
ENDBRANCH   2   9
BRANCH   5  11
ATOM     11  C   UNL     1      88.021  31.671  64.815  1.00  0.00     0.062 C 
BRANCH  11  12
ATOM     12  C   UNL     1      88.125  30.412  64.002  1.00  0.00    -0.030 C 
ATOM     13  C   UNL     1      88.125  29.204  64.573  1.00  0.00     0.004 C 
ENDBRANCH  11  12
ENDBRANCH   5  11
TORSDOF 4
ENDMDL
