MODEL 1
REMARK VINA RESULT:    -6.327      0.000      0.000
REMARK INTER + INTRA:          -7.978
REMARK INTER:                  -7.806
REMARK INTRA:                  -0.172
REMARK UNBOUND:                -0.172
REMARK SMILES CCOC(=O)c1ccc(O)c(O)c1
REMARK SMILES IDX 4 1 5 2 3 3 2 4 1 5 6 6 13 7 7 8 11 9 8 10 9 11 12 12 10 14
REMARK H PARENT 12 13 10 15
REMARK Flexibility Score: inf
ROOT
ATOM      1  C   UNL     1       9.133  69.128  -1.475  1.00  0.00     0.338 C 
ATOM      2  O   UNL     1       8.028  68.597  -1.772  1.00  0.00    -0.246 OA
ENDROOT
BRANCH   1   3
ATOM      3  O   UNL     1      10.127  69.277  -2.451  1.00  0.00    -0.462 OA
BRANCH   3   4
ATOM      4  C   UNL     1      10.206  70.396  -3.330  1.00  0.00     0.230 C 
ATOM      5  C   UNL     1      11.606  70.998  -3.311  1.00  0.00     0.049 C 
ENDBRANCH   3   4
ENDBRANCH   1   3
BRANCH   1   6
ATOM      6  C   UNL     1       9.380  69.605  -0.095  1.00  0.00     0.064 A 
ATOM      7  C   UNL     1       9.916  70.885   0.137  1.00  0.00     0.065 A 
ATOM      8  C   UNL     1       9.078  68.783   1.003  1.00  0.00     0.020 A 
ATOM      9  C   UNL     1      10.148  71.336   1.441  1.00  0.00     0.158 A 
ATOM     10  C   UNL     1       9.309  69.231   2.307  1.00  0.00     0.051 A 
ATOM     11  C   UNL     1       9.842  70.506   2.533  1.00  0.00     0.157 A 
BRANCH   9  12
ATOM     12  O   UNL     1      10.681  72.611   1.633  1.00  0.00    -0.504 OA
ATOM     13  H   UNL     1      11.513  72.926   1.147  1.00  0.00     0.293 HD
ENDBRANCH   9  12
BRANCH  11  14
ATOM     14  O   UNL     1      10.072  70.950   3.835  1.00  0.00    -0.504 OA
ATOM     15  H   UNL     1      10.939  71.407   4.093  1.00  0.00     0.293 HD
ENDBRANCH  11  14
ENDBRANCH   1   6
TORSDOF 5
ENDMDL
MODEL 2
REMARK VINA RESULT:    -6.227      1.833      4.734
REMARK INTER + INTRA:          -7.855
REMARK INTER:                  -7.679
REMARK INTRA:                  -0.176
REMARK UNBOUND:                -0.172
REMARK SMILES CCOC(=O)c1ccc(O)c(O)c1
REMARK SMILES IDX 4 1 5 2 3 3 2 4 1 5 6 6 13 7 7 8 11 9 8 10 9 11 12 12 10 14
REMARK H PARENT 12 13 10 15
REMARK Flexibility Score: inf
ROOT
ATOM      1  C   UNL     1      10.167  68.843   1.815  1.00  0.00     0.338 C 
ATOM      2  O   UNL     1      11.084  68.034   2.126  1.00  0.00    -0.246 OA
ENDROOT
BRANCH   1   3
ATOM      3  O   UNL     1       9.317  69.357   2.803  1.00  0.00    -0.462 OA
BRANCH   3   4
ATOM      4  C   UNL     1       9.615  70.521   3.570  1.00  0.00     0.230 C 
ATOM      5  C   UNL     1       8.454  71.508   3.523  1.00  0.00     0.049 C 
ENDBRANCH   3   4
ENDBRANCH   1   3
BRANCH   1   6
ATOM      6  C   UNL     1       9.993  69.260   0.405  1.00  0.00     0.064 A 
ATOM      7  C   UNL     1       9.903  70.622   0.064  1.00  0.00     0.065 A 
ATOM      8  C   UNL     1       9.917  68.296  -0.615  1.00  0.00     0.020 A 
ATOM      9  C   UNL     1       9.740  71.016  -1.269  1.00  0.00     0.158 A 
ATOM     10  C   UNL     1       9.754  68.686  -1.946  1.00  0.00     0.051 A 
ATOM     11  C   UNL     1       9.665  70.044  -2.280  1.00  0.00     0.157 A 
BRANCH   9  12
ATOM     12  O   UNL     1       9.654  72.375  -1.568  1.00  0.00    -0.504 OA
ATOM     13  H   UNL     1       8.895  72.759  -2.119  1.00  0.00     0.293 HD
ENDBRANCH   9  12
BRANCH  11  14
ATOM     14  O   UNL     1       9.502  70.430  -3.610  1.00  0.00    -0.504 OA
ATOM     15  H   UNL     1       8.589  70.441  -4.050  1.00  0.00     0.293 HD
ENDBRANCH  11  14
ENDBRANCH   1   6
TORSDOF 5
ENDMDL
MODEL 3
REMARK VINA RESULT:    -6.216      1.768      2.766
REMARK INTER + INTRA:          -7.841
REMARK INTER:                  -7.896
REMARK INTRA:                   0.056
REMARK UNBOUND:                -0.172
REMARK SMILES CCOC(=O)c1ccc(O)c(O)c1
REMARK SMILES IDX 4 1 5 2 3 3 2 4 1 5 6 6 13 7 7 8 11 9 8 10 9 11 12 12 10 14
REMARK H PARENT 12 13 10 15
REMARK Flexibility Score: inf
ROOT
ATOM      1  C   UNL     1       8.611  68.023   0.219  1.00  0.00     0.338 C 
ATOM      2  O   UNL     1       9.060  66.971   0.753  1.00  0.00    -0.246 OA
ENDROOT
BRANCH   1   3
ATOM      3  O   UNL     1       7.578  67.945  -0.724  1.00  0.00    -0.462 OA
BRANCH   3   4
ATOM      4  C   UNL     1       7.768  68.166  -2.120  1.00  0.00     0.230 C 
ATOM      5  C   UNL     1       9.044  67.485  -2.604  1.00  0.00     0.049 C 
ENDBRANCH   3   4
ENDBRANCH   1   3
BRANCH   1   6
ATOM      6  C   UNL     1       9.166  69.342   0.595  1.00  0.00     0.064 A 
ATOM      7  C   UNL     1       9.325  69.696   1.948  1.00  0.00     0.065 A 
ATOM      8  C   UNL     1       9.545  70.261  -0.398  1.00  0.00     0.020 A 
ATOM      9  C   UNL     1       9.852  70.942   2.303  1.00  0.00     0.158 A 
ATOM     10  C   UNL     1      10.071  71.507  -0.046  1.00  0.00     0.051 A 
ATOM     11  C   UNL     1      10.228  71.854   1.301  1.00  0.00     0.157 A 
BRANCH   9  12
ATOM     12  O   UNL     1       9.995  71.258   3.654  1.00  0.00    -0.504 OA
ATOM     13  H   UNL     1       9.765  72.174   4.020  1.00  0.00     0.293 HD
ENDBRANCH   9  12
BRANCH  11  14
ATOM     14  O   UNL     1      10.752  73.098   1.649  1.00  0.00    -0.504 OA
ATOM     15  H   UNL     1      11.197  73.697   0.962  1.00  0.00     0.293 HD
ENDBRANCH  11  14
ENDBRANCH   1   6
TORSDOF 5
ENDMDL
MODEL 4
REMARK VINA RESULT:    -6.196      2.207      4.307
REMARK INTER + INTRA:          -7.816
REMARK INTER:                  -7.858
REMARK INTRA:                   0.042
REMARK UNBOUND:                -0.172
REMARK SMILES CCOC(=O)c1ccc(O)c(O)c1
REMARK SMILES IDX 4 1 5 2 3 3 2 4 1 5 6 6 13 7 7 8 11 9 8 10 9 11 12 12 10 14
REMARK H PARENT 12 13 10 15
REMARK Flexibility Score: inf
ROOT
ATOM      1  C   UNL     1      10.355  67.759   0.316  1.00  0.00     0.338 C 
ATOM      2  O   UNL     1       9.633  66.841  -0.162  1.00  0.00    -0.246 OA
ENDROOT
BRANCH   1   3
ATOM      3  O   UNL     1      11.316  67.463   1.291  1.00  0.00    -0.462 OA
BRANCH   3   4
ATOM      4  C   UNL     1      11.169  67.801   2.669  1.00  0.00     0.230 C 
ATOM      5  C   UNL     1       9.748  67.517   3.144  1.00  0.00     0.049 C 
ENDBRANCH   3   4
ENDBRANCH   1   3
BRANCH   1   6
ATOM      6  C   UNL     1      10.196  69.152  -0.161  1.00  0.00     0.064 A 
ATOM      7  C   UNL     1      10.136  69.437  -1.538  1.00  0.00     0.065 A 
ATOM      8  C   UNL     1      10.101  70.209   0.759  1.00  0.00     0.020 A 
ATOM      9  C   UNL     1       9.984  70.753  -1.988  1.00  0.00     0.158 A 
ATOM     10  C   UNL     1       9.950  71.525   0.312  1.00  0.00     0.051 A 
ATOM     11  C   UNL     1       9.890  71.803  -1.060  1.00  0.00     0.157 A 
BRANCH   9  12
ATOM     12  O   UNL     1       9.929  70.998  -3.360  1.00  0.00    -0.504 OA
ATOM     13  H   UNL     1      10.280  70.335  -4.041  1.00  0.00     0.293 HD
ENDBRANCH   9  12
BRANCH  11  14
ATOM     14  O   UNL     1       9.740  73.117  -1.503  1.00  0.00    -0.504 OA
ATOM     15  H   UNL     1      10.331  73.865  -1.156  1.00  0.00     0.293 HD
ENDBRANCH  11  14
ENDBRANCH   1   6
TORSDOF 5
ENDMDL
MODEL 5
REMARK VINA RESULT:    -6.080      1.883      5.013
REMARK INTER + INTRA:          -7.673
REMARK INTER:                  -7.416
REMARK INTRA:                  -0.257
REMARK UNBOUND:                -0.172
REMARK SMILES CCOC(=O)c1ccc(O)c(O)c1
REMARK SMILES IDX 4 1 5 2 3 3 2 4 1 5 6 6 13 7 7 8 11 9 8 10 9 11 12 12 10 14
REMARK H PARENT 12 13 10 15
REMARK Flexibility Score: inf
ROOT
ATOM      1  C   UNL     1       9.305  67.976   1.768  1.00  0.00     0.338 C 
ATOM      2  O   UNL     1       8.948  66.802   2.060  1.00  0.00    -0.246 OA
ENDROOT
BRANCH   1   3
ATOM      3  O   UNL     1       9.764  68.842   2.769  1.00  0.00    -0.462 OA
BRANCH   3   4
ATOM      4  C   UNL     1       9.069  70.019   3.173  1.00  0.00     0.230 C 
ATOM      5  C   UNL     1       9.756  71.265   2.625  1.00  0.00     0.049 C 
ENDBRANCH   3   4
ENDBRANCH   1   3
BRANCH   1   6
ATOM      6  C   UNL     1       9.247  68.441   0.363  1.00  0.00     0.064 A 
ATOM      7  C   UNL     1       8.116  68.184  -0.433  1.00  0.00     0.065 A 
ATOM      8  C   UNL     1      10.325  69.150  -0.193  1.00  0.00     0.020 A 
ATOM      9  C   UNL     1       8.061  68.625  -1.759  1.00  0.00     0.158 A 
ATOM     10  C   UNL     1      10.273  69.591  -1.518  1.00  0.00     0.051 A 
ATOM     11  C   UNL     1       9.144  69.333  -2.306  1.00  0.00     0.157 A 
BRANCH   9  12
ATOM     12  O   UNL     1       6.923  68.352  -2.518  1.00  0.00    -0.504 OA
ATOM     13  H   UNL     1       6.812  68.692  -3.466  1.00  0.00     0.293 HD
ENDBRANCH   9  12
BRANCH  11  14
ATOM     14  O   UNL     1       9.095  69.774  -3.628  1.00  0.00    -0.504 OA
ATOM     15  H   UNL     1       9.606  70.596  -3.932  1.00  0.00     0.293 HD
ENDBRANCH  11  14
ENDBRANCH   1   6
TORSDOF 5
ENDMDL
MODEL 6
REMARK VINA RESULT:    -6.078      1.567      1.860
REMARK INTER + INTRA:          -7.671
REMARK INTER:                  -7.386
REMARK INTRA:                  -0.285
REMARK UNBOUND:                -0.172
REMARK SMILES CCOC(=O)c1ccc(O)c(O)c1
REMARK SMILES IDX 4 1 5 2 3 3 2 4 1 5 6 6 13 7 7 8 11 9 8 10 9 11 12 12 10 14
REMARK H PARENT 12 13 10 15
REMARK Flexibility Score: inf
ROOT
ATOM      1  C   UNL     1       8.682  68.713  -1.638  1.00  0.00     0.338 C 
ATOM      2  O   UNL     1       7.458  68.402  -1.637  1.00  0.00    -0.246 OA
ENDROOT
BRANCH   1   3
ATOM      3  O   UNL     1       9.285  69.188  -2.810  1.00  0.00    -0.462 OA
BRANCH   3   4
ATOM      4  C   UNL     1       9.855  70.490  -2.930  1.00  0.00     0.230 C 
ATOM      5  C   UNL     1      11.371  70.403  -3.068  1.00  0.00     0.049 C 
ENDBRANCH   3   4
ENDBRANCH   1   3
BRANCH   1   6
ATOM      6  C   UNL     1       9.481  68.585  -0.399  1.00  0.00     0.064 A 
ATOM      7  C   UNL     1       9.471  69.605   0.570  1.00  0.00     0.065 A 
ATOM      8  C   UNL     1      10.260  67.438  -0.174  1.00  0.00     0.020 A 
ATOM      9  C   UNL     1      10.226  69.483   1.743  1.00  0.00     0.158 A 
ATOM     10  C   UNL     1      11.015  67.314   0.996  1.00  0.00     0.051 A 
ATOM     11  C   UNL     1      11.002  68.332   1.958  1.00  0.00     0.157 A 
BRANCH   9  12
ATOM     12  O   UNL     1      10.192  70.515   2.681  1.00  0.00    -0.504 OA
ATOM     13  H   UNL     1       9.473  71.229   2.671  1.00  0.00     0.293 HD
ENDBRANCH   9  12
BRANCH  11  14
ATOM     14  O   UNL     1      11.756  68.206   3.124  1.00  0.00    -0.504 OA
ATOM     15  H   UNL     1      12.613  68.731   3.260  1.00  0.00     0.293 HD
ENDBRANCH  11  14
ENDBRANCH   1   6
TORSDOF 5
ENDMDL
MODEL 7
REMARK VINA RESULT:    -6.033      0.967      1.988
REMARK INTER + INTRA:          -7.615
REMARK INTER:                  -7.448
REMARK INTRA:                  -0.167
REMARK UNBOUND:                -0.172
REMARK SMILES CCOC(=O)c1ccc(O)c(O)c1
REMARK SMILES IDX 4 1 5 2 3 3 2 4 1 5 6 6 13 7 7 8 11 9 8 10 9 11 12 12 10 14
REMARK H PARENT 12 13 10 15
REMARK Flexibility Score: inf
ROOT
ATOM      1  C   UNL     1       9.071  68.987  -1.625  1.00  0.00     0.338 C 
ATOM      2  O   UNL     1       7.959  68.469  -1.920  1.00  0.00    -0.246 OA
ENDROOT
BRANCH   1   3
ATOM      3  O   UNL     1      10.027  69.214  -2.623  1.00  0.00    -0.462 OA
BRANCH   3   4
ATOM      4  C   UNL     1      10.124  70.433  -3.357  1.00  0.00     0.230 C 
ATOM      5  C   UNL     1      11.552  70.967  -3.328  1.00  0.00     0.049 C 
ENDBRANCH   3   4
ENDBRANCH   1   3
BRANCH   1   6
ATOM      6  C   UNL     1       9.365  69.364  -0.224  1.00  0.00     0.064 A 
ATOM      7  C   UNL     1       9.280  68.414   0.809  1.00  0.00     0.065 A 
ATOM      8  C   UNL     1       9.736  70.682   0.091  1.00  0.00     0.020 A 
ATOM      9  C   UNL     1       9.560  68.770   2.133  1.00  0.00     0.158 A 
ATOM     10  C   UNL     1      10.015  71.042   1.412  1.00  0.00     0.051 A 
ATOM     11  C   UNL     1       9.930  70.091   2.437  1.00  0.00     0.157 A 
BRANCH   9  12
ATOM     12  O   UNL     1       9.465  67.801   3.131  1.00  0.00    -0.504 OA
ATOM     13  H   UNL     1       9.228  66.837   2.926  1.00  0.00     0.293 HD
ENDBRANCH   9  12
BRANCH  11  14
ATOM     14  O   UNL     1      10.209  70.453   3.755  1.00  0.00    -0.504 OA
ATOM     15  H   UNL     1      10.200  71.422   4.052  1.00  0.00     0.293 HD
ENDBRANCH  11  14
ENDBRANCH   1   6
TORSDOF 5
ENDMDL
MODEL 8
REMARK VINA RESULT:    -6.007      1.286      1.976
REMARK INTER + INTRA:          -7.584
REMARK INTER:                  -7.268
REMARK INTRA:                  -0.316
REMARK UNBOUND:                -0.172
REMARK SMILES CCOC(=O)c1ccc(O)c(O)c1
REMARK SMILES IDX 4 1 5 2 3 3 2 4 1 5 6 6 13 7 7 8 11 9 8 10 9 11 12 12 10 14
REMARK H PARENT 12 13 10 15
REMARK Flexibility Score: inf
ROOT
ATOM      1  C   UNL     1      10.104  69.407  -1.410  1.00  0.00     0.338 C 
ATOM      2  O   UNL     1      10.467  70.194  -2.327  1.00  0.00    -0.246 OA
ENDROOT
BRANCH   1   3
ATOM      3  O   UNL     1       9.876  68.054  -1.693  1.00  0.00    -0.462 OA
BRANCH   3   4
ATOM      4  C   UNL     1       8.864  67.597  -2.588  1.00  0.00     0.230 C 
ATOM      5  C   UNL     1       7.509  68.189  -2.216  1.00  0.00     0.049 C 
ENDBRANCH   3   4
ENDBRANCH   1   3
BRANCH   1   6
ATOM      6  C   UNL     1       9.928  69.909  -0.028  1.00  0.00     0.064 A 
ATOM      7  C   UNL     1      10.070  71.278   0.262  1.00  0.00     0.065 A 
ATOM      8  C   UNL     1       9.614  69.020   1.014  1.00  0.00     0.020 A 
ATOM      9  C   UNL     1       9.902  71.752   1.568  1.00  0.00     0.158 A 
ATOM     10  C   UNL     1       9.446  69.491   2.319  1.00  0.00     0.051 A 
ATOM     11  C   UNL     1       9.588  70.855   2.602  1.00  0.00     0.157 A 
BRANCH   9  12
ATOM     12  O   UNL     1      10.050  73.116   1.818  1.00  0.00    -0.504 OA
ATOM     13  H   UNL     1       9.327  73.788   1.589  1.00  0.00     0.293 HD
ENDBRANCH   9  12
BRANCH  11  14
ATOM     14  O   UNL     1       9.420  71.322   3.906  1.00  0.00    -0.504 OA
ATOM     15  H   UNL     1       9.485  70.700   4.704  1.00  0.00     0.293 HD
ENDBRANCH  11  14
ENDBRANCH   1   6
TORSDOF 5
ENDMDL
MODEL 9
REMARK VINA RESULT:    -5.969      1.418      4.976
REMARK INTER + INTRA:          -7.536
REMARK INTER:                  -7.340
REMARK INTRA:                  -0.196
REMARK UNBOUND:                -0.172
REMARK SMILES CCOC(=O)c1ccc(O)c(O)c1
REMARK SMILES IDX 4 1 5 2 3 3 2 4 1 5 6 6 13 7 7 8 11 9 8 10 9 11 12 12 10 14
REMARK H PARENT 12 13 10 15
REMARK Flexibility Score: inf
ROOT
ATOM      1  C   UNL     1      10.280  70.968   1.511  1.00  0.00     0.338 C 
ATOM      2  O   UNL     1      10.792  72.102   1.302  1.00  0.00    -0.246 OA
ENDROOT
BRANCH   1   3
ATOM      3  O   UNL     1       9.949  70.575   2.814  1.00  0.00    -0.462 OA
BRANCH   3   4
ATOM      4  C   UNL     1       8.637  70.683   3.361  1.00  0.00     0.230 C 
ATOM      5  C   UNL     1       8.343  72.120   3.776  1.00  0.00     0.049 C 
ENDBRANCH   3   4
ENDBRANCH   1   3
BRANCH   1   6
ATOM      6  C   UNL     1      10.017  70.052   0.378  1.00  0.00     0.064 A 
ATOM      7  C   UNL     1       9.866  70.551  -0.929  1.00  0.00     0.065 A 
ATOM      8  C   UNL     1       9.916  68.668   0.594  1.00  0.00     0.020 A 
ATOM      9  C   UNL     1       9.619  69.685  -2.000  1.00  0.00     0.158 A 
ATOM     10  C   UNL     1       9.669  67.801  -0.473  1.00  0.00     0.051 A 
ATOM     11  C   UNL     1       9.520  68.302  -1.772  1.00  0.00     0.157 A 
BRANCH   9  12
ATOM     12  O   UNL     1       9.475  70.216  -3.282  1.00  0.00    -0.504 OA
ATOM     13  H   UNL     1       8.839  70.979  -3.480  1.00  0.00     0.293 HD
ENDBRANCH   9  12
BRANCH  11  14
ATOM     14  O   UNL     1       9.273  67.435  -2.836  1.00  0.00    -0.504 OA
ATOM     15  H   UNL     1       8.578  66.700  -2.770  1.00  0.00     0.293 HD
ENDBRANCH  11  14
ENDBRANCH   1   6
TORSDOF 5
ENDMDL
