MODEL 1
REMARK VINA RESULT:    -3.227      0.000      0.000
REMARK INTER + INTRA:          -5.463
REMARK INTER:                  -4.359
REMARK INTRA:                  -1.104
REMARK UNBOUND:                -1.104
REMARK SMILES CC(=O)CCC=C(C)CCC=C(C)C
REMARK SMILES IDX 7 1 6 2 8 3 9 4 10 5 11 6 13 7 12 8 14 9 5 10 4 11 2 12 3 13
REMARK SMILES IDX 1 14
REMARK H PARENT
REMARK Flexibility Score: inf
ROOT
ATOM      1  C   UNL     1      -1.702  -6.131 -14.555  1.00  0.00    -0.077 C 
ATOM      2  C   UNL     1      -1.177  -5.153 -15.331  1.00  0.00    -0.028 C 
ATOM      3  C   UNL     1      -3.096  -6.031 -13.983  1.00  0.00     0.039 C 
ENDROOT
BRANCH   1   4
ATOM      4  C   UNL     1      -0.876  -7.367 -14.275  1.00  0.00     0.034 C 
BRANCH   4   5
ATOM      5  C   UNL     1      -0.953  -8.352 -15.447  1.00  0.00     0.032 C 
BRANCH   5   6
ATOM      6  C   UNL     1      -2.376  -8.536 -15.914  1.00  0.00    -0.028 C 
ATOM      7  C   UNL     1      -1.883  -7.478 -18.122  1.00  0.00     0.039 C 
ATOM      8  C   UNL     1      -2.809  -8.141 -17.131  1.00  0.00    -0.080 C 
ATOM      9  C   UNL     1      -4.253  -8.374 -17.496  1.00  0.00     0.039 C 
ENDBRANCH   5   6
ENDBRANCH   4   5
ENDBRANCH   1   4
BRANCH   2  10
ATOM     10  C   UNL     1      -1.871  -3.853 -15.649  1.00  0.00     0.035 C 
BRANCH  10  11
ATOM     11  C   UNL     1      -2.461  -3.886 -17.062  1.00  0.00     0.079 C 
BRANCH  11  12
ATOM     12  C   UNL     1      -3.958  -4.021 -17.013  1.00  0.00     0.130 C 
ATOM     13  O   UNL     1      -4.525  -4.776 -17.789  1.00  0.00    -0.300 OA
ATOM     14  C   UNL     1      -4.758  -3.253 -16.004  1.00  0.00     0.087 C 
ENDBRANCH  11  12
ENDBRANCH  10  11
ENDBRANCH   2  10
TORSDOF 6
ENDMDL
MODEL 2
REMARK VINA RESULT:    -2.935      1.458      4.207
REMARK INTER + INTRA:          -5.069
REMARK INTER:                  -3.997
REMARK INTRA:                  -1.071
REMARK UNBOUND:                -1.104
REMARK SMILES CC(=O)CCC=C(C)CCC=C(C)C
REMARK SMILES IDX 7 1 6 2 8 3 9 4 10 5 11 6 13 7 12 8 14 9 5 10 4 11 2 12 3 13
REMARK SMILES IDX 1 14
REMARK H PARENT
REMARK Flexibility Score: inf
ROOT
ATOM      1  C   UNL     1      -1.763  -6.275 -14.532  1.00  0.00    -0.077 C 
ATOM      2  C   UNL     1      -0.892  -7.222 -14.956  1.00  0.00    -0.028 C 
ATOM      3  C   UNL     1      -3.128  -6.633 -13.993  1.00  0.00     0.039 C 
ENDROOT
BRANCH   1   4
ATOM      4  C   UNL     1      -1.346  -4.821 -14.579  1.00  0.00     0.034 C 
BRANCH   4   5
ATOM      5  C   UNL     1      -1.637  -4.216 -15.957  1.00  0.00     0.032 C 
BRANCH   5   6
ATOM      6  C   UNL     1      -2.985  -3.538 -15.984  1.00  0.00    -0.028 C 
ATOM      7  C   UNL     1      -3.942  -5.304 -17.469  1.00  0.00     0.039 C 
ATOM      8  C   UNL     1      -4.041  -4.026 -16.670  1.00  0.00    -0.080 C 
ATOM      9  C   UNL     1      -5.344  -3.269 -16.628  1.00  0.00     0.039 C 
ENDBRANCH   5   6
ENDBRANCH   4   5
ENDBRANCH   1   4
BRANCH   2  10
ATOM     10  C   UNL     1      -1.196  -8.698 -15.007  1.00  0.00     0.035 C 
BRANCH  10  11
ATOM     11  C   UNL     1      -0.943  -9.253 -16.412  1.00  0.00     0.079 C 
BRANCH  11  12
ATOM     12  C   UNL     1      -1.781  -8.530 -17.431  1.00  0.00     0.130 C 
ATOM     13  O   UNL     1      -1.279  -7.653 -18.117  1.00  0.00    -0.300 OA
ATOM     14  C   UNL     1      -3.222  -8.896 -17.628  1.00  0.00     0.087 C 
ENDBRANCH  11  12
ENDBRANCH  10  11
ENDBRANCH   2  10
TORSDOF 6
ENDMDL
MODEL 3
REMARK VINA RESULT:    -2.804     15.615     17.143
REMARK INTER + INTRA:          -4.892
REMARK INTER:                  -4.221
REMARK INTRA:                  -0.672
REMARK UNBOUND:                -1.104
REMARK SMILES CC(=O)CCC=C(C)CCC=C(C)C
REMARK SMILES IDX 7 1 6 2 8 3 9 4 10 5 11 6 13 7 12 8 14 9 5 10 4 11 2 12 3 13
REMARK SMILES IDX 1 14
REMARK H PARENT
REMARK Flexibility Score: inf
ROOT
ATOM      1  C   UNL     1      -1.931  -6.154   1.906  1.00  0.00    -0.077 C 
ATOM      2  C   UNL     1      -1.351  -4.936   1.790  1.00  0.00    -0.028 C 
ATOM      3  C   UNL     1      -3.418  -6.309   2.125  1.00  0.00     0.039 C 
ENDROOT
BRANCH   1   4
ATOM      4  C   UNL     1      -1.069  -7.392   1.790  1.00  0.00     0.034 C 
BRANCH   4   5
ATOM      5  C   UNL     1      -1.925  -8.661   1.874  1.00  0.00     0.032 C 
BRANCH   5   6
ATOM      6  C   UNL     1      -2.328  -9.141   0.501  1.00  0.00    -0.028 C 
ATOM      7  C   UNL     1      -4.730  -9.303   1.165  1.00  0.00     0.039 C 
ATOM      8  C   UNL     1      -3.603  -9.436   0.168  1.00  0.00    -0.080 C 
ATOM      9  C   UNL     1      -3.896  -9.908  -1.233  1.00  0.00     0.039 C 
ENDBRANCH   5   6
ENDBRANCH   4   5
ENDBRANCH   1   4
BRANCH   2  10
ATOM     10  C   UNL     1      -2.082  -3.626   1.933  1.00  0.00     0.035 C 
BRANCH  10  11
ATOM     11  C   UNL     1      -2.390  -3.025   0.557  1.00  0.00     0.079 C 
BRANCH  11  12
ATOM     12  C   UNL     1      -3.862  -3.094   0.261  1.00  0.00     0.130 C 
ATOM     13  O   UNL     1      -4.243  -3.266  -0.887  1.00  0.00    -0.300 OA
ATOM     14  C   UNL     1      -4.867  -2.978   1.368  1.00  0.00     0.087 C 
ENDBRANCH  11  12
ENDBRANCH  10  11
ENDBRANCH   2  10
TORSDOF 6
ENDMDL
MODEL 4
REMARK VINA RESULT:    -2.607      1.754      4.748
REMARK INTER + INTRA:          -4.626
REMARK INTER:                  -4.145
REMARK INTRA:                  -0.481
REMARK UNBOUND:                -1.104
REMARK SMILES CC(=O)CCC=C(C)CCC=C(C)C
REMARK SMILES IDX 7 1 6 2 8 3 9 4 10 5 11 6 13 7 12 8 14 9 5 10 4 11 2 12 3 13
REMARK SMILES IDX 1 14
REMARK H PARENT
REMARK Flexibility Score: inf
ROOT
ATOM      1  C   UNL     1      -4.558  -4.230 -17.056  1.00  0.00    -0.077 C 
ATOM      2  C   UNL     1      -3.863  -5.392 -17.033  1.00  0.00    -0.028 C 
ATOM      3  C   UNL     1      -5.584  -3.937 -18.124  1.00  0.00     0.039 C 
ENDROOT
BRANCH   1   4
ATOM      4  C   UNL     1      -4.313  -3.208 -15.967  1.00  0.00     0.034 C 
BRANCH   4   5
ATOM      5  C   UNL     1      -2.827  -3.150 -15.598  1.00  0.00     0.032 C 
BRANCH   5   6
ATOM      6  C   UNL     1      -2.521  -4.038 -14.416  1.00  0.00    -0.028 C 
ATOM      7  C   UNL     1      -0.875  -5.376 -15.734  1.00  0.00     0.039 C 
ATOM      8  C   UNL     1      -1.633  -5.055 -14.469  1.00  0.00    -0.080 C 
ATOM      9  C   UNL     1      -1.404  -5.880 -13.229  1.00  0.00     0.039 C 
ENDBRANCH   5   6
ENDBRANCH   4   5
ENDBRANCH   1   4
BRANCH   2  10
ATOM     10  C   UNL     1      -3.974  -6.473 -18.079  1.00  0.00     0.035 C 
BRANCH  10  11
ATOM     11  C   UNL     1      -4.257  -7.830 -17.427  1.00  0.00     0.079 C 
BRANCH  11  12
ATOM     12  C   UNL     1      -2.976  -8.498 -17.007  1.00  0.00     0.130 C 
ATOM     13  O   UNL     1      -2.258  -9.015 -17.849  1.00  0.00    -0.300 OA
ATOM     14  C   UNL     1      -2.564  -8.512 -15.566  1.00  0.00     0.087 C 
ENDBRANCH  11  12
ENDBRANCH  10  11
ENDBRANCH   2  10
TORSDOF 6
ENDMDL
MODEL 5
REMARK VINA RESULT:    -2.412      1.772      4.624
REMARK INTER + INTRA:          -4.363
REMARK INTER:                  -3.729
REMARK INTRA:                  -0.634
REMARK UNBOUND:                -1.104
REMARK SMILES CC(=O)CCC=C(C)CCC=C(C)C
REMARK SMILES IDX 7 1 6 2 8 3 9 4 10 5 11 6 13 7 12 8 14 9 5 10 4 11 2 12 3 13
REMARK SMILES IDX 1 14
REMARK H PARENT
REMARK Flexibility Score: inf
ROOT
ATOM      1  C   UNL     1      -2.898  -7.374 -16.937  1.00  0.00    -0.077 C 
ATOM      2  C   UNL     1      -1.688  -7.717 -16.436  1.00  0.00    -0.028 C 
ATOM      3  C   UNL     1      -4.184  -7.880 -16.328  1.00  0.00     0.039 C 
ENDROOT
BRANCH   1   4
ATOM      4  C   UNL     1      -2.963  -6.439 -18.125  1.00  0.00     0.034 C 
BRANCH   4   5
ATOM      5  C   UNL     1      -2.938  -4.976 -17.669  1.00  0.00     0.032 C 
BRANCH   5   6
ATOM      6  C   UNL     1      -4.317  -4.363 -17.718  1.00  0.00    -0.028 C 
ATOM      7  C   UNL     1      -3.949  -3.145 -15.569  1.00  0.00     0.039 C 
ATOM      8  C   UNL     1      -4.786  -3.528 -16.766  1.00  0.00    -0.080 C 
ATOM      9  C   UNL     1      -6.179  -2.972 -16.913  1.00  0.00     0.039 C 
ENDBRANCH   5   6
ENDBRANCH   4   5
ENDBRANCH   1   4
BRANCH   2  10
ATOM     10  C   UNL     1      -1.479  -8.674 -15.290  1.00  0.00     0.035 C 
BRANCH  10  11
ATOM     11  C   UNL     1      -0.970  -7.931 -14.051  1.00  0.00     0.079 C 
BRANCH  11  12
ATOM     12  C   UNL     1      -1.659  -6.602 -13.904  1.00  0.00     0.130 C 
ATOM     13  O   UNL     1      -2.766  -6.546 -13.390  1.00  0.00    -0.300 OA
ATOM     14  C   UNL     1      -0.987  -5.342 -14.361  1.00  0.00     0.087 C 
ENDBRANCH  11  12
ENDBRANCH  10  11
ENDBRANCH   2  10
TORSDOF 6
ENDMDL
MODEL 6
REMARK VINA RESULT:    -2.132      1.802      4.195
REMARK INTER + INTRA:          -3.984
REMARK INTER:                  -2.725
REMARK INTRA:                  -1.260
REMARK UNBOUND:                -1.104
REMARK SMILES CC(=O)CCC=C(C)CCC=C(C)C
REMARK SMILES IDX 7 1 6 2 8 3 9 4 10 5 11 6 13 7 12 8 14 9 5 10 4 11 2 12 3 13
REMARK SMILES IDX 1 14
REMARK H PARENT
REMARK Flexibility Score: inf
ROOT
ATOM      1  C   UNL     1      -2.091  -5.771 -14.941  1.00  0.00    -0.077 C 
ATOM      2  C   UNL     1      -1.339  -5.916 -16.057  1.00  0.00    -0.028 C 
ATOM      3  C   UNL     1      -2.632  -6.962 -14.185  1.00  0.00     0.039 C 
ENDROOT
BRANCH   1   4
ATOM      4  C   UNL     1      -2.378  -4.377 -14.425  1.00  0.00     0.034 C 
BRANCH   4   5
ATOM      5  C   UNL     1      -2.535  -3.389 -15.586  1.00  0.00     0.032 C 
BRANCH   5   6
ATOM      6  C   UNL     1      -3.986  -3.049 -15.824  1.00  0.00    -0.028 C 
ATOM      7  C   UNL     1      -4.044  -4.379 -17.937  1.00  0.00     0.039 C 
ATOM      8  C   UNL     1      -4.682  -3.495 -16.892  1.00  0.00    -0.080 C 
ATOM      9  C   UNL     1      -6.128  -3.095 -17.033  1.00  0.00     0.039 C 
ENDBRANCH   5   6
ENDBRANCH   4   5
ENDBRANCH   1   4
BRANCH   2  10
ATOM     10  C   UNL     1      -1.018  -7.240 -16.703  1.00  0.00     0.035 C 
BRANCH  10  11
ATOM     11  C   UNL     1      -1.798  -7.407 -18.011  1.00  0.00     0.079 C 
BRANCH  11  12
ATOM     12  C   UNL     1      -2.865  -8.457 -17.866  1.00  0.00     0.130 C 
ATOM     13  O   UNL     1      -2.607  -9.623 -18.125  1.00  0.00    -0.300 OA
ATOM     14  C   UNL     1      -4.235  -8.087 -17.384  1.00  0.00     0.087 C 
ENDBRANCH  11  12
ENDBRANCH  10  11
ENDBRANCH   2  10
TORSDOF 6
ENDMDL
MODEL 7
REMARK VINA RESULT:    -1.110      1.265      4.314
REMARK INTER + INTRA:          -2.604
REMARK INTER:                  -2.517
REMARK INTRA:                  -0.087
REMARK UNBOUND:                -1.104
REMARK SMILES CC(=O)CCC=C(C)CCC=C(C)C
REMARK SMILES IDX 7 1 6 2 8 3 9 4 10 5 11 6 13 7 12 8 14 9 5 10 4 11 2 12 3 13
REMARK SMILES IDX 1 14
REMARK H PARENT
REMARK Flexibility Score: inf
ROOT
ATOM      1  C   UNL     1      -2.164  -6.692 -15.246  1.00  0.00    -0.077 C 
ATOM      2  C   UNL     1      -2.543  -7.955 -15.552  1.00  0.00    -0.028 C 
ATOM      3  C   UNL     1      -0.875  -6.099 -15.764  1.00  0.00     0.039 C 
ENDROOT
BRANCH   1   4
ATOM      4  C   UNL     1      -3.070  -5.844 -14.379  1.00  0.00     0.034 C 
BRANCH   4   5
ATOM      5  C   UNL     1      -2.971  -4.365 -14.771  1.00  0.00     0.032 C 
BRANCH   5   6
ATOM      6  C   UNL     1      -4.164  -3.935 -15.590  1.00  0.00    -0.028 C 
ATOM      7  C   UNL     1      -2.704  -2.992 -17.384  1.00  0.00     0.039 C 
ATOM      8  C   UNL     1      -4.052  -3.309 -16.782  1.00  0.00    -0.080 C 
ATOM      9  C   UNL     1      -5.310  -2.923 -17.517  1.00  0.00     0.039 C 
ENDBRANCH   5   6
ENDBRANCH   4   5
ENDBRANCH   1   4
BRANCH   2  10
ATOM     10  C   UNL     1      -1.716  -8.920 -16.364  1.00  0.00     0.035 C 
BRANCH  10  11
ATOM     11  C   UNL     1      -2.114  -8.862 -17.842  1.00  0.00     0.079 C 
BRANCH  11  12
ATOM     12  C   UNL     1      -3.424  -8.144 -18.016  1.00  0.00     0.130 C 
ATOM     13  O   UNL     1      -3.441  -6.925 -18.097  1.00  0.00    -0.300 OA
ATOM     14  C   UNL     1      -4.706  -8.915 -18.114  1.00  0.00     0.087 C 
ENDBRANCH  11  12
ENDBRANCH  10  11
ENDBRANCH   2  10
TORSDOF 6
ENDMDL
