MODEL 1
REMARK VINA RESULT:    -3.921      0.000      0.000
REMARK INTER + INTRA:         -10.494
REMARK INTER:                  -7.589
REMARK INTRA:                  -2.906
REMARK UNBOUND:                -2.906
REMARK SMILES CCCCCCCCCCCCCCCCCC(=O)[O-]
REMARK SMILES IDX 10 1 11 2 12 3 13 4 14 5 15 6 16 7 17 8 18 9 19 10 20 11
REMARK SMILES IDX 9 12 8 13 7 14 6 15 5 16 4 17 3 18 2 19 1 20
REMARK H PARENT
REMARK Flexibility Score: inf
ROOT
ATOM      1  C   UNL     1      26.892   4.902  10.331  1.00  0.00     0.000 C 
ENDROOT
BRANCH   1   2
ATOM      2  C   UNL     1      27.996   3.857  10.562  1.00  0.00     0.000 C 
BRANCH   2   3
ATOM      3  C   UNL     1      28.610   3.328   9.253  1.00  0.00     0.000 C 
BRANCH   3   4
ATOM      4  C   UNL     1      28.385   1.829   8.972  1.00  0.00     0.000 C 
BRANCH   4   5
ATOM      5  C   UNL     1      28.532   1.467   7.484  1.00  0.00     0.000 C 
BRANCH   5   6
ATOM      6  C   UNL     1      28.190  -0.004   7.188  1.00  0.00     0.000 C 
BRANCH   6   7
ATOM      7  C   UNL     1      27.195  -0.230   6.035  1.00  0.00     0.006 C 
BRANCH   7   8
ATOM      8  C   UNL     1      27.261   0.866   4.962  1.00  0.00     0.053 C 
BRANCH   8   9
ATOM      9  C   UNL     1      26.152   0.695   3.972  1.00  0.00     0.041 C 
ATOM     10  O   UNL     1      24.953   0.692   4.358  1.00  0.00    -0.550 OA
ATOM     11  O   UNL     1      26.439   0.590   2.617  1.00  0.00    -0.550 OA
ENDBRANCH   8   9
ENDBRANCH   7   8
ENDBRANCH   6   7
ENDBRANCH   5   6
ENDBRANCH   4   5
ENDBRANCH   3   4
ENDBRANCH   2   3
ENDBRANCH   1   2
BRANCH   1  12
ATOM     12  C   UNL     1      27.037   5.638   8.987  1.00  0.00     0.000 C 
BRANCH  12  13
ATOM     13  C   UNL     1      25.694   6.118   8.396  1.00  0.00    -0.000 C 
BRANCH  13  14
ATOM     14  C   UNL     1      25.513   5.658   6.939  1.00  0.00    -0.000 C 
BRANCH  14  15
ATOM     15  C   UNL     1      25.994   4.216   6.709  1.00  0.00    -0.000 C 
BRANCH  15  16
ATOM     16  C   UNL     1      24.831   3.208   6.675  1.00  0.00    -0.000 C 
BRANCH  16  17
ATOM     17  C   UNL     1      24.922   2.181   7.818  1.00  0.00    -0.000 C 
BRANCH  17  18
ATOM     18  C   UNL     1      24.381   2.716   9.163  1.00  0.00    -0.000 C 
BRANCH  18  19
ATOM     19  C   UNL     1      22.982   3.344   9.054  1.00  0.00    -0.003 C 
ATOM     20  C   UNL     1      21.857   2.319   9.188  1.00  0.00     0.004 C 
ENDBRANCH  18  19
ENDBRANCH  17  18
ENDBRANCH  16  17
ENDBRANCH  15  16
ENDBRANCH  14  15
ENDBRANCH  13  14
ENDBRANCH  12  13
ENDBRANCH   1  12
TORSDOF 16
ENDMDL
MODEL 2
REMARK VINA RESULT:    -3.800      2.024      3.700
REMARK INTER + INTRA:         -10.261
REMARK INTER:                  -8.449
REMARK INTRA:                  -1.812
REMARK UNBOUND:                -2.906
REMARK SMILES CCCCCCCCCCCCCCCCCC(=O)[O-]
REMARK SMILES IDX 10 1 11 2 12 3 13 4 14 5 15 6 16 7 17 8 18 9 19 10 20 11
REMARK SMILES IDX 9 12 8 13 7 14 6 15 5 16 4 17 3 18 2 19 1 20
REMARK H PARENT
REMARK Flexibility Score: inf
ROOT
ATOM      1  C   UNL     1      28.384   2.558   7.831  1.00  0.00     0.000 C 
ENDROOT
BRANCH   1   2
ATOM      2  C   UNL     1      27.896   1.397   8.712  1.00  0.00     0.000 C 
BRANCH   2   3
ATOM      3  C   UNL     1      28.896   0.228   8.780  1.00  0.00     0.000 C 
BRANCH   3   4
ATOM      4  C   UNL     1      28.439  -0.988   9.610  1.00  0.00     0.000 C 
BRANCH   4   5
ATOM      5  C   UNL     1      28.233  -2.253   8.759  1.00  0.00     0.000 C 
BRANCH   5   6
ATOM      6  C   UNL     1      28.248  -1.968   7.246  1.00  0.00     0.000 C 
BRANCH   6   7
ATOM      7  C   UNL     1      26.881  -2.060   6.544  1.00  0.00     0.006 C 
BRANCH   7   8
ATOM      8  C   UNL     1      26.280  -0.685   6.219  1.00  0.00     0.053 C 
BRANCH   8   9
ATOM      9  C   UNL     1      26.765  -0.205   4.887  1.00  0.00     0.041 C 
ATOM     10  O   UNL     1      26.661  -0.943   3.872  1.00  0.00    -0.550 OA
ATOM     11  O   UNL     1      27.285   1.077   4.757  1.00  0.00    -0.550 OA
ENDBRANCH   8   9
ENDBRANCH   7   8
ENDBRANCH   6   7
ENDBRANCH   5   6
ENDBRANCH   4   5
ENDBRANCH   3   4
ENDBRANCH   2   3
ENDBRANCH   1   2
BRANCH   1  12
ATOM     12  C   UNL     1      28.201   3.933   8.497  1.00  0.00     0.000 C 
BRANCH  12  13
ATOM     13  C   UNL     1      27.997   3.859  10.024  1.00  0.00    -0.000 C 
BRANCH  13  14
ATOM     14  C   UNL     1      26.856   4.779  10.495  1.00  0.00    -0.000 C 
BRANCH  14  15
ATOM     15  C   UNL     1      25.473   4.122  10.363  1.00  0.00    -0.000 C 
BRANCH  15  16
ATOM     16  C   UNL     1      24.419   5.086   9.788  1.00  0.00    -0.000 C 
BRANCH  16  17
ATOM     17  C   UNL     1      24.990   5.958   8.655  1.00  0.00    -0.000 C 
BRANCH  17  18
ATOM     18  C   UNL     1      24.808   7.473   8.901  1.00  0.00    -0.000 C 
BRANCH  18  19
ATOM     19  C   UNL     1      26.103   8.283   8.724  1.00  0.00    -0.003 C 
ATOM     20  C   UNL     1      26.946   7.806   7.543  1.00  0.00     0.004 C 
ENDBRANCH  18  19
ENDBRANCH  17  18
ENDBRANCH  16  17
ENDBRANCH  15  16
ENDBRANCH  14  15
ENDBRANCH  13  14
ENDBRANCH  12  13
ENDBRANCH   1  12
TORSDOF 16
ENDMDL
MODEL 3
REMARK VINA RESULT:    -3.793      3.080      6.279
REMARK INTER + INTRA:         -10.246
REMARK INTER:                  -7.285
REMARK INTRA:                  -2.961
REMARK UNBOUND:                -2.906
REMARK SMILES CCCCCCCCCCCCCCCCCC(=O)[O-]
REMARK SMILES IDX 10 1 11 2 12 3 13 4 14 5 15 6 16 7 17 8 18 9 19 10 20 11
REMARK SMILES IDX 9 12 8 13 7 14 6 15 5 16 4 17 3 18 2 19 1 20
REMARK H PARENT
REMARK Flexibility Score: inf
ROOT
ATOM      1  C   UNL     1      25.682   4.972   7.442  1.00  0.00     0.000 C 
ENDROOT
BRANCH   1   2
ATOM      2  C   UNL     1      25.428   6.411   6.968  1.00  0.00     0.000 C 
BRANCH   2   3
ATOM      3  C   UNL     1      26.570   7.378   7.331  1.00  0.00     0.000 C 
BRANCH   3   4
ATOM      4  C   UNL     1      26.347   8.221   8.602  1.00  0.00     0.000 C 
BRANCH   4   5
ATOM      5  C   UNL     1      24.868   8.565   8.843  1.00  0.00     0.000 C 
BRANCH   5   6
ATOM      6  C   UNL     1      24.276   7.844  10.068  1.00  0.00     0.000 C 
BRANCH   6   7
ATOM      7  C   UNL     1      22.822   7.362   9.910  1.00  0.00     0.006 C 
BRANCH   7   8
ATOM      8  C   UNL     1      22.181   7.810   8.590  1.00  0.00     0.053 C 
BRANCH   8   9
ATOM      9  C   UNL     1      21.547   6.647   7.896  1.00  0.00     0.041 C 
ATOM     10  O   UNL     1      21.958   6.284   6.762  1.00  0.00    -0.550 OA
ATOM     11  O   UNL     1      20.534   5.930   8.523  1.00  0.00    -0.550 OA
ENDBRANCH   8   9
ENDBRANCH   7   8
ENDBRANCH   6   7
ENDBRANCH   5   6
ENDBRANCH   4   5
ENDBRANCH   3   4
ENDBRANCH   2   3
ENDBRANCH   1   2
BRANCH   1  12
ATOM     12  C   UNL     1      24.668   4.502   8.501  1.00  0.00     0.000 C 
BRANCH  12  13
ATOM     13  C   UNL     1      25.312   4.133   9.854  1.00  0.00    -0.000 C 
BRANCH  13  14
ATOM     14  C   UNL     1      26.691   4.793  10.031  1.00  0.00    -0.000 C 
BRANCH  14  15
ATOM     15  C   UNL     1      27.826   3.765  10.169  1.00  0.00    -0.000 C 
BRANCH  15  16
ATOM     16  C   UNL     1      28.780   3.781   8.961  1.00  0.00    -0.000 C 
BRANCH  16  17
ATOM     17  C   UNL     1      28.501   2.620   7.988  1.00  0.00    -0.000 C 
BRANCH  17  18
ATOM     18  C   UNL     1      28.054   1.323   8.699  1.00  0.00    -0.000 C 
BRANCH  18  19
ATOM     19  C   UNL     1      27.129   0.442   7.842  1.00  0.00    -0.003 C 
ATOM     20  C   UNL     1      25.778   1.096   7.560  1.00  0.00     0.004 C 
ENDBRANCH  18  19
ENDBRANCH  17  18
ENDBRANCH  16  17
ENDBRANCH  15  16
ENDBRANCH  14  15
ENDBRANCH  13  14
ENDBRANCH  12  13
ENDBRANCH   1  12
TORSDOF 16
ENDMDL
MODEL 4
REMARK VINA RESULT:    -3.778      1.251      2.877
REMARK INTER + INTRA:         -10.217
REMARK INTER:                  -7.691
REMARK INTRA:                  -2.526
REMARK UNBOUND:                -2.906
REMARK SMILES CCCCCCCCCCCCCCCCCC(=O)[O-]
REMARK SMILES IDX 10 1 11 2 12 3 13 4 14 5 15 6 16 7 17 8 18 9 19 10 20 11
REMARK SMILES IDX 9 12 8 13 7 14 6 15 5 16 4 17 3 18 2 19 1 20
REMARK H PARENT
REMARK Flexibility Score: inf
ROOT
ATOM      1  C   UNL     1      28.512   2.694   8.187  1.00  0.00     0.000 C 
ENDROOT
BRANCH   1   2
ATOM      2  C   UNL     1      28.608   1.307   8.843  1.00  0.00     0.000 C 
BRANCH   2   3
ATOM      3  C   UNL     1      28.761   0.164   7.821  1.00  0.00     0.000 C 
BRANCH   3   4
ATOM      4  C   UNL     1      27.572  -0.813   7.737  1.00  0.00     0.000 C 
BRANCH   4   5
ATOM      5  C   UNL     1      26.818  -0.728   6.399  1.00  0.00     0.000 C 
BRANCH   5   6
ATOM      6  C   UNL     1      27.269   0.460   5.529  1.00  0.00     0.000 C 
BRANCH   6   7
ATOM      7  C   UNL     1      26.263   0.908   4.454  1.00  0.00     0.006 C 
BRANCH   7   8
ATOM      8  C   UNL     1      26.622   0.407   3.049  1.00  0.00     0.053 C 
BRANCH   8   9
ATOM      9  C   UNL     1      25.389   0.274   2.211  1.00  0.00     0.041 C 
ATOM     10  O   UNL     1      24.287  -0.019   2.747  1.00  0.00    -0.550 OA
ATOM     11  O   UNL     1      25.447   0.523   0.845  1.00  0.00    -0.550 OA
ENDBRANCH   8   9
ENDBRANCH   7   8
ENDBRANCH   6   7
ENDBRANCH   5   6
ENDBRANCH   4   5
ENDBRANCH   3   4
ENDBRANCH   2   3
ENDBRANCH   1   2
BRANCH   1  12
ATOM     12  C   UNL     1      28.632   3.845   9.201  1.00  0.00     0.000 C 
BRANCH  12  13
ATOM     13  C   UNL     1      27.563   3.804  10.314  1.00  0.00    -0.000 C 
BRANCH  13  14
ATOM     14  C   UNL     1      26.727   5.095  10.353  1.00  0.00    -0.000 C 
BRANCH  14  15
ATOM     15  C   UNL     1      26.832   5.909   9.054  1.00  0.00    -0.000 C 
BRANCH  15  16
ATOM     16  C   UNL     1      25.503   5.948   8.278  1.00  0.00    -0.000 C 
BRANCH  16  17
ATOM     17  C   UNL     1      25.670   5.483   6.820  1.00  0.00    -0.000 C 
BRANCH  17  18
ATOM     18  C   UNL     1      25.698   3.945   6.670  1.00  0.00    -0.000 C 
BRANCH  18  19
ATOM     19  C   UNL     1      24.513   3.241   7.354  1.00  0.00    -0.003 C 
ATOM     20  C   UNL     1      24.936   2.019   8.167  1.00  0.00     0.004 C 
ENDBRANCH  18  19
ENDBRANCH  17  18
ENDBRANCH  16  17
ENDBRANCH  15  16
ENDBRANCH  14  15
ENDBRANCH  13  14
ENDBRANCH  12  13
ENDBRANCH   1  12
TORSDOF 16
ENDMDL
MODEL 5
REMARK VINA RESULT:    -3.771      3.237      6.355
REMARK INTER + INTRA:         -10.203
REMARK INTER:                  -7.591
REMARK INTRA:                  -2.612
REMARK UNBOUND:                -2.906
REMARK SMILES CCCCCCCCCCCCCCCCCC(=O)[O-]
REMARK SMILES IDX 10 1 11 2 12 3 13 4 14 5 15 6 16 7 17 8 18 9 19 10 20 11
REMARK SMILES IDX 9 12 8 13 7 14 6 15 5 16 4 17 3 18 2 19 1 20
REMARK H PARENT
REMARK Flexibility Score: inf
ROOT
ATOM      1  C   UNL     1      25.926   0.983   5.220  1.00  0.00     0.000 C 
ENDROOT
BRANCH   1   2
ATOM      2  C   UNL     1      25.279   0.359   6.467  1.00  0.00     0.000 C 
BRANCH   2   3
ATOM      3  C   UNL     1      24.241   1.280   7.135  1.00  0.00     0.000 C 
BRANCH   3   4
ATOM      4  C   UNL     1      24.139   2.700   6.545  1.00  0.00     0.000 C 
BRANCH   4   5
ATOM      5  C   UNL     1      24.521   3.799   7.552  1.00  0.00     0.000 C 
BRANCH   5   6
ATOM      6  C   UNL     1      25.764   4.600   7.124  1.00  0.00     0.000 C 
BRANCH   6   7
ATOM      7  C   UNL     1      26.634   5.132   8.278  1.00  0.00     0.006 C 
BRANCH   7   8
ATOM      8  C   UNL     1      26.864   6.647   8.206  1.00  0.00     0.053 C 
BRANCH   8   9
ATOM      9  C   UNL     1      25.836   7.371   9.017  1.00  0.00     0.041 C 
ATOM     10  O   UNL     1      25.086   6.735   9.804  1.00  0.00    -0.550 OA
ATOM     11  O   UNL     1      25.739   8.756   8.942  1.00  0.00    -0.550 OA
ENDBRANCH   8   9
ENDBRANCH   7   8
ENDBRANCH   6   7
ENDBRANCH   5   6
ENDBRANCH   4   5
ENDBRANCH   3   4
ENDBRANCH   2   3
ENDBRANCH   1   2
BRANCH   1  12
ATOM     12  C   UNL     1      27.460   1.068   5.321  1.00  0.00     0.000 C 
BRANCH  12  13
ATOM     13  C   UNL     1      27.969   2.407   5.896  1.00  0.00    -0.000 C 
BRANCH  13  14
ATOM     14  C   UNL     1      28.763   2.205   7.199  1.00  0.00    -0.000 C 
BRANCH  14  15
ATOM     15  C   UNL     1      27.926   1.547   8.307  1.00  0.00    -0.000 C 
BRANCH  15  16
ATOM     16  C   UNL     1      28.707   0.453   9.059  1.00  0.00    -0.000 C 
BRANCH  16  17
ATOM     17  C   UNL     1      28.229  -0.961   8.685  1.00  0.00    -0.000 C 
BRANCH  17  18
ATOM     18  C   UNL     1      28.878  -1.501   7.389  1.00  0.00    -0.000 C 
BRANCH  18  19
ATOM     19  C   UNL     1      27.935  -2.382   6.553  1.00  0.00    -0.003 C 
ATOM     20  C   UNL     1      26.807  -2.997   7.380  1.00  0.00     0.004 C 
ENDBRANCH  18  19
ENDBRANCH  17  18
ENDBRANCH  16  17
ENDBRANCH  15  16
ENDBRANCH  14  15
ENDBRANCH  13  14
ENDBRANCH  12  13
ENDBRANCH   1  12
TORSDOF 16
ENDMDL
MODEL 6
REMARK VINA RESULT:    -3.736      2.863      6.087
REMARK INTER + INTRA:         -10.136
REMARK INTER:                  -8.103
REMARK INTRA:                  -2.033
REMARK UNBOUND:                -2.906
REMARK SMILES CCCCCCCCCCCCCCCCCC(=O)[O-]
REMARK SMILES IDX 10 1 11 2 12 3 13 4 14 5 15 6 16 7 17 8 18 9 19 10 20 11
REMARK SMILES IDX 9 12 8 13 7 14 6 15 5 16 4 17 3 18 2 19 1 20
REMARK H PARENT
REMARK Flexibility Score: inf
ROOT
ATOM      1  C   UNL     1      28.879   0.227   8.735  1.00  0.00     0.000 C 
ENDROOT
BRANCH   1   2
ATOM      2  C   UNL     1      27.819   1.324   8.552  1.00  0.00     0.000 C 
BRANCH   2   3
ATOM      3  C   UNL     1      28.385   2.614   7.928  1.00  0.00     0.000 C 
BRANCH   3   4
ATOM      4  C   UNL     1      28.680   3.756   8.920  1.00  0.00     0.000 C 
BRANCH   4   5
ATOM      5  C   UNL     1      27.760   3.734  10.153  1.00  0.00     0.000 C 
BRANCH   5   6
ATOM      6  C   UNL     1      26.309   4.130   9.826  1.00  0.00     0.000 C 
BRANCH   6   7
ATOM      7  C   UNL     1      25.893   5.541  10.278  1.00  0.00     0.006 C 
BRANCH   7   8
ATOM      8  C   UNL     1      25.184   6.340   9.175  1.00  0.00     0.053 C 
BRANCH   8   9
ATOM      9  C   UNL     1      26.081   6.503   7.989  1.00  0.00     0.041 C 
ATOM     10  O   UNL     1      27.175   7.117   8.101  1.00  0.00    -0.550 OA
ATOM     11  O   UNL     1      25.732   5.933   6.770  1.00  0.00    -0.550 OA
ENDBRANCH   8   9
ENDBRANCH   7   8
ENDBRANCH   6   7
ENDBRANCH   5   6
ENDBRANCH   4   5
ENDBRANCH   3   4
ENDBRANCH   2   3
ENDBRANCH   1   2
BRANCH   1  12
ATOM     12  C   UNL     1      28.352  -0.991   9.514  1.00  0.00     0.000 C 
BRANCH  12  13
ATOM     13  C   UNL     1      28.320  -2.291   8.682  1.00  0.00    -0.000 C 
BRANCH  13  14
ATOM     14  C   UNL     1      28.699  -2.040   7.212  1.00  0.00    -0.000 C 
BRANCH  14  15
ATOM     15  C   UNL     1      27.633  -2.552   6.230  1.00  0.00    -0.000 C 
BRANCH  15  16
ATOM     16  C   UNL     1      26.247  -2.683   6.886  1.00  0.00    -0.000 C 
BRANCH  16  17
ATOM     17  C   UNL     1      25.206  -1.756   6.233  1.00  0.00    -0.000 C 
BRANCH  17  18
ATOM     18  C   UNL     1      25.513  -0.255   6.439  1.00  0.00    -0.000 C 
BRANCH  18  19
ATOM     19  C   UNL     1      25.714   0.516   5.124  1.00  0.00    -0.003 C 
ATOM     20  C   UNL     1      27.176   0.875   4.862  1.00  0.00     0.004 C 
ENDBRANCH  18  19
ENDBRANCH  17  18
ENDBRANCH  16  17
ENDBRANCH  15  16
ENDBRANCH  14  15
ENDBRANCH  13  14
ENDBRANCH  12  13
ENDBRANCH   1  12
TORSDOF 16
ENDMDL
MODEL 7
REMARK VINA RESULT:    -3.732      1.712      3.307
REMARK INTER + INTRA:         -10.129
REMARK INTER:                  -7.424
REMARK INTRA:                  -2.704
REMARK UNBOUND:                -2.906
REMARK SMILES CCCCCCCCCCCCCCCCCC(=O)[O-]
REMARK SMILES IDX 10 1 11 2 12 3 13 4 14 5 15 6 16 7 17 8 18 9 19 10 20 11
REMARK SMILES IDX 9 12 8 13 7 14 6 15 5 16 4 17 3 18 2 19 1 20
REMARK H PARENT
REMARK Flexibility Score: inf
ROOT
ATOM      1  C   UNL     1      28.086   1.637   8.704  1.00  0.00     0.000 C 
ENDROOT
BRANCH   1   2
ATOM      2  C   UNL     1      28.870   0.343   8.978  1.00  0.00     0.000 C 
BRANCH   2   3
ATOM      3  C   UNL     1      28.022  -0.929   8.789  1.00  0.00     0.000 C 
BRANCH   3   4
ATOM      4  C   UNL     1      28.558  -1.935   7.752  1.00  0.00     0.000 C 
BRANCH   4   5
ATOM      5  C   UNL     1      27.790  -1.891   6.420  1.00  0.00     0.000 C 
BRANCH   5   6
ATOM      6  C   UNL     1      26.294  -1.575   6.599  1.00  0.00     0.000 C 
BRANCH   6   7
ATOM      7  C   UNL     1      25.638  -0.812   5.433  1.00  0.00     0.006 C 
BRANCH   7   8
ATOM      8  C   UNL     1      26.657  -0.268   4.423  1.00  0.00     0.053 C 
BRANCH   8   9
ATOM      9  C   UNL     1      26.462  -0.912   3.086  1.00  0.00     0.041 C 
ATOM     10  O   UNL     1      26.453  -2.167   2.983  1.00  0.00    -0.550 OA
ATOM     11  O   UNL     1      26.238  -0.127   1.962  1.00  0.00    -0.550 OA
ENDBRANCH   8   9
ENDBRANCH   7   8
ENDBRANCH   6   7
ENDBRANCH   5   6
ENDBRANCH   4   5
ENDBRANCH   3   4
ENDBRANCH   2   3
ENDBRANCH   1   2
BRANCH   1  12
ATOM     12  C   UNL     1      28.507   2.327   7.395  1.00  0.00     0.000 C 
BRANCH  12  13
ATOM     13  C   UNL     1      27.327   2.636   6.450  1.00  0.00    -0.000 C 
BRANCH  13  14
ATOM     14  C   UNL     1      25.969   2.376   7.126  1.00  0.00    -0.000 C 
BRANCH  14  15
ATOM     15  C   UNL     1      25.010   3.572   7.010  1.00  0.00    -0.000 C 
BRANCH  15  16
ATOM     16  C   UNL     1      25.758   4.908   6.852  1.00  0.00    -0.000 C 
BRANCH  16  17
ATOM     17  C   UNL     1      25.771   5.723   8.158  1.00  0.00    -0.000 C 
BRANCH  17  18
ATOM     18  C   UNL     1      27.016   5.452   9.032  1.00  0.00    -0.000 C 
BRANCH  18  19
ATOM     19  C   UNL     1      26.711   4.629  10.295  1.00  0.00    -0.003 C 
ATOM     20  C   UNL     1      25.216   4.396  10.506  1.00  0.00     0.004 C 
ENDBRANCH  18  19
ENDBRANCH  17  18
ENDBRANCH  16  17
ENDBRANCH  15  16
ENDBRANCH  14  15
ENDBRANCH  13  14
ENDBRANCH  12  13
ENDBRANCH   1  12
TORSDOF 16
ENDMDL
MODEL 8
REMARK VINA RESULT:    -3.668      2.272      3.786
REMARK INTER + INTRA:         -10.004
REMARK INTER:                  -7.501
REMARK INTRA:                  -2.503
REMARK UNBOUND:                -2.906
REMARK SMILES CCCCCCCCCCCCCCCCCC(=O)[O-]
REMARK SMILES IDX 10 1 11 2 12 3 13 4 14 5 15 6 16 7 17 8 18 9 19 10 20 11
REMARK SMILES IDX 9 12 8 13 7 14 6 15 5 16 4 17 3 18 2 19 1 20
REMARK H PARENT
REMARK Flexibility Score: inf
ROOT
ATOM      1  C   UNL     1      26.221   6.005   9.644  1.00  0.00     0.000 C 
ENDROOT
BRANCH   1   2
ATOM      2  C   UNL     1      26.100   4.642  10.343  1.00  0.00     0.000 C 
BRANCH   2   3
ATOM      3  C   UNL     1      27.345   3.754  10.155  1.00  0.00     0.000 C 
BRANCH   3   4
ATOM      4  C   UNL     1      28.263   4.139   8.979  1.00  0.00     0.000 C 
BRANCH   4   5
ATOM      5  C   UNL     1      28.677   2.933   8.119  1.00  0.00     0.000 C 
BRANCH   5   6
ATOM      6  C   UNL     1      28.659   1.605   8.899  1.00  0.00     0.000 C 
BRANCH   6   7
ATOM      7  C   UNL     1      28.583   0.334   8.033  1.00  0.00     0.006 C 
BRANCH   7   8
ATOM      8  C   UNL     1      28.008  -0.872   8.787  1.00  0.00     0.053 C 
BRANCH   8   9
ATOM      9  C   UNL     1      28.383  -2.146   8.097  1.00  0.00     0.041 C 
ATOM     10  O   UNL     1      28.769  -2.127   6.898  1.00  0.00    -0.550 OA
ATOM     11  O   UNL     1      28.354  -3.349   8.793  1.00  0.00    -0.550 OA
ENDBRANCH   8   9
ENDBRANCH   7   8
ENDBRANCH   6   7
ENDBRANCH   5   6
ENDBRANCH   4   5
ENDBRANCH   3   4
ENDBRANCH   2   3
ENDBRANCH   1   2
BRANCH   1  12
ATOM     12  C   UNL     1      25.071   6.278   8.659  1.00  0.00     0.000 C 
BRANCH  12  13
ATOM     13  C   UNL     1      25.336   5.747   7.235  1.00  0.00    -0.000 C 
BRANCH  13  14
ATOM     14  C   UNL     1      24.572   4.439   6.958  1.00  0.00    -0.000 C 
BRANCH  14  15
ATOM     15  C   UNL     1      25.508   3.256   6.669  1.00  0.00    -0.000 C 
BRANCH  15  16
ATOM     16  C   UNL     1      25.119   1.994   7.461  1.00  0.00    -0.000 C 
BRANCH  16  17
ATOM     17  C   UNL     1      25.253   0.715   6.615  1.00  0.00    -0.000 C 
BRANCH  17  18
ATOM     18  C   UNL     1      24.505   0.796   5.265  1.00  0.00    -0.000 C 
BRANCH  18  19
ATOM     19  C   UNL     1      25.438   0.748   4.043  1.00  0.00    -0.003 C 
ATOM     20  C   UNL     1      26.914   0.654   4.426  1.00  0.00     0.004 C 
ENDBRANCH  18  19
ENDBRANCH  17  18
ENDBRANCH  16  17
ENDBRANCH  15  16
ENDBRANCH  14  15
ENDBRANCH  13  14
ENDBRANCH  12  13
ENDBRANCH   1  12
TORSDOF 16
ENDMDL
MODEL 9
REMARK VINA RESULT:    -3.621      2.840      5.693
REMARK INTER + INTRA:          -9.913
REMARK INTER:                  -7.687
REMARK INTRA:                  -2.226
REMARK UNBOUND:                -2.906
REMARK SMILES CCCCCCCCCCCCCCCCCC(=O)[O-]
REMARK SMILES IDX 10 1 11 2 12 3 13 4 14 5 15 6 16 7 17 8 18 9 19 10 20 11
REMARK SMILES IDX 9 12 8 13 7 14 6 15 5 16 4 17 3 18 2 19 1 20
REMARK H PARENT
REMARK Flexibility Score: inf
ROOT
ATOM      1  C   UNL     1      27.767   1.392   8.592  1.00  0.00     0.000 C 
ENDROOT
BRANCH   1   2
ATOM      2  C   UNL     1      28.405   2.614   7.913  1.00  0.00     0.000 C 
BRANCH   2   3
ATOM      3  C   UNL     1      28.708   3.762   8.894  1.00  0.00     0.000 C 
BRANCH   3   4
ATOM      4  C   UNL     1      27.852   3.781  10.176  1.00  0.00     0.000 C 
BRANCH   4   5
ATOM      5  C   UNL     1      26.826   4.927  10.197  1.00  0.00     0.000 C 
BRANCH   5   6
ATOM      6  C   UNL     1      26.891   5.814   8.940  1.00  0.00     0.000 C 
BRANCH   6   7
ATOM      7  C   UNL     1      25.699   6.769   8.746  1.00  0.00     0.006 C 
BRANCH   7   8
ATOM      8  C   UNL     1      24.808   6.382   7.558  1.00  0.00     0.053 C 
BRANCH   8   9
ATOM      9  C   UNL     1      23.469   5.917   8.039  1.00  0.00     0.041 C 
ATOM     10  O   UNL     1      22.417   6.329   7.481  1.00  0.00    -0.550 OA
ATOM     11  O   UNL     1      23.385   4.990   9.070  1.00  0.00    -0.550 OA
ENDBRANCH   8   9
ENDBRANCH   7   8
ENDBRANCH   6   7
ENDBRANCH   5   6
ENDBRANCH   4   5
ENDBRANCH   3   4
ENDBRANCH   2   3
ENDBRANCH   1   2
BRANCH   1  12
ATOM     12  C   UNL     1      28.808   0.387   9.116  1.00  0.00     0.000 C 
BRANCH  12  13
ATOM     13  C   UNL     1      28.381  -1.088   8.955  1.00  0.00    -0.000 C 
BRANCH  13  14
ATOM     14  C   UNL     1      28.404  -1.533   7.482  1.00  0.00    -0.000 C 
BRANCH  14  15
ATOM     15  C   UNL     1      27.065  -2.133   7.024  1.00  0.00    -0.000 C 
BRANCH  15  16
ATOM     16  C   UNL     1      26.139  -1.079   6.389  1.00  0.00    -0.000 C 
BRANCH  16  17
ATOM     17  C   UNL     1      26.844  -0.284   5.275  1.00  0.00    -0.000 C 
BRANCH  17  18
ATOM     18  C   UNL     1      26.329   1.168   5.143  1.00  0.00    -0.000 C 
BRANCH  18  19
ATOM     19  C   UNL     1      25.046   1.438   5.946  1.00  0.00    -0.003 C 
ATOM     20  C   UNL     1      24.996   2.849   6.530  1.00  0.00     0.004 C 
ENDBRANCH  18  19
ENDBRANCH  17  18
ENDBRANCH  16  17
ENDBRANCH  15  16
ENDBRANCH  14  15
ENDBRANCH  13  14
ENDBRANCH  12  13
ENDBRANCH   1  12
TORSDOF 16
ENDMDL
