MODEL 1
REMARK VINA RESULT:    -4.661      0.000      0.000
REMARK INTER + INTRA:          -9.814
REMARK INTER:                  -8.475
REMARK INTRA:                  -1.339
REMARK UNBOUND:                -1.339
REMARK SMILES CCCCCCCCCCCCCC[C@@H](C)C(=O)[O-]
REMARK SMILES IDX 9 1 10 2 11 3 12 4 13 5 14 6 15 7 16 8 17 9 18 10 19 11 8 12
REMARK SMILES IDX 7 13 6 14 5 15 4 16 3 17 2 18 1 19
REMARK H PARENT
REMARK Flexibility Score: inf
ROOT
ATOM      1  C   UNL     1       5.877  11.064  48.661  1.00  0.00     0.000 C 
ENDROOT
BRANCH   1   2
ATOM      2  C   UNL     1       5.551  11.701  47.300  1.00  0.00     0.000 C 
BRANCH   2   3
ATOM      3  C   UNL     1       5.553  10.678  46.148  1.00  0.00     0.000 C 
BRANCH   3   4
ATOM      4  C   UNL     1       6.495  11.017  44.975  1.00  0.00     0.000 C 
BRANCH   4   5
ATOM      5  C   UNL     1       7.953  10.548  45.151  1.00  0.00     0.001 C 
BRANCH   5   6
ATOM      6  C   UNL     1       8.132   9.273  46.000  1.00  0.00     0.009 C 
BRANCH   6   7
ATOM      7  C   UNL     1       9.602   8.925  46.324  1.00  0.00     0.032 C 
ATOM      8  C   UNL     1       9.670   7.751  47.307  1.00  0.00     0.014 C 
BRANCH   7   9
ATOM      9  C   UNL     1      10.374   8.588  45.077  1.00  0.00     0.044 C 
ATOM     10  O   UNL     1      11.195   9.415  44.599  1.00  0.00    -0.550 OA
ATOM     11  O   UNL     1      10.185   7.365  44.442  1.00  0.00    -0.550 OA
ENDBRANCH   7   9
ENDBRANCH   6   7
ENDBRANCH   5   6
ENDBRANCH   4   5
ENDBRANCH   3   4
ENDBRANCH   2   3
ENDBRANCH   1   2
BRANCH   1  12
ATOM     12  C   UNL     1       4.823  11.398  49.729  1.00  0.00     0.000 C 
BRANCH  12  13
ATOM     13  C   UNL     1       4.011  12.659  49.385  1.00  0.00    -0.000 C 
BRANCH  13  14
ATOM     14  C   UNL     1       2.512  12.354  49.178  1.00  0.00    -0.000 C 
BRANCH  14  15
ATOM     15  C   UNL     1       2.219  10.876  48.855  1.00  0.00    -0.000 C 
BRANCH  15  16
ATOM     16  C   UNL     1       2.030  10.561  47.359  1.00  0.00    -0.000 C 
BRANCH  16  17
ATOM     17  C   UNL     1       1.289   9.244  47.063  1.00  0.00    -0.000 C 
BRANCH  17  18
ATOM     18  C   UNL     1       0.517   8.709  48.276  1.00  0.00    -0.003 C 
ATOM     19  C   UNL     1      -0.988   8.726  48.022  1.00  0.00     0.004 C 
ENDBRANCH  17  18
ENDBRANCH  16  17
ENDBRANCH  15  16
ENDBRANCH  14  15
ENDBRANCH  13  14
ENDBRANCH  12  13
ENDBRANCH   1  12
TORSDOF 14
ENDMDL
MODEL 2
REMARK VINA RESULT:    -4.598      2.936      4.984
REMARK INTER + INTRA:          -9.700
REMARK INTER:                  -7.648
REMARK INTRA:                  -2.052
REMARK UNBOUND:                -1.339
REMARK SMILES CCCCCCCCCCCCCC[C@@H](C)C(=O)[O-]
REMARK SMILES IDX 9 1 10 2 11 3 12 4 13 5 14 6 15 7 16 8 17 9 18 10 19 11 8 12
REMARK SMILES IDX 7 13 6 14 5 15 4 16 3 17 2 18 1 19
REMARK H PARENT
REMARK Flexibility Score: inf
ROOT
ATOM      1  C   UNL     1       2.563  10.370  46.902  1.00  0.00     0.000 C 
ENDROOT
BRANCH   1   2
ATOM      2  C   UNL     1       2.129  11.815  47.200  1.00  0.00     0.000 C 
BRANCH   2   3
ATOM      3  C   UNL     1       2.671  12.336  48.544  1.00  0.00     0.000 C 
BRANCH   3   4
ATOM      4  C   UNL     1       3.357  11.275  49.428  1.00  0.00     0.000 C 
BRANCH   4   5
ATOM      5  C   UNL     1       4.893  11.374  49.497  1.00  0.00     0.001 C 
BRANCH   5   6
ATOM      6  C   UNL     1       5.507  12.559  48.723  1.00  0.00     0.009 C 
BRANCH   6   7
ATOM      7  C   UNL     1       6.345  12.149  47.492  1.00  0.00     0.032 C 
ATOM      8  C   UNL     1       6.300  10.630  47.296  1.00  0.00     0.014 C 
BRANCH   7   9
ATOM      9  C   UNL     1       5.859  12.835  46.244  1.00  0.00     0.044 C 
ATOM     10  O   UNL     1       4.969  13.724  46.317  1.00  0.00    -0.550 OA
ATOM     11  O   UNL     1       6.384  12.493  45.003  1.00  0.00    -0.550 OA
ENDBRANCH   7   9
ENDBRANCH   6   7
ENDBRANCH   5   6
ENDBRANCH   4   5
ENDBRANCH   3   4
ENDBRANCH   2   3
ENDBRANCH   1   2
BRANCH   1  12
ATOM     12  C   UNL     1       1.365   9.428  46.710  1.00  0.00     0.000 C 
BRANCH  12  13
ATOM     13  C   UNL     1       0.970   8.701  48.008  1.00  0.00    -0.000 C 
BRANCH  13  14
ATOM     14  C   UNL     1      -0.553   8.733  48.258  1.00  0.00    -0.000 C 
BRANCH  14  15
ATOM     15  C   UNL     1      -1.252   9.977  47.676  1.00  0.00    -0.000 C 
BRANCH  15  16
ATOM     16  C   UNL     1      -2.427   9.680  46.725  1.00  0.00    -0.000 C 
BRANCH  16  17
ATOM     17  C   UNL     1      -2.767   8.188  46.563  1.00  0.00    -0.000 C 
BRANCH  17  18
ATOM     18  C   UNL     1      -2.654   7.705  45.110  1.00  0.00    -0.003 C 
ATOM     19  C   UNL     1      -1.224   7.843  44.595  1.00  0.00     0.004 C 
ENDBRANCH  17  18
ENDBRANCH  16  17
ENDBRANCH  15  16
ENDBRANCH  14  15
ENDBRANCH  13  14
ENDBRANCH  12  13
ENDBRANCH   1  12
TORSDOF 14
ENDMDL
MODEL 3
REMARK VINA RESULT:    -4.576     10.111     12.575
REMARK INTER + INTRA:          -9.660
REMARK INTER:                  -8.562
REMARK INTRA:                  -1.098
REMARK UNBOUND:                -1.339
REMARK SMILES CCCCCCCCCCCCCC[C@@H](C)C(=O)[O-]
REMARK SMILES IDX 9 1 10 2 11 3 12 4 13 5 14 6 15 7 16 8 17 9 18 10 19 11 8 12
REMARK SMILES IDX 7 13 6 14 5 15 4 16 3 17 2 18 1 19
REMARK H PARENT
REMARK Flexibility Score: inf
ROOT
ATOM      1  C   UNL     1       6.492  -1.634  51.480  1.00  0.00     0.000 C 
ENDROOT
BRANCH   1   2
ATOM      2  C   UNL     1       7.332  -1.341  52.734  1.00  0.00     0.000 C 
BRANCH   2   3
ATOM      3  C   UNL     1       7.282   0.140  53.153  1.00  0.00     0.000 C 
BRANCH   3   4
ATOM      4  C   UNL     1       8.375   0.574  54.150  1.00  0.00     0.000 C 
BRANCH   4   5
ATOM      5  C   UNL     1       8.154   1.952  54.805  1.00  0.00     0.001 C 
BRANCH   5   6
ATOM      6  C   UNL     1       7.194   2.890  54.045  1.00  0.00     0.009 C 
BRANCH   6   7
ATOM      7  C   UNL     1       7.755   4.307  53.794  1.00  0.00     0.032 C 
ATOM      8  C   UNL     1       8.904   4.256  52.781  1.00  0.00     0.014 C 
BRANCH   7   9
ATOM      9  C   UNL     1       6.685   5.242  53.300  1.00  0.00     0.044 C 
ATOM     10  O   UNL     1       6.863   6.488  53.349  1.00  0.00    -0.550 OA
ATOM     11  O   UNL     1       5.493   4.740  52.792  1.00  0.00    -0.550 OA
ENDBRANCH   7   9
ENDBRANCH   6   7
ENDBRANCH   5   6
ENDBRANCH   4   5
ENDBRANCH   3   4
ENDBRANCH   2   3
ENDBRANCH   1   2
BRANCH   1  12
ATOM     12  C   UNL     1       7.351  -2.113  50.299  1.00  0.00     0.000 C 
BRANCH  12  13
ATOM     13  C   UNL     1       6.931  -3.502  49.787  1.00  0.00    -0.000 C 
BRANCH  13  14
ATOM     14  C   UNL     1       5.414  -3.747  49.932  1.00  0.00    -0.000 C 
BRANCH  14  15
ATOM     15  C   UNL     1       4.706  -4.063  48.601  1.00  0.00    -0.000 C 
BRANCH  15  16
ATOM     16  C   UNL     1       5.342  -3.417  47.355  1.00  0.00    -0.000 C 
BRANCH  16  17
ATOM     17  C   UNL     1       4.990  -1.933  47.144  1.00  0.00    -0.000 C 
BRANCH  17  18
ATOM     18  C   UNL     1       5.965  -1.218  46.199  1.00  0.00    -0.003 C 
ATOM     19  C   UNL     1       6.942  -0.342  46.977  1.00  0.00     0.004 C 
ENDBRANCH  17  18
ENDBRANCH  16  17
ENDBRANCH  15  16
ENDBRANCH  14  15
ENDBRANCH  13  14
ENDBRANCH  12  13
ENDBRANCH   1  12
TORSDOF 14
ENDMDL
MODEL 4
REMARK VINA RESULT:    -4.565      9.953     12.205
REMARK INTER + INTRA:          -9.640
REMARK INTER:                  -8.443
REMARK INTRA:                  -1.197
REMARK UNBOUND:                -1.339
REMARK SMILES CCCCCCCCCCCCCC[C@@H](C)C(=O)[O-]
REMARK SMILES IDX 9 1 10 2 11 3 12 4 13 5 14 6 15 7 16 8 17 9 18 10 19 11 8 12
REMARK SMILES IDX 7 13 6 14 5 15 4 16 3 17 2 18 1 19
REMARK H PARENT
REMARK Flexibility Score: inf
ROOT
ATOM      1  C   UNL     1       6.985  -1.638  51.581  1.00  0.00     0.000 C 
ENDROOT
BRANCH   1   2
ATOM      2  C   UNL     1       5.892  -1.651  50.499  1.00  0.00     0.000 C 
BRANCH   2   3
ATOM      3  C   UNL     1       5.278  -3.048  50.290  1.00  0.00     0.000 C 
BRANCH   3   4
ATOM      4  C   UNL     1       5.015  -3.433  48.820  1.00  0.00     0.000 C 
BRANCH   4   5
ATOM      5  C   UNL     1       5.129  -2.274  47.810  1.00  0.00     0.001 C 
BRANCH   5   6
ATOM      6  C   UNL     1       6.046  -2.548  46.601  1.00  0.00     0.009 C 
BRANCH   6   7
ATOM      7  C   UNL     1       7.418  -1.842  46.669  1.00  0.00     0.032 C 
ATOM      8  C   UNL     1       7.246  -0.379  47.095  1.00  0.00     0.014 C 
BRANCH   7   9
ATOM      9  C   UNL     1       8.349  -2.541  47.622  1.00  0.00     0.044 C 
ATOM     10  O   UNL     1       8.991  -1.877  48.479  1.00  0.00    -0.550 OA
ATOM     11  O   UNL     1       8.511  -3.920  47.562  1.00  0.00    -0.550 OA
ENDBRANCH   7   9
ENDBRANCH   6   7
ENDBRANCH   5   6
ENDBRANCH   4   5
ENDBRANCH   3   4
ENDBRANCH   2   3
ENDBRANCH   1   2
BRANCH   1  12
ATOM     12  C   UNL     1       6.648  -0.686  52.740  1.00  0.00     0.000 C 
BRANCH  12  13
ATOM     13  C   UNL     1       7.903  -0.174  53.469  1.00  0.00    -0.000 C 
BRANCH  13  14
ATOM     14  C   UNL     1       7.711   1.248  54.039  1.00  0.00    -0.000 C 
BRANCH  14  15
ATOM     15  C   UNL     1       8.984   2.115  53.985  1.00  0.00    -0.000 C 
BRANCH  15  16
ATOM     16  C   UNL     1       8.776   3.600  54.336  1.00  0.00    -0.000 C 
BRANCH  16  17
ATOM     17  C   UNL     1       8.425   4.505  53.141  1.00  0.00    -0.000 C 
BRANCH  17  18
ATOM     18  C   UNL     1       7.083   5.230  53.315  1.00  0.00    -0.003 C 
ATOM     19  C   UNL     1       5.927   4.377  52.802  1.00  0.00     0.004 C 
ENDBRANCH  17  18
ENDBRANCH  16  17
ENDBRANCH  15  16
ENDBRANCH  14  15
ENDBRANCH  13  14
ENDBRANCH  12  13
ENDBRANCH   1  12
TORSDOF 14
ENDMDL
MODEL 5
REMARK VINA RESULT:    -4.524      2.464      4.759
REMARK INTER + INTRA:          -9.566
REMARK INTER:                  -7.915
REMARK INTRA:                  -1.651
REMARK UNBOUND:                -1.339
REMARK SMILES CCCCCCCCCCCCCC[C@@H](C)C(=O)[O-]
REMARK SMILES IDX 9 1 10 2 11 3 12 4 13 5 14 6 15 7 16 8 17 9 18 10 19 11 8 12
REMARK SMILES IDX 7 13 6 14 5 15 4 16 3 17 2 18 1 19
REMARK H PARENT
REMARK Flexibility Score: inf
ROOT
ATOM      1  C   UNL     1       2.441  10.212  46.971  1.00  0.00     0.000 C 
ENDROOT
BRANCH   1   2
ATOM      2  C   UNL     1       2.055  11.682  47.203  1.00  0.00     0.000 C 
BRANCH   2   3
ATOM      3  C   UNL     1       2.432  12.183  48.610  1.00  0.00     0.000 C 
BRANCH   3   4
ATOM      4  C   UNL     1       3.502  11.344  49.337  1.00  0.00     0.000 C 
BRANCH   4   5
ATOM      5  C   UNL     1       4.810  12.092  49.663  1.00  0.00     0.001 C 
BRANCH   5   6
ATOM      6  C   UNL     1       5.889  12.030  48.563  1.00  0.00     0.009 C 
BRANCH   6   7
ATOM      7  C   UNL     1       6.041  10.645  47.898  1.00  0.00     0.032 C 
ATOM      8  C   UNL     1       5.951  10.770  46.373  1.00  0.00     0.014 C 
BRANCH   7   9
ATOM      9  C   UNL     1       7.342   9.992  48.277  1.00  0.00     0.044 C 
ATOM     10  O   UNL     1       8.092   9.514  47.385  1.00  0.00    -0.550 OA
ATOM     11  O   UNL     1       7.725   9.910  49.611  1.00  0.00    -0.550 OA
ENDBRANCH   7   9
ENDBRANCH   6   7
ENDBRANCH   5   6
ENDBRANCH   4   5
ENDBRANCH   3   4
ENDBRANCH   2   3
ENDBRANCH   1   2
BRANCH   1  12
ATOM     12  C   UNL     1       1.218   9.322  46.701  1.00  0.00     0.000 C 
BRANCH  12  13
ATOM     13  C   UNL     1       0.313   9.169  47.937  1.00  0.00    -0.000 C 
BRANCH  13  14
ATOM     14  C   UNL     1      -1.050   9.871  47.757  1.00  0.00    -0.000 C 
BRANCH  14  15
ATOM     15  C   UNL     1      -2.257   8.920  47.871  1.00  0.00    -0.000 C 
BRANCH  15  16
ATOM     16  C   UNL     1      -2.473   7.993  46.659  1.00  0.00    -0.000 C 
BRANCH  16  17
ATOM     17  C   UNL     1      -2.113   8.614  45.297  1.00  0.00    -0.000 C 
BRANCH  17  18
ATOM     18  C   UNL     1      -1.188   7.718  44.460  1.00  0.00    -0.003 C 
ATOM     19  C   UNL     1      -0.766   8.416  43.170  1.00  0.00     0.004 C 
ENDBRANCH  17  18
ENDBRANCH  16  17
ENDBRANCH  15  16
ENDBRANCH  14  15
ENDBRANCH  13  14
ENDBRANCH  12  13
ENDBRANCH   1  12
TORSDOF 14
ENDMDL
MODEL 6
REMARK VINA RESULT:    -4.498     10.846     13.351
REMARK INTER + INTRA:          -9.519
REMARK INTER:                  -8.000
REMARK INTRA:                  -1.519
REMARK UNBOUND:                -1.339
REMARK SMILES CCCCCCCCCCCCCC[C@@H](C)C(=O)[O-]
REMARK SMILES IDX 9 1 10 2 11 3 12 4 13 5 14 6 15 7 16 8 17 9 18 10 19 11 8 12
REMARK SMILES IDX 7 13 6 14 5 15 4 16 3 17 2 18 1 19
REMARK H PARENT
REMARK Flexibility Score: inf
ROOT
ATOM      1  C   UNL     1       5.550  -3.399  50.867  1.00  0.00     0.000 C 
ENDROOT
BRANCH   1   2
ATOM      2  C   UNL     1       6.054  -1.946  50.895  1.00  0.00     0.000 C 
BRANCH   2   3
ATOM      3  C   UNL     1       7.131  -1.710  51.970  1.00  0.00     0.000 C 
BRANCH   3   4
ATOM      4  C   UNL     1       6.963  -0.415  52.790  1.00  0.00     0.000 C 
BRANCH   4   5
ATOM      5  C   UNL     1       8.114  -0.105  53.769  1.00  0.00     0.001 C 
BRANCH   5   6
ATOM      6  C   UNL     1       8.073   1.300  54.401  1.00  0.00     0.009 C 
BRANCH   6   7
ATOM      7  C   UNL     1       9.212   2.237  53.943  1.00  0.00     0.032 C 
ATOM      8  C   UNL     1       8.773   3.702  54.042  1.00  0.00     0.014 C 
BRANCH   7   9
ATOM      9  C   UNL     1      10.459   2.025  54.759  1.00  0.00     0.044 C 
ATOM     10  O   UNL     1      10.417   1.332  55.809  1.00  0.00    -0.550 OA
ATOM     11  O   UNL     1      11.664   2.595  54.362  1.00  0.00    -0.550 OA
ENDBRANCH   7   9
ENDBRANCH   6   7
ENDBRANCH   5   6
ENDBRANCH   4   5
ENDBRANCH   3   4
ENDBRANCH   2   3
ENDBRANCH   1   2
BRANCH   1  12
ATOM     12  C   UNL     1       5.565  -3.995  49.451  1.00  0.00     0.000 C 
BRANCH  12  13
ATOM     13  C   UNL     1       4.779  -3.141  48.441  1.00  0.00    -0.000 C 
BRANCH  13  14
ATOM     14  C   UNL     1       5.143  -3.478  46.978  1.00  0.00    -0.000 C 
BRANCH  14  15
ATOM     15  C   UNL     1       5.957  -2.378  46.272  1.00  0.00    -0.000 C 
BRANCH  15  16
ATOM     16  C   UNL     1       6.161  -1.089  47.092  1.00  0.00    -0.000 C 
BRANCH  16  17
ATOM     17  C   UNL     1       7.589  -0.880  47.626  1.00  0.00    -0.000 C 
BRANCH  17  18
ATOM     18  C   UNL     1       8.459  -2.139  47.512  1.00  0.00    -0.003 C 
ATOM     19  C   UNL     1       9.085  -2.498  48.856  1.00  0.00     0.004 C 
ENDBRANCH  17  18
ENDBRANCH  16  17
ENDBRANCH  15  16
ENDBRANCH  14  15
ENDBRANCH  13  14
ENDBRANCH  12  13
ENDBRANCH   1  12
TORSDOF 14
ENDMDL
MODEL 7
REMARK VINA RESULT:    -4.421      1.561      2.079
REMARK INTER + INTRA:          -9.379
REMARK INTER:                  -7.337
REMARK INTRA:                  -2.042
REMARK UNBOUND:                -1.339
REMARK SMILES CCCCCCCCCCCCCC[C@@H](C)C(=O)[O-]
REMARK SMILES IDX 9 1 10 2 11 3 12 4 13 5 14 6 15 7 16 8 17 9 18 10 19 11 8 12
REMARK SMILES IDX 7 13 6 14 5 15 4 16 3 17 2 18 1 19
REMARK H PARENT
REMARK Flexibility Score: inf
ROOT
ATOM      1  C   UNL     1       5.810  10.871  48.400  1.00  0.00     0.000 C 
ENDROOT
BRANCH   1   2
ATOM      2  C   UNL     1       5.750  10.648  46.879  1.00  0.00     0.000 C 
BRANCH   2   3
ATOM      3  C   UNL     1       6.283  11.850  46.078  1.00  0.00     0.000 C 
BRANCH   3   4
ATOM      4  C   UNL     1       6.819  11.514  44.673  1.00  0.00     0.000 C 
BRANCH   4   5
ATOM      5  C   UNL     1       8.355  11.528  44.537  1.00  0.00     0.001 C 
BRANCH   5   6
ATOM      6  C   UNL     1       9.113  10.726  45.614  1.00  0.00     0.009 C 
BRANCH   6   7
ATOM      7  C   UNL     1       9.203   9.210  45.332  1.00  0.00     0.032 C 
ATOM      8  C   UNL     1      10.640   8.816  44.973  1.00  0.00     0.014 C 
BRANCH   7   9
ATOM      9  C   UNL     1       8.736   8.403  46.514  1.00  0.00     0.044 C 
ATOM     10  O   UNL     1       8.728   8.915  47.665  1.00  0.00    -0.550 OA
ATOM     11  O   UNL     1       8.314   7.089  46.345  1.00  0.00    -0.550 OA
ENDBRANCH   7   9
ENDBRANCH   6   7
ENDBRANCH   5   6
ENDBRANCH   4   5
ENDBRANCH   3   4
ENDBRANCH   2   3
ENDBRANCH   1   2
BRANCH   1  12
ATOM     12  C   UNL     1       5.502  12.326  48.789  1.00  0.00     0.000 C 
BRANCH  12  13
ATOM     13  C   UNL     1       4.349  12.436  49.801  1.00  0.00    -0.000 C 
BRANCH  13  14
ATOM     14  C   UNL     1       3.068  13.025  49.171  1.00  0.00    -0.000 C 
BRANCH  14  15
ATOM     15  C   UNL     1       3.275  13.575  47.747  1.00  0.00    -0.000 C 
BRANCH  15  16
ATOM     16  C   UNL     1       2.701  12.697  46.619  1.00  0.00    -0.000 C 
BRANCH  16  17
ATOM     17  C   UNL     1       1.582  11.733  47.053  1.00  0.00    -0.000 C 
BRANCH  17  18
ATOM     18  C   UNL     1       2.026  10.264  47.052  1.00  0.00    -0.003 C 
ATOM     19  C   UNL     1       1.377   9.492  48.197  1.00  0.00     0.004 C 
ENDBRANCH  17  18
ENDBRANCH  16  17
ENDBRANCH  15  16
ENDBRANCH  14  15
ENDBRANCH  13  14
ENDBRANCH  12  13
ENDBRANCH   1  12
TORSDOF 14
ENDMDL
MODEL 8
REMARK VINA RESULT:    -4.384      7.599     10.679
REMARK INTER + INTRA:          -9.311
REMARK INTER:                  -8.500
REMARK INTRA:                  -0.811
REMARK UNBOUND:                -1.339
REMARK SMILES CCCCCCCCCCCCCC[C@@H](C)C(=O)[O-]
REMARK SMILES IDX 9 1 10 2 11 3 12 4 13 5 14 6 15 7 16 8 17 9 18 10 19 11 8 12
REMARK SMILES IDX 7 13 6 14 5 15 4 16 3 17 2 18 1 19
REMARK H PARENT
REMARK Flexibility Score: inf
ROOT
ATOM      1  C   UNL     1      -0.529   8.087  41.740  1.00  0.00     0.000 C 
ENDROOT
BRANCH   1   2
ATOM      2  C   UNL     1      -1.607   8.353  42.803  1.00  0.00     0.000 C 
BRANCH   2   3
ATOM      3  C   UNL     1      -1.362   7.575  44.110  1.00  0.00     0.000 C 
BRANCH   3   4
ATOM      4  C   UNL     1      -2.432   7.778  45.201  1.00  0.00     0.000 C 
BRANCH   4   5
ATOM      5  C   UNL     1      -2.073   8.814  46.285  1.00  0.00     0.001 C 
BRANCH   5   6
ATOM      6  C   UNL     1      -0.692   8.620  46.944  1.00  0.00     0.009 C 
BRANCH   6   7
ATOM      7  C   UNL     1       0.444   9.438  46.291  1.00  0.00     0.032 C 
ATOM      8  C   UNL     1      -0.106  10.738  45.695  1.00  0.00     0.014 C 
BRANCH   7   9
ATOM      9  C   UNL     1       1.532   9.754  47.282  1.00  0.00     0.044 C 
ATOM     10  O   UNL     1       1.411   9.404  48.485  1.00  0.00    -0.550 OA
ATOM     11  O   UNL     1       2.673  10.437  46.878  1.00  0.00    -0.550 OA
ENDBRANCH   7   9
ENDBRANCH   6   7
ENDBRANCH   5   6
ENDBRANCH   4   5
ENDBRANCH   3   4
ENDBRANCH   2   3
ENDBRANCH   1   2
BRANCH   1  12
ATOM     12  C   UNL     1      -1.079   7.318  40.529  1.00  0.00     0.000 C 
BRANCH  12  13
ATOM     13  C   UNL     1      -2.519   6.821  40.749  1.00  0.00    -0.000 C 
BRANCH  13  14
ATOM     14  C   UNL     1      -2.601   5.283  40.850  1.00  0.00    -0.000 C 
BRANCH  14  15
ATOM     15  C   UNL     1      -3.125   4.604  39.570  1.00  0.00    -0.000 C 
BRANCH  15  16
ATOM     16  C   UNL     1      -3.039   3.066  39.565  1.00  0.00    -0.000 C 
BRANCH  16  17
ATOM     17  C   UNL     1      -2.486   2.451  38.267  1.00  0.00    -0.000 C 
BRANCH  17  18
ATOM     18  C   UNL     1      -2.757   0.945  38.158  1.00  0.00    -0.003 C 
ATOM     19  C   UNL     1      -2.000   0.171  39.233  1.00  0.00     0.004 C 
ENDBRANCH  17  18
ENDBRANCH  16  17
ENDBRANCH  15  16
ENDBRANCH  14  15
ENDBRANCH  13  14
ENDBRANCH  12  13
ENDBRANCH   1  12
TORSDOF 14
ENDMDL
MODEL 9
REMARK VINA RESULT:    -3.907     12.610     14.486
REMARK INTER + INTRA:          -8.443
REMARK INTER:                  -6.146
REMARK INTRA:                  -2.297
REMARK UNBOUND:                -1.339
REMARK SMILES CCCCCCCCCCCCCC[C@@H](C)C(=O)[O-]
REMARK SMILES IDX 9 1 10 2 11 3 12 4 13 5 14 6 15 7 16 8 17 9 18 10 19 11 8 12
REMARK SMILES IDX 7 13 6 14 5 15 4 16 3 17 2 18 1 19
REMARK H PARENT
REMARK Flexibility Score: inf
ROOT
ATOM      1  C   UNL     1       6.230  -1.082  47.202  1.00  0.00     0.000 C 
ENDROOT
BRANCH   1   2
ATOM      2  C   UNL     1       5.140  -2.101  46.833  1.00  0.00     0.000 C 
BRANCH   2   3
ATOM      3  C   UNL     1       5.718  -3.448  46.359  1.00  0.00     0.000 C 
BRANCH   3   4
ATOM      4  C   UNL     1       5.696  -4.575  47.410  1.00  0.00     0.000 C 
BRANCH   4   5
ATOM      5  C   UNL     1       6.477  -5.847  47.022  1.00  0.00     0.001 C 
BRANCH   5   6
ATOM      6  C   UNL     1       7.972  -5.837  47.400  1.00  0.00     0.009 C 
BRANCH   6   7
ATOM      7  C   UNL     1       8.303  -5.016  48.666  1.00  0.00     0.032 C 
ATOM      8  C   UNL     1       8.914  -5.917  49.744  1.00  0.00     0.014 C 
BRANCH   7   9
ATOM      9  C   UNL     1       9.245  -3.885  48.356  1.00  0.00     0.044 C 
ATOM     10  O   UNL     1      10.097  -3.521  49.209  1.00  0.00    -0.550 OA
ATOM     11  O   UNL     1       9.181  -3.232  47.130  1.00  0.00    -0.550 OA
ENDBRANCH   7   9
ENDBRANCH   6   7
ENDBRANCH   5   6
ENDBRANCH   4   5
ENDBRANCH   3   4
ENDBRANCH   2   3
ENDBRANCH   1   2
BRANCH   1  12
ATOM     12  C   UNL     1       6.798  -1.318  48.610  1.00  0.00     0.000 C 
BRANCH  12  13
ATOM     13  C   UNL     1       5.717  -1.738  49.622  1.00  0.00    -0.000 C 
BRANCH  13  14
ATOM     14  C   UNL     1       6.255  -2.723  50.682  1.00  0.00    -0.000 C 
BRANCH  14  15
ATOM     15  C   UNL     1       5.223  -3.773  51.134  1.00  0.00    -0.000 C 
BRANCH  15  16
ATOM     16  C   UNL     1       5.554  -5.225  50.740  1.00  0.00    -0.000 C 
BRANCH  16  17
ATOM     17  C   UNL     1       4.329  -6.125  50.494  1.00  0.00    -0.000 C 
BRANCH  17  18
ATOM     18  C   UNL     1       3.122  -5.353  49.944  1.00  0.00    -0.003 C 
ATOM     19  C   UNL     1       2.466  -6.106  48.790  1.00  0.00     0.004 C 
ENDBRANCH  17  18
ENDBRANCH  16  17
ENDBRANCH  15  16
ENDBRANCH  14  15
ENDBRANCH  13  14
ENDBRANCH  12  13
ENDBRANCH   1  12
TORSDOF 14
ENDMDL
