MODEL 1
REMARK VINA RESULT:    -3.210      0.000      0.000
REMARK INTER + INTRA:          -3.617
REMARK INTER:                  -3.586
REMARK INTRA:                  -0.032
REMARK UNBOUND:                -0.032
REMARK SMILES CCCC(=O)[O-]
REMARK SMILES IDX 3 1 4 2 5 3 6 4 2 5 1 6
REMARK H PARENT
REMARK Flexibility Score: inf
ROOT
ATOM      1  C   UNL     1     -53.127  23.781 -37.331  1.00  0.00     0.052 C 
ENDROOT
BRANCH   1   2
ATOM      2  C   UNL     1     -53.238  22.419 -37.944  1.00  0.00     0.041 C 
ATOM      3  O   UNL     1     -53.183  22.280 -39.194  1.00  0.00    -0.550 OA
ATOM      4  O   UNL     1     -53.437  21.306 -37.135  1.00  0.00    -0.550 OA
ENDBRANCH   1   2
BRANCH   1   5
ATOM      5  C   UNL     1     -52.201  24.697 -38.142  1.00  0.00     0.003 C 
ATOM      6  C   UNL     1     -50.724  24.378 -37.916  1.00  0.00     0.004 C 
ENDBRANCH   1   5
TORSDOF 2
ENDMDL
MODEL 2
REMARK VINA RESULT:    -3.091     16.116     16.908
REMARK INTER + INTRA:          -3.483
REMARK INTER:                  -3.444
REMARK INTRA:                  -0.040
REMARK UNBOUND:                -0.032
REMARK SMILES CCCC(=O)[O-]
REMARK SMILES IDX 3 1 4 2 5 3 6 4 2 5 1 6
REMARK H PARENT
REMARK Flexibility Score: inf
ROOT
ATOM      1  C   UNL     1     -38.618  18.641 -30.268  1.00  0.00     0.052 C 
ENDROOT
BRANCH   1   2
ATOM      2  C   UNL     1     -38.625  17.165 -30.528  1.00  0.00     0.041 C 
ATOM      3  O   UNL     1     -39.537  16.649 -31.225  1.00  0.00    -0.550 OA
ATOM      4  O   UNL     1     -37.642  16.356 -29.970  1.00  0.00    -0.550 OA
ENDBRANCH   1   2
BRANCH   1   5
ATOM      5  C   UNL     1     -38.818  18.958 -28.781  1.00  0.00     0.003 C 
ATOM      6  C   UNL     1     -40.288  19.177 -28.425  1.00  0.00     0.004 C 
ENDBRANCH   1   5
TORSDOF 2
ENDMDL
MODEL 3
REMARK VINA RESULT:    -3.082     16.089     16.949
REMARK INTER + INTRA:          -3.474
REMARK INTER:                  -3.451
REMARK INTRA:                  -0.023
REMARK UNBOUND:                -0.032
REMARK SMILES CCCC(=O)[O-]
REMARK SMILES IDX 3 1 4 2 5 3 6 4 2 5 1 6
REMARK H PARENT
REMARK Flexibility Score: inf
ROOT
ATOM      1  C   UNL     1     -38.746  18.778 -30.027  1.00  0.00     0.052 C 
ENDROOT
BRANCH   1   2
ATOM      2  C   UNL     1     -38.518  17.333 -30.352  1.00  0.00     0.041 C 
ATOM      3  O   UNL     1     -37.486  16.745 -29.933  1.00  0.00    -0.550 OA
ATOM      4  O   UNL     1     -39.428  16.647 -31.147  1.00  0.00    -0.550 OA
ENDBRANCH   1   2
BRANCH   1   5
ATOM      5  C   UNL     1     -39.036  18.987 -28.535  1.00  0.00     0.003 C 
ATOM      6  C   UNL     1     -40.510  19.291 -28.267  1.00  0.00     0.004 C 
ENDBRANCH   1   5
TORSDOF 2
ENDMDL
MODEL 4
REMARK VINA RESULT:    -3.060     15.944     16.367
REMARK INTER + INTRA:          -3.449
REMARK INTER:                  -3.417
REMARK INTRA:                  -0.032
REMARK UNBOUND:                -0.032
REMARK SMILES CCCC(=O)[O-]
REMARK SMILES IDX 3 1 4 2 5 3 6 4 2 5 1 6
REMARK H PARENT
REMARK Flexibility Score: inf
ROOT
ATOM      1  C   UNL     1     -38.793  18.843 -28.882  1.00  0.00     0.052 C 
ENDROOT
BRANCH   1   2
ATOM      2  C   UNL     1     -40.059  19.624 -28.705  1.00  0.00     0.041 C 
ATOM      3  O   UNL     1     -40.140  20.805 -29.135  1.00  0.00    -0.550 OA
ATOM      4  O   UNL     1     -41.138  19.060 -28.035  1.00  0.00    -0.550 OA
ENDBRANCH   1   2
BRANCH   1   5
ATOM      5  C   UNL     1     -38.500  18.560 -30.361  1.00  0.00     0.003 C 
ATOM      6  C   UNL     1     -38.978  17.174 -30.794  1.00  0.00     0.004 C 
ENDBRANCH   1   5
TORSDOF 2
ENDMDL
MODEL 5
REMARK VINA RESULT:    -3.032     16.915     17.552
REMARK INTER + INTRA:          -3.418
REMARK INTER:                  -3.380
REMARK INTRA:                  -0.038
REMARK UNBOUND:                -0.032
REMARK SMILES CCCC(=O)[O-]
REMARK SMILES IDX 3 1 4 2 5 3 6 4 2 5 1 6
REMARK H PARENT
REMARK Flexibility Score: inf
ROOT
ATOM      1  C   UNL     1     -39.104  18.358 -29.554  1.00  0.00     0.052 C 
ENDROOT
BRANCH   1   2
ATOM      2  C   UNL     1     -37.742  17.984 -29.058  1.00  0.00     0.041 C 
ATOM      3  O   UNL     1     -36.914  17.433 -29.831  1.00  0.00    -0.550 OA
ATOM      4  O   UNL     1     -37.398  18.212 -27.731  1.00  0.00    -0.550 OA
ENDBRANCH   1   2
BRANCH   1   5
ATOM      5  C   UNL     1     -39.686  19.548 -28.780  1.00  0.00     0.003 C 
ATOM      6  C   UNL     1     -40.940  19.172 -27.991  1.00  0.00     0.004 C 
ENDBRANCH   1   5
TORSDOF 2
ENDMDL
MODEL 6
REMARK VINA RESULT:    -2.991     16.158     16.464
REMARK INTER + INTRA:          -3.373
REMARK INTER:                  -3.347
REMARK INTRA:                  -0.026
REMARK UNBOUND:                -0.032
REMARK SMILES CCCC(=O)[O-]
REMARK SMILES IDX 3 1 4 2 5 3 6 4 2 5 1 6
REMARK H PARENT
REMARK Flexibility Score: inf
ROOT
ATOM      1  C   UNL     1     -39.165  20.424 -29.563  1.00  0.00     0.052 C 
ENDROOT
BRANCH   1   2
ATOM      2  C   UNL     1     -38.399  19.988 -30.775  1.00  0.00     0.041 C 
ATOM      3  O   UNL     1     -38.355  18.771 -31.093  1.00  0.00    -0.550 OA
ATOM      4  O   UNL     1     -37.705  20.924 -31.532  1.00  0.00    -0.550 OA
ENDBRANCH   1   2
BRANCH   1   5
ATOM      5  C   UNL     1     -39.409  19.260 -28.594  1.00  0.00     0.003 C 
ATOM      6  C   UNL     1     -40.842  19.235 -28.064  1.00  0.00     0.004 C 
ENDBRANCH   1   5
TORSDOF 2
ENDMDL
MODEL 7
REMARK VINA RESULT:    -2.969     16.482     16.973
REMARK INTER + INTRA:          -3.348
REMARK INTER:                  -3.329
REMARK INTRA:                  -0.019
REMARK UNBOUND:                -0.032
REMARK SMILES CCCC(=O)[O-]
REMARK SMILES IDX 3 1 4 2 5 3 6 4 2 5 1 6
REMARK H PARENT
REMARK Flexibility Score: inf
ROOT
ATOM      1  C   UNL     1     -39.655  20.752 -29.196  1.00  0.00     0.052 C 
ENDROOT
BRANCH   1   2
ATOM      2  C   UNL     1     -38.272  21.172 -28.802  1.00  0.00     0.041 C 
ATOM      3  O   UNL     1     -37.993  22.394 -28.674  1.00  0.00    -0.550 OA
ATOM      4  O   UNL     1     -37.283  20.216 -28.609  1.00  0.00    -0.550 OA
ENDBRANCH   1   2
BRANCH   1   5
ATOM      5  C   UNL     1     -39.927  19.284 -28.843  1.00  0.00     0.003 C 
ATOM      6  C   UNL     1     -41.127  19.123 -27.911  1.00  0.00     0.004 C 
ENDBRANCH   1   5
TORSDOF 2
ENDMDL
MODEL 8
REMARK VINA RESULT:    -2.907      1.487      2.425
REMARK INTER + INTRA:          -3.279
REMARK INTER:                  -3.286
REMARK INTRA:                   0.007
REMARK UNBOUND:                -0.032
REMARK SMILES CCCC(=O)[O-]
REMARK SMILES IDX 3 1 4 2 5 3 6 4 2 5 1 6
REMARK H PARENT
REMARK Flexibility Score: inf
ROOT
ATOM      1  C   UNL     1     -51.948  23.853 -38.399  1.00  0.00     0.052 C 
ENDROOT
BRANCH   1   2
ATOM      2  C   UNL     1     -52.043  22.697 -39.347  1.00  0.00     0.041 C 
ATOM      3  O   UNL     1     -53.103  22.022 -39.420  1.00  0.00    -0.550 OA
ATOM      4  O   UNL     1     -50.947  22.344 -40.125  1.00  0.00    -0.550 OA
ENDBRANCH   1   2
BRANCH   1   5
ATOM      5  C   UNL     1     -53.322  24.478 -38.124  1.00  0.00     0.003 C 
ATOM      6  C   UNL     1     -53.923  24.001 -36.802  1.00  0.00     0.004 C 
ENDBRANCH   1   5
TORSDOF 2
ENDMDL
MODEL 9
REMARK VINA RESULT:    -2.875     16.075     16.691
REMARK INTER + INTRA:          -3.242
REMARK INTER:                  -3.214
REMARK INTRA:                  -0.028
REMARK UNBOUND:                -0.032
REMARK SMILES CCCC(=O)[O-]
REMARK SMILES IDX 3 1 4 2 5 3 6 4 2 5 1 6
REMARK H PARENT
REMARK Flexibility Score: inf
ROOT
ATOM      1  C   UNL     1     -39.123  18.870 -29.245  1.00  0.00     0.052 C 
ENDROOT
BRANCH   1   2
ATOM      2  C   UNL     1     -39.150  20.286 -29.734  1.00  0.00     0.041 C 
ATOM      3  O   UNL     1     -38.732  20.565 -30.888  1.00  0.00    -0.550 OA
ATOM      4  O   UNL     1     -39.604  21.301 -28.901  1.00  0.00    -0.550 OA
ENDBRANCH   1   2
BRANCH   1   5
ATOM      5  C   UNL     1     -38.790  17.884 -30.372  1.00  0.00     0.003 C 
ATOM      6  C   UNL     1     -37.664  16.924 -29.991  1.00  0.00     0.004 C 
ENDBRANCH   1   5
TORSDOF 2
ENDMDL
