MODEL 1
REMARK VINA RESULT:    -6.019      0.000      0.000
REMARK INTER + INTRA:         -10.509
REMARK INTER:                  -9.185
REMARK INTRA:                  -1.324
REMARK UNBOUND:                -1.324
REMARK SMILES CC(=O)CCC=C(C)CCC=C(C)CCC=C(C)C
REMARK SMILES IDX 10 1 11 2 12 3 13 4 14 5 15 6 16 7 18 8 17 9 19 10 9 11 7 12
REMARK SMILES IDX 6 13 8 14 5 15 4 16 2 17 3 18 1 19
REMARK H PARENT
REMARK Flexibility Score: inf
ROOT
ATOM      1  C   UNL     1      16.439 -10.714  62.623  1.00  0.00     0.032 C 
ENDROOT
BRANCH   1   2
ATOM      2  C   UNL     1      16.087  -9.247  62.542  1.00  0.00    -0.028 C 
ATOM      3  C   UNL     1      14.879  -8.756  62.898  1.00  0.00    -0.077 C 
ATOM      4  C   UNL     1      13.785  -9.660  63.416  1.00  0.00     0.039 C 
BRANCH   3   5
ATOM      5  C   UNL     1      14.617  -7.269  62.776  1.00  0.00     0.034 C 
BRANCH   5   6
ATOM      6  C   UNL     1      13.320  -6.977  62.007  1.00  0.00     0.032 C 
BRANCH   6   7
ATOM      7  C   UNL     1      12.746  -5.628  62.373  1.00  0.00    -0.028 C 
ATOM      8  C   UNL     1      11.245  -6.557  64.149  1.00  0.00     0.039 C 
ATOM      9  C   UNL     1      11.794  -5.427  63.309  1.00  0.00    -0.080 C 
ATOM     10  C   UNL     1      11.284  -4.025  63.526  1.00  0.00     0.039 C 
ENDBRANCH   6   7
ENDBRANCH   5   6
ENDBRANCH   3   5
ENDBRANCH   1   2
BRANCH   1  11
ATOM     11  C   UNL     1      17.630 -10.973  63.556  1.00  0.00     0.034 C 
BRANCH  11  12
ATOM     12  C   UNL     1      17.246 -10.858  65.018  1.00  0.00    -0.077 C 
ATOM     13  C   UNL     1      17.953 -10.030  65.821  1.00  0.00    -0.028 C 
ATOM     14  C   UNL     1      16.077 -11.663  65.539  1.00  0.00     0.039 C 
BRANCH  13  15
ATOM     15  C   UNL     1      17.653  -9.793  67.281  1.00  0.00     0.035 C 
BRANCH  15  16
ATOM     16  C   UNL     1      18.928  -9.410  68.040  1.00  0.00     0.079 C 
BRANCH  16  17
ATOM     17  C   UNL     1      19.331 -10.508  68.988  1.00  0.00     0.130 C 
ATOM     18  O   UNL     1      19.927 -10.227  70.017  1.00  0.00    -0.300 OA
ATOM     19  C   UNL     1      19.007 -11.945  68.701  1.00  0.00     0.087 C 
ENDBRANCH  16  17
ENDBRANCH  15  16
ENDBRANCH  13  15
ENDBRANCH  11  12
ENDBRANCH   1  11
TORSDOF 9
ENDMDL
MODEL 2
REMARK VINA RESULT:    -5.673      1.317      2.065
REMARK INTER + INTRA:          -9.982
REMARK INTER:                  -8.475
REMARK INTRA:                  -1.507
REMARK UNBOUND:                -1.324
REMARK SMILES CC(=O)CCC=C(C)CCC=C(C)CCC=C(C)C
REMARK SMILES IDX 10 1 11 2 12 3 13 4 14 5 15 6 16 7 18 8 17 9 19 10 9 11 7 12
REMARK SMILES IDX 6 13 8 14 5 15 4 16 2 17 3 18 1 19
REMARK H PARENT
REMARK Flexibility Score: inf
ROOT
ATOM      1  C   UNL     1      14.432 -11.000  63.571  1.00  0.00     0.032 C 
ENDROOT
BRANCH   1   2
ATOM      2  C   UNL     1      14.137  -9.536  63.335  1.00  0.00    -0.028 C 
ATOM      3  C   UNL     1      15.083  -8.642  62.973  1.00  0.00    -0.077 C 
ATOM      4  C   UNL     1      16.521  -9.057  62.769  1.00  0.00     0.039 C 
BRANCH   3   5
ATOM      5  C   UNL     1      14.693  -7.193  62.765  1.00  0.00     0.034 C 
BRANCH   5   6
ATOM      6  C   UNL     1      13.256  -7.054  62.242  1.00  0.00     0.032 C 
BRANCH   6   7
ATOM      7  C   UNL     1      12.674  -5.696  62.557  1.00  0.00    -0.028 C 
ATOM      8  C   UNL     1      11.196  -6.564  64.383  1.00  0.00     0.039 C 
ATOM      9  C   UNL     1      11.728  -5.465  63.493  1.00  0.00    -0.080 C 
ATOM     10  C   UNL     1      11.209  -4.059  63.658  1.00  0.00     0.039 C 
ENDBRANCH   6   7
ENDBRANCH   5   6
ENDBRANCH   3   5
ENDBRANCH   1   2
BRANCH   1  11
ATOM     11  C   UNL     1      14.576 -11.327  65.064  1.00  0.00     0.034 C 
BRANCH  11  12
ATOM     12  C   UNL     1      16.021 -11.550  65.463  1.00  0.00    -0.077 C 
ATOM     13  C   UNL     1      16.461 -11.059  66.645  1.00  0.00    -0.028 C 
ATOM     14  C   UNL     1      16.931 -12.323  64.537  1.00  0.00     0.039 C 
BRANCH  13  15
ATOM     15  C   UNL     1      17.859 -11.244  67.180  1.00  0.00     0.035 C 
BRANCH  15  16
ATOM     16  C   UNL     1      18.575  -9.895  67.302  1.00  0.00     0.079 C 
BRANCH  16  17
ATOM     17  C   UNL     1      19.722  -9.813  66.330  1.00  0.00     0.130 C 
ATOM     18  O   UNL     1      20.868  -9.921  66.740  1.00  0.00    -0.300 OA
ATOM     19  C   UNL     1      19.488  -9.610  64.862  1.00  0.00     0.087 C 
ENDBRANCH  16  17
ENDBRANCH  15  16
ENDBRANCH  13  15
ENDBRANCH  11  12
ENDBRANCH   1  11
TORSDOF 9
ENDMDL
MODEL 3
REMARK VINA RESULT:    -5.647      3.976      8.190
REMARK INTER + INTRA:          -9.941
REMARK INTER:                  -8.301
REMARK INTRA:                  -1.641
REMARK UNBOUND:                -1.324
REMARK SMILES CC(=O)CCC=C(C)CCC=C(C)CCC=C(C)C
REMARK SMILES IDX 10 1 11 2 12 3 13 4 14 5 15 6 16 7 18 8 17 9 19 10 9 11 7 12
REMARK SMILES IDX 6 13 8 14 5 15 4 16 2 17 3 18 1 19
REMARK H PARENT
REMARK Flexibility Score: inf
ROOT
ATOM      1  C   UNL     1      19.881  -9.683  67.525  1.00  0.00     0.032 C 
ENDROOT
BRANCH   1   2
ATOM      2  C   UNL     1      20.116  -9.437  66.052  1.00  0.00    -0.028 C 
ATOM      3  C   UNL     1      20.596 -10.381  65.213  1.00  0.00    -0.077 C 
ATOM      4  C   UNL     1      20.929 -11.772  65.702  1.00  0.00     0.039 C 
BRANCH   3   5
ATOM      5  C   UNL     1      20.804 -10.039  63.752  1.00  0.00     0.034 C 
BRANCH   5   6
ATOM      6  C   UNL     1      22.243  -9.586  63.469  1.00  0.00     0.032 C 
BRANCH   6   7
ATOM      7  C   UNL     1      22.929 -10.492  62.473  1.00  0.00    -0.028 C 
ATOM      8  C   UNL     1      24.236 -11.714  64.226  1.00  0.00     0.039 C 
ATOM      9  C   UNL     1      23.847 -11.429  62.794  1.00  0.00    -0.080 C 
ATOM     10  C   UNL     1      24.482 -12.223  61.680  1.00  0.00     0.039 C 
ENDBRANCH   6   7
ENDBRANCH   5   6
ENDBRANCH   3   5
ENDBRANCH   1   2
BRANCH   1  11
ATOM     11  C   UNL     1      18.388  -9.682  67.881  1.00  0.00     0.034 C 
BRANCH  11  12
ATOM     12  C   UNL     1      17.639 -10.817  67.210  1.00  0.00    -0.077 C 
ATOM     13  C   UNL     1      16.804 -10.537  66.183  1.00  0.00    -0.028 C 
ATOM     14  C   UNL     1      17.853 -12.231  67.697  1.00  0.00     0.039 C 
BRANCH  13  15
ATOM     15  C   UNL     1      16.032 -11.572  65.403  1.00  0.00     0.035 C 
BRANCH  15  16
ATOM     16  C   UNL     1      15.542 -10.993  64.072  1.00  0.00     0.079 C 
BRANCH  16  17
ATOM     17  C   UNL     1      16.706 -10.672  63.173  1.00  0.00     0.130 C 
ATOM     18  O   UNL     1      17.256 -11.571  62.555  1.00  0.00    -0.300 OA
ATOM     19  C   UNL     1      17.200  -9.265  63.009  1.00  0.00     0.087 C 
ENDBRANCH  16  17
ENDBRANCH  15  16
ENDBRANCH  13  15
ENDBRANCH  11  12
ENDBRANCH   1  11
TORSDOF 9
ENDMDL
MODEL 4
REMARK VINA RESULT:    -5.519      3.274      5.398
REMARK INTER + INTRA:          -9.746
REMARK INTER:                  -8.230
REMARK INTRA:                  -1.516
REMARK UNBOUND:                -1.324
REMARK SMILES CC(=O)CCC=C(C)CCC=C(C)CCC=C(C)C
REMARK SMILES IDX 10 1 11 2 12 3 13 4 14 5 15 6 16 7 18 8 17 9 19 10 9 11 7 12
REMARK SMILES IDX 6 13 8 14 5 15 4 16 2 17 3 18 1 19
REMARK H PARENT
REMARK Flexibility Score: inf
ROOT
ATOM      1  C   UNL     1      17.620  -9.915  67.374  1.00  0.00     0.032 C 
ENDROOT
BRANCH   1   2
ATOM      2  C   UNL     1      16.771 -10.958  66.684  1.00  0.00    -0.028 C 
ATOM      3  C   UNL     1      16.596 -11.000  65.344  1.00  0.00    -0.077 C 
ATOM      4  C   UNL     1      17.257  -9.992  64.433  1.00  0.00     0.039 C 
BRANCH   3   5
ATOM      5  C   UNL     1      15.721 -12.080  64.743  1.00  0.00     0.034 C 
BRANCH   5   6
ATOM      6  C   UNL     1      14.240 -11.880  65.094  1.00  0.00     0.032 C 
BRANCH   6   7
ATOM      7  C   UNL     1      13.359 -11.957  63.869  1.00  0.00    -0.028 C 
ATOM      8  C   UNL     1      13.693  -9.549  63.267  1.00  0.00     0.039 C 
ATOM      9  C   UNL     1      13.081 -10.914  63.058  1.00  0.00    -0.080 C 
ATOM     10  C   UNL     1      12.142 -11.136  61.899  1.00  0.00     0.039 C 
ENDBRANCH   6   7
ENDBRANCH   5   6
ENDBRANCH   3   5
ENDBRANCH   1   2
BRANCH   1  11
ATOM     11  C   UNL     1      18.855 -10.529  68.048  1.00  0.00     0.034 C 
BRANCH  11  12
ATOM     12  C   UNL     1      19.865 -11.034  67.037  1.00  0.00    -0.077 C 
ATOM     13  C   UNL     1      20.510 -10.143  66.249  1.00  0.00    -0.028 C 
ATOM     14  C   UNL     1      20.135 -12.518  66.944  1.00  0.00     0.039 C 
BRANCH  13  15
ATOM     15  C   UNL     1      21.565 -10.507  65.234  1.00  0.00     0.035 C 
BRANCH  15  16
ATOM     16  C   UNL     1      21.339  -9.748  63.922  1.00  0.00     0.079 C 
BRANCH  16  17
ATOM     17  C   UNL     1      22.397 -10.105  62.913  1.00  0.00     0.130 C 
ATOM     18  O   UNL     1      22.186  -9.910  61.725  1.00  0.00    -0.300 OA
ATOM     19  C   UNL     1      23.713 -10.689  63.335  1.00  0.00     0.087 C 
ENDBRANCH  16  17
ENDBRANCH  15  16
ENDBRANCH  13  15
ENDBRANCH  11  12
ENDBRANCH   1  11
TORSDOF 9
ENDMDL
MODEL 5
REMARK VINA RESULT:    -5.493      2.911      4.017
REMARK INTER + INTRA:          -9.707
REMARK INTER:                  -8.077
REMARK INTRA:                  -1.629
REMARK UNBOUND:                -1.324
REMARK SMILES CC(=O)CCC=C(C)CCC=C(C)CCC=C(C)C
REMARK SMILES IDX 10 1 11 2 12 3 13 4 14 5 15 6 16 7 18 8 17 9 19 10 9 11 7 12
REMARK SMILES IDX 6 13 8 14 5 15 4 16 2 17 3 18 1 19
REMARK H PARENT
REMARK Flexibility Score: inf
ROOT
ATOM      1  C   UNL     1      15.675  -9.714  63.711  1.00  0.00     0.032 C 
ENDROOT
BRANCH   1   2
ATOM      2  C   UNL     1      15.219 -11.024  63.111  1.00  0.00    -0.028 C 
ATOM      3  C   UNL     1      14.577 -11.978  63.821  1.00  0.00    -0.077 C 
ATOM      4  C   UNL     1      14.261 -11.789  65.286  1.00  0.00     0.039 C 
BRANCH   3   5
ATOM      5  C   UNL     1      14.164 -13.263  63.133  1.00  0.00     0.034 C 
BRANCH   5   6
ATOM      6  C   UNL     1      12.692 -13.232  62.695  1.00  0.00     0.032 C 
BRANCH   6   7
ATOM      7  C   UNL     1      12.545 -12.780  61.261  1.00  0.00    -0.028 C 
ATOM      8  C   UNL     1      11.701 -10.506  61.885  1.00  0.00     0.039 C 
ATOM      9  C   UNL     1      12.074 -11.572  60.882  1.00  0.00    -0.080 C 
ATOM     10  C   UNL     1      11.938 -11.285  59.408  1.00  0.00     0.039 C 
ENDBRANCH   6   7
ENDBRANCH   5   6
ENDBRANCH   3   5
ENDBRANCH   1   2
BRANCH   1  11
ATOM     11  C   UNL     1      17.202  -9.563  63.676  1.00  0.00     0.034 C 
BRANCH  11  12
ATOM     12  C   UNL     1      17.865 -10.176  64.894  1.00  0.00    -0.077 C 
ATOM     13  C   UNL     1      17.342  -9.936  66.118  1.00  0.00    -0.028 C 
ATOM     14  C   UNL     1      19.087 -11.047  64.709  1.00  0.00     0.039 C 
BRANCH  13  15
ATOM     15  C   UNL     1      17.877 -10.515  67.405  1.00  0.00     0.035 C 
BRANCH  15  16
ATOM     16  C   UNL     1      18.774  -9.502  68.123  1.00  0.00     0.079 C 
BRANCH  16  17
ATOM     17  C   UNL     1      19.497 -10.153  69.272  1.00  0.00     0.130 C 
ATOM     18  O   UNL     1      19.674  -9.525  70.305  1.00  0.00    -0.300 OA
ATOM     19  C   UNL     1      19.998 -11.564  69.181  1.00  0.00     0.087 C 
ENDBRANCH  16  17
ENDBRANCH  15  16
ENDBRANCH  13  15
ENDBRANCH  11  12
ENDBRANCH   1  11
TORSDOF 9
ENDMDL
MODEL 6
REMARK VINA RESULT:    -5.477      1.952      2.757
REMARK INTER + INTRA:          -9.682
REMARK INTER:                  -8.208
REMARK INTRA:                  -1.474
REMARK UNBOUND:                -1.324
REMARK SMILES CC(=O)CCC=C(C)CCC=C(C)CCC=C(C)C
REMARK SMILES IDX 10 1 11 2 12 3 13 4 14 5 15 6 16 7 18 8 17 9 19 10 9 11 7 12
REMARK SMILES IDX 6 13 8 14 5 15 4 16 2 17 3 18 1 19
REMARK H PARENT
REMARK Flexibility Score: inf
ROOT
ATOM      1  C   UNL     1      16.682 -12.040  63.109  1.00  0.00     0.032 C 
ENDROOT
BRANCH   1   2
ATOM      2  C   UNL     1      15.279 -11.641  62.714  1.00  0.00    -0.028 C 
ATOM      3  C   UNL     1      14.233 -11.675  63.569  1.00  0.00    -0.077 C 
ATOM      4  C   UNL     1      14.404 -12.115  65.004  1.00  0.00     0.039 C 
BRANCH   3   5
ATOM      5  C   UNL     1      12.860 -11.262  63.079  1.00  0.00     0.034 C 
BRANCH   5   6
ATOM      6  C   UNL     1      12.935 -10.110  62.067  1.00  0.00     0.032 C 
BRANCH   6   7
ATOM      7  C   UNL     1      13.507  -8.857  62.686  1.00  0.00    -0.028 C 
ATOM      8  C   UNL     1      15.056  -8.411  60.769  1.00  0.00     0.039 C 
ATOM      9  C   UNL     1      14.480  -8.102  62.131  1.00  0.00    -0.080 C 
ATOM     10  C   UNL     1      14.984  -6.905  62.896  1.00  0.00     0.039 C 
ENDBRANCH   6   7
ENDBRANCH   5   6
ENDBRANCH   3   5
ENDBRANCH   1   2
BRANCH   1  11
ATOM     11  C   UNL     1      17.488 -10.853  63.654  1.00  0.00     0.034 C 
BRANCH  11  12
ATOM     12  C   UNL     1      17.820 -11.015  65.125  1.00  0.00    -0.077 C 
ATOM     13  C   UNL     1      17.424 -10.060  65.997  1.00  0.00    -0.028 C 
ATOM     14  C   UNL     1      18.576 -12.242  65.579  1.00  0.00     0.039 C 
BRANCH  13  15
ATOM     15  C   UNL     1      17.652 -10.116  67.487  1.00  0.00     0.035 C 
BRANCH  15  16
ATOM     16  C   UNL     1      19.011  -9.508  67.850  1.00  0.00     0.079 C 
BRANCH  16  17
ATOM     17  C   UNL     1      19.547 -10.123  69.116  1.00  0.00     0.130 C 
ATOM     18  O   UNL     1      19.571  -9.462  70.143  1.00  0.00    -0.300 OA
ATOM     19  C   UNL     1      20.046 -11.538  69.146  1.00  0.00     0.087 C 
ENDBRANCH  16  17
ENDBRANCH  15  16
ENDBRANCH  13  15
ENDBRANCH  11  12
ENDBRANCH   1  11
TORSDOF 9
ENDMDL
MODEL 7
REMARK VINA RESULT:    -5.453      6.861     11.523
REMARK INTER + INTRA:          -9.646
REMARK INTER:                  -7.984
REMARK INTRA:                  -1.662
REMARK UNBOUND:                -1.324
REMARK SMILES CC(=O)CCC=C(C)CCC=C(C)CCC=C(C)C
REMARK SMILES IDX 10 1 11 2 12 3 13 4 14 5 15 6 16 7 18 8 17 9 19 10 9 11 7 12
REMARK SMILES IDX 6 13 8 14 5 15 4 16 2 17 3 18 1 19
REMARK H PARENT
REMARK Flexibility Score: inf
ROOT
ATOM      1  C   UNL     1       7.224  -1.194  62.080  1.00  0.00     0.032 C 
ENDROOT
BRANCH   1   2
ATOM      2  C   UNL     1       6.543  -0.393  63.166  1.00  0.00    -0.028 C 
ATOM      3  C   UNL     1       7.192   0.509  63.936  1.00  0.00    -0.077 C 
ATOM      4  C   UNL     1       8.666   0.784  63.752  1.00  0.00     0.039 C 
BRANCH   3   5
ATOM      5  C   UNL     1       6.426   1.260  65.005  1.00  0.00     0.034 C 
BRANCH   5   6
ATOM      6  C   UNL     1       5.476   2.305  64.403  1.00  0.00     0.032 C 
BRANCH   6   7
ATOM      7  C   UNL     1       6.207   3.570  64.018  1.00  0.00    -0.028 C 
ATOM      8  C   UNL     1       6.148   3.063  61.566  1.00  0.00     0.039 C 
ATOM      9  C   UNL     1       6.542   3.909  62.755  1.00  0.00    -0.080 C 
ATOM     10  C   UNL     1       7.318   5.182  62.535  1.00  0.00     0.039 C 
ENDBRANCH   6   7
ENDBRANCH   5   6
ENDBRANCH   3   5
ENDBRANCH   1   2
BRANCH   1  11
ATOM     11  C   UNL     1       7.407  -2.666  62.476  1.00  0.00     0.034 C 
BRANCH  11  12
ATOM     12  C   UNL     1       8.817  -3.158  62.213  1.00  0.00    -0.077 C 
ATOM     13  C   UNL     1       9.825  -2.714  62.998  1.00  0.00    -0.028 C 
ATOM     14  C   UNL     1       9.058  -4.139  61.089  1.00  0.00     0.039 C 
BRANCH  13  15
ATOM     15  C   UNL     1      11.263  -3.153  62.871  1.00  0.00     0.035 C 
BRANCH  15  16
ATOM     16  C   UNL     1      11.617  -4.168  63.963  1.00  0.00     0.079 C 
BRANCH  16  17
ATOM     17  C   UNL     1      11.819  -5.537  63.370  1.00  0.00     0.130 C 
ATOM     18  O   UNL     1      12.782  -5.744  62.648  1.00  0.00    -0.300 OA
ATOM     19  C   UNL     1      10.865  -6.660  63.655  1.00  0.00     0.087 C 
ENDBRANCH  16  17
ENDBRANCH  15  16
ENDBRANCH  13  15
ENDBRANCH  11  12
ENDBRANCH   1  11
TORSDOF 9
ENDMDL
MODEL 8
REMARK VINA RESULT:    -5.408      8.302     11.357
REMARK INTER + INTRA:          -9.577
REMARK INTER:                  -7.338
REMARK INTRA:                  -2.239
REMARK UNBOUND:                -1.324
REMARK SMILES CC(=O)CCC=C(C)CCC=C(C)CCC=C(C)C
REMARK SMILES IDX 10 1 11 2 12 3 13 4 14 5 15 6 16 7 18 8 17 9 19 10 9 11 7 12
REMARK SMILES IDX 6 13 8 14 5 15 4 16 2 17 3 18 1 19
REMARK H PARENT
REMARK Flexibility Score: inf
ROOT
ATOM      1  C   UNL     1      11.054  -8.497  54.108  1.00  0.00     0.032 C 
ENDROOT
BRANCH   1   2
ATOM      2  C   UNL     1      12.462  -8.345  54.636  1.00  0.00    -0.028 C 
ATOM      3  C   UNL     1      12.821  -7.385  55.517  1.00  0.00    -0.077 C 
ATOM      4  C   UNL     1      11.817  -6.388  56.046  1.00  0.00     0.039 C 
BRANCH   3   5
ATOM      5  C   UNL     1      14.260  -7.307  55.985  1.00  0.00     0.034 C 
BRANCH   5   6
ATOM      6  C   UNL     1      14.396  -7.638  57.478  1.00  0.00     0.032 C 
BRANCH   6   7
ATOM      7  C   UNL     1      14.275  -9.122  57.735  1.00  0.00    -0.028 C 
ATOM      8  C   UNL     1      12.042  -8.921  58.850  1.00  0.00     0.039 C 
ATOM      9  C   UNL     1      13.241  -9.709  58.375  1.00  0.00    -0.080 C 
ATOM     10  C   UNL     1      13.288 -11.198  58.601  1.00  0.00     0.039 C 
ENDBRANCH   6   7
ENDBRANCH   5   6
ENDBRANCH   3   5
ENDBRANCH   1   2
BRANCH   1  11
ATOM     11  C   UNL     1      10.499  -9.909  54.342  1.00  0.00     0.034 C 
BRANCH  11  12
ATOM     12  C   UNL     1       9.936 -10.077  55.740  1.00  0.00    -0.077 C 
ATOM     13  C   UNL     1       9.174  -9.091  56.266  1.00  0.00    -0.028 C 
ATOM     14  C   UNL     1      10.233 -11.346  56.506  1.00  0.00     0.039 C 
BRANCH  13  15
ATOM     15  C   UNL     1       8.521  -9.148  57.625  1.00  0.00     0.035 C 
BRANCH  15  16
ATOM     16  C   UNL     1       7.062  -9.600  57.506  1.00  0.00     0.079 C 
BRANCH  16  17
ATOM     17  C   UNL     1       6.230  -9.006  58.612  1.00  0.00     0.130 C 
ATOM     18  O   UNL     1       6.076  -9.630  59.651  1.00  0.00    -0.300 OA
ATOM     19  C   UNL     1       5.592  -7.655  58.469  1.00  0.00     0.087 C 
ENDBRANCH  16  17
ENDBRANCH  15  16
ENDBRANCH  13  15
ENDBRANCH  11  12
ENDBRANCH   1  11
TORSDOF 9
ENDMDL
MODEL 9
REMARK VINA RESULT:    -5.336      3.201      7.358
REMARK INTER + INTRA:          -9.468
REMARK INTER:                  -7.649
REMARK INTRA:                  -1.819
REMARK UNBOUND:                -1.324
REMARK SMILES CC(=O)CCC=C(C)CCC=C(C)CCC=C(C)C
REMARK SMILES IDX 10 1 11 2 12 3 13 4 14 5 15 6 16 7 18 8 17 9 19 10 9 11 7 12
REMARK SMILES IDX 6 13 8 14 5 15 4 16 2 17 3 18 1 19
REMARK H PARENT
REMARK Flexibility Score: inf
ROOT
ATOM      1  C   UNL     1      17.047 -13.284  64.330  1.00  0.00     0.032 C 
ENDROOT
BRANCH   1   2
ATOM      2  C   UNL     1      18.077 -12.749  65.298  1.00  0.00    -0.028 C 
ATOM      3  C   UNL     1      17.813 -11.770  66.192  1.00  0.00    -0.077 C 
ATOM      4  C   UNL     1      16.444 -11.140  66.286  1.00  0.00     0.039 C 
BRANCH   3   5
ATOM      5  C   UNL     1      18.913 -11.294  67.118  1.00  0.00     0.034 C 
BRANCH   5   6
ATOM      6  C   UNL     1      19.405  -9.887  66.750  1.00  0.00     0.032 C 
BRANCH   6   7
ATOM      7  C   UNL     1      20.598  -9.937  65.822  1.00  0.00    -0.028 C 
ATOM      8  C   UNL     1      19.221  -9.603  63.757  1.00  0.00     0.039 C 
ATOM      9  C   UNL     1      20.528  -9.841  64.477  1.00  0.00    -0.080 C 
ATOM     10  C   UNL     1      21.803  -9.959  63.682  1.00  0.00     0.039 C 
ENDBRANCH   6   7
ENDBRANCH   5   6
ENDBRANCH   3   5
ENDBRANCH   1   2
BRANCH   1  11
ATOM     11  C   UNL     1      17.216 -12.694  62.923  1.00  0.00     0.034 C 
BRANCH  11  12
ATOM     12  C   UNL     1      15.964 -11.985  62.446  1.00  0.00    -0.077 C 
ATOM     13  C   UNL     1      15.862 -10.647  62.611  1.00  0.00    -0.028 C 
ATOM     14  C   UNL     1      14.866 -12.790  61.789  1.00  0.00     0.039 C 
BRANCH  13  15
ATOM     15  C   UNL     1      14.693  -9.814  62.147  1.00  0.00     0.035 C 
BRANCH  15  16
ATOM     16  C   UNL     1      13.845  -9.358  63.340  1.00  0.00     0.079 C 
BRANCH  16  17
ATOM     17  C   UNL     1      13.048  -8.131  62.986  1.00  0.00     0.130 C 
ATOM     18  O   UNL     1      11.831  -8.207  62.903  1.00  0.00    -0.300 OA
ATOM     19  C   UNL     1      13.716  -6.810  62.743  1.00  0.00     0.087 C 
ENDBRANCH  16  17
ENDBRANCH  15  16
ENDBRANCH  13  15
ENDBRANCH  11  12
ENDBRANCH   1  11
TORSDOF 9
ENDMDL
