MODEL 1
REMARK VINA RESULT:    -3.567      0.000      0.000
REMARK INTER + INTRA:          -4.029
REMARK INTER:                  -3.984
REMARK INTRA:                  -0.045
REMARK UNBOUND:                -0.045
REMARK SMILES CCCC(=O)[O-]
REMARK SMILES IDX 3 1 4 2 5 3 6 4 2 5 1 6
REMARK H PARENT
REMARK Flexibility Score: inf
ROOT
ATOM      1  C   UNL     1       4.862  17.783  -6.693  1.00  0.00     0.052 C 
ENDROOT
BRANCH   1   2
ATOM      2  C   UNL     1       6.149  17.769  -5.926  1.00  0.00     0.041 C 
ATOM      3  O   UNL     1       6.191  18.217  -4.749  1.00  0.00    -0.550 OA
ATOM      4  O   UNL     1       7.295  17.231  -6.498  1.00  0.00    -0.550 OA
ENDBRANCH   1   2
BRANCH   1   5
ATOM      5  C   UNL     1       3.969  16.591  -6.328  1.00  0.00     0.003 C 
ATOM      6  C   UNL     1       4.383  15.311  -7.053  1.00  0.00     0.004 C 
ENDBRANCH   1   5
TORSDOF 2
ENDMDL
MODEL 2
REMARK VINA RESULT:    -3.491      0.187      1.326
REMARK INTER + INTRA:          -3.944
REMARK INTER:                  -3.898
REMARK INTRA:                  -0.046
REMARK UNBOUND:                -0.045
REMARK SMILES CCCC(=O)[O-]
REMARK SMILES IDX 3 1 4 2 5 3 6 4 2 5 1 6
REMARK H PARENT
REMARK Flexibility Score: inf
ROOT
ATOM      1  C   UNL     1       4.744  17.764  -6.694  1.00  0.00     0.052 C 
ENDROOT
BRANCH   1   2
ATOM      2  C   UNL     1       6.083  17.830  -6.028  1.00  0.00     0.041 C 
ATOM      3  O   UNL     1       7.127  17.548  -6.674  1.00  0.00    -0.550 OA
ATOM      4  O   UNL     1       6.183  18.236  -4.703  1.00  0.00    -0.550 OA
ENDBRANCH   1   2
BRANCH   1   5
ATOM      5  C   UNL     1       3.948  16.530  -6.250  1.00  0.00     0.003 C 
ATOM      6  C   UNL     1       4.338  15.274  -7.031  1.00  0.00     0.004 C 
ENDBRANCH   1   5
TORSDOF 2
ENDMDL
MODEL 3
REMARK VINA RESULT:    -3.315      1.766      2.294
REMARK INTER + INTRA:          -3.747
REMARK INTER:                  -3.708
REMARK INTRA:                  -0.039
REMARK UNBOUND:                -0.045
REMARK SMILES CCCC(=O)[O-]
REMARK SMILES IDX 3 1 4 2 5 3 6 4 2 5 1 6
REMARK H PARENT
REMARK Flexibility Score: inf
ROOT
ATOM      1  C   UNL     1       5.869  16.302  -8.098  1.00  0.00     0.052 C 
ENDROOT
BRANCH   1   2
ATOM      2  C   UNL     1       7.306  16.641  -7.847  1.00  0.00     0.041 C 
ATOM      3  O   UNL     1       7.615  17.475  -6.954  1.00  0.00    -0.550 OA
ATOM      4  O   UNL     1       8.308  16.012  -8.576  1.00  0.00    -0.550 OA
ENDBRANCH   1   2
BRANCH   1   5
ATOM      5  C   UNL     1       4.925  17.359  -7.511  1.00  0.00     0.003 C 
ATOM      6  C   UNL     1       4.135  16.833  -6.313  1.00  0.00     0.004 C 
ENDBRANCH   1   5
TORSDOF 2
ENDMDL
MODEL 4
REMARK VINA RESULT:    -3.258     13.585     14.573
REMARK INTER + INTRA:          -3.684
REMARK INTER:                  -3.646
REMARK INTRA:                  -0.038
REMARK UNBOUND:                -0.045
REMARK SMILES CCCC(=O)[O-]
REMARK SMILES IDX 3 1 4 2 5 3 6 4 2 5 1 6
REMARK H PARENT
REMARK Flexibility Score: inf
ROOT
ATOM      1  C   UNL     1      17.610  19.734 -13.535  1.00  0.00     0.052 C 
ENDROOT
BRANCH   1   2
ATOM      2  C   UNL     1      17.221  19.723 -12.089  1.00  0.00     0.041 C 
ATOM      3  O   UNL     1      16.300  20.476 -11.674  1.00  0.00    -0.550 OA
ATOM      4  O   UNL     1      17.853  18.858 -11.203  1.00  0.00    -0.550 OA
ENDBRANCH   1   2
BRANCH   1   5
ATOM      5  C   UNL     1      19.025  20.291 -13.740  1.00  0.00     0.003 C 
ATOM      6  C   UNL     1      20.028  19.203 -14.121  1.00  0.00     0.004 C 
ENDBRANCH   1   5
TORSDOF 2
ENDMDL
MODEL 5
REMARK VINA RESULT:    -3.240     13.445     14.083
REMARK INTER + INTRA:          -3.663
REMARK INTER:                  -3.635
REMARK INTRA:                  -0.028
REMARK UNBOUND:                -0.045
REMARK SMILES CCCC(=O)[O-]
REMARK SMILES IDX 3 1 4 2 5 3 6 4 2 5 1 6
REMARK H PARENT
REMARK Flexibility Score: inf
ROOT
ATOM      1  C   UNL     1      18.159  19.151 -12.676  1.00  0.00     0.052 C 
ENDROOT
BRANCH   1   2
ATOM      2  C   UNL     1      18.658  18.344 -11.517  1.00  0.00     0.041 C 
ATOM      3  O   UNL     1      18.614  18.816 -10.350  1.00  0.00    -0.550 OA
ATOM      4  O   UNL     1      19.140  17.057 -11.721  1.00  0.00    -0.550 OA
ENDBRANCH   1   2
BRANCH   1   5
ATOM      5  C   UNL     1      16.809  19.812 -12.370  1.00  0.00     0.003 C 
ATOM      6  C   UNL     1      16.788  21.294 -12.744  1.00  0.00     0.004 C 
ENDBRANCH   1   5
TORSDOF 2
ENDMDL
MODEL 6
REMARK VINA RESULT:    -3.225     12.397     13.377
REMARK INTER + INTRA:          -3.647
REMARK INTER:                  -3.626
REMARK INTRA:                  -0.021
REMARK UNBOUND:                -0.045
REMARK SMILES CCCC(=O)[O-]
REMARK SMILES IDX 3 1 4 2 5 3 6 4 2 5 1 6
REMARK H PARENT
REMARK Flexibility Score: inf
ROOT
ATOM      1  C   UNL     1      16.406  20.386 -12.189  1.00  0.00     0.052 C 
ENDROOT
BRANCH   1   2
ATOM      2  C   UNL     1      15.519  21.592 -12.226  1.00  0.00     0.041 C 
ATOM      3  O   UNL     1      15.848  22.600 -12.907  1.00  0.00    -0.550 OA
ATOM      4  O   UNL     1      14.313  21.592 -11.537  1.00  0.00    -0.550 OA
ENDBRANCH   1   2
BRANCH   1   5
ATOM      5  C   UNL     1      17.553  20.491 -13.203  1.00  0.00     0.003 C 
ATOM      6  C   UNL     1      17.697  19.228 -14.051  1.00  0.00     0.004 C 
ENDBRANCH   1   5
TORSDOF 2
ENDMDL
MODEL 7
REMARK VINA RESULT:    -3.209      2.034      2.403
REMARK INTER + INTRA:          -3.628
REMARK INTER:                  -3.596
REMARK INTRA:                  -0.033
REMARK UNBOUND:                -0.045
REMARK SMILES CCCC(=O)[O-]
REMARK SMILES IDX 3 1 4 2 5 3 6 4 2 5 1 6
REMARK H PARENT
REMARK Flexibility Score: inf
ROOT
ATOM      1  C   UNL     1       5.704  17.117  -7.523  1.00  0.00     0.052 C 
ENDROOT
BRANCH   1   2
ATOM      2  C   UNL     1       5.618  17.838  -6.213  1.00  0.00     0.041 C 
ATOM      3  O   UNL     1       4.685  17.580  -5.408  1.00  0.00    -0.550 OA
ATOM      4  O   UNL     1       6.587  18.771  -5.867  1.00  0.00    -0.550 OA
ENDBRANCH   1   2
BRANCH   1   5
ATOM      5  C   UNL     1       6.847  16.093  -7.535  1.00  0.00     0.003 C 
ATOM      6  C   UNL     1       7.919  16.431  -8.571  1.00  0.00     0.004 C 
ENDBRANCH   1   5
TORSDOF 2
ENDMDL
MODEL 8
REMARK VINA RESULT:    -3.175     13.386     14.126
REMARK INTER + INTRA:          -3.591
REMARK INTER:                  -3.552
REMARK INTRA:                  -0.038
REMARK UNBOUND:                -0.045
REMARK SMILES CCCC(=O)[O-]
REMARK SMILES IDX 3 1 4 2 5 3 6 4 2 5 1 6
REMARK H PARENT
REMARK Flexibility Score: inf
ROOT
ATOM      1  C   UNL     1      17.884  20.564 -13.508  1.00  0.00     0.052 C 
ENDROOT
BRANCH   1   2
ATOM      2  C   UNL     1      16.817  21.005 -12.554  1.00  0.00     0.041 C 
ATOM      3  O   UNL     1      16.561  20.319 -11.529  1.00  0.00    -0.550 OA
ATOM      4  O   UNL     1      16.128  22.191 -12.778  1.00  0.00    -0.550 OA
ENDBRANCH   1   2
BRANCH   1   5
ATOM      5  C   UNL     1      17.640  19.137 -14.015  1.00  0.00     0.003 C 
ATOM      6  C   UNL     1      18.658  18.141 -13.460  1.00  0.00     0.004 C 
ENDBRANCH   1   5
TORSDOF 2
ENDMDL
MODEL 9
REMARK VINA RESULT:    -3.146     12.691     13.417
REMARK INTER + INTRA:          -3.558
REMARK INTER:                  -3.552
REMARK INTRA:                  -0.006
REMARK UNBOUND:                -0.045
REMARK SMILES CCCC(=O)[O-]
REMARK SMILES IDX 3 1 4 2 5 3 6 4 2 5 1 6
REMARK H PARENT
REMARK Flexibility Score: inf
ROOT
ATOM      1  C   UNL     1      16.960  20.917 -12.598  1.00  0.00     0.052 C 
ENDROOT
BRANCH   1   2
ATOM      2  C   UNL     1      17.544  19.547 -12.444  1.00  0.00     0.041 C 
ATOM      3  O   UNL     1      17.700  19.049 -11.297  1.00  0.00    -0.550 OA
ATOM      4  O   UNL     1      17.884  18.804 -13.567  1.00  0.00    -0.550 OA
ENDBRANCH   1   2
BRANCH   1   5
ATOM      5  C   UNL     1      15.530  20.992 -12.047  1.00  0.00     0.003 C 
ATOM      6  C   UNL     1      14.863  22.335 -12.342  1.00  0.00     0.004 C 
ENDBRANCH   1   5
TORSDOF 2
ENDMDL
