MODEL 1
REMARK VINA RESULT:    -4.466      0.000      0.000
REMARK INTER + INTRA:          -9.382
REMARK INTER:                  -7.859
REMARK INTRA:                  -1.523
REMARK UNBOUND:                -1.523
REMARK SMILES CCCCCCCCCCCCCCC(=O)[O-]
REMARK SMILES IDX 9 1 10 2 11 3 12 4 13 5 14 6 15 7 16 8 17 9 8 10 7 11 6 12
REMARK SMILES IDX 5 13 4 14 3 15 2 16 1 17
REMARK H PARENT
REMARK Flexibility Score: inf
ROOT
ATOM      1  C   UNL     1     192.885 193.665 190.751  1.00  0.00     0.000 C 
ENDROOT
BRANCH   1   2
ATOM      2  C   UNL     1     192.750 194.795 191.785  1.00  0.00     0.000 C 
BRANCH   2   3
ATOM      3  C   UNL     1     191.547 195.712 191.512  1.00  0.00     0.000 C 
BRANCH   3   4
ATOM      4  C   UNL     1     191.016 196.321 192.818  1.00  0.00     0.000 C 
BRANCH   4   5
ATOM      5  C   UNL     1     190.897 197.851 192.753  1.00  0.00     0.006 C 
BRANCH   5   6
ATOM      6  C   UNL     1     191.636 198.451 191.550  1.00  0.00     0.053 C 
BRANCH   6   7
ATOM      7  C   UNL     1     192.712 199.383 192.010  1.00  0.00     0.041 C 
ATOM      8  O   UNL     1     193.358 199.133 193.062  1.00  0.00    -0.550 OA
ATOM      9  O   UNL     1     193.036 200.501 191.253  1.00  0.00    -0.550 OA
ENDBRANCH   6   7
ENDBRANCH   5   6
ENDBRANCH   4   5
ENDBRANCH   3   4
ENDBRANCH   2   3
ENDBRANCH   1   2
BRANCH   1  10
ATOM     10  C   UNL     1     191.710 192.673 190.803  1.00  0.00     0.000 C 
BRANCH  10  11
ATOM     11  C   UNL     1     191.808 191.704 191.993  1.00  0.00    -0.000 C 
BRANCH  11  12
ATOM     12  C   UNL     1     190.466 191.533 192.728  1.00  0.00    -0.000 C 
BRANCH  12  13
ATOM     13  C   UNL     1     189.980 192.837 193.383  1.00  0.00    -0.000 C 
BRANCH  13  14
ATOM     14  C   UNL     1     188.490 193.111 193.119  1.00  0.00    -0.000 C 
BRANCH  14  15
ATOM     15  C   UNL     1     187.907 192.201 192.026  1.00  0.00    -0.000 C 
BRANCH  15  16
ATOM     16  C   UNL     1     188.010 192.817 190.623  1.00  0.00    -0.003 C 
ATOM     17  C   UNL     1     187.726 191.777 189.543  1.00  0.00     0.004 C 
ENDBRANCH  15  16
ENDBRANCH  14  15
ENDBRANCH  13  14
ENDBRANCH  12  13
ENDBRANCH  11  12
ENDBRANCH  10  11
ENDBRANCH   1  10
TORSDOF 13
ENDMDL
MODEL 2
REMARK VINA RESULT:    -4.425      3.507      7.838
REMARK INTER + INTRA:          -9.310
REMARK INTER:                  -8.462
REMARK INTRA:                  -0.848
REMARK UNBOUND:                -1.523
REMARK SMILES CCCCCCCCCCCCCCC(=O)[O-]
REMARK SMILES IDX 9 1 10 2 11 3 12 4 13 5 14 6 15 7 16 8 17 9 8 10 7 11 6 12
REMARK SMILES IDX 5 13 4 14 3 15 2 16 1 17
REMARK H PARENT
REMARK Flexibility Score: inf
ROOT
ATOM      1  C   UNL     1     191.552 196.583 192.540  1.00  0.00     0.000 C 
ENDROOT
BRANCH   1   2
ATOM      2  C   UNL     1     191.362 195.073 192.320  1.00  0.00     0.000 C 
BRANCH   2   3
ATOM      3  C   UNL     1     192.230 194.524 191.177  1.00  0.00     0.000 C 
BRANCH   3   4
ATOM      4  C   UNL     1     192.543 193.036 191.393  1.00  0.00     0.000 C 
BRANCH   4   5
ATOM      5  C   UNL     1     191.509 192.110 190.734  1.00  0.00     0.006 C 
BRANCH   5   6
ATOM      6  C   UNL     1     190.708 191.294 191.756  1.00  0.00     0.053 C 
BRANCH   6   7
ATOM      7  C   UNL     1     189.281 191.741 191.777  1.00  0.00     0.041 C 
ATOM      8  O   UNL     1     188.910 192.708 191.062  1.00  0.00    -0.550 OA
ATOM      9  O   UNL     1     188.349 191.059 192.549  1.00  0.00    -0.550 OA
ENDBRANCH   6   7
ENDBRANCH   5   6
ENDBRANCH   4   5
ENDBRANCH   3   4
ENDBRANCH   2   3
ENDBRANCH   1   2
BRANCH   1  10
ATOM     10  C   UNL     1     191.427 197.390 191.236  1.00  0.00     0.000 C 
BRANCH  10  11
ATOM     11  C   UNL     1     191.425 198.908 191.481  1.00  0.00    -0.000 C 
BRANCH  11  12
ATOM     12  C   UNL     1     192.562 199.629 190.735  1.00  0.00    -0.000 C 
BRANCH  12  13
ATOM     13  C   UNL     1     193.306 200.640 191.625  1.00  0.00    -0.000 C 
BRANCH  13  14
ATOM     14  C   UNL     1     193.381 200.191 193.094  1.00  0.00    -0.000 C 
BRANCH  14  15
ATOM     15  C   UNL     1     193.883 201.305 194.026  1.00  0.00    -0.000 C 
BRANCH  15  16
ATOM     16  C   UNL     1     193.857 200.897 195.506  1.00  0.00    -0.003 C 
ATOM     17  C   UNL     1     193.591 199.402 195.660  1.00  0.00     0.004 C 
ENDBRANCH  15  16
ENDBRANCH  14  15
ENDBRANCH  13  14
ENDBRANCH  12  13
ENDBRANCH  11  12
ENDBRANCH  10  11
ENDBRANCH   1  10
TORSDOF 13
ENDMDL
MODEL 3
REMARK VINA RESULT:    -4.420      4.015      6.158
REMARK INTER + INTRA:          -9.301
REMARK INTER:                  -7.537
REMARK INTRA:                  -1.764
REMARK UNBOUND:                -1.523
REMARK SMILES CCCCCCCCCCCCCCC(=O)[O-]
REMARK SMILES IDX 9 1 10 2 11 3 12 4 13 5 14 6 15 7 16 8 17 9 8 10 7 11 6 12
REMARK SMILES IDX 5 13 4 14 3 15 2 16 1 17
REMARK H PARENT
REMARK Flexibility Score: inf
ROOT
ATOM      1  C   UNL     1     190.330 195.956 193.273  1.00  0.00     0.000 C 
ENDROOT
BRANCH   1   2
ATOM      2  C   UNL     1     191.743 195.889 192.670  1.00  0.00     0.000 C 
BRANCH   2   3
ATOM      3  C   UNL     1     191.747 195.387 191.218  1.00  0.00     0.000 C 
BRANCH   3   4
ATOM      4  C   UNL     1     192.359 193.980 191.127  1.00  0.00     0.000 C 
BRANCH   4   5
ATOM      5  C   UNL     1     191.303 192.868 191.226  1.00  0.00     0.006 C 
BRANCH   5   6
ATOM      6  C   UNL     1     191.819 191.628 191.968  1.00  0.00     0.053 C 
BRANCH   6   7
ATOM      7  C   UNL     1     190.698 190.944 192.684  1.00  0.00     0.041 C 
ATOM      8  O   UNL     1     190.917 190.332 193.763  1.00  0.00    -0.550 OA
ATOM      9  O   UNL     1     189.404 191.023 192.187  1.00  0.00    -0.550 OA
ENDBRANCH   6   7
ENDBRANCH   5   6
ENDBRANCH   4   5
ENDBRANCH   3   4
ENDBRANCH   2   3
ENDBRANCH   1   2
BRANCH   1  10
ATOM     10  C   UNL     1     189.962 194.686 194.060  1.00  0.00     0.000 C 
BRANCH  10  11
ATOM     11  C   UNL     1     188.593 194.116 193.654  1.00  0.00    -0.000 C 
BRANCH  11  12
ATOM     12  C   UNL     1     187.601 194.067 194.830  1.00  0.00    -0.000 C 
BRANCH  12  13
ATOM     13  C   UNL     1     186.451 195.076 194.676  1.00  0.00    -0.000 C 
BRANCH  13  14
ATOM     14  C   UNL     1     186.824 196.479 195.182  1.00  0.00    -0.000 C 
BRANCH  14  15
ATOM     15  C   UNL     1     187.467 196.452 196.578  1.00  0.00    -0.000 C 
BRANCH  15  16
ATOM     16  C   UNL     1     188.803 197.206 196.632  1.00  0.00    -0.003 C 
ATOM     17  C   UNL     1     189.861 196.398 197.379  1.00  0.00     0.004 C 
ENDBRANCH  15  16
ENDBRANCH  14  15
ENDBRANCH  13  14
ENDBRANCH  12  13
ENDBRANCH  11  12
ENDBRANCH  10  11
ENDBRANCH   1  10
TORSDOF 13
ENDMDL
MODEL 4
REMARK VINA RESULT:    -4.412      3.126      4.001
REMARK INTER + INTRA:          -9.288
REMARK INTER:                  -7.493
REMARK INTRA:                  -1.795
REMARK UNBOUND:                -1.523
REMARK SMILES CCCCCCCCCCCCCCC(=O)[O-]
REMARK SMILES IDX 9 1 10 2 11 3 12 4 13 5 14 6 15 7 16 8 17 9 8 10 7 11 6 12
REMARK SMILES IDX 5 13 4 14 3 15 2 16 1 17
REMARK H PARENT
REMARK Flexibility Score: inf
ROOT
ATOM      1  C   UNL     1     191.711 193.776 191.308  1.00  0.00     0.000 C 
ENDROOT
BRANCH   1   2
ATOM      2  C   UNL     1     190.584 194.446 192.110  1.00  0.00     0.000 C 
BRANCH   2   3
ATOM      3  C   UNL     1     191.060 195.684 192.886  1.00  0.00     0.000 C 
BRANCH   3   4
ATOM      4  C   UNL     1     190.061 196.055 193.992  1.00  0.00     0.000 C 
BRANCH   4   5
ATOM      5  C   UNL     1     189.064 194.925 194.293  1.00  0.00     0.006 C 
BRANCH   5   6
ATOM      6  C   UNL     1     189.387 194.183 195.597  1.00  0.00     0.053 C 
BRANCH   6   7
ATOM      7  C   UNL     1     188.931 194.981 196.777  1.00  0.00     0.041 C 
ATOM      8  O   UNL     1     187.708 195.026 197.077  1.00  0.00    -0.550 OA
ATOM      9  O   UNL     1     189.859 195.635 197.576  1.00  0.00    -0.550 OA
ENDBRANCH   6   7
ENDBRANCH   5   6
ENDBRANCH   4   5
ENDBRANCH   3   4
ENDBRANCH   2   3
ENDBRANCH   1   2
BRANCH   1  10
ATOM     10  C   UNL     1     191.386 192.318 190.937  1.00  0.00     0.000 C 
BRANCH  10  11
ATOM     11  C   UNL     1     191.746 191.329 192.058  1.00  0.00    -0.000 C 
BRANCH  11  12
ATOM     12  C   UNL     1     190.545 191.000 192.963  1.00  0.00    -0.000 C 
BRANCH  12  13
ATOM     13  C   UNL     1     189.232 190.857 192.176  1.00  0.00    -0.000 C 
BRANCH  13  14
ATOM     14  C   UNL     1     188.132 191.804 192.684  1.00  0.00    -0.000 C 
BRANCH  14  15
ATOM     15  C   UNL     1     187.368 192.490 191.539  1.00  0.00    -0.000 C 
BRANCH  15  16
ATOM     16  C   UNL     1     187.397 191.679 190.236  1.00  0.00    -0.003 C 
ATOM     17  C   UNL     1     187.844 192.543 189.060  1.00  0.00     0.004 C 
ENDBRANCH  15  16
ENDBRANCH  14  15
ENDBRANCH  13  14
ENDBRANCH  12  13
ENDBRANCH  11  12
ENDBRANCH  10  11
ENDBRANCH   1  10
TORSDOF 13
ENDMDL
MODEL 5
REMARK VINA RESULT:    -4.379      4.321      6.133
REMARK INTER + INTRA:          -9.229
REMARK INTER:                  -7.647
REMARK INTRA:                  -1.582
REMARK UNBOUND:                -1.523
REMARK SMILES CCCCCCCCCCCCCCC(=O)[O-]
REMARK SMILES IDX 9 1 10 2 11 3 12 4 13 5 14 6 15 7 16 8 17 9 8 10 7 11 6 12
REMARK SMILES IDX 5 13 4 14 3 15 2 16 1 17
REMARK H PARENT
REMARK Flexibility Score: inf
ROOT
ATOM      1  C   UNL     1     189.402 193.857 194.328  1.00  0.00     0.000 C 
ENDROOT
BRANCH   1   2
ATOM      2  C   UNL     1     189.040 195.278 194.790  1.00  0.00     0.000 C 
BRANCH   2   3
ATOM      3  C   UNL     1     188.548 195.323 196.245  1.00  0.00     0.000 C 
BRANCH   3   4
ATOM      4  C   UNL     1     187.209 196.070 196.347  1.00  0.00     0.000 C 
BRANCH   4   5
ATOM      5  C   UNL     1     186.422 196.058 195.028  1.00  0.00     0.006 C 
BRANCH   5   6
ATOM      6  C   UNL     1     184.960 195.629 195.214  1.00  0.00     0.053 C 
BRANCH   6   7
ATOM      7  C   UNL     1     184.367 195.215 193.906  1.00  0.00     0.041 C 
ATOM      8  O   UNL     1     183.161 195.471 193.649  1.00  0.00    -0.550 OA
ATOM      9  O   UNL     1     185.156 194.590 192.950  1.00  0.00    -0.550 OA
ENDBRANCH   6   7
ENDBRANCH   5   6
ENDBRANCH   4   5
ENDBRANCH   3   4
ENDBRANCH   2   3
ENDBRANCH   1   2
BRANCH   1  10
ATOM     10  C   UNL     1     188.506 193.364 193.177  1.00  0.00     0.000 C 
BRANCH  10  11
ATOM     11  C   UNL     1     189.119 192.173 192.421  1.00  0.00    -0.000 C 
BRANCH  11  12
ATOM     12  C   UNL     1     190.483 191.749 192.993  1.00  0.00    -0.000 C 
BRANCH  12  13
ATOM     13  C   UNL     1     191.493 191.372 191.896  1.00  0.00    -0.000 C 
BRANCH  13  14
ATOM     14  C   UNL     1     191.714 192.506 190.881  1.00  0.00    -0.000 C 
BRANCH  14  15
ATOM     15  C   UNL     1     192.363 193.748 191.515  1.00  0.00    -0.000 C 
BRANCH  15  16
ATOM     16  C   UNL     1     191.508 195.013 191.352  1.00  0.00    -0.003 C 
ATOM     17  C   UNL     1     191.861 196.055 192.410  1.00  0.00     0.004 C 
ENDBRANCH  15  16
ENDBRANCH  14  15
ENDBRANCH  13  14
ENDBRANCH  12  13
ENDBRANCH  11  12
ENDBRANCH  10  11
ENDBRANCH   1  10
TORSDOF 13
ENDMDL
MODEL 6
REMARK VINA RESULT:    -4.364      2.314      4.132
REMARK INTER + INTRA:          -9.203
REMARK INTER:                  -7.522
REMARK INTRA:                  -1.680
REMARK UNBOUND:                -1.523
REMARK SMILES CCCCCCCCCCCCCCC(=O)[O-]
REMARK SMILES IDX 9 1 10 2 11 3 12 4 13 5 14 6 15 7 16 8 17 9 8 10 7 11 6 12
REMARK SMILES IDX 5 13 4 14 3 15 2 16 1 17
REMARK H PARENT
REMARK Flexibility Score: inf
ROOT
ATOM      1  C   UNL     1     191.076 191.187 192.142  1.00  0.00     0.000 C 
ENDROOT
BRANCH   1   2
ATOM      2  C   UNL     1     191.532 192.257 191.136  1.00  0.00     0.000 C 
BRANCH   2   3
ATOM      3  C   UNL     1     192.900 192.860 191.488  1.00  0.00     0.000 C 
BRANCH   3   4
ATOM      4  C   UNL     1     193.027 194.288 190.936  1.00  0.00     0.000 C 
BRANCH   4   5
ATOM      5  C   UNL     1     191.753 195.121 191.150  1.00  0.00     0.006 C 
BRANCH   5   6
ATOM      6  C   UNL     1     191.774 195.906 192.468  1.00  0.00     0.053 C 
BRANCH   6   7
ATOM      7  C   UNL     1     191.200 197.273 192.271  1.00  0.00     0.041 C 
ATOM      8  O   UNL     1     191.350 197.870 191.172  1.00  0.00    -0.550 OA
ATOM      9  O   UNL     1     190.457 197.868 193.281  1.00  0.00    -0.550 OA
ENDBRANCH   6   7
ENDBRANCH   5   6
ENDBRANCH   4   5
ENDBRANCH   3   4
ENDBRANCH   2   3
ENDBRANCH   1   2
BRANCH   1  10
ATOM     10  C   UNL     1     189.870 191.642 192.983  1.00  0.00     0.000 C 
BRANCH  10  11
ATOM     11  C   UNL     1     189.114 192.818 192.342  1.00  0.00    -0.000 C 
BRANCH  11  12
ATOM     12  C   UNL     1     188.625 193.843 193.381  1.00  0.00    -0.000 C 
BRANCH  12  13
ATOM     13  C   UNL     1     189.532 193.907 194.622  1.00  0.00    -0.000 C 
BRANCH  13  14
ATOM     14  C   UNL     1     189.324 195.192 195.441  1.00  0.00    -0.000 C 
BRANCH  14  15
ATOM     15  C   UNL     1     188.066 195.966 195.014  1.00  0.00    -0.000 C 
BRANCH  15  16
ATOM     16  C   UNL     1     187.674 197.060 196.018  1.00  0.00    -0.003 C 
ATOM     17  C   UNL     1     188.902 197.822 196.509  1.00  0.00     0.004 C 
ENDBRANCH  15  16
ENDBRANCH  14  15
ENDBRANCH  13  14
ENDBRANCH  12  13
ENDBRANCH  11  12
ENDBRANCH  10  11
ENDBRANCH   1  10
TORSDOF 13
ENDMDL
MODEL 7
REMARK VINA RESULT:    -4.316      4.476      6.154
REMARK INTER + INTRA:          -9.120
REMARK INTER:                  -7.544
REMARK INTRA:                  -1.576
REMARK UNBOUND:                -1.523
REMARK SMILES CCCCCCCCCCCCCCC(=O)[O-]
REMARK SMILES IDX 9 1 10 2 11 3 12 4 13 5 14 6 15 7 16 8 17 9 8 10 7 11 6 12
REMARK SMILES IDX 5 13 4 14 3 15 2 16 1 17
REMARK H PARENT
REMARK Flexibility Score: inf
ROOT
ATOM      1  C   UNL     1     189.604 194.069 194.632  1.00  0.00     0.000 C 
ENDROOT
BRANCH   1   2
ATOM      2  C   UNL     1     189.239 194.499 196.062  1.00  0.00     0.000 C 
BRANCH   2   3
ATOM      3  C   UNL     1     187.722 194.549 196.299  1.00  0.00     0.000 C 
BRANCH   3   4
ATOM      4  C   UNL     1     187.226 196.001 196.366  1.00  0.00     0.000 C 
BRANCH   4   5
ATOM      5  C   UNL     1     186.285 196.360 195.205  1.00  0.00     0.006 C 
BRANCH   5   6
ATOM      6  C   UNL     1     185.872 195.136 194.378  1.00  0.00     0.053 C 
BRANCH   6   7
ATOM      7  C   UNL     1     184.391 194.938 194.441  1.00  0.00     0.041 C 
ATOM      8  O   UNL     1     183.869 194.381 195.443  1.00  0.00    -0.550 OA
ATOM      9  O   UNL     1     183.581 195.412 193.418  1.00  0.00    -0.550 OA
ENDBRANCH   6   7
ENDBRANCH   5   6
ENDBRANCH   4   5
ENDBRANCH   3   4
ENDBRANCH   2   3
ENDBRANCH   1   2
BRANCH   1  10
ATOM     10  C   UNL     1     189.796 195.267 193.685  1.00  0.00     0.000 C 
BRANCH  10  11
ATOM     11  C   UNL     1     191.159 195.244 192.972  1.00  0.00    -0.000 C 
BRANCH  11  12
ATOM     12  C   UNL     1     191.067 194.687 191.540  1.00  0.00    -0.000 C 
BRANCH  12  13
ATOM     13  C   UNL     1     192.173 193.663 191.231  1.00  0.00    -0.000 C 
BRANCH  13  14
ATOM     14  C   UNL     1     191.621 192.242 191.026  1.00  0.00    -0.000 C 
BRANCH  14  15
ATOM     15  C   UNL     1     190.092 192.176 191.167  1.00  0.00    -0.000 C 
BRANCH  15  16
ATOM     16  C   UNL     1     189.640 191.246 192.303  1.00  0.00    -0.003 C 
ATOM     17  C   UNL     1     190.832 190.764 193.126  1.00  0.00     0.004 C 
ENDBRANCH  15  16
ENDBRANCH  14  15
ENDBRANCH  13  14
ENDBRANCH  12  13
ENDBRANCH  11  12
ENDBRANCH  10  11
ENDBRANCH   1  10
TORSDOF 13
ENDMDL
MODEL 8
REMARK VINA RESULT:    -4.315      2.805      4.203
REMARK INTER + INTRA:          -9.117
REMARK INTER:                  -7.510
REMARK INTRA:                  -1.606
REMARK UNBOUND:                -1.523
REMARK SMILES CCCCCCCCCCCCCCC(=O)[O-]
REMARK SMILES IDX 9 1 10 2 11 3 12 4 13 5 14 6 15 7 16 8 17 9 8 10 7 11 6 12
REMARK SMILES IDX 5 13 4 14 3 15 2 16 1 17
REMARK H PARENT
REMARK Flexibility Score: inf
ROOT
ATOM      1  C   UNL     1     191.760 196.012 192.592  1.00  0.00     0.000 C 
ENDROOT
BRANCH   1   2
ATOM      2  C   UNL     1     190.463 195.969 193.417  1.00  0.00     0.000 C 
BRANCH   2   3
ATOM      3  C   UNL     1     190.000 194.537 193.725  1.00  0.00     0.000 C 
BRANCH   3   4
ATOM      4  C   UNL     1     188.779 194.544 194.657  1.00  0.00     0.000 C 
BRANCH   4   5
ATOM      5  C   UNL     1     189.169 194.487 196.143  1.00  0.00     0.006 C 
BRANCH   5   6
ATOM      6  C   UNL     1     188.510 195.598 196.970  1.00  0.00     0.053 C 
BRANCH   6   7
ATOM      7  C   UNL     1     189.358 196.830 196.959  1.00  0.00     0.041 C 
ATOM      8  O   UNL     1     189.077 197.784 196.187  1.00  0.00    -0.550 OA
ATOM      9  O   UNL     1     190.428 196.946 197.836  1.00  0.00    -0.550 OA
ENDBRANCH   6   7
ENDBRANCH   5   6
ENDBRANCH   4   5
ENDBRANCH   3   4
ENDBRANCH   2   3
ENDBRANCH   1   2
BRANCH   1  10
ATOM     10  C   UNL     1     191.649 195.223 191.275  1.00  0.00     0.000 C 
BRANCH  10  11
ATOM     11  C   UNL     1     192.914 194.404 190.970  1.00  0.00    -0.000 C 
BRANCH  11  12
ATOM     12  C   UNL     1     192.827 192.962 191.501  1.00  0.00    -0.000 C 
BRANCH  12  13
ATOM     13  C   UNL     1     191.492 192.283 191.153  1.00  0.00    -0.000 C 
BRANCH  13  14
ATOM     14  C   UNL     1     191.041 191.279 192.228  1.00  0.00    -0.000 C 
BRANCH  14  15
ATOM     15  C   UNL     1     189.513 191.130 192.292  1.00  0.00    -0.000 C 
BRANCH  15  16
ATOM     16  C   UNL     1     188.785 192.039 191.292  1.00  0.00    -0.003 C 
ATOM     17  C   UNL     1     187.274 191.827 191.354  1.00  0.00     0.004 C 
ENDBRANCH  15  16
ENDBRANCH  14  15
ENDBRANCH  13  14
ENDBRANCH  12  13
ENDBRANCH  11  12
ENDBRANCH  10  11
ENDBRANCH   1  10
TORSDOF 13
ENDMDL
MODEL 9
REMARK VINA RESULT:    -4.288      4.153      6.075
REMARK INTER + INTRA:          -9.069
REMARK INTER:                  -7.692
REMARK INTRA:                  -1.377
REMARK UNBOUND:                -1.523
REMARK SMILES CCCCCCCCCCCCCCC(=O)[O-]
REMARK SMILES IDX 9 1 10 2 11 3 12 4 13 5 14 6 15 7 16 8 17 9 8 10 7 11 6 12
REMARK SMILES IDX 5 13 4 14 3 15 2 16 1 17
REMARK H PARENT
REMARK Flexibility Score: inf
ROOT
ATOM      1  C   UNL     1     191.603 196.414 192.705  1.00  0.00     0.000 C 
ENDROOT
BRANCH   1   2
ATOM      2  C   UNL     1     191.506 195.457 191.505  1.00  0.00     0.000 C 
BRANCH   2   3
ATOM      3  C   UNL     1     192.736 194.547 191.368  1.00  0.00     0.000 C 
BRANCH   3   4
ATOM      4  C   UNL     1     192.339 193.171 190.813  1.00  0.00     0.000 C 
BRANCH   4   5
ATOM      5  C   UNL     1     191.841 192.212 191.906  1.00  0.00     0.006 C 
BRANCH   5   6
ATOM      6  C   UNL     1     190.400 191.741 191.668  1.00  0.00     0.053 C 
BRANCH   6   7
ATOM      7  C   UNL     1     190.006 190.728 192.695  1.00  0.00     0.041 C 
ATOM      8  O   UNL     1     188.853 190.222 192.675  1.00  0.00    -0.550 OA
ATOM      9  O   UNL     1     190.926 190.305 193.645  1.00  0.00    -0.550 OA
ENDBRANCH   6   7
ENDBRANCH   5   6
ENDBRANCH   4   5
ENDBRANCH   3   4
ENDBRANCH   2   3
ENDBRANCH   1   2
BRANCH   1  10
ATOM     10  C   UNL     1     190.405 196.283 193.663  1.00  0.00     0.000 C 
BRANCH  10  11
ATOM     11  C   UNL     1     189.876 194.842 193.752  1.00  0.00    -0.000 C 
BRANCH  11  12
ATOM     12  C   UNL     1     189.265 194.521 195.128  1.00  0.00    -0.000 C 
BRANCH  12  13
ATOM     13  C   UNL     1     189.287 195.728 196.082  1.00  0.00    -0.000 C 
BRANCH  13  14
ATOM     14  C   UNL     1     187.878 196.171 196.509  1.00  0.00    -0.000 C 
BRANCH  14  15
ATOM     15  C   UNL     1     186.967 196.479 195.309  1.00  0.00    -0.000 C 
BRANCH  15  16
ATOM     16  C   UNL     1     185.605 195.778 195.402  1.00  0.00    -0.003 C 
ATOM     17  C   UNL     1     185.693 194.515 196.255  1.00  0.00     0.004 C 
ENDBRANCH  15  16
ENDBRANCH  14  15
ENDBRANCH  13  14
ENDBRANCH  12  13
ENDBRANCH  11  12
ENDBRANCH  10  11
ENDBRANCH   1  10
TORSDOF 13
ENDMDL
