MODEL 1
REMARK VINA RESULT:    -4.318      0.000      0.000
REMARK INTER + INTRA:          -5.104
REMARK INTER:                  -4.949
REMARK INTRA:                  -0.154
REMARK UNBOUND:                -0.154
REMARK SMILES O=C([O-])C=Cc1ccc(O)cc1
REMARK SMILES IDX 6 1 7 2 12 3 8 4 11 5 9 6 5 7 4 8 2 9 1 10 3 11 10 12
REMARK H PARENT 10 13
REMARK Flexibility Score: inf
ROOT
ATOM      1  C   UNL     1      28.719  31.162  24.720  1.00  0.00    -0.025 A 
ATOM      2  C   UNL     1      28.420  32.521  24.540  1.00  0.00     0.012 A 
ATOM      3  C   UNL     1      29.098  30.388  23.609  1.00  0.00     0.012 A 
ATOM      4  C   UNL     1      28.448  33.087  23.262  1.00  0.00     0.047 A 
ATOM      5  C   UNL     1      29.125  30.956  22.331  1.00  0.00     0.047 A 
ATOM      6  C   UNL     1      28.796  32.307  22.154  1.00  0.00     0.115 A 
ENDROOT
BRANCH   1   7
ATOM      7  C   UNL     1      28.734  30.599  26.086  1.00  0.00     0.010 C 
ATOM      8  C   UNL     1      27.976  29.578  26.516  1.00  0.00     0.025 C 
BRANCH   8   9
ATOM      9  C   UNL     1      26.869  28.952  25.767  1.00  0.00     0.064 C 
ATOM     10  O   UNL     1      25.724  29.472  25.724  1.00  0.00    -0.545 OA
ATOM     11  O   UNL     1      27.079  27.724  25.152  1.00  0.00    -0.545 OA
ENDBRANCH   8   9
ENDBRANCH   1   7
BRANCH   6  12
ATOM     12  O   UNL     1      28.818  32.884  20.887  1.00  0.00    -0.508 OA
ATOM     13  H   UNL     1      28.700  33.882  20.757  1.00  0.00     0.293 HD
ENDBRANCH   6  12
TORSDOF 3
ENDMDL
MODEL 2
REMARK VINA RESULT:    -4.234      4.894      7.097
REMARK INTER + INTRA:          -5.007
REMARK INTER:                  -4.713
REMARK INTRA:                  -0.293
REMARK UNBOUND:                -0.154
REMARK SMILES O=C([O-])C=Cc1ccc(O)cc1
REMARK SMILES IDX 6 1 7 2 12 3 8 4 11 5 9 6 5 7 4 8 2 9 1 10 3 11 10 12
REMARK H PARENT 10 13
REMARK Flexibility Score: inf
ROOT
ATOM      1  C   UNL     1      26.962  36.638  20.542  1.00  0.00    -0.025 A 
ATOM      2  C   UNL     1      26.120  37.198  21.515  1.00  0.00     0.012 A 
ATOM      3  C   UNL     1      26.413  36.210  19.321  1.00  0.00     0.012 A 
ATOM      4  C   UNL     1      24.741  37.280  21.293  1.00  0.00     0.047 A 
ATOM      5  C   UNL     1      25.034  36.293  19.101  1.00  0.00     0.047 A 
ATOM      6  C   UNL     1      24.194  36.824  20.089  1.00  0.00     0.115 A 
ENDROOT
BRANCH   1   7
ATOM      7  C   UNL     1      28.420  36.610  20.778  1.00  0.00     0.010 C 
ATOM      8  C   UNL     1      29.108  35.573  21.280  1.00  0.00     0.025 C 
BRANCH   8   9
ATOM      9  C   UNL     1      28.521  34.346  21.853  1.00  0.00     0.064 C 
ATOM     10  O   UNL     1      28.478  33.269  21.203  1.00  0.00    -0.545 OA
ATOM     11  O   UNL     1      27.939  34.400  23.113  1.00  0.00    -0.545 OA
ENDBRANCH   8   9
ENDBRANCH   1   7
BRANCH   6  12
ATOM     12  O   UNL     1      22.820  36.911  19.882  1.00  0.00    -0.508 OA
ATOM     13  H   UNL     1      22.174  37.025  20.655  1.00  0.00     0.293 HD
ENDBRANCH   6  12
TORSDOF 3
ENDMDL
MODEL 3
REMARK VINA RESULT:    -4.162     13.549     15.447
REMARK INTER + INTRA:          -4.925
REMARK INTER:                  -5.306
REMARK INTRA:                   0.382
REMARK UNBOUND:                -0.154
REMARK SMILES O=C([O-])C=Cc1ccc(O)cc1
REMARK SMILES IDX 6 1 7 2 12 3 8 4 11 5 9 6 5 7 4 8 2 9 1 10 3 11 10 12
REMARK H PARENT 10 13
REMARK Flexibility Score: inf
ROOT
ATOM      1  C   UNL     1      13.916  31.213  29.642  1.00  0.00    -0.025 A 
ATOM      2  C   UNL     1      14.130  32.087  28.565  1.00  0.00     0.012 A 
ATOM      3  C   UNL     1      12.605  30.991  30.097  1.00  0.00     0.012 A 
ATOM      4  C   UNL     1      13.055  32.770  27.986  1.00  0.00     0.047 A 
ATOM      5  C   UNL     1      11.532  31.675  29.517  1.00  0.00     0.047 A 
ATOM      6  C   UNL     1      11.756  32.570  28.462  1.00  0.00     0.115 A 
ENDROOT
BRANCH   1   7
ATOM      7  C   UNL     1      15.059  30.463  30.202  1.00  0.00     0.010 C 
ATOM      8  C   UNL     1      16.273  30.973  30.460  1.00  0.00     0.025 C 
BRANCH   8   9
ATOM      9  C   UNL     1      16.744  32.317  30.069  1.00  0.00     0.064 C 
ATOM     10  O   UNL     1      17.263  32.531  28.942  1.00  0.00    -0.545 OA
ATOM     11  O   UNL     1      16.676  33.352  30.992  1.00  0.00    -0.545 OA
ENDBRANCH   8   9
ENDBRANCH   1   7
BRANCH   6  12
ATOM     12  O   UNL     1      10.695  33.258  27.877  1.00  0.00    -0.508 OA
ATOM     13  H   UNL     1       9.937  32.769  27.415  1.00  0.00     0.293 HD
ENDBRANCH   6  12
TORSDOF 3
ENDMDL
MODEL 4
REMARK VINA RESULT:    -4.145      8.107      9.350
REMARK INTER + INTRA:          -4.905
REMARK INTER:                  -4.650
REMARK INTRA:                  -0.256
REMARK UNBOUND:                -0.154
REMARK SMILES O=C([O-])C=Cc1ccc(O)cc1
REMARK SMILES IDX 6 1 7 2 12 3 8 4 11 5 9 6 5 7 4 8 2 9 1 10 3 11 10 12
REMARK H PARENT 10 13
REMARK Flexibility Score: inf
ROOT
ATOM      1  C   UNL     1      26.260  37.475  19.661  1.00  0.00    -0.025 A 
ATOM      2  C   UNL     1      25.606  37.820  20.854  1.00  0.00     0.012 A 
ATOM      3  C   UNL     1      26.898  38.479  18.912  1.00  0.00     0.012 A 
ATOM      4  C   UNL     1      25.544  39.155  21.266  1.00  0.00     0.047 A 
ATOM      5  C   UNL     1      26.835  39.814  19.325  1.00  0.00     0.047 A 
ATOM      6  C   UNL     1      26.153  40.155  20.501  1.00  0.00     0.115 A 
ENDROOT
BRANCH   1   7
ATOM      7  C   UNL     1      26.358  36.053  19.275  1.00  0.00     0.010 C 
ATOM      8  C   UNL     1      25.439  35.372  18.573  1.00  0.00     0.025 C 
BRANCH   8   9
ATOM      9  C   UNL     1      24.094  35.860  18.213  1.00  0.00     0.064 C 
ATOM     10  O   UNL     1      23.142  35.839  19.038  1.00  0.00    -0.545 OA
ATOM     11  O   UNL     1      23.855  36.289  16.914  1.00  0.00    -0.545 OA
ENDBRANCH   8   9
ENDBRANCH   1   7
BRANCH   6  12
ATOM     12  O   UNL     1      26.083  41.481  20.922  1.00  0.00    -0.508 OA
ATOM     13  H   UNL     1      26.368  42.245  20.319  1.00  0.00     0.293 HD
ENDBRANCH   6  12
TORSDOF 3
ENDMDL
MODEL 5
REMARK VINA RESULT:    -4.122      5.073      7.276
REMARK INTER + INTRA:          -4.879
REMARK INTER:                  -4.580
REMARK INTRA:                  -0.299
REMARK UNBOUND:                -0.154
REMARK SMILES O=C([O-])C=Cc1ccc(O)cc1
REMARK SMILES IDX 6 1 7 2 12 3 8 4 11 5 9 6 5 7 4 8 2 9 1 10 3 11 10 12
REMARK H PARENT 10 13
REMARK Flexibility Score: inf
ROOT
ATOM      1  C   UNL     1      27.264  36.478  20.621  1.00  0.00    -0.025 A 
ATOM      2  C   UNL     1      27.378  35.747  19.428  1.00  0.00     0.012 A 
ATOM      3  C   UNL     1      27.803  35.948  21.806  1.00  0.00     0.012 A 
ATOM      4  C   UNL     1      27.974  34.482  19.429  1.00  0.00     0.047 A 
ATOM      5  C   UNL     1      28.399  34.683  21.805  1.00  0.00     0.047 A 
ATOM      6  C   UNL     1      28.482  33.944  20.617  1.00  0.00     0.115 A 
ENDROOT
BRANCH   1   7
ATOM      7  C   UNL     1      26.678  37.833  20.584  1.00  0.00     0.010 C 
ATOM      8  C   UNL     1      25.410  38.142  20.898  1.00  0.00     0.025 C 
BRANCH   8   9
ATOM      9  C   UNL     1      24.327  37.173  21.160  1.00  0.00     0.064 C 
ATOM     10  O   UNL     1      24.022  36.827  22.331  1.00  0.00    -0.545 OA
ATOM     11  O   UNL     1      23.677  36.578  20.086  1.00  0.00    -0.545 OA
ENDBRANCH   8   9
ENDBRANCH   1   7
BRANCH   6  12
ATOM     12  O   UNL     1      29.072  32.683  20.604  1.00  0.00    -0.508 OA
ATOM     13  H   UNL     1      28.599  31.873  20.988  1.00  0.00     0.293 HD
ENDBRANCH   6  12
TORSDOF 3
ENDMDL
MODEL 6
REMARK VINA RESULT:    -4.021      8.399      9.793
REMARK INTER + INTRA:          -4.763
REMARK INTER:                  -4.495
REMARK INTRA:                  -0.268
REMARK UNBOUND:                -0.154
REMARK SMILES O=C([O-])C=Cc1ccc(O)cc1
REMARK SMILES IDX 6 1 7 2 12 3 8 4 11 5 9 6 5 7 4 8 2 9 1 10 3 11 10 12
REMARK H PARENT 10 13
REMARK Flexibility Score: inf
ROOT
ATOM      1  C   UNL     1      26.196  37.488  20.337  1.00  0.00    -0.025 A 
ATOM      2  C   UNL     1      26.209  36.782  19.124  1.00  0.00     0.012 A 
ATOM      3  C   UNL     1      25.016  37.520  21.101  1.00  0.00     0.012 A 
ATOM      4  C   UNL     1      25.046  36.162  18.655  1.00  0.00     0.047 A 
ATOM      5  C   UNL     1      23.855  36.899  20.630  1.00  0.00     0.047 A 
ATOM      6  C   UNL     1      23.866  36.222  19.403  1.00  0.00     0.115 A 
ENDROOT
BRANCH   1   7
ATOM      7  C   UNL     1      27.449  38.090  20.838  1.00  0.00     0.010 C 
ATOM      8  C   UNL     1      27.751  39.397  20.806  1.00  0.00     0.025 C 
BRANCH   8   9
ATOM      9  C   UNL     1      26.977  40.444  20.111  1.00  0.00     0.064 C 
ATOM     10  O   UNL     1      27.054  40.603  18.864  1.00  0.00    -0.545 OA
ATOM     11  O   UNL     1      26.199  41.319  20.859  1.00  0.00    -0.545 OA
ENDBRANCH   8   9
ENDBRANCH   1   7
BRANCH   6  12
ATOM     12  O   UNL     1      22.715  35.601  18.923  1.00  0.00    -0.508 OA
ATOM     13  H   UNL     1      21.991  36.125  18.444  1.00  0.00     0.293 HD
ENDBRANCH   6  12
TORSDOF 3
ENDMDL
MODEL 7
REMARK VINA RESULT:    -3.989      7.951      9.402
REMARK INTER + INTRA:          -4.726
REMARK INTER:                  -4.429
REMARK INTRA:                  -0.297
REMARK UNBOUND:                -0.154
REMARK SMILES O=C([O-])C=Cc1ccc(O)cc1
REMARK SMILES IDX 6 1 7 2 12 3 8 4 11 5 9 6 5 7 4 8 2 9 1 10 3 11 10 12
REMARK H PARENT 10 13
REMARK Flexibility Score: inf
ROOT
ATOM      1  C   UNL     1      26.629  38.707  20.793  1.00  0.00    -0.025 A 
ATOM      2  C   UNL     1      26.523  40.041  21.216  1.00  0.00     0.012 A 
ATOM      3  C   UNL     1      27.112  38.431  19.502  1.00  0.00     0.012 A 
ATOM      4  C   UNL     1      26.843  41.086  20.344  1.00  0.00     0.047 A 
ATOM      5  C   UNL     1      27.432  39.478  18.631  1.00  0.00     0.047 A 
ATOM      6  C   UNL     1      27.294  40.808  19.049  1.00  0.00     0.115 A 
ENDROOT
BRANCH   1   7
ATOM      7  C   UNL     1      26.335  37.620  21.749  1.00  0.00     0.010 C 
ATOM      8  C   UNL     1      25.162  36.977  21.861  1.00  0.00     0.025 C 
BRANCH   8   9
ATOM      9  C   UNL     1      23.906  37.353  21.182  1.00  0.00     0.064 C 
ATOM     10  O   UNL     1      23.513  36.757  20.145  1.00  0.00    -0.545 OA
ATOM     11  O   UNL     1      23.176  38.434  21.659  1.00  0.00    -0.545 OA
ENDBRANCH   8   9
ENDBRANCH   1   7
BRANCH   6  12
ATOM     12  O   UNL     1      27.609  41.859  18.191  1.00  0.00    -0.508 OA
ATOM     13  H   UNL     1      26.971  42.156  17.461  1.00  0.00     0.293 HD
ENDBRANCH   6  12
TORSDOF 3
ENDMDL
MODEL 8
REMARK VINA RESULT:    -3.929      1.362      2.025
REMARK INTER + INTRA:          -4.657
REMARK INTER:                  -4.643
REMARK INTRA:                  -0.014
REMARK UNBOUND:                -0.154
REMARK SMILES O=C([O-])C=Cc1ccc(O)cc1
REMARK SMILES IDX 6 1 7 2 12 3 8 4 11 5 9 6 5 7 4 8 2 9 1 10 3 11 10 12
REMARK H PARENT 10 13
REMARK Flexibility Score: inf
ROOT
ATOM      1  C   UNL     1      28.869  30.883  23.708  1.00  0.00    -0.025 A 
ATOM      2  C   UNL     1      29.125  31.247  22.377  1.00  0.00     0.012 A 
ATOM      3  C   UNL     1      28.304  31.827  24.582  1.00  0.00     0.012 A 
ATOM      4  C   UNL     1      28.870  32.550  21.940  1.00  0.00     0.047 A 
ATOM      5  C   UNL     1      28.050  33.130  24.144  1.00  0.00     0.047 A 
ATOM      6  C   UNL     1      28.336  33.496  22.821  1.00  0.00     0.115 A 
ENDROOT
BRANCH   1   7
ATOM      7  C   UNL     1      29.097  29.486  24.132  1.00  0.00     0.010 C 
ATOM      8  C   UNL     1      28.150  28.640  24.566  1.00  0.00     0.025 C 
BRANCH   8   9
ATOM      9  C   UNL     1      26.751  28.996  24.871  1.00  0.00     0.064 C 
ATOM     10  O   UNL     1      25.897  29.155  23.959  1.00  0.00    -0.545 OA
ATOM     11  O   UNL     1      26.384  29.230  26.190  1.00  0.00    -0.545 OA
ENDBRANCH   8   9
ENDBRANCH   1   7
BRANCH   6  12
ATOM     12  O   UNL     1      28.088  34.791  22.373  1.00  0.00    -0.508 OA
ATOM     13  H   UNL     1      27.498  34.970  21.569  1.00  0.00     0.293 HD
ENDBRANCH   6  12
TORSDOF 3
ENDMDL
MODEL 9
REMARK VINA RESULT:    -3.848      1.998      5.089
REMARK INTER + INTRA:          -4.565
REMARK INTER:                  -4.508
REMARK INTRA:                  -0.057
REMARK UNBOUND:                -0.154
REMARK SMILES O=C([O-])C=Cc1ccc(O)cc1
REMARK SMILES IDX 6 1 7 2 12 3 8 4 11 5 9 6 5 7 4 8 2 9 1 10 3 11 10 12
REMARK H PARENT 10 13
REMARK Flexibility Score: inf
ROOT
ATOM      1  C   UNL     1      27.619  29.324  24.355  1.00  0.00    -0.025 A 
ATOM      2  C   UNL     1      28.142  28.337  25.204  1.00  0.00     0.012 A 
ATOM      3  C   UNL     1      26.356  29.875  24.636  1.00  0.00     0.012 A 
ATOM      4  C   UNL     1      27.392  27.869  26.288  1.00  0.00     0.047 A 
ATOM      5  C   UNL     1      25.608  29.405  25.720  1.00  0.00     0.047 A 
ATOM      6  C   UNL     1      26.123  28.397  26.547  1.00  0.00     0.115 A 
ENDROOT
BRANCH   1   7
ATOM      7  C   UNL     1      28.450  29.840  23.248  1.00  0.00     0.010 C 
ATOM      8  C   UNL     1      29.005  31.062  23.196  1.00  0.00     0.025 C 
BRANCH   8   9
ATOM      9  C   UNL     1      28.743  32.168  24.137  1.00  0.00     0.064 C 
ATOM     10  O   UNL     1      29.125  32.119  25.335  1.00  0.00    -0.545 OA
ATOM     11  O   UNL     1      27.998  33.259  23.707  1.00  0.00    -0.545 OA
ENDBRANCH   8   9
ENDBRANCH   1   7
BRANCH   6  12
ATOM     12  O   UNL     1      25.387  27.920  27.629  1.00  0.00    -0.508 OA
ATOM     13  H   UNL     1      25.755  27.204  28.246  1.00  0.00     0.293 HD
ENDBRANCH   6  12
TORSDOF 3
ENDMDL
