MODEL 1
REMARK VINA RESULT:    -2.669      0.000      0.000
REMARK INTER + INTRA:          -2.669
REMARK INTER:                  -2.669
REMARK INTRA:                   0.000
REMARK UNBOUND:                 0.000
REMARK SMILES CC(=O)[O-]
REMARK SMILES IDX 1 1 2 2 3 3 4 4
REMARK H PARENT
REMARK Flexibility Score: inf
ROOT
ATOM      1  C   UNL     1      -5.194   8.900   0.619  1.00  0.00     0.063 C 
ATOM      2  C   UNL     1      -5.332   7.755   1.564  1.00  0.00     0.038 C 
ATOM      3  O   UNL     1      -6.153   6.832   1.323  1.00  0.00    -0.550 OA
ATOM      4  O   UNL     1      -4.516   7.675   2.685  1.00  0.00    -0.550 OA
ENDROOT
TORSDOF 0
ENDMDL
MODEL 2
REMARK VINA RESULT:    -2.664     17.432     17.688
REMARK INTER + INTRA:          -2.664
REMARK INTER:                  -2.664
REMARK INTRA:                   0.000
REMARK UNBOUND:                 0.000
REMARK SMILES CC(=O)[O-]
REMARK SMILES IDX 1 1 2 2 3 3 4 4
REMARK H PARENT
REMARK Flexibility Score: inf
ROOT
ATOM      1  C   UNL     1       5.337  -7.990   0.735  1.00  0.00     0.063 C 
ATOM      2  C   UNL     1       4.422  -6.818   0.850  1.00  0.00     0.038 C 
ATOM      3  O   UNL     1       4.057  -6.197  -0.182  1.00  0.00    -0.550 OA
ATOM      4  O   UNL     1       3.925  -6.443   2.092  1.00  0.00    -0.550 OA
ENDROOT
TORSDOF 0
ENDMDL
MODEL 3
REMARK VINA RESULT:    -2.643      0.100      1.621
REMARK INTER + INTRA:          -2.643
REMARK INTER:                  -2.643
REMARK INTRA:                   0.000
REMARK UNBOUND:                 0.000
REMARK SMILES CC(=O)[O-]
REMARK SMILES IDX 1 1 2 2 3 3 4 4
REMARK H PARENT
REMARK Flexibility Score: inf
ROOT
ATOM      1  C   UNL     1      -5.208   8.924   0.612  1.00  0.00     0.063 C 
ATOM      2  C   UNL     1      -5.305   7.755   1.532  1.00  0.00     0.038 C 
ATOM      3  O   UNL     1      -4.556   7.680   2.541  1.00  0.00    -0.550 OA
ATOM      4  O   UNL     1      -6.260   6.771   1.308  1.00  0.00    -0.550 OA
ENDROOT
TORSDOF 0
ENDMDL
MODEL 4
REMARK VINA RESULT:    -2.619     17.463     17.754
REMARK INTER + INTRA:          -2.619
REMARK INTER:                  -2.619
REMARK INTRA:                   0.000
REMARK UNBOUND:                 0.000
REMARK SMILES CC(=O)[O-]
REMARK SMILES IDX 1 1 2 2 3 3 4 4
REMARK H PARENT
REMARK Flexibility Score: inf
ROOT
ATOM      1  C   UNL     1       5.387  -7.987   0.697  1.00  0.00     0.063 C 
ATOM      2  C   UNL     1       4.428  -6.851   0.822  1.00  0.00     0.038 C 
ATOM      3  O   UNL     1       4.034  -6.478   1.958  1.00  0.00    -0.550 OA
ATOM      4  O   UNL     1       4.009  -6.166  -0.312  1.00  0.00    -0.550 OA
ENDROOT
TORSDOF 0
ENDMDL
MODEL 5
REMARK VINA RESULT:    -2.509      2.538      2.962
REMARK INTER + INTRA:          -2.509
REMARK INTER:                  -2.509
REMARK INTRA:                   0.000
REMARK UNBOUND:                 0.000
REMARK SMILES CC(=O)[O-]
REMARK SMILES IDX 1 1 2 2 3 3 4 4
REMARK H PARENT
REMARK Flexibility Score: inf
ROOT
ATOM      1  C   UNL     1      -5.715   8.674   4.670  1.00  0.00     0.063 C 
ATOM      2  C   UNL     1      -4.539   7.975   4.076  1.00  0.00     0.038 C 
ATOM      3  O   UNL     1      -4.571   7.590   2.878  1.00  0.00    -0.550 OA
ATOM      4  O   UNL     1      -3.384   7.795   4.827  1.00  0.00    -0.550 OA
ENDROOT
TORSDOF 0
ENDMDL
MODEL 6
REMARK VINA RESULT:    -2.443      1.733      2.641
REMARK INTER + INTRA:          -2.443
REMARK INTER:                  -2.443
REMARK INTRA:                   0.000
REMARK UNBOUND:                 0.000
REMARK SMILES CC(=O)[O-]
REMARK SMILES IDX 1 1 2 2 3 3 4 4
REMARK H PARENT
REMARK Flexibility Score: inf
ROOT
ATOM      1  C   UNL     1      -5.267   7.851   4.204  1.00  0.00     0.063 C 
ATOM      2  C   UNL     1      -4.921   8.132   2.781  1.00  0.00     0.038 C 
ATOM      3  O   UNL     1      -4.180   9.109   2.492  1.00  0.00    -0.550 OA
ATOM      4  O   UNL     1      -5.369   7.286   1.775  1.00  0.00    -0.550 OA
ENDROOT
TORSDOF 0
ENDMDL
MODEL 7
REMARK VINA RESULT:    -2.349     17.328     17.511
REMARK INTER + INTRA:          -2.349
REMARK INTER:                  -2.349
REMARK INTRA:                   0.000
REMARK UNBOUND:                 0.000
REMARK SMILES CC(=O)[O-]
REMARK SMILES IDX 1 1 2 2 3 3 4 4
REMARK H PARENT
REMARK Flexibility Score: inf
ROOT
ATOM      1  C   UNL     1       3.993  -6.113  -2.586  1.00  0.00     0.063 C 
ATOM      2  C   UNL     1       4.530  -5.577  -3.869  1.00  0.00     0.038 C 
ATOM      3  O   UNL     1       4.523  -6.292  -4.905  1.00  0.00    -0.550 OA
ATOM      4  O   UNL     1       4.990  -4.268  -3.939  1.00  0.00    -0.550 OA
ENDROOT
TORSDOF 0
ENDMDL
MODEL 8
REMARK VINA RESULT:    -2.200     13.151     13.592
REMARK INTER + INTRA:          -2.200
REMARK INTER:                  -2.200
REMARK INTRA:                   0.000
REMARK UNBOUND:                 0.000
REMARK SMILES CC(=O)[O-]
REMARK SMILES IDX 1 1 2 2 3 3 4 4
REMARK H PARENT
REMARK Flexibility Score: inf
ROOT
ATOM      1  C   UNL     1      -5.563  -3.861   8.328  1.00  0.00     0.063 C 
ATOM      2  C   UNL     1      -5.247  -4.518   7.027  1.00  0.00     0.038 C 
ATOM      3  O   UNL     1      -5.598  -3.980   5.944  1.00  0.00    -0.550 OA
ATOM      4  O   UNL     1      -4.517  -5.700   7.004  1.00  0.00    -0.550 OA
ENDROOT
TORSDOF 0
ENDMDL
MODEL 9
REMARK VINA RESULT:    -2.196      1.850      2.174
REMARK INTER + INTRA:          -2.196
REMARK INTER:                  -2.196
REMARK INTRA:                   0.000
REMARK UNBOUND:                 0.000
REMARK SMILES CC(=O)[O-]
REMARK SMILES IDX 1 1 2 2 3 3 4 4
REMARK H PARENT
REMARK Flexibility Score: inf
ROOT
ATOM      1  C   UNL     1      -4.508   9.570   2.074  1.00  0.00     0.063 C 
ATOM      2  C   UNL     1      -4.841   8.618   3.172  1.00  0.00     0.038 C 
ATOM      3  O   UNL     1      -4.394   7.441   3.147  1.00  0.00    -0.550 OA
ATOM      4  O   UNL     1      -5.601   9.043   4.255  1.00  0.00    -0.550 OA
ENDROOT
TORSDOF 0
ENDMDL
