MODEL 1
REMARK VINA RESULT:    -5.856      0.000      0.000
REMARK INTER + INTRA:          -6.369
REMARK INTER:                  -6.369
REMARK INTRA:                   0.000
REMARK UNBOUND:                 0.000
REMARK SMILES Cc1cc(O)c2c(c1)C(=O)c1cc(O)cc(O)c1C2=O
REMARK SMILES IDX 1 1 2 2 8 3 7 4 6 5 4 6 3 7 19 8 20 9 18 10 11 11 9 12 10 13
REMARK SMILES IDX 12 14 13 15 15 16 16 17 5 18 17 20 14 22
REMARK H PARENT 5 19 17 21 14 23
REMARK Flexibility Score: inf
ROOT
ATOM      1  C   UNL     1      -5.803  35.125  48.040  1.00  0.00     0.044 C 
ATOM      2  C   UNL     1      -6.412  33.977  47.291  1.00  0.00    -0.047 A 
ATOM      3  C   UNL     1      -5.812  32.713  47.331  1.00  0.00     0.016 A 
ATOM      4  C   UNL     1      -6.389  31.625  46.656  1.00  0.00     0.038 A 
ATOM      5  C   UNL     1      -7.586  31.803  45.928  1.00  0.00     0.076 A 
ATOM      6  C   UNL     1      -8.234  33.065  45.962  1.00  0.00     0.127 A 
ATOM      7  C   UNL     1      -7.630  34.139  46.624  1.00  0.00     0.050 A 
ATOM      8  C   UNL     1      -8.086  30.670  45.107  1.00  0.00     0.201 C 
ATOM      9  O   UNL     1      -8.743  30.899  44.058  1.00  0.00    -0.288 OA
ATOM     10  C   UNL     1      -7.653  29.284  45.422  1.00  0.00     0.076 A 
ATOM     11  C   UNL     1      -6.454  29.109  46.151  1.00  0.00     0.041 A 
ATOM     12  C   UNL     1      -5.751  30.288  46.709  1.00  0.00     0.194 C 
ATOM     13  O   UNL     1      -4.619  30.149  47.252  1.00  0.00    -0.289 OA
ATOM     14  C   UNL     1      -5.939  27.817  46.350  1.00  0.00     0.059 A 
ATOM     15  C   UNL     1      -6.610  26.700  45.843  1.00  0.00     0.120 A 
ATOM     16  C   UNL     1      -7.813  26.866  45.157  1.00  0.00     0.093 A 
ATOM     17  C   UNL     1      -8.357  28.140  44.964  1.00  0.00     0.131 A 
ENDROOT
BRANCH   6  18
ATOM     18  O   UNL     1      -9.488  33.286  45.386  1.00  0.00    -0.507 OA
ATOM     19  H   UNL     1     -10.355  33.241  45.901  1.00  0.00     0.293 HD
ENDBRANCH   6  18
BRANCH  17  20
ATOM     20  O   UNL     1      -9.609  28.220  44.349  1.00  0.00    -0.507 OA
ATOM     21  H   UNL     1      -9.896  27.620  43.589  1.00  0.00     0.293 HD
ENDBRANCH  17  20
BRANCH  15  22
ATOM     22  O   UNL     1      -6.096  25.419  46.026  1.00  0.00    -0.508 OA
ATOM     23  H   UNL     1      -5.649  24.913  45.270  1.00  0.00     0.293 HD
ENDBRANCH  15  22
TORSDOF 3
ENDMDL
MODEL 2
REMARK VINA RESULT:    -5.424      1.874      5.707
REMARK INTER + INTRA:          -5.900
REMARK INTER:                  -5.900
REMARK INTRA:                   0.000
REMARK UNBOUND:                 0.000
REMARK SMILES Cc1cc(O)c2c(c1)C(=O)c1cc(O)cc(O)c1C2=O
REMARK SMILES IDX 1 1 2 2 8 3 7 4 6 5 4 6 3 7 19 8 20 9 18 10 11 11 9 12 10 13
REMARK SMILES IDX 12 14 13 15 15 16 16 17 5 18 17 20 14 22
REMARK H PARENT 5 19 17 21 14 23
REMARK Flexibility Score: inf
ROOT
ATOM      1  C   UNL     1      -4.899  24.408  43.027  1.00  0.00     0.044 C 
ATOM      2  C   UNL     1      -5.743  25.569  43.461  1.00  0.00    -0.047 A 
ATOM      3  C   UNL     1      -5.340  26.370  44.535  1.00  0.00     0.016 A 
ATOM      4  C   UNL     1      -6.109  27.477  44.931  1.00  0.00     0.038 A 
ATOM      5  C   UNL     1      -7.301  27.788  44.241  1.00  0.00     0.076 A 
ATOM      6  C   UNL     1      -7.660  27.024  43.101  1.00  0.00     0.127 A 
ATOM      7  C   UNL     1      -6.889  25.914  42.738  1.00  0.00     0.050 A 
ATOM      8  C   UNL     1      -8.163  28.872  44.780  1.00  0.00     0.201 C 
ATOM      9  O   UNL     1      -9.410  28.826  44.606  1.00  0.00    -0.288 OA
ATOM     10  C   UNL     1      -7.578  29.903  45.675  1.00  0.00     0.076 A 
ATOM     11  C   UNL     1      -6.384  29.590  46.363  1.00  0.00     0.041 A 
ATOM     12  C   UNL     1      -5.671  28.325  46.066  1.00  0.00     0.194 C 
ATOM     13  O   UNL     1      -4.676  27.982  46.763  1.00  0.00    -0.289 OA
ATOM     14  C   UNL     1      -5.874  30.482  47.321  1.00  0.00     0.059 A 
ATOM     15  C   UNL     1      -6.532  31.685  47.591  1.00  0.00     0.120 A 
ATOM     16  C   UNL     1      -7.689  32.016  46.885  1.00  0.00     0.093 A 
ATOM     17  C   UNL     1      -8.204  31.154  45.912  1.00  0.00     0.131 A 
ENDROOT
BRANCH   6  18
ATOM     18  O   UNL     1      -8.745  27.350  42.284  1.00  0.00    -0.507 OA
ATOM     19  H   UNL     1      -9.614  27.727  42.634  1.00  0.00     0.293 HD
ENDBRANCH   6  18
BRANCH  17  20
ATOM     20  O   UNL     1      -9.313  31.594  45.184  1.00  0.00    -0.507 OA
ATOM     21  H   UNL     1     -10.036  30.978  44.841  1.00  0.00     0.293 HD
ENDBRANCH  17  20
BRANCH  15  22
ATOM     22  O   UNL     1      -6.037  32.566  48.549  1.00  0.00    -0.508 OA
ATOM     23  H   UNL     1      -5.494  33.381  48.290  1.00  0.00     0.293 HD
ENDBRANCH  15  22
TORSDOF 3
ENDMDL
MODEL 3
REMARK VINA RESULT:    -5.376     16.118     18.084
REMARK INTER + INTRA:          -5.847
REMARK INTER:                  -5.847
REMARK INTRA:                   0.000
REMARK UNBOUND:                 0.000
REMARK SMILES Cc1cc(O)c2c(c1)C(=O)c1cc(O)cc(O)c1C2=O
REMARK SMILES IDX 1 1 2 2 8 3 7 4 6 5 4 6 3 7 19 8 20 9 18 10 11 11 9 12 10 13
REMARK SMILES IDX 12 14 13 15 15 16 16 17 5 18 17 20 14 22
REMARK H PARENT 5 19 17 21 14 23
REMARK Flexibility Score: inf
ROOT
ATOM      1  C   UNL     1     -22.031  22.596  41.687  1.00  0.00     0.044 C 
ATOM      2  C   UNL     1     -21.780  22.632  40.209  1.00  0.00    -0.047 A 
ATOM      3  C   UNL     1     -20.933  23.603  39.662  1.00  0.00     0.016 A 
ATOM      4  C   UNL     1     -20.669  23.628  38.282  1.00  0.00     0.038 A 
ATOM      5  C   UNL     1     -21.263  22.666  37.436  1.00  0.00     0.076 A 
ATOM      6  C   UNL     1     -22.052  21.635  38.007  1.00  0.00     0.127 A 
ATOM      7  C   UNL     1     -22.317  21.643  39.380  1.00  0.00     0.050 A 
ATOM      8  C   UNL     1     -21.081  22.814  35.968  1.00  0.00     0.201 C 
ATOM      9  O   UNL     1     -21.976  22.403  35.182  1.00  0.00    -0.288 OA
ATOM     10  C   UNL     1     -19.941  23.607  35.442  1.00  0.00     0.076 A 
ATOM     11  C   UNL     1     -19.347  24.568  36.293  1.00  0.00     0.041 A 
ATOM     12  C   UNL     1     -19.765  24.655  37.713  1.00  0.00     0.194 C 
ATOM     13  O   UNL     1     -19.331  25.590  38.442  1.00  0.00    -0.289 OA
ATOM     14  C   UNL     1     -18.359  25.432  35.791  1.00  0.00     0.059 A 
ATOM     15  C   UNL     1     -17.948  25.340  34.458  1.00  0.00     0.120 A 
ATOM     16  C   UNL     1     -18.503  24.367  33.627  1.00  0.00     0.093 A 
ATOM     17  C   UNL     1     -19.472  23.482  34.109  1.00  0.00     0.131 A 
ENDROOT
BRANCH   6  18
ATOM     18  O   UNL     1     -22.560  20.570  37.258  1.00  0.00    -0.507 OA
ATOM     19  H   UNL     1     -22.477  20.504  36.254  1.00  0.00     0.293 HD
ENDBRANCH   6  18
BRANCH  17  20
ATOM     20  O   UNL     1     -19.914  22.478  33.244  1.00  0.00    -0.507 OA
ATOM     21  H   UNL     1     -19.332  22.055  32.535  1.00  0.00     0.293 HD
ENDBRANCH  17  20
BRANCH  15  22
ATOM     22  O   UNL     1     -16.979  26.203  33.953  1.00  0.00    -0.508 OA
ATOM     23  H   UNL     1     -17.227  27.086  33.522  1.00  0.00     0.293 HD
ENDBRANCH  15  22
TORSDOF 3
ENDMDL
MODEL 4
REMARK VINA RESULT:    -5.363      1.518      3.384
REMARK INTER + INTRA:          -5.833
REMARK INTER:                  -5.833
REMARK INTRA:                   0.000
REMARK UNBOUND:                 0.000
REMARK SMILES Cc1cc(O)c2c(c1)C(=O)c1cc(O)cc(O)c1C2=O
REMARK SMILES IDX 1 1 2 2 8 3 7 4 6 5 4 6 3 7 19 8 20 9 18 10 11 11 9 12 10 13
REMARK SMILES IDX 12 14 13 15 15 16 16 17 5 18 17 20 14 22
REMARK H PARENT 5 19 17 21 14 23
REMARK Flexibility Score: inf
ROOT
ATOM      1  C   UNL     1      -9.885  34.737  44.201  1.00  0.00     0.044 C 
ATOM      2  C   UNL     1      -8.898  33.809  44.844  1.00  0.00    -0.047 A 
ATOM      3  C   UNL     1      -9.086  32.424  44.775  1.00  0.00     0.016 A 
ATOM      4  C   UNL     1      -8.153  31.545  45.350  1.00  0.00     0.038 A 
ATOM      5  C   UNL     1      -7.013  32.061  46.006  1.00  0.00     0.076 A 
ATOM      6  C   UNL     1      -6.785  33.461  45.998  1.00  0.00     0.127 A 
ATOM      7  C   UNL     1      -7.739  34.317  45.438  1.00  0.00     0.050 A 
ATOM      8  C   UNL     1      -6.128  31.111  46.729  1.00  0.00     0.201 C 
ATOM      9  O   UNL     1      -5.490  31.498  47.743  1.00  0.00    -0.288 OA
ATOM     10  C   UNL     1      -6.142  29.669  46.369  1.00  0.00     0.076 A 
ATOM     11  C   UNL     1      -7.284  29.157  45.711  1.00  0.00     0.041 A 
ATOM     12  C   UNL     1      -8.356  30.079  45.266  1.00  0.00     0.194 C 
ATOM     13  O   UNL     1      -9.431  29.616  44.793  1.00  0.00    -0.289 OA
ATOM     14  C   UNL     1      -7.395  27.776  45.476  1.00  0.00     0.059 A 
ATOM     15  C   UNL     1      -6.378  26.905  45.877  1.00  0.00     0.120 A 
ATOM     16  C   UNL     1      -5.232  27.412  46.490  1.00  0.00     0.093 A 
ATOM     17  C   UNL     1      -5.089  28.784  46.715  1.00  0.00     0.131 A 
ENDROOT
BRANCH   6  18
ATOM     18  O   UNL     1      -5.617  34.039  46.502  1.00  0.00    -0.507 OA
ATOM     19  H   UNL     1      -5.435  35.033  46.490  1.00  0.00     0.293 HD
ENDBRANCH   6  18
BRANCH  17  20
ATOM     20  O   UNL     1      -3.876  29.226  47.250  1.00  0.00    -0.507 OA
ATOM     21  H   UNL     1      -3.320  28.684  47.896  1.00  0.00     0.293 HD
ENDBRANCH  17  20
BRANCH  15  22
ATOM     22  O   UNL     1      -6.490  25.534  45.658  1.00  0.00    -0.508 OA
ATOM     23  H   UNL     1      -6.596  24.881  46.426  1.00  0.00     0.293 HD
ENDBRANCH  15  22
TORSDOF 3
ENDMDL
MODEL 5
REMARK VINA RESULT:    -5.182      2.218      4.628
REMARK INTER + INTRA:          -5.636
REMARK INTER:                  -5.636
REMARK INTRA:                   0.000
REMARK UNBOUND:                 0.000
REMARK SMILES Cc1cc(O)c2c(c1)C(=O)c1cc(O)cc(O)c1C2=O
REMARK SMILES IDX 1 1 2 2 8 3 7 4 6 5 4 6 3 7 19 8 20 9 18 10 11 11 9 12 10 13
REMARK SMILES IDX 12 14 13 15 15 16 16 17 5 18 17 20 14 22
REMARK H PARENT 5 19 17 21 14 23
REMARK Flexibility Score: inf
ROOT
ATOM      1  C   UNL     1      -7.252  32.307  47.251  1.00  0.00     0.044 C 
ATOM      2  C   UNL     1      -7.022  30.926  46.710  1.00  0.00    -0.047 A 
ATOM      3  C   UNL     1      -7.765  30.466  45.617  1.00  0.00     0.016 A 
ATOM      4  C   UNL     1      -7.538  29.186  45.085  1.00  0.00     0.038 A 
ATOM      5  C   UNL     1      -6.553  28.352  45.657  1.00  0.00     0.076 A 
ATOM      6  C   UNL     1      -5.746  28.856  46.710  1.00  0.00     0.127 A 
ATOM      7  C   UNL     1      -6.004  30.125  47.236  1.00  0.00     0.050 A 
ATOM      8  C   UNL     1      -6.443  26.953  45.166  1.00  0.00     0.201 C 
ATOM      9  O   UNL     1      -6.049  26.045  45.944  1.00  0.00    -0.288 OA
ATOM     10  C   UNL     1      -6.974  26.600  43.824  1.00  0.00     0.076 A 
ATOM     11  C   UNL     1      -7.959  27.438  43.253  1.00  0.00     0.041 A 
ATOM     12  C   UNL     1      -8.324  28.710  43.922  1.00  0.00     0.194 C 
ATOM     13  O   UNL     1      -9.287  29.398  43.486  1.00  0.00    -0.289 OA
ATOM     14  C   UNL     1      -8.583  27.065  42.051  1.00  0.00     0.059 A 
ATOM     15  C   UNL     1      -8.228  25.877  41.406  1.00  0.00     0.120 A 
ATOM     16  C   UNL     1      -7.228  25.067  41.946  1.00  0.00     0.093 A 
ATOM     17  C   UNL     1      -6.578  25.427  43.130  1.00  0.00     0.131 A 
ENDROOT
BRANCH   6  18
ATOM     18  O   UNL     1      -4.662  28.148  47.237  1.00  0.00    -0.507 OA
ATOM     19  H   UNL     1      -4.742  27.226  47.643  1.00  0.00     0.293 HD
ENDBRANCH   6  18
BRANCH  17  20
ATOM     20  O   UNL     1      -5.525  24.614  43.560  1.00  0.00    -0.507 OA
ATOM     21  H   UNL     1      -5.605  23.614  43.677  1.00  0.00     0.293 HD
ENDBRANCH  17  20
BRANCH  15  22
ATOM     22  O   UNL     1      -8.854  25.497  40.222  1.00  0.00    -0.508 OA
ATOM     23  H   UNL     1      -9.549  26.086  39.777  1.00  0.00     0.293 HD
ENDBRANCH  15  22
TORSDOF 3
ENDMDL
MODEL 6
REMARK VINA RESULT:    -5.010     15.329     17.596
REMARK INTER + INTRA:          -5.450
REMARK INTER:                  -5.450
REMARK INTRA:                   0.000
REMARK UNBOUND:                 0.000
REMARK SMILES Cc1cc(O)c2c(c1)C(=O)c1cc(O)cc(O)c1C2=O
REMARK SMILES IDX 1 1 2 2 8 3 7 4 6 5 4 6 3 7 19 8 20 9 18 10 11 11 9 12 10 13
REMARK SMILES IDX 12 14 13 15 15 16 16 17 5 18 17 20 14 22
REMARK H PARENT 5 19 17 21 14 23
REMARK Flexibility Score: inf
ROOT
ATOM      1  C   UNL     1     -19.616  23.221  32.116  1.00  0.00     0.044 C 
ATOM      2  C   UNL     1     -19.576  23.664  33.549  1.00  0.00    -0.047 A 
ATOM      3  C   UNL     1     -20.318  22.980  34.518  1.00  0.00     0.016 A 
ATOM      4  C   UNL     1     -20.265  23.370  35.867  1.00  0.00     0.038 A 
ATOM      5  C   UNL     1     -19.456  24.461  36.252  1.00  0.00     0.076 A 
ATOM      6  C   UNL     1     -18.642  25.096  35.279  1.00  0.00     0.127 A 
ATOM      7  C   UNL     1     -18.727  24.704  33.939  1.00  0.00     0.050 A 
ATOM      8  C   UNL     1     -19.539  24.937  37.658  1.00  0.00     0.201 C 
ATOM      9  O   UNL     1     -19.337  26.152  37.921  1.00  0.00    -0.288 OA
ATOM     10  C   UNL     1     -20.041  24.024  38.717  1.00  0.00     0.076 A 
ATOM     11  C   UNL     1     -20.849  22.931  38.327  1.00  0.00     0.041 A 
ATOM     12  C   UNL     1     -21.048  22.635  36.889  1.00  0.00     0.194 C 
ATOM     13  O   UNL     1     -21.866  21.740  36.535  1.00  0.00    -0.289 OA
ATOM     14  C   UNL     1     -21.455  22.125  39.307  1.00  0.00     0.059 A 
ATOM     15  C   UNL     1     -21.255  22.388  40.665  1.00  0.00     0.120 A 
ATOM     16  C   UNL     1     -20.426  23.442  41.052  1.00  0.00     0.093 A 
ATOM     17  C   UNL     1     -19.795  24.245  40.096  1.00  0.00     0.131 A 
ENDROOT
BRANCH   6  18
ATOM     18  O   UNL     1     -17.714  26.090  35.602  1.00  0.00    -0.507 OA
ATOM     19  H   UNL     1     -16.718  25.990  35.464  1.00  0.00     0.293 HD
ENDBRANCH   6  18
BRANCH  17  20
ATOM     20  O   UNL     1     -18.909  25.221  40.559  1.00  0.00    -0.507 OA
ATOM     21  H   UNL     1     -18.420  25.158  41.441  1.00  0.00     0.293 HD
ENDBRANCH  17  20
BRANCH  15  22
ATOM     22  O   UNL     1     -21.864  21.601  41.638  1.00  0.00    -0.508 OA
ATOM     23  H   UNL     1     -22.447  20.809  41.391  1.00  0.00     0.293 HD
ENDBRANCH  15  22
TORSDOF 3
ENDMDL
MODEL 7
REMARK VINA RESULT:    -4.877     16.825     17.708
REMARK INTER + INTRA:          -5.305
REMARK INTER:                  -5.305
REMARK INTRA:                   0.000
REMARK UNBOUND:                 0.000
REMARK SMILES Cc1cc(O)c2c(c1)C(=O)c1cc(O)cc(O)c1C2=O
REMARK SMILES IDX 1 1 2 2 8 3 7 4 6 5 4 6 3 7 19 8 20 9 18 10 11 11 9 12 10 13
REMARK SMILES IDX 12 14 13 15 15 16 16 17 5 18 17 20 14 22
REMARK H PARENT 5 19 17 21 14 23
REMARK Flexibility Score: inf
ROOT
ATOM      1  C   UNL     1     -15.908  30.351  31.880  1.00  0.00     0.044 C 
ATOM      2  C   UNL     1     -16.856  29.231  32.193  1.00  0.00    -0.047 A 
ATOM      3  C   UNL     1     -16.382  27.919  32.310  1.00  0.00     0.016 A 
ATOM      4  C   UNL     1     -17.256  26.868  32.630  1.00  0.00     0.038 A 
ATOM      5  C   UNL     1     -18.628  27.132  32.837  1.00  0.00     0.076 A 
ATOM      6  C   UNL     1     -19.086  28.474  32.801  1.00  0.00     0.127 A 
ATOM      7  C   UNL     1     -18.201  29.502  32.460  1.00  0.00     0.050 A 
ATOM      8  C   UNL     1     -19.546  25.979  33.027  1.00  0.00     0.201 C 
ATOM      9  O   UNL     1     -20.746  26.065  32.653  1.00  0.00    -0.288 OA
ATOM     10  C   UNL     1     -19.004  24.672  33.480  1.00  0.00     0.076 A 
ATOM     11  C   UNL     1     -17.630  24.411  33.273  1.00  0.00     0.041 A 
ATOM     12  C   UNL     1     -16.744  25.483  32.759  1.00  0.00     0.194 C 
ATOM     13  O   UNL     1     -15.547  25.220  32.455  1.00  0.00    -0.289 OA
ATOM     14  C   UNL     1     -17.109  23.138  33.562  1.00  0.00     0.059 A 
ATOM     15  C   UNL     1     -17.936  22.131  34.065  1.00  0.00     0.120 A 
ATOM     16  C   UNL     1     -19.284  22.397  34.309  1.00  0.00     0.093 A 
ATOM     17  C   UNL     1     -19.822  23.661  34.049  1.00  0.00     0.131 A 
ENDROOT
BRANCH   6  18
ATOM     18  O   UNL     1     -20.396  28.834  33.130  1.00  0.00    -0.507 OA
ATOM     19  H   UNL     1     -20.720  29.790  33.167  1.00  0.00     0.293 HD
ENDBRANCH   6  18
BRANCH  17  20
ATOM     20  O   UNL     1     -21.156  23.879  34.403  1.00  0.00    -0.507 OA
ATOM     21  H   UNL     1     -21.929  23.360  34.011  1.00  0.00     0.293 HD
ENDBRANCH  17  20
BRANCH  15  22
ATOM     22  O   UNL     1     -17.426  20.864  34.340  1.00  0.00    -0.508 OA
ATOM     23  H   UNL     1     -18.010  20.037  34.299  1.00  0.00     0.293 HD
ENDBRANCH  15  22
TORSDOF 3
ENDMDL
MODEL 8
REMARK VINA RESULT:    -4.874     17.055     18.781
REMARK INTER + INTRA:          -5.302
REMARK INTER:                  -5.302
REMARK INTRA:                   0.000
REMARK UNBOUND:                 0.000
REMARK SMILES Cc1cc(O)c2c(c1)C(=O)c1cc(O)cc(O)c1C2=O
REMARK SMILES IDX 1 1 2 2 8 3 7 4 6 5 4 6 3 7 19 8 20 9 18 10 11 11 9 12 10 13
REMARK SMILES IDX 12 14 13 15 15 16 16 17 5 18 17 20 14 22
REMARK H PARENT 5 19 17 21 14 23
REMARK Flexibility Score: inf
ROOT
ATOM      1  C   UNL     1     -20.823  21.693  34.945  1.00  0.00     0.044 C 
ATOM      2  C   UNL     1     -19.865  22.676  34.340  1.00  0.00    -0.047 A 
ATOM      3  C   UNL     1     -20.308  23.951  33.967  1.00  0.00     0.016 A 
ATOM      4  C   UNL     1     -19.413  24.889  33.426  1.00  0.00     0.038 A 
ATOM      5  C   UNL     1     -18.053  24.547  33.256  1.00  0.00     0.076 A 
ATOM      6  C   UNL     1     -17.595  23.285  33.715  1.00  0.00     0.127 A 
ATOM      7  C   UNL     1     -18.508  22.360  34.231  1.00  0.00     0.050 A 
ATOM      8  C   UNL     1     -17.170  25.508  32.545  1.00  0.00     0.201 C 
ATOM      9  O   UNL     1     -16.190  25.083  31.879  1.00  0.00    -0.288 OA
ATOM     10  C   UNL     1     -17.550  26.942  32.470  1.00  0.00     0.076 A 
ATOM     11  C   UNL     1     -18.912  27.281  32.642  1.00  0.00     0.041 A 
ATOM     12  C   UNL     1     -19.888  26.239  33.040  1.00  0.00     0.194 C 
ATOM     13  O   UNL     1     -21.121  26.508  33.073  1.00  0.00    -0.289 OA
ATOM     14  C   UNL     1     -19.333  28.607  32.443  1.00  0.00     0.059 A 
ATOM     15  C   UNL     1     -18.413  29.597  32.087  1.00  0.00     0.120 A 
ATOM     16  C   UNL     1     -17.063  29.274  31.955  1.00  0.00     0.093 A 
ATOM     17  C   UNL     1     -16.616  27.966  32.169  1.00  0.00     0.131 A 
ENDROOT
BRANCH   6  18
ATOM     18  O   UNL     1     -16.245  22.924  33.710  1.00  0.00    -0.507 OA
ATOM     19  H   UNL     1     -15.916  21.996  33.485  1.00  0.00     0.293 HD
ENDBRANCH   6  18
BRANCH  17  20
ATOM     20  O   UNL     1     -15.238  27.738  32.108  1.00  0.00    -0.507 OA
ATOM     21  H   UNL     1     -14.556  28.318  32.575  1.00  0.00     0.293 HD
ENDBRANCH  17  20
BRANCH  15  22
ATOM     22  O   UNL     1     -18.829  30.910  31.875  1.00  0.00    -0.508 OA
ATOM     23  H   UNL     1     -19.806  31.173  31.936  1.00  0.00     0.293 HD
ENDBRANCH  15  22
TORSDOF 3
ENDMDL
MODEL 9
REMARK VINA RESULT:    -4.850      1.479      6.277
REMARK INTER + INTRA:          -5.276
REMARK INTER:                  -5.276
REMARK INTRA:                   0.000
REMARK UNBOUND:                 0.000
REMARK SMILES Cc1cc(O)c2c(c1)C(=O)c1cc(O)cc(O)c1C2=O
REMARK SMILES IDX 1 1 2 2 8 3 7 4 6 5 4 6 3 7 19 8 20 9 18 10 11 11 9 12 10 13
REMARK SMILES IDX 12 14 13 15 15 16 16 17 5 18 17 20 14 22
REMARK H PARENT 5 19 17 21 14 23
REMARK Flexibility Score: inf
ROOT
ATOM      1  C   UNL     1      -6.840  25.519  42.756  1.00  0.00     0.044 C 
ATOM      2  C   UNL     1      -6.606  26.672  43.686  1.00  0.00    -0.047 A 
ATOM      3  C   UNL     1      -7.199  27.914  43.431  1.00  0.00     0.016 A 
ATOM      4  C   UNL     1      -7.008  28.993  44.311  1.00  0.00     0.038 A 
ATOM      5  C   UNL     1      -6.212  28.826  45.465  1.00  0.00     0.076 A 
ATOM      6  C   UNL     1      -5.684  27.543  45.762  1.00  0.00     0.127 A 
ATOM      7  C   UNL     1      -5.870  26.490  44.861  1.00  0.00     0.050 A 
ATOM      8  C   UNL     1      -5.912  30.025  46.292  1.00  0.00     0.201 C 
ATOM      9  O   UNL     1      -4.830  30.088  46.933  1.00  0.00    -0.288 OA
ATOM     10  C   UNL     1      -6.796  31.216  46.212  1.00  0.00     0.076 A 
ATOM     11  C   UNL     1      -7.593  31.379  45.056  1.00  0.00     0.041 A 
ATOM     12  C   UNL     1      -7.646  30.303  44.037  1.00  0.00     0.194 C 
ATOM     13  O   UNL     1      -8.255  30.494  42.948  1.00  0.00    -0.289 OA
ATOM     14  C   UNL     1      -8.338  32.557  44.880  1.00  0.00     0.059 A 
ATOM     15  C   UNL     1      -8.307  33.567  45.846  1.00  0.00     0.120 A 
ATOM     16  C   UNL     1      -7.553  33.392  47.007  1.00  0.00     0.093 A 
ATOM     17  C   UNL     1      -6.820  32.219  47.215  1.00  0.00     0.131 A 
ENDROOT
BRANCH   6  18
ATOM     18  O   UNL     1      -5.004  27.263  46.950  1.00  0.00    -0.507 OA
ATOM     19  H   UNL     1      -4.210  26.641  47.006  1.00  0.00     0.293 HD
ENDBRANCH   6  18
BRANCH  17  20
ATOM     20  O   UNL     1      -6.163  32.078  48.440  1.00  0.00    -0.507 OA
ATOM     21  H   UNL     1      -5.787  32.856  48.964  1.00  0.00     0.293 HD
ENDBRANCH  17  20
BRANCH  15  22
ATOM     22  O   UNL     1      -9.033  34.742  45.670  1.00  0.00    -0.508 OA
ATOM     23  H   UNL     1      -8.828  35.383  44.912  1.00  0.00     0.293 HD
ENDBRANCH  15  22
TORSDOF 3
ENDMDL
