MODEL 1
REMARK VINA RESULT:    -3.304      0.000      0.000
REMARK INTER + INTRA:          -3.923
REMARK INTER:                  -3.884
REMARK INTRA:                  -0.039
REMARK UNBOUND:                -0.039
REMARK SMILES O=C([O-])CCC(=O)[O-]
REMARK SMILES IDX 4 1 2 2 1 3 3 4 5 5 6 6 7 7 8 8
REMARK H PARENT
REMARK Flexibility Score: inf
ROOT
ATOM      1  C   UNL     1      38.514  74.343  72.175  1.00  0.00     0.059 C 
ENDROOT
BRANCH   1   2
ATOM      2  C   UNL     1      37.416  73.350  71.960  1.00  0.00     0.042 C 
ATOM      3  O   UNL     1      36.646  73.042  72.908  1.00  0.00    -0.550 OA
ATOM      4  O   UNL     1      37.273  72.727  70.727  1.00  0.00    -0.550 OA
ENDBRANCH   1   2
BRANCH   1   5
ATOM      5  C   UNL     1      38.971  74.328  73.635  1.00  0.00     0.059 C 
BRANCH   5   6
ATOM      6  C   UNL     1      40.114  75.273  73.835  1.00  0.00     0.042 C 
ATOM      7  O   UNL     1      40.630  75.861  72.849  1.00  0.00    -0.550 OA
ATOM      8  O   UNL     1      40.641  75.466  75.105  1.00  0.00    -0.550 OA
ENDBRANCH   5   6
ENDBRANCH   1   5
TORSDOF 3
ENDMDL
MODEL 2
REMARK VINA RESULT:    -3.304      0.060      4.437
REMARK INTER + INTRA:          -3.922
REMARK INTER:                  -3.883
REMARK INTRA:                  -0.039
REMARK UNBOUND:                -0.039
REMARK SMILES O=C([O-])CCC(=O)[O-]
REMARK SMILES IDX 4 1 2 2 1 3 3 4 5 5 6 6 7 7 8 8
REMARK H PARENT
REMARK Flexibility Score: inf
ROOT
ATOM      1  C   UNL     1      39.009  74.280  73.668  1.00  0.00     0.059 C 
ENDROOT
BRANCH   1   2
ATOM      2  C   UNL     1      40.117  75.260  73.893  1.00  0.00     0.042 C 
ATOM      3  O   UNL     1      40.653  75.845  72.916  1.00  0.00    -0.550 OA
ATOM      4  O   UNL     1      40.592  75.489  75.178  1.00  0.00    -0.550 OA
ENDBRANCH   1   2
BRANCH   1   5
ATOM      5  C   UNL     1      38.513  74.355  72.223  1.00  0.00     0.059 C 
BRANCH   5   6
ATOM      6  C   UNL     1      37.414  73.366  71.995  1.00  0.00     0.042 C 
ATOM      7  O   UNL     1      36.644  73.046  72.938  1.00  0.00    -0.550 OA
ATOM      8  O   UNL     1      37.269  72.763  70.753  1.00  0.00    -0.550 OA
ENDBRANCH   5   6
ENDBRANCH   1   5
TORSDOF 3
ENDMDL
MODEL 3
REMARK VINA RESULT:    -3.223      3.425      4.355
REMARK INTER + INTRA:          -3.828
REMARK INTER:                  -3.801
REMARK INTRA:                  -0.027
REMARK UNBOUND:                -0.039
REMARK SMILES O=C([O-])CCC(=O)[O-]
REMARK SMILES IDX 4 1 2 2 1 3 3 4 5 5 6 6 7 7 8 8
REMARK H PARENT
REMARK Flexibility Score: inf
ROOT
ATOM      1  C   UNL     1      36.655  72.001  75.445  1.00  0.00     0.059 C 
ENDROOT
BRANCH   1   2
ATOM      2  C   UNL     1      36.649  70.561  75.853  1.00  0.00     0.042 C 
ATOM      3  O   UNL     1      37.422  70.157  76.760  1.00  0.00    -0.550 OA
ATOM      4  O   UNL     1      35.824  69.656  75.197  1.00  0.00    -0.550 OA
ENDBRANCH   1   2
BRANCH   1   5
ATOM      5  C   UNL     1      37.024  72.137  73.967  1.00  0.00     0.059 C 
BRANCH   5   6
ATOM      6  C   UNL     1      37.179  73.579  73.597  1.00  0.00     0.042 C 
ATOM      7  O   UNL     1      36.177  74.339  73.577  1.00  0.00    -0.550 OA
ATOM      8  O   UNL     1      38.424  74.071  73.227  1.00  0.00    -0.550 OA
ENDBRANCH   5   6
ENDBRANCH   1   5
TORSDOF 3
ENDMDL
MODEL 4
REMARK VINA RESULT:    -3.206      3.392      4.892
REMARK INTER + INTRA:          -3.808
REMARK INTER:                  -3.780
REMARK INTRA:                  -0.028
REMARK UNBOUND:                -0.039
REMARK SMILES O=C([O-])CCC(=O)[O-]
REMARK SMILES IDX 4 1 2 2 1 3 3 4 5 5 6 6 7 7 8 8
REMARK H PARENT
REMARK Flexibility Score: inf
ROOT
ATOM      1  C   UNL     1      37.008  72.170  73.925  1.00  0.00     0.059 C 
ENDROOT
BRANCH   1   2
ATOM      2  C   UNL     1      37.188  73.617  73.593  1.00  0.00     0.042 C 
ATOM      3  O   UNL     1      36.203  74.402  73.627  1.00  0.00    -0.550 OA
ATOM      4  O   UNL     1      38.432  74.091  73.197  1.00  0.00    -0.550 OA
ENDBRANCH   1   2
BRANCH   1   5
ATOM      5  C   UNL     1      36.698  71.996  75.412  1.00  0.00     0.059 C 
BRANCH   5   6
ATOM      6  C   UNL     1      36.655  70.544  75.772  1.00  0.00     0.042 C 
ATOM      7  O   UNL     1      37.437  70.084  76.644  1.00  0.00    -0.550 OA
ATOM      8  O   UNL     1      35.783  69.690  75.109  1.00  0.00    -0.550 OA
ENDBRANCH   5   6
ENDBRANCH   1   5
TORSDOF 3
ENDMDL
MODEL 5
REMARK VINA RESULT:    -2.936     15.332     16.057
REMARK INTER + INTRA:          -3.490
REMARK INTER:                  -3.414
REMARK INTRA:                  -0.076
REMARK UNBOUND:                -0.039
REMARK SMILES O=C([O-])CCC(=O)[O-]
REMARK SMILES IDX 4 1 2 2 1 3 3 4 5 5 6 6 7 7 8 8
REMARK H PARENT
REMARK Flexibility Score: inf
ROOT
ATOM      1  C   UNL     1      25.785  67.780  75.904  1.00  0.00     0.059 C 
ENDROOT
BRANCH   1   2
ATOM      2  C   UNL     1      24.624  67.758  76.846  1.00  0.00     0.042 C 
ATOM      3  O   UNL     1      24.127  68.837  77.265  1.00  0.00    -0.550 OA
ATOM      4  O   UNL     1      24.119  66.546  77.301  1.00  0.00    -0.550 OA
ENDBRANCH   1   2
BRANCH   1   5
ATOM      5  C   UNL     1      26.261  66.357  75.608  1.00  0.00     0.059 C 
BRANCH   5   6
ATOM      6  C   UNL     1      25.798  65.921  74.253  1.00  0.00     0.042 C 
ATOM      7  O   UNL     1      26.401  65.000  73.643  1.00  0.00    -0.550 OA
ATOM      8  O   UNL     1      24.730  66.566  73.644  1.00  0.00    -0.550 OA
ENDBRANCH   5   6
ENDBRANCH   1   5
TORSDOF 3
ENDMDL
MODEL 6
REMARK VINA RESULT:    -2.906     22.498     23.764
REMARK INTER + INTRA:          -3.455
REMARK INTER:                  -3.341
REMARK INTRA:                  -0.114
REMARK UNBOUND:                -0.039
REMARK SMILES O=C([O-])CCC(=O)[O-]
REMARK SMILES IDX 4 1 2 2 1 3 3 4 5 5 6 6 7 7 8 8
REMARK H PARENT
REMARK Flexibility Score: inf
ROOT
ATOM      1  C   UNL     1      28.595  59.940  87.056  1.00  0.00     0.059 C 
ENDROOT
BRANCH   1   2
ATOM      2  C   UNL     1      27.905  61.266  86.991  1.00  0.00     0.042 C 
ATOM      3  O   UNL     1      28.008  62.080  87.946  1.00  0.00    -0.550 OA
ATOM      4  O   UNL     1      27.109  61.584  85.898  1.00  0.00    -0.550 OA
ENDBRANCH   1   2
BRANCH   1   5
ATOM      5  C   UNL     1      27.573  58.812  87.210  1.00  0.00     0.059 C 
BRANCH   5   6
ATOM      6  C   UNL     1      27.425  58.433  88.650  1.00  0.00     0.042 C 
ATOM      7  O   UNL     1      26.615  59.052  89.389  1.00  0.00    -0.550 OA
ATOM      8  O   UNL     1      28.217  57.427  89.189  1.00  0.00    -0.550 OA
ENDBRANCH   5   6
ENDBRANCH   1   5
TORSDOF 3
ENDMDL
MODEL 7
REMARK VINA RESULT:    -2.894     22.471     23.844
REMARK INTER + INTRA:          -3.441
REMARK INTER:                  -3.314
REMARK INTRA:                  -0.127
REMARK UNBOUND:                -0.039
REMARK SMILES O=C([O-])CCC(=O)[O-]
REMARK SMILES IDX 4 1 2 2 1 3 3 4 5 5 6 6 7 7 8 8
REMARK H PARENT
REMARK Flexibility Score: inf
ROOT
ATOM      1  C   UNL     1      28.440  59.817  87.162  1.00  0.00     0.059 C 
ENDROOT
BRANCH   1   2
ATOM      2  C   UNL     1      27.840  61.177  86.994  1.00  0.00     0.042 C 
ATOM      3  O   UNL     1      27.207  61.464  85.944  1.00  0.00    -0.550 OA
ATOM      4  O   UNL     1      28.022  62.144  87.974  1.00  0.00    -0.550 OA
ENDBRANCH   1   2
BRANCH   1   5
ATOM      5  C   UNL     1      27.365  58.737  87.026  1.00  0.00     0.059 C 
BRANCH   5   6
ATOM      6  C   UNL     1      26.380  58.835  88.148  1.00  0.00     0.042 C 
ATOM      7  O   UNL     1      26.780  58.981  89.332  1.00  0.00    -0.550 OA
ATOM      8  O   UNL     1      25.020  58.717  87.890  1.00  0.00    -0.550 OA
ENDBRANCH   5   6
ENDBRANCH   1   5
TORSDOF 3
ENDMDL
MODEL 8
REMARK VINA RESULT:    -2.889     22.454     23.639
REMARK INTER + INTRA:          -3.435
REMARK INTER:                  -3.303
REMARK INTRA:                  -0.132
REMARK UNBOUND:                -0.039
REMARK SMILES O=C([O-])CCC(=O)[O-]
REMARK SMILES IDX 4 1 2 2 1 3 3 4 5 5 6 6 7 7 8 8
REMARK H PARENT
REMARK Flexibility Score: inf
ROOT
ATOM      1  C   UNL     1      27.430  58.732  87.031  1.00  0.00     0.059 C 
ENDROOT
BRANCH   1   2
ATOM      2  C   UNL     1      26.429  58.831  88.138  1.00  0.00     0.042 C 
ATOM      3  O   UNL     1      26.813  58.956  89.331  1.00  0.00    -0.550 OA
ATOM      4  O   UNL     1      25.072  58.736  87.858  1.00  0.00    -0.550 OA
ENDBRANCH   1   2
BRANCH   1   5
ATOM      5  C   UNL     1      28.480  59.836  87.158  1.00  0.00     0.059 C 
BRANCH   5   6
ATOM      6  C   UNL     1      27.848  61.182  86.993  1.00  0.00     0.042 C 
ATOM      7  O   UNL     1      27.203  61.455  85.947  1.00  0.00    -0.550 OA
ATOM      8  O   UNL     1      28.010  62.152  87.974  1.00  0.00    -0.550 OA
ENDBRANCH   5   6
ENDBRANCH   1   5
TORSDOF 3
ENDMDL
MODEL 9
REMARK VINA RESULT:    -2.857     15.216     15.860
REMARK INTER + INTRA:          -3.398
REMARK INTER:                  -3.276
REMARK INTRA:                  -0.122
REMARK UNBOUND:                -0.039
REMARK SMILES O=C([O-])CCC(=O)[O-]
REMARK SMILES IDX 4 1 2 2 1 3 3 4 5 5 6 6 7 7 8 8
REMARK H PARENT
REMARK Flexibility Score: inf
ROOT
ATOM      1  C   UNL     1      26.119  67.045  75.629  1.00  0.00     0.059 C 
ENDROOT
BRANCH   1   2
ATOM      2  C   UNL     1      25.907  66.059  74.525  1.00  0.00     0.042 C 
ATOM      3  O   UNL     1      26.694  65.086  74.384  1.00  0.00    -0.550 OA
ATOM      4  O   UNL     1      24.869  66.240  73.620  1.00  0.00    -0.550 OA
ENDBRANCH   1   2
BRANCH   1   5
ATOM      5  C   UNL     1      24.914  67.060  76.572  1.00  0.00     0.059 C 
BRANCH   5   6
ATOM      6  C   UNL     1      24.269  68.410  76.574  1.00  0.00     0.042 C 
ATOM      7  O   UNL     1      23.875  68.923  77.654  1.00  0.00    -0.550 OA
ATOM      8  O   UNL     1      24.059  69.082  75.377  1.00  0.00    -0.550 OA
ENDBRANCH   5   6
ENDBRANCH   1   5
TORSDOF 3
ENDMDL
