MODEL 1
REMARK VINA RESULT:    -6.072      0.000      0.000
REMARK INTER + INTRA:          -6.250
REMARK INTER:                  -6.250
REMARK INTRA:                   0.000
REMARK UNBOUND:                 0.000
REMARK SMILES O=c1ccc2ccc(O)cc2o1
REMARK SMILES IDX 6 1 7 2 8 3 10 4 11 5 5 6 4 7 3 8 2 9 1 10 12 11 9 12
REMARK H PARENT 9 13
REMARK Flexibility Score: inf
ROOT
ATOM      1  C   UNL     1      17.123  43.608   5.335  1.00  0.00     0.016 A 
ATOM      2  C   UNL     1      17.798  43.407   6.543  1.00  0.00     0.047 A 
ATOM      3  C   UNL     1      17.401  44.096   7.699  1.00  0.00     0.119 A 
ATOM      4  C   UNL     1      16.324  44.989   7.644  1.00  0.00     0.094 A 
ATOM      5  C   UNL     1      15.643  45.197   6.441  1.00  0.00     0.142 A 
ATOM      6  C   UNL     1      16.045  44.502   5.278  1.00  0.00     0.018 A 
ATOM      7  C   UNL     1      15.344  44.730   4.089  1.00  0.00     0.019 A 
ATOM      8  C   UNL     1      14.278  45.630   4.085  1.00  0.00     0.094 A 
ATOM      9  C   UNL     1      13.936  46.282   5.275  1.00  0.00     0.336 A 
ATOM     10  O   UNL     1      12.977  47.097   5.291  1.00  0.00    -0.246 OA
ATOM     11  O   UNL     1      14.620  46.046   6.392  1.00  0.00    -0.423 OA
ENDROOT
BRANCH   3  12
ATOM     12  O   UNL     1      18.069  43.901   8.905  1.00  0.00    -0.508 OA
ATOM     13  H   UNL     1      17.581  43.937   9.793  1.00  0.00     0.293 HD
ENDBRANCH   3  12
TORSDOF 1
ENDMDL
MODEL 2
REMARK VINA RESULT:    -6.059      0.946      1.209
REMARK INTER + INTRA:          -6.236
REMARK INTER:                  -6.236
REMARK INTRA:                   0.000
REMARK UNBOUND:                 0.000
REMARK SMILES O=c1ccc2ccc(O)cc2o1
REMARK SMILES IDX 6 1 7 2 8 3 10 4 11 5 5 6 4 7 3 8 2 9 1 10 12 11 9 12
REMARK H PARENT 9 13
REMARK Flexibility Score: inf
ROOT
ATOM      1  C   UNL     1      16.077  43.721   4.180  1.00  0.00     0.016 A 
ATOM      2  C   UNL     1      17.119  43.365   5.043  1.00  0.00     0.047 A 
ATOM      3  C   UNL     1      17.218  43.951   6.313  1.00  0.00     0.119 A 
ATOM      4  C   UNL     1      16.271  44.898   6.720  1.00  0.00     0.094 A 
ATOM      5  C   UNL     1      15.225  45.261   5.866  1.00  0.00     0.142 A 
ATOM      6  C   UNL     1      15.128  44.669   4.586  1.00  0.00     0.018 A 
ATOM      7  C   UNL     1      14.072  45.052   3.753  1.00  0.00     0.019 A 
ATOM      8  C   UNL     1      13.153  46.000   4.205  1.00  0.00     0.094 A 
ATOM      9  C   UNL     1      13.313  46.544   5.484  1.00  0.00     0.336 A 
ATOM     10  O   UNL     1      12.494  47.400   5.909  1.00  0.00    -0.246 OA
ATOM     11  O   UNL     1      14.327  46.161   6.257  1.00  0.00    -0.423 OA
ENDROOT
BRANCH   3  12
ATOM     12  O   UNL     1      18.253  43.600   7.177  1.00  0.00    -0.508 OA
ATOM     13  H   UNL     1      18.626  42.657   7.201  1.00  0.00     0.293 HD
ENDBRANCH   3  12
TORSDOF 1
ENDMDL
MODEL 3
REMARK VINA RESULT:    -6.001      2.085      2.345
REMARK INTER + INTRA:          -6.177
REMARK INTER:                  -6.177
REMARK INTRA:                   0.000
REMARK UNBOUND:                 0.000
REMARK SMILES O=c1ccc2ccc(O)cc2o1
REMARK SMILES IDX 6 1 7 2 8 3 10 4 11 5 5 6 4 7 3 8 2 9 1 10 12 11 9 12
REMARK H PARENT 9 13
REMARK Flexibility Score: inf
ROOT
ATOM      1  C   UNL     1      17.491  43.478   6.838  1.00  0.00     0.016 A 
ATOM      2  C   UNL     1      17.237  43.492   8.213  1.00  0.00     0.047 A 
ATOM      3  C   UNL     1      15.918  43.534   8.688  1.00  0.00     0.119 A 
ATOM      4  C   UNL     1      14.850  43.563   7.784  1.00  0.00     0.094 A 
ATOM      5  C   UNL     1      15.094  43.551   6.407  1.00  0.00     0.142 A 
ATOM      6  C   UNL     1      16.424  43.508   5.930  1.00  0.00     0.018 A 
ATOM      7  C   UNL     1      16.636  43.496   4.548  1.00  0.00     0.019 A 
ATOM      8  C   UNL     1      15.540  43.526   3.687  1.00  0.00     0.094 A 
ATOM      9  C   UNL     1      14.251  43.567   4.230  1.00  0.00     0.336 A 
ATOM     10  O   UNL     1      13.249  43.595   3.469  1.00  0.00    -0.246 OA
ATOM     11  O   UNL     1      14.077  43.578   5.550  1.00  0.00    -0.423 OA
ENDROOT
BRANCH   3  12
ATOM     12  O   UNL     1      15.658  43.548  10.057  1.00  0.00    -0.508 OA
ATOM     13  H   UNL     1      16.366  43.824  10.728  1.00  0.00     0.293 HD
ENDBRANCH   3  12
TORSDOF 1
ENDMDL
MODEL 4
REMARK VINA RESULT:    -5.918      1.228      4.231
REMARK INTER + INTRA:          -6.091
REMARK INTER:                  -6.091
REMARK INTRA:                   0.000
REMARK UNBOUND:                 0.000
REMARK SMILES O=c1ccc2ccc(O)cc2o1
REMARK SMILES IDX 6 1 7 2 8 3 10 4 11 5 5 6 4 7 3 8 2 9 1 10 12 11 9 12
REMARK H PARENT 9 13
REMARK Flexibility Score: inf
ROOT
ATOM      1  C   UNL     1      15.331  43.516   3.673  1.00  0.00     0.016 A 
ATOM      2  C   UNL     1      14.115  44.075   3.266  1.00  0.00     0.047 A 
ATOM      3  C   UNL     1      13.475  45.034   4.064  1.00  0.00     0.119 A 
ATOM      4  C   UNL     1      14.054  45.434   5.274  1.00  0.00     0.094 A 
ATOM      5  C   UNL     1      15.268  44.880   5.691  1.00  0.00     0.142 A 
ATOM      6  C   UNL     1      15.912  43.914   4.884  1.00  0.00     0.018 A 
ATOM      7  C   UNL     1      17.125  43.378   5.327  1.00  0.00     0.019 A 
ATOM      8  C   UNL     1      17.662  43.809   6.540  1.00  0.00     0.094 A 
ATOM      9  C   UNL     1      16.969  44.769   7.286  1.00  0.00     0.336 A 
ATOM     10  O   UNL     1      17.437  45.170   8.383  1.00  0.00    -0.246 OA
ATOM     11  O   UNL     1      15.815  45.263   6.842  1.00  0.00    -0.423 OA
ENDROOT
BRANCH   3  12
ATOM     12  O   UNL     1      12.264  45.595   3.664  1.00  0.00    -0.508 OA
ATOM     13  H   UNL     1      11.921  46.459   4.070  1.00  0.00     0.293 HD
ENDBRANCH   3  12
TORSDOF 1
ENDMDL
MODEL 5
REMARK VINA RESULT:    -5.901      2.320      2.460
REMARK INTER + INTRA:          -6.074
REMARK INTER:                  -6.074
REMARK INTRA:                   0.000
REMARK UNBOUND:                 0.000
REMARK SMILES O=c1ccc2ccc(O)cc2o1
REMARK SMILES IDX 6 1 7 2 8 3 10 4 11 5 5 6 4 7 3 8 2 9 1 10 12 11 9 12
REMARK H PARENT 9 13
REMARK Flexibility Score: inf
ROOT
ATOM      1  C   UNL     1      17.142  43.840   5.087  1.00  0.00     0.016 A 
ATOM      2  C   UNL     1      17.897  43.677   6.254  1.00  0.00     0.047 A 
ATOM      3  C   UNL     1      17.312  43.129   7.404  1.00  0.00     0.119 A 
ATOM      4  C   UNL     1      15.966  42.744   7.387  1.00  0.00     0.094 A 
ATOM      5  C   UNL     1      15.203  42.903   6.226  1.00  0.00     0.142 A 
ATOM      6  C   UNL     1      15.795  43.455   5.068  1.00  0.00     0.018 A 
ATOM      7  C   UNL     1      15.007  43.602   3.922  1.00  0.00     0.019 A 
ATOM      8  C   UNL     1      13.671  43.202   3.955  1.00  0.00     0.094 A 
ATOM      9  C   UNL     1      13.153  42.663   5.137  1.00  0.00     0.336 A 
ATOM     10  O   UNL     1      11.949  42.297   5.186  1.00  0.00    -0.246 OA
ATOM     11  O   UNL     1      13.925  42.535   6.214  1.00  0.00    -0.423 OA
ENDROOT
BRANCH   3  12
ATOM     12  O   UNL     1      18.058  42.964   8.569  1.00  0.00    -0.508 OA
ATOM     13  H   UNL     1      18.853  43.558   8.777  1.00  0.00     0.293 HD
ENDBRANCH   3  12
TORSDOF 1
ENDMDL
MODEL 6
REMARK VINA RESULT:    -5.800      2.470      4.649
REMARK INTER + INTRA:          -5.970
REMARK INTER:                  -5.970
REMARK INTRA:                   0.000
REMARK UNBOUND:                 0.000
REMARK SMILES O=c1ccc2ccc(O)cc2o1
REMARK SMILES IDX 6 1 7 2 8 3 10 4 11 5 5 6 4 7 3 8 2 9 1 10 12 11 9 12
REMARK H PARENT 9 13
REMARK Flexibility Score: inf
ROOT
ATOM      1  C   UNL     1      15.079  43.676   3.626  1.00  0.00     0.016 A 
ATOM      2  C   UNL     1      13.757  43.328   3.332  1.00  0.00     0.047 A 
ATOM      3  C   UNL     1      12.921  42.813   4.333  1.00  0.00     0.119 A 
ATOM      4  C   UNL     1      13.411  42.647   5.634  1.00  0.00     0.094 A 
ATOM      5  C   UNL     1      14.731  42.992   5.939  1.00  0.00     0.142 A 
ATOM      6  C   UNL     1      15.572  43.510   4.928  1.00  0.00     0.018 A 
ATOM      7  C   UNL     1      16.887  43.846   5.262  1.00  0.00     0.019 A 
ATOM      8  C   UNL     1      17.328  43.662   6.572  1.00  0.00     0.094 A 
ATOM      9  C   UNL     1      16.440  43.144   7.521  1.00  0.00     0.336 A 
ATOM     10  O   UNL     1      16.820  42.971   8.709  1.00  0.00    -0.246 OA
ATOM     11  O   UNL     1      15.193  42.832   7.176  1.00  0.00    -0.423 OA
ENDROOT
BRANCH   3  12
ATOM     12  O   UNL     1      11.603  42.465   4.047  1.00  0.00    -0.508 OA
ATOM     13  H   UNL     1      11.229  42.535   3.107  1.00  0.00     0.293 HD
ENDBRANCH   3  12
TORSDOF 1
ENDMDL
MODEL 7
REMARK VINA RESULT:    -5.752      1.564      4.333
REMARK INTER + INTRA:          -5.920
REMARK INTER:                  -5.920
REMARK INTRA:                   0.000
REMARK UNBOUND:                 0.000
REMARK SMILES O=c1ccc2ccc(O)cc2o1
REMARK SMILES IDX 6 1 7 2 8 3 10 4 11 5 5 6 4 7 3 8 2 9 1 10 12 11 9 12
REMARK H PARENT 9 13
REMARK Flexibility Score: inf
ROOT
ATOM      1  C   UNL     1      13.335  45.112   3.744  1.00  0.00     0.016 A 
ATOM      2  C   UNL     1      12.524  46.070   4.361  1.00  0.00     0.047 A 
ATOM      3  C   UNL     1      12.896  46.623   5.595  1.00  0.00     0.119 A 
ATOM      4  C   UNL     1      14.084  46.215   6.213  1.00  0.00     0.094 A 
ATOM      5  C   UNL     1      14.902  45.258   5.604  1.00  0.00     0.142 A 
ATOM      6  C   UNL     1      14.525  44.702   4.361  1.00  0.00     0.018 A 
ATOM      7  C   UNL     1      15.363  43.747   3.776  1.00  0.00     0.019 A 
ATOM      8  C   UNL     1      16.536  43.374   4.431  1.00  0.00     0.094 A 
ATOM      9  C   UNL     1      16.846  43.966   5.660  1.00  0.00     0.336 A 
ATOM     10  O   UNL     1      17.900  43.642   6.267  1.00  0.00    -0.246 OA
ATOM     11  O   UNL     1      16.030  44.873   6.195  1.00  0.00    -0.423 OA
ENDROOT
BRANCH   3  12
ATOM     12  O   UNL     1      12.093  47.578   6.215  1.00  0.00    -0.508 OA
ATOM     13  H   UNL     1      12.477  48.246   6.874  1.00  0.00     0.293 HD
ENDBRANCH   3  12
TORSDOF 1
ENDMDL
MODEL 8
REMARK VINA RESULT:    -5.720      2.126      3.004
REMARK INTER + INTRA:          -5.888
REMARK INTER:                  -5.888
REMARK INTRA:                   0.000
REMARK UNBOUND:                 0.000
REMARK SMILES O=c1ccc2ccc(O)cc2o1
REMARK SMILES IDX 6 1 7 2 8 3 10 4 11 5 5 6 4 7 3 8 2 9 1 10 12 11 9 12
REMARK H PARENT 9 13
REMARK Flexibility Score: inf
ROOT
ATOM      1  C   UNL     1      15.502  44.879   6.481  1.00  0.00     0.016 A 
ATOM      2  C   UNL     1      16.380  43.952   5.909  1.00  0.00     0.047 A 
ATOM      3  C   UNL     1      16.239  43.580   4.564  1.00  0.00     0.119 A 
ATOM      4  C   UNL     1      15.216  44.138   3.789  1.00  0.00     0.094 A 
ATOM      5  C   UNL     1      14.333  45.066   4.351  1.00  0.00     0.142 A 
ATOM      6  C   UNL     1      14.477  45.439   5.707  1.00  0.00     0.018 A 
ATOM      7  C   UNL     1      13.579  46.369   6.241  1.00  0.00     0.019 A 
ATOM      8  C   UNL     1      12.576  46.896   5.428  1.00  0.00     0.094 A 
ATOM      9  C   UNL     1      12.494  46.481   4.095  1.00  0.00     0.336 A 
ATOM     10  O   UNL     1      11.596  46.946   3.345  1.00  0.00    -0.246 OA
ATOM     11  O   UNL     1      13.361  45.594   3.611  1.00  0.00    -0.423 OA
ENDROOT
BRANCH   3  12
ATOM     12  O   UNL     1      17.110  42.657   3.989  1.00  0.00    -0.508 OA
ATOM     13  H   UNL     1      17.139  41.692   4.299  1.00  0.00     0.293 HD
ENDBRANCH   3  12
TORSDOF 1
ENDMDL
MODEL 9
REMARK VINA RESULT:    -5.696      1.948      2.227
REMARK INTER + INTRA:          -5.863
REMARK INTER:                  -5.863
REMARK INTRA:                   0.000
REMARK UNBOUND:                 0.000
REMARK SMILES O=c1ccc2ccc(O)cc2o1
REMARK SMILES IDX 6 1 7 2 8 3 10 4 11 5 5 6 4 7 3 8 2 9 1 10 12 11 9 12
REMARK H PARENT 9 13
REMARK Flexibility Score: inf
ROOT
ATOM      1  C   UNL     1      15.132  42.254   7.673  1.00  0.00     0.016 A 
ATOM      2  C   UNL     1      16.203  42.360   8.567  1.00  0.00     0.047 A 
ATOM      3  C   UNL     1      17.231  43.284   8.333  1.00  0.00     0.119 A 
ATOM      4  C   UNL     1      17.187  44.106   7.200  1.00  0.00     0.094 A 
ATOM      5  C   UNL     1      16.121  44.008   6.301  1.00  0.00     0.142 A 
ATOM      6  C   UNL     1      15.086  43.075   6.538  1.00  0.00     0.018 A 
ATOM      7  C   UNL     1      14.033  43.000   5.621  1.00  0.00     0.019 A 
ATOM      8  C   UNL     1      14.035  43.840   4.508  1.00  0.00     0.094 A 
ATOM      9  C   UNL     1      15.092  44.739   4.337  1.00  0.00     0.336 A 
ATOM     10  O   UNL     1      15.111  45.505   3.338  1.00  0.00    -0.246 OA
ATOM     11  O   UNL     1      16.083  44.790   5.225  1.00  0.00    -0.423 OA
ENDROOT
BRANCH   3  12
ATOM     12  O   UNL     1      18.300  43.395   9.219  1.00  0.00    -0.508 OA
ATOM     13  H   UNL     1      19.158  42.871   9.083  1.00  0.00     0.293 HD
ENDBRANCH   3  12
TORSDOF 1
ENDMDL
