MODEL 1
REMARK VINA RESULT:    -4.132      0.000      0.000
REMARK INTER + INTRA:          -4.613
REMARK INTER:                  -4.495
REMARK INTRA:                  -0.118
REMARK UNBOUND:                -0.118
REMARK SMILES Cc1ccc(C(C)C)cc1O
REMARK SMILES IDX 1 1 2 2 10 3 9 4 5 5 4 6 3 7 11 8 6 10 7 11 8 12
REMARK H PARENT 11 9
REMARK Flexibility Score: inf
ROOT
ATOM      1  C   UNL     1      -2.881  91.515 -17.760  1.00  0.00     0.048 C 
ATOM      2  C   UNL     1      -3.648  90.934 -16.605  1.00  0.00    -0.009 A 
ATOM      3  C   UNL     1      -4.994  90.561 -16.763  1.00  0.00     0.118 A 
ATOM      4  C   UNL     1      -5.703  90.019 -15.681  1.00  0.00     0.050 A 
ATOM      5  C   UNL     1      -5.081  89.843 -14.433  1.00  0.00    -0.042 A 
ATOM      6  C   UNL     1      -3.734  90.219 -14.284  1.00  0.00     0.004 A 
ATOM      7  C   UNL     1      -3.026  90.758 -15.359  1.00  0.00     0.007 A 
ENDROOT
BRANCH   3   8
ATOM      8  O   UNL     1      -5.624  90.730 -17.996  1.00  0.00    -0.508 OA
ATOM      9  H   UNL     1      -5.580  90.019 -18.717  1.00  0.00     0.293 HD
ENDBRANCH   3   8
BRANCH   5  10
ATOM     10  C   UNL     1      -5.863  89.255 -13.272  1.00  0.00     0.013 C 
ATOM     11  C   UNL     1      -7.301  88.923 -13.686  1.00  0.00     0.012 C 
ATOM     12  C   UNL     1      -5.841  90.194 -12.059  1.00  0.00     0.012 C 
ENDBRANCH   5  10
TORSDOF 2
ENDMDL
MODEL 2
REMARK VINA RESULT:    -4.039      8.082      9.927
REMARK INTER + INTRA:          -4.512
REMARK INTER:                  -4.386
REMARK INTRA:                  -0.125
REMARK UNBOUND:                -0.118
REMARK SMILES Cc1ccc(C(C)C)cc1O
REMARK SMILES IDX 1 1 2 2 10 3 9 4 5 5 4 6 3 7 11 8 6 10 7 11 8 12
REMARK H PARENT 11 9
REMARK Flexibility Score: inf
ROOT
ATOM      1  C   UNL     1      -2.893  81.436  -7.787  1.00  0.00     0.048 C 
ATOM      2  C   UNL     1      -4.074  82.226  -8.277  1.00  0.00    -0.009 A 
ATOM      3  C   UNL     1      -4.259  82.447  -9.652  1.00  0.00     0.118 A 
ATOM      4  C   UNL     1      -5.364  83.185 -10.102  1.00  0.00     0.050 A 
ATOM      5  C   UNL     1      -6.294  83.710  -9.189  1.00  0.00    -0.042 A 
ATOM      6  C   UNL     1      -6.101  83.484  -7.814  1.00  0.00     0.004 A 
ATOM      7  C   UNL     1      -5.003  82.750  -7.364  1.00  0.00     0.007 A 
ENDROOT
BRANCH   3   8
ATOM      8  O   UNL     1      -3.344  81.932 -10.570  1.00  0.00    -0.508 OA
ATOM      9  H   UNL     1      -2.732  82.535 -11.108  1.00  0.00     0.293 HD
ENDBRANCH   3   8
BRANCH   5  10
ATOM     10  C   UNL     1      -7.485  84.506  -9.692  1.00  0.00     0.013 C 
ATOM     11  C   UNL     1      -7.106  85.972  -9.934  1.00  0.00     0.012 C 
ATOM     12  C   UNL     1      -8.672  84.395  -8.727  1.00  0.00     0.012 C 
ENDBRANCH   5  10
TORSDOF 2
ENDMDL
MODEL 3
REMARK VINA RESULT:    -4.016     12.180     13.530
REMARK INTER + INTRA:          -4.487
REMARK INTER:                  -4.361
REMARK INTRA:                  -0.126
REMARK UNBOUND:                -0.118
REMARK SMILES Cc1ccc(C(C)C)cc1O
REMARK SMILES IDX 1 1 2 2 10 3 9 4 5 5 4 6 3 7 11 8 6 10 7 11 8 12
REMARK H PARENT 11 9
REMARK Flexibility Score: inf
ROOT
ATOM      1  C   UNL     1     -14.239  83.999  -7.124  1.00  0.00     0.048 C 
ATOM      2  C   UNL     1     -13.831  83.236  -8.354  1.00  0.00    -0.009 A 
ATOM      3  C   UNL     1     -13.365  81.915  -8.247  1.00  0.00     0.118 A 
ATOM      4  C   UNL     1     -12.986  81.209  -9.398  1.00  0.00     0.050 A 
ATOM      5  C   UNL     1     -13.065  81.811 -10.666  1.00  0.00    -0.042 A 
ATOM      6  C   UNL     1     -13.532  83.135 -10.763  1.00  0.00     0.004 A 
ATOM      7  C   UNL     1     -13.911  83.839  -9.619  1.00  0.00     0.007 A 
ENDROOT
BRANCH   3   8
ATOM      8  O   UNL     1     -13.281  81.304  -6.995  1.00  0.00    -0.508 OA
ATOM      9  H   UNL     1     -12.985  81.817  -6.172  1.00  0.00     0.293 HD
ENDBRANCH   3   8
BRANCH   5  10
ATOM     10  C   UNL     1     -12.651  81.034 -11.902  1.00  0.00     0.013 C 
ATOM     11  C   UNL     1     -11.137  81.120 -12.127  1.00  0.00     0.012 C 
ATOM     12  C   UNL     1     -13.421  81.512 -13.140  1.00  0.00     0.012 C 
ENDBRANCH   5  10
TORSDOF 2
ENDMDL
MODEL 4
REMARK VINA RESULT:    -3.949      7.442      9.127
REMARK INTER + INTRA:          -4.413
REMARK INTER:                  -4.288
REMARK INTRA:                  -0.125
REMARK UNBOUND:                -0.118
REMARK SMILES Cc1ccc(C(C)C)cc1O
REMARK SMILES IDX 1 1 2 2 10 3 9 4 5 5 4 6 3 7 11 8 6 10 7 11 8 12
REMARK H PARENT 11 9
REMARK Flexibility Score: inf
ROOT
ATOM      1  C   UNL     1      -6.882  86.968 -10.294  1.00  0.00     0.048 C 
ATOM      2  C   UNL     1      -6.189  85.723  -9.812  1.00  0.00    -0.009 A 
ATOM      3  C   UNL     1      -6.885  84.504  -9.749  1.00  0.00     0.118 A 
ATOM      4  C   UNL     1      -6.232  83.347  -9.299  1.00  0.00     0.050 A 
ATOM      5  C   UNL     1      -4.883  83.392  -8.907  1.00  0.00    -0.042 A 
ATOM      6  C   UNL     1      -4.195  84.617  -8.974  1.00  0.00     0.004 A 
ATOM      7  C   UNL     1      -4.842  85.770  -9.422  1.00  0.00     0.007 A 
ENDROOT
BRANCH   3   8
ATOM      8  O   UNL     1      -8.224  84.444 -10.134  1.00  0.00    -0.508 OA
ATOM      9  H   UNL     1      -8.827  85.259 -10.092  1.00  0.00     0.293 HD
ENDBRANCH   3   8
BRANCH   5  10
ATOM     10  C   UNL     1      -4.191  82.131  -8.423  1.00  0.00     0.013 C 
ATOM     11  C   UNL     1      -3.961  82.174  -6.908  1.00  0.00     0.012 C 
ATOM     12  C   UNL     1      -2.875  81.898  -9.175  1.00  0.00     0.012 C 
ENDBRANCH   5  10
TORSDOF 2
ENDMDL
MODEL 5
REMARK VINA RESULT:    -3.900     11.217     12.178
REMARK INTER + INTRA:          -4.360
REMARK INTER:                  -4.235
REMARK INTRA:                  -0.125
REMARK UNBOUND:                -0.118
REMARK SMILES Cc1ccc(C(C)C)cc1O
REMARK SMILES IDX 1 1 2 2 10 3 9 4 5 5 4 6 3 7 11 8 6 10 7 11 8 12
REMARK H PARENT 11 9
REMARK Flexibility Score: inf
ROOT
ATOM      1  C   UNL     1     -13.378  81.346 -13.063  1.00  0.00     0.048 C 
ATOM      2  C   UNL     1     -12.700  81.720 -11.775  1.00  0.00    -0.009 A 
ATOM      3  C   UNL     1     -13.286  82.662 -10.913  1.00  0.00     0.118 A 
ATOM      4  C   UNL     1     -12.648  83.006  -9.712  1.00  0.00     0.050 A 
ATOM      5  C   UNL     1     -11.421  82.418  -9.358  1.00  0.00    -0.042 A 
ATOM      6  C   UNL     1     -10.842  81.476 -10.228  1.00  0.00     0.004 A 
ATOM      7  C   UNL     1     -11.476  81.131 -11.423  1.00  0.00     0.007 A 
ENDROOT
BRANCH   3   8
ATOM      8  O   UNL     1     -14.503  83.254 -11.250  1.00  0.00    -0.508 OA
ATOM      9  H   UNL     1     -14.826  84.102 -10.798  1.00  0.00     0.293 HD
ENDBRANCH   3   8
BRANCH   5  10
ATOM     10  C   UNL     1     -10.744  82.802  -8.055  1.00  0.00     0.013 C 
ATOM     11  C   UNL     1      -9.264  83.133  -8.279  1.00  0.00     0.012 C 
ATOM     12  C   UNL     1     -10.909  81.700  -7.001  1.00  0.00     0.012 C 
ENDBRANCH   5  10
TORSDOF 2
ENDMDL
MODEL 6
REMARK VINA RESULT:    -3.887      1.492      2.255
REMARK INTER + INTRA:          -4.346
REMARK INTER:                  -4.220
REMARK INTRA:                  -0.126
REMARK UNBOUND:                -0.118
REMARK SMILES Cc1ccc(C(C)C)cc1O
REMARK SMILES IDX 1 1 2 2 10 3 9 4 5 5 4 6 3 7 11 8 6 10 7 11 8 12
REMARK H PARENT 11 9
REMARK Flexibility Score: inf
ROOT
ATOM      1  C   UNL     1      -4.291  93.142 -19.791  1.00  0.00     0.048 C 
ATOM      2  C   UNL     1      -4.382  92.370 -18.504  1.00  0.00    -0.009 A 
ATOM      3  C   UNL     1      -5.360  91.374 -18.343  1.00  0.00     0.118 A 
ATOM      4  C   UNL     1      -5.439  90.657 -17.140  1.00  0.00     0.050 A 
ATOM      5  C   UNL     1      -4.546  90.924 -16.087  1.00  0.00    -0.042 A 
ATOM      6  C   UNL     1      -3.570  91.922 -16.258  1.00  0.00     0.004 A 
ATOM      7  C   UNL     1      -3.489  92.636 -17.455  1.00  0.00     0.007 A 
ENDROOT
BRANCH   3   8
ATOM      8  O   UNL     1      -6.252  91.099 -19.379  1.00  0.00    -0.508 OA
ATOM      9  H   UNL     1      -7.170  90.705 -19.200  1.00  0.00     0.293 HD
ENDBRANCH   3   8
BRANCH   5  10
ATOM     10  C   UNL     1      -4.645  90.139 -14.792  1.00  0.00     0.013 C 
ATOM     11  C   UNL     1      -6.091  89.718 -14.510  1.00  0.00     0.012 C 
ATOM     12  C   UNL     1      -4.063  90.935 -13.617  1.00  0.00     0.012 C 
ENDBRANCH   5  10
TORSDOF 2
ENDMDL
MODEL 7
REMARK VINA RESULT:    -3.844      7.637      8.744
REMARK INTER + INTRA:          -4.299
REMARK INTER:                  -4.173
REMARK INTRA:                  -0.125
REMARK UNBOUND:                -0.118
REMARK SMILES Cc1ccc(C(C)C)cc1O
REMARK SMILES IDX 1 1 2 2 10 3 9 4 5 5 4 6 3 7 11 8 6 10 7 11 8 12
REMARK H PARENT 11 9
REMARK Flexibility Score: inf
ROOT
ATOM      1  C   UNL     1      -5.552  83.169  -9.975  1.00  0.00     0.048 C 
ATOM      2  C   UNL     1      -5.085  84.461  -9.366  1.00  0.00    -0.009 A 
ATOM      3  C   UNL     1      -3.762  84.594  -8.911  1.00  0.00     0.118 A 
ATOM      4  C   UNL     1      -3.333  85.803  -8.344  1.00  0.00     0.050 A 
ATOM      5  C   UNL     1      -4.215  86.890  -8.224  1.00  0.00    -0.042 A 
ATOM      6  C   UNL     1      -5.538  86.748  -8.681  1.00  0.00     0.004 A 
ATOM      7  C   UNL     1      -5.967  85.546  -9.247  1.00  0.00     0.007 A 
ENDROOT
BRANCH   3   8
ATOM      8  O   UNL     1      -2.876  83.523  -9.025  1.00  0.00    -0.508 OA
ATOM      9  H   UNL     1      -3.184  82.607  -9.333  1.00  0.00     0.293 HD
ENDBRANCH   3   8
BRANCH   5  10
ATOM     10  C   UNL     1      -3.735  88.192  -7.608  1.00  0.00     0.013 C 
ATOM     11  C   UNL     1      -4.018  88.228  -6.102  1.00  0.00     0.012 C 
ATOM     12  C   UNL     1      -4.358  89.402  -8.315  1.00  0.00     0.012 C 
ENDBRANCH   5  10
TORSDOF 2
ENDMDL
MODEL 8
REMARK VINA RESULT:    -3.703      7.208      8.968
REMARK INTER + INTRA:          -4.146
REMARK INTER:                  -4.020
REMARK INTRA:                  -0.126
REMARK UNBOUND:                -0.118
REMARK SMILES Cc1ccc(C(C)C)cc1O
REMARK SMILES IDX 1 1 2 2 10 3 9 4 5 5 4 6 3 7 11 8 6 10 7 11 8 12
REMARK H PARENT 11 9
REMARK Flexibility Score: inf
ROOT
ATOM      1  C   UNL     1      -6.474  87.465  -9.898  1.00  0.00     0.048 C 
ATOM      2  C   UNL     1      -5.691  86.220  -9.584  1.00  0.00    -0.009 A 
ATOM      3  C   UNL     1      -4.594  86.275  -8.708  1.00  0.00     0.118 A 
ATOM      4  C   UNL     1      -3.869  85.110  -8.419  1.00  0.00     0.050 A 
ATOM      5  C   UNL     1      -4.227  83.880  -8.998  1.00  0.00    -0.042 A 
ATOM      6  C   UNL     1      -5.327  83.835  -9.873  1.00  0.00     0.004 A 
ATOM      7  C   UNL     1      -6.052  84.993 -10.162  1.00  0.00     0.007 A 
ENDROOT
BRANCH   3   8
ATOM      8  O   UNL     1      -4.226  87.488  -8.126  1.00  0.00    -0.508 OA
ATOM      9  H   UNL     1      -3.373  87.968  -8.390  1.00  0.00     0.293 HD
ENDBRANCH   3   8
BRANCH   5  10
ATOM     10  C   UNL     1      -3.432  82.629  -8.674  1.00  0.00     0.013 C 
ATOM     11  C   UNL     1      -3.348  81.698  -9.889  1.00  0.00     0.012 C 
ATOM     12  C   UNL     1      -4.019  81.899  -7.459  1.00  0.00     0.012 C 
ENDBRANCH   5  10
TORSDOF 2
ENDMDL
