MODEL 1
REMARK VINA RESULT:     7.140      0.000      0.000
REMARK INTER + INTRA:           7.327
REMARK INTER:                   7.558
REMARK INTRA:                  -0.230
REMARK UNBOUND:                -0.230
REMARK SMILES O=c1cc(-c2ccccc2)oc2ccccc12
REMARK SMILES IDX 4 1 3 2 2 3 1 4 17 5 16 6 15 7 14 8 13 9 12 10 11 11 5 12
REMARK SMILES IDX 8 13 7 14 9 15 6 16 10 17
REMARK H PARENT
REMARK Flexibility Score: inf
ROOT
ATOM      1  C   UNL     1      89.003  18.357 120.467  1.00  0.00     0.138 A 
ATOM      2  C   UNL     1      88.608  19.688 120.715  1.00  0.00     0.100 A 
ATOM      3  C   UNL     1      87.256  19.981 120.902  1.00  0.00     0.193 A 
ATOM      4  O   UNL     1      86.903  21.172 121.124  1.00  0.00    -0.289 OA
ATOM      5  C   UNL     1      86.310  18.948 120.842  1.00  0.00     0.065 A 
ATOM      6  C   UNL     1      84.933  19.175 121.022  1.00  0.00     0.016 A 
ATOM      7  C   UNL     1      84.033  18.107 120.951  1.00  0.00     0.001 A 
ATOM      8  C   UNL     1      84.496  16.812 120.702  1.00  0.00     0.004 A 
ATOM      9  C   UNL     1      85.862  16.577 120.521  1.00  0.00     0.048 A 
ATOM     10  C   UNL     1      86.773  17.639 120.591  1.00  0.00     0.138 A 
ATOM     11  O   UNL     1      88.069  17.405 120.418  1.00  0.00    -0.456 OA
ENDROOT
BRANCH   1  12
ATOM     12  C   UNL     1      90.428  17.956 120.255  1.00  0.00     0.017 A 
ATOM     13  C   UNL     1      93.120  17.255 119.773  1.00  0.00     0.000 A 
ATOM     14  C   UNL     1      92.457  18.120 118.903  1.00  0.00     0.001 A 
ATOM     15  C   UNL     1      92.451  16.736 120.881  1.00  0.00     0.001 A 
ATOM     16  C   UNL     1      91.125  18.469 119.140  1.00  0.00     0.012 A 
ATOM     17  C   UNL     1      91.117  17.080 121.125  1.00  0.00     0.012 A 
ENDBRANCH   1  12
TORSDOF 1
ENDMDL
