MODEL 1
REMARK VINA RESULT:    -4.471      0.000      0.000
REMARK INTER + INTRA:          -4.471
REMARK INTER:                  -4.471
REMARK INTRA:                   0.000
REMARK UNBOUND:                 0.000
REMARK SMILES c1ccc2ccccc2c1
REMARK SMILES IDX 2 1 1 2 10 3 9 4 8 5 7 6 6 7 5 8 4 9 3 10
REMARK H PARENT
REMARK Flexibility Score: inf
ROOT
ATOM      1  C   UNL     1      99.087 111.040 106.090  1.00  0.00     0.001 A 
ATOM      2  C   UNL     1      99.956 110.255 105.328  1.00  0.00     0.001 A 
ATOM      3  C   UNL     1     100.847 110.857 104.433  1.00  0.00     0.009 A 
ATOM      4  C   UNL     1     100.872 112.253 104.297  1.00  0.00    -0.018 A 
ATOM      5  C   UNL     1     101.762 112.869 103.404  1.00  0.00     0.009 A 
ATOM      6  C   UNL     1     101.777 114.262 103.278  1.00  0.00     0.001 A 
ATOM      7  C   UNL     1     100.908 115.047 104.040  1.00  0.00     0.001 A 
ATOM      8  C   UNL     1     100.017 114.446 104.934  1.00  0.00     0.009 A 
ATOM      9  C   UNL     1      99.991 113.050 105.071  1.00  0.00    -0.018 A 
ATOM     10  C   UNL     1      99.102 112.433 105.964  1.00  0.00     0.009 A 
ENDROOT
TORSDOF 0
ENDMDL
MODEL 2
REMARK VINA RESULT:    -4.366     10.203     12.120
REMARK INTER + INTRA:          -4.366
REMARK INTER:                  -4.366
REMARK INTRA:                   0.000
REMARK UNBOUND:                 0.000
REMARK SMILES c1ccc2ccccc2c1
REMARK SMILES IDX 2 1 1 2 10 3 9 4 8 5 7 6 6 7 5 8 4 9 3 10
REMARK H PARENT
REMARK Flexibility Score: inf
ROOT
ATOM      1  C   UNL     1     109.322 103.860 104.290  1.00  0.00     0.001 A 
ATOM      2  C   UNL     1     109.440 102.505 104.613  1.00  0.00     0.001 A 
ATOM      3  C   UNL     1     108.300 101.700 104.695  1.00  0.00     0.009 A 
ATOM      4  C   UNL     1     107.031 102.248 104.454  1.00  0.00    -0.018 A 
ATOM      5  C   UNL     1     105.879 101.451 104.532  1.00  0.00     0.009 A 
ATOM      6  C   UNL     1     104.621 102.010 104.289  1.00  0.00     0.001 A 
ATOM      7  C   UNL     1     104.503 103.365 103.966  1.00  0.00     0.001 A 
ATOM      8  C   UNL     1     105.643 104.170 103.884  1.00  0.00     0.009 A 
ATOM      9  C   UNL     1     106.911 103.622 104.126  1.00  0.00    -0.018 A 
ATOM     10  C   UNL     1     108.064 104.419 104.047  1.00  0.00     0.009 A 
ENDROOT
TORSDOF 0
ENDMDL
MODEL 3
REMARK VINA RESULT:    -4.366     10.176     12.177
REMARK INTER + INTRA:          -4.366
REMARK INTER:                  -4.366
REMARK INTRA:                   0.000
REMARK UNBOUND:                 0.000
REMARK SMILES c1ccc2ccccc2c1
REMARK SMILES IDX 2 1 1 2 10 3 9 4 8 5 7 6 6 7 5 8 4 9 3 10
REMARK H PARENT
REMARK Flexibility Score: inf
ROOT
ATOM      1  C   UNL     1     109.425 102.505 104.614  1.00  0.00     0.001 A 
ATOM      2  C   UNL     1     109.317 103.866 104.314  1.00  0.00     0.001 A 
ATOM      3  C   UNL     1     108.062 104.439 104.085  1.00  0.00     0.009 A 
ATOM      4  C   UNL     1     106.904 103.649 104.156  1.00  0.00    -0.018 A 
ATOM      5  C   UNL     1     105.638 104.212 103.929  1.00  0.00     0.009 A 
ATOM      6  C   UNL     1     104.493 103.413 104.002  1.00  0.00     0.001 A 
ATOM      7  C   UNL     1     104.601 102.053 104.302  1.00  0.00     0.001 A 
ATOM      8  C   UNL     1     105.856 101.480 104.531  1.00  0.00     0.009 A 
ATOM      9  C   UNL     1     107.013 102.269 104.461  1.00  0.00    -0.018 A 
ATOM     10  C   UNL     1     108.279 101.707 104.688  1.00  0.00     0.009 A 
ENDROOT
TORSDOF 0
ENDMDL
MODEL 4
REMARK VINA RESULT:    -4.352     10.162     11.958
REMARK INTER + INTRA:          -4.352
REMARK INTER:                  -4.352
REMARK INTRA:                   0.000
REMARK UNBOUND:                 0.000
REMARK SMILES c1ccc2ccccc2c1
REMARK SMILES IDX 2 1 1 2 10 3 9 4 8 5 7 6 6 7 5 8 4 9 3 10
REMARK H PARENT
REMARK Flexibility Score: inf
ROOT
ATOM      1  C   UNL     1     104.587 102.108 104.263  1.00  0.00     0.001 A 
ATOM      2  C   UNL     1     104.502 103.469 103.956  1.00  0.00     0.001 A 
ATOM      3  C   UNL     1     105.660 104.249 103.885  1.00  0.00     0.009 A 
ATOM      4  C   UNL     1     106.915 103.668 104.123  1.00  0.00    -0.018 A 
ATOM      5  C   UNL     1     108.086 104.439 104.055  1.00  0.00     0.009 A 
ATOM      6  C   UNL     1     109.330 103.848 104.294  1.00  0.00     0.001 A 
ATOM      7  C   UNL     1     109.415 102.487 104.601  1.00  0.00     0.001 A 
ATOM      8  C   UNL     1     108.257 101.707 104.672  1.00  0.00     0.009 A 
ATOM      9  C   UNL     1     107.002 102.288 104.434  1.00  0.00    -0.018 A 
ATOM     10  C   UNL     1     105.831 101.517 104.503  1.00  0.00     0.009 A 
ENDROOT
TORSDOF 0
ENDMDL
MODEL 5
REMARK VINA RESULT:    -4.352     10.168     11.879
REMARK INTER + INTRA:          -4.352
REMARK INTER:                  -4.352
REMARK INTRA:                   0.000
REMARK UNBOUND:                 0.000
REMARK SMILES c1ccc2ccccc2c1
REMARK SMILES IDX 2 1 1 2 10 3 9 4 8 5 7 6 6 7 5 8 4 9 3 10
REMARK H PARENT
REMARK Flexibility Score: inf
ROOT
ATOM      1  C   UNL     1     104.494 103.436 103.955  1.00  0.00     0.001 A 
ATOM      2  C   UNL     1     104.589 102.081 104.283  1.00  0.00     0.001 A 
ATOM      3  C   UNL     1     105.838 101.502 104.529  1.00  0.00     0.009 A 
ATOM      4  C   UNL     1     107.003 102.280 104.448  1.00  0.00    -0.018 A 
ATOM      5  C   UNL     1     108.263 101.712 104.694  1.00  0.00     0.009 A 
ATOM      6  C   UNL     1     109.416 102.499 104.610  1.00  0.00     0.001 A 
ATOM      7  C   UNL     1     109.320 103.854 104.282  1.00  0.00     0.001 A 
ATOM      8  C   UNL     1     108.072 104.432 104.035  1.00  0.00     0.009 A 
ATOM      9  C   UNL     1     106.907 103.654 104.116  1.00  0.00    -0.018 A 
ATOM     10  C   UNL     1     105.647 104.223 103.870  1.00  0.00     0.009 A 
ENDROOT
TORSDOF 0
ENDMDL
MODEL 6
REMARK VINA RESULT:    -4.198     15.562     16.781
REMARK INTER + INTRA:          -4.198
REMARK INTER:                  -4.198
REMARK INTRA:                   0.000
REMARK UNBOUND:                 0.000
REMARK SMILES c1ccc2ccccc2c1
REMARK SMILES IDX 2 1 1 2 10 3 9 4 8 5 7 6 6 7 5 8 4 9 3 10
REMARK H PARENT
REMARK Flexibility Score: inf
ROOT
ATOM      1  C   UNL     1     113.020 107.963  96.465  1.00  0.00     0.001 A 
ATOM      2  C   UNL     1     113.483 108.187  97.765  1.00  0.00     0.001 A 
ATOM      3  C   UNL     1     113.772 107.107  98.605  1.00  0.00     0.009 A 
ATOM      4  C   UNL     1     113.597 105.792  98.147  1.00  0.00    -0.018 A 
ATOM      5  C   UNL     1     113.883 104.699  98.979  1.00  0.00     0.009 A 
ATOM      6  C   UNL     1     113.705 103.394  98.510  1.00  0.00     0.001 A 
ATOM      7  C   UNL     1     113.242 103.170  97.210  1.00  0.00     0.001 A 
ATOM      8  C   UNL     1     112.953 104.250  96.371  1.00  0.00     0.009 A 
ATOM      9  C   UNL     1     113.128 105.565  96.829  1.00  0.00    -0.018 A 
ATOM     10  C   UNL     1     112.841 106.658  95.996  1.00  0.00     0.009 A 
ENDROOT
TORSDOF 0
ENDMDL
MODEL 7
REMARK VINA RESULT:    -4.167     15.793     16.479
REMARK INTER + INTRA:          -4.167
REMARK INTER:                  -4.167
REMARK INTRA:                   0.000
REMARK UNBOUND:                 0.000
REMARK SMILES c1ccc2ccccc2c1
REMARK SMILES IDX 2 1 1 2 10 3 9 4 8 5 7 6 6 7 5 8 4 9 3 10
REMARK H PARENT
REMARK Flexibility Score: inf
ROOT
ATOM      1  C   UNL     1     113.072 103.096  97.449  1.00  0.00     0.001 A 
ATOM      2  C   UNL     1     113.615 103.369  98.708  1.00  0.00     0.001 A 
ATOM      3  C   UNL     1     113.904 104.686  99.079  1.00  0.00     0.009 A 
ATOM      4  C   UNL     1     113.649 105.741  98.189  1.00  0.00    -0.018 A 
ATOM      5  C   UNL     1     113.933 107.067  98.550  1.00  0.00     0.009 A 
ATOM      6  C   UNL     1     113.674 108.109  97.654  1.00  0.00     0.001 A 
ATOM      7  C   UNL     1     113.131 107.835  96.395  1.00  0.00     0.001 A 
ATOM      8  C   UNL     1     112.843 106.519  96.024  1.00  0.00     0.009 A 
ATOM      9  C   UNL     1     113.098 105.464  96.913  1.00  0.00    -0.018 A 
ATOM     10  C   UNL     1     112.813 104.138  96.553  1.00  0.00     0.009 A 
ENDROOT
TORSDOF 0
ENDMDL
MODEL 8
REMARK VINA RESULT:    -4.107     15.516     16.616
REMARK INTER + INTRA:          -4.107
REMARK INTER:                  -4.107
REMARK INTRA:                   0.000
REMARK UNBOUND:                 0.000
REMARK SMILES c1ccc2ccccc2c1
REMARK SMILES IDX 2 1 1 2 10 3 9 4 8 5 7 6 6 7 5 8 4 9 3 10
REMARK H PARENT
REMARK Flexibility Score: inf
ROOT
ATOM      1  C   UNL     1     113.170 108.029  97.288  1.00  0.00     0.001 A 
ATOM      2  C   UNL     1     112.861 107.372  96.094  1.00  0.00     0.001 A 
ATOM      3  C   UNL     1     112.861 105.975  96.039  1.00  0.00     0.009 A 
ATOM      4  C   UNL     1     113.172 105.226  97.183  1.00  0.00    -0.018 A 
ATOM      5  C   UNL     1     113.175 103.822  97.142  1.00  0.00     0.009 A 
ATOM      6  C   UNL     1     113.487 103.087  98.289  1.00  0.00     0.001 A 
ATOM      7  C   UNL     1     113.796 103.744  99.484  1.00  0.00     0.001 A 
ATOM      8  C   UNL     1     113.796 105.141  99.539  1.00  0.00     0.009 A 
ATOM      9  C   UNL     1     113.485 105.891  98.395  1.00  0.00    -0.018 A 
ATOM     10  C   UNL     1     113.482 107.294  98.436  1.00  0.00     0.009 A 
ENDROOT
TORSDOF 0
ENDMDL
