MODEL 1
REMARK VINA RESULT:    -6.922      0.000      0.000
REMARK INTER + INTRA:         -12.113
REMARK INTER:                 -10.159
REMARK INTRA:                  -1.953
REMARK UNBOUND:                -1.953
REMARK SMILES O=c1c(O[C@@H]2O[C@@H](CO)[C@@H](O)[C@@H](O)[C@@H]2O)c(-c2ccc(O)c(O)c2)oc2cc(O)cc(O)c12
REMARK SMILES IDX 4 1 3 2 16 3 25 4 2 5 26 6 1 7 33 8 27 9 31 10 28 11 30 12
REMARK SMILES IDX 17 13 18 14 19 15 20 16 24 17 22 18 21 19 23 21 32 23 29 25
REMARK SMILES IDX 5 27 14 28 6 29 12 30 7 31 10 32 15 33 13 35 8 37 9 38 11 40
REMARK H PARENT 21 20 23 22 32 24 29 26 15 34 13 36 9 39 11 41
REMARK Flexibility Score: inf
ROOT
ATOM      1  O   UNL     1     -44.122 -14.763   3.543  1.00  0.00    -0.454 OA
ENDROOT
BRANCH   1   2
ATOM      2  C   UNL     1     -44.501 -14.359   2.246  1.00  0.00     0.214 A 
ATOM      3  C   UNL     1     -45.551 -13.450   1.938  1.00  0.00     0.180 A 
ATOM      4  O   UNL     1     -45.923 -13.291   0.669  1.00  0.00    -0.452 OA
ATOM      5  C   UNL     1     -43.799 -14.947   1.183  1.00  0.00     0.239 A 
ATOM      6  C   UNL     1     -45.333 -13.892  -0.355  1.00  0.00     0.146 A 
ATOM      7  O   UNL     1     -42.825 -15.706   1.445  1.00  0.00    -0.285 OA
ATOM      8  C   UNL     1     -44.209 -14.724  -0.148  1.00  0.00     0.111 A 
ATOM      9  C   UNL     1     -45.843 -13.702  -1.646  1.00  0.00     0.094 A 
ATOM     10  C   UNL     1     -43.587 -15.333  -1.261  1.00  0.00     0.134 A 
ATOM     11  C   UNL     1     -45.255 -14.350  -2.740  1.00  0.00     0.123 A 
ATOM     12  C   UNL     1     -44.115 -15.141  -2.551  1.00  0.00     0.093 A 
BRANCH   3  13
ATOM     13  C   UNL     1     -46.275 -12.652   2.947  1.00  0.00     0.025 A 
ATOM     14  C   UNL     1     -45.580 -11.667   3.660  1.00  0.00     0.016 A 
ATOM     15  C   UNL     1     -46.255 -10.857   4.572  1.00  0.00     0.051 A 
ATOM     16  C   UNL     1     -47.631 -11.017   4.769  1.00  0.00     0.157 A 
ATOM     17  C   UNL     1     -47.630 -12.890   3.235  1.00  0.00     0.062 A 
ATOM     18  C   UNL     1     -48.312 -12.067   4.142  1.00  0.00     0.158 A 
BRANCH  16  19
ATOM     19  O   UNL     1     -48.313 -10.099   5.558  1.00  0.00    -0.504 OA
ATOM     20  H   UNL     1     -48.107 -10.005   6.544  1.00  0.00     0.293 HD
ENDBRANCH  16  19
BRANCH  18  21
ATOM     21  O   UNL     1     -49.660 -12.291   4.429  1.00  0.00    -0.504 OA
ATOM     22  H   UNL     1     -50.202 -13.011   3.941  1.00  0.00     0.293 HD
ENDBRANCH  18  21
ENDBRANCH   3  13
BRANCH  10  23
ATOM     23  O   UNL     1     -42.462 -16.134  -1.101  1.00  0.00    -0.507 OA
ATOM     24  H   UNL     1     -41.826 -16.013  -0.323  1.00  0.00     0.293 HD
ENDBRANCH  10  23
BRANCH  11  25
ATOM     25  O   UNL     1     -45.815 -14.239  -4.012  1.00  0.00    -0.508 OA
ATOM     26  H   UNL     1     -46.398 -14.975  -4.396  1.00  0.00     0.293 HD
ENDBRANCH  11  25
ENDBRANCH   1   2
BRANCH   1  27
ATOM     27  C   UNL     1     -44.619 -15.875   4.291  1.00  0.00     0.339 C 
ATOM     28  C   UNL     1     -43.503 -16.499   5.161  1.00  0.00     0.214 C 
ATOM     29  O   UNL     1     -45.729 -15.481   5.085  1.00  0.00    -0.332 OA
ATOM     30  C   UNL     1     -43.090 -15.545   6.306  1.00  0.00     0.180 C 
ATOM     31  C   UNL     1     -45.354 -14.493   6.040  1.00  0.00     0.179 C 
ATOM     32  C   UNL     1     -44.337 -15.066   7.061  1.00  0.00     0.177 C 
BRANCH  28  33
ATOM     33  O   UNL     1     -42.408 -16.882   4.363  1.00  0.00    -0.384 OA
ATOM     34  H   UNL     1     -42.389 -17.878   4.311  1.00  0.00     0.211 HD
ENDBRANCH  28  33
BRANCH  30  35
ATOM     35  O   UNL     1     -42.221 -16.192   7.202  1.00  0.00    -0.387 OA
ATOM     36  H   UNL     1     -41.436 -16.500   6.669  1.00  0.00     0.211 HD
ENDBRANCH  30  35
BRANCH  31  37
ATOM     37  C   UNL     1     -46.620 -13.945   6.729  1.00  0.00     0.191 C 
BRANCH  37  38
ATOM     38  O   UNL     1     -47.477 -14.996   7.092  1.00  0.00    -0.394 OA
ATOM     39  H   UNL     1     -47.114 -15.412   7.929  1.00  0.00     0.210 HD
ENDBRANCH  37  38
ENDBRANCH  31  37
BRANCH  32  40
ATOM     40  O   UNL     1     -44.857 -16.108   7.857  1.00  0.00    -0.387 OA
ATOM     41  H   UNL     1     -45.558 -16.599   7.357  1.00  0.00     0.211 HD
ENDBRANCH  32  40
ENDBRANCH   1  27
TORSDOF 12
ENDMDL
MODEL 2
REMARK VINA RESULT:    -6.761      4.844      7.165
REMARK INTER + INTRA:         -11.876
REMARK INTER:                  -9.883
REMARK INTRA:                  -1.993
REMARK UNBOUND:                -1.953
REMARK SMILES O=c1c(O[C@@H]2O[C@@H](CO)[C@@H](O)[C@@H](O)[C@@H]2O)c(-c2ccc(O)c(O)c2)oc2cc(O)cc(O)c12
REMARK SMILES IDX 4 1 3 2 16 3 25 4 2 5 26 6 1 7 33 8 27 9 31 10 28 11 30 12
REMARK SMILES IDX 17 13 18 14 19 15 20 16 24 17 22 18 21 19 23 21 32 23 29 25
REMARK SMILES IDX 5 27 14 28 6 29 12 30 7 31 10 32 15 33 13 35 8 37 9 38 11 40
REMARK H PARENT 21 20 23 22 32 24 29 26 15 34 13 36 9 39 11 41
REMARK Flexibility Score: inf
ROOT
ATOM      1  O   UNL     1     -46.421 -17.713   6.112  1.00  0.00    -0.454 OA
ENDROOT
BRANCH   1   2
ATOM      2  C   UNL     1     -47.262 -16.582   6.140  1.00  0.00     0.214 A 
ATOM      3  C   UNL     1     -46.847 -15.250   6.423  1.00  0.00     0.180 A 
ATOM      4  O   UNL     1     -47.768 -14.304   6.594  1.00  0.00    -0.452 OA
ATOM      5  C   UNL     1     -48.625 -16.817   5.909  1.00  0.00     0.239 A 
ATOM      6  C   UNL     1     -49.072 -14.509   6.461  1.00  0.00     0.146 A 
ATOM      7  O   UNL     1     -48.996 -17.982   5.595  1.00  0.00    -0.285 OA
ATOM      8  C   UNL     1     -49.563 -15.775   6.070  1.00  0.00     0.111 A 
ATOM      9  C   UNL     1     -49.959 -13.457   6.723  1.00  0.00     0.094 A 
ATOM     10  C   UNL     1     -50.955 -15.957   5.914  1.00  0.00     0.134 A 
ATOM     11  C   UNL     1     -51.342 -13.657   6.618  1.00  0.00     0.123 A 
ATOM     12  C   UNL     1     -51.836 -14.894   6.189  1.00  0.00     0.093 A 
BRANCH   3  13
ATOM     13  C   UNL     1     -45.436 -14.834   6.544  1.00  0.00     0.025 A 
ATOM     14  C   UNL     1     -44.649 -14.757   5.388  1.00  0.00     0.016 A 
ATOM     15  C   UNL     1     -43.332 -14.305   5.467  1.00  0.00     0.051 A 
ATOM     16  C   UNL     1     -42.798 -13.913   6.700  1.00  0.00     0.157 A 
ATOM     17  C   UNL     1     -44.858 -14.555   7.795  1.00  0.00     0.062 A 
ATOM     18  C   UNL     1     -43.540 -14.088   7.873  1.00  0.00     0.158 A 
BRANCH  16  19
ATOM     19  O   UNL     1     -41.543 -13.317   6.734  1.00  0.00    -0.504 OA
ATOM     20  H   UNL     1     -41.352 -12.474   6.207  1.00  0.00     0.293 HD
ENDBRANCH  16  19
BRANCH  18  21
ATOM     21  O   UNL     1     -42.960 -13.800   9.111  1.00  0.00    -0.504 OA
ATOM     22  H   UNL     1     -42.087 -13.268   9.186  1.00  0.00     0.293 HD
ENDBRANCH  18  21
ENDBRANCH   3  13
BRANCH  10  23
ATOM     23  O   UNL     1     -51.474 -17.179   5.503  1.00  0.00    -0.507 OA
ATOM     24  H   UNL     1     -51.393 -18.013   6.070  1.00  0.00     0.293 HD
ENDBRANCH  10  23
BRANCH  11  25
ATOM     25  O   UNL     1     -52.231 -12.642   6.968  1.00  0.00    -0.508 OA
ATOM     26  H   UNL     1     -51.904 -11.701   7.164  1.00  0.00     0.293 HD
ENDBRANCH  11  25
ENDBRANCH   1   2
BRANCH   1  27
ATOM     27  C   UNL     1     -45.896 -18.439   7.226  1.00  0.00     0.339 C 
ATOM     28  C   UNL     1     -46.061 -19.963   7.019  1.00  0.00     0.214 C 
ATOM     29  O   UNL     1     -44.535 -18.095   7.445  1.00  0.00    -0.332 OA
ATOM     30  C   UNL     1     -45.141 -20.474   5.885  1.00  0.00     0.180 C 
ATOM     31  C   UNL     1     -43.729 -18.446   6.324  1.00  0.00     0.179 C 
ATOM     32  C   UNL     1     -43.706 -19.983   6.116  1.00  0.00     0.177 C 
BRANCH  28  33
ATOM     33  O   UNL     1     -47.413 -20.290   6.799  1.00  0.00    -0.384 OA
ATOM     34  H   UNL     1     -47.927 -20.076   7.628  1.00  0.00     0.211 HD
ENDBRANCH  28  33
BRANCH  30  35
ATOM     35  O   UNL     1     -45.151 -21.879   5.834  1.00  0.00    -0.387 OA
ATOM     36  H   UNL     1     -46.071 -22.170   6.088  1.00  0.00     0.211 HD
ENDBRANCH  30  35
BRANCH  31  37
ATOM     37  C   UNL     1     -42.313 -17.867   6.516  1.00  0.00     0.191 C 
BRANCH  37  38
ATOM     38  O   UNL     1     -41.857 -18.102   7.823  1.00  0.00    -0.394 OA
ATOM     39  H   UNL     1     -41.231 -17.358   8.068  1.00  0.00     0.210 HD
ENDBRANCH  37  38
ENDBRANCH  31  37
BRANCH  32  40
ATOM     40  O   UNL     1     -43.111 -20.691   7.181  1.00  0.00    -0.387 OA
ATOM     41  H   UNL     1     -43.681 -21.461   7.437  1.00  0.00     0.211 HD
ENDBRANCH  32  40
ENDBRANCH   1  27
TORSDOF 12
ENDMDL
MODEL 3
REMARK VINA RESULT:    -6.726      3.180      6.169
REMARK INTER + INTRA:         -11.825
REMARK INTER:                 -10.179
REMARK INTRA:                  -1.645
REMARK UNBOUND:                -1.953
REMARK SMILES O=c1c(O[C@@H]2O[C@@H](CO)[C@@H](O)[C@@H](O)[C@@H]2O)c(-c2ccc(O)c(O)c2)oc2cc(O)cc(O)c12
REMARK SMILES IDX 4 1 3 2 16 3 25 4 2 5 26 6 1 7 33 8 27 9 31 10 28 11 30 12
REMARK SMILES IDX 17 13 18 14 19 15 20 16 24 17 22 18 21 19 23 21 32 23 29 25
REMARK SMILES IDX 5 27 14 28 6 29 12 30 7 31 10 32 15 33 13 35 8 37 9 38 11 40
REMARK H PARENT 21 20 23 22 32 24 29 26 15 34 13 36 9 39 11 41
REMARK Flexibility Score: inf
ROOT
ATOM      1  O   UNL     1     -44.747 -12.923   1.524  1.00  0.00    -0.454 OA
ENDROOT
BRANCH   1   2
ATOM      2  C   UNL     1     -44.787 -11.777   0.703  1.00  0.00     0.214 A 
ATOM      3  C   UNL     1     -44.380 -11.722  -0.660  1.00  0.00     0.180 A 
ATOM      4  O   UNL     1     -44.301 -10.540  -1.268  1.00  0.00    -0.452 OA
ATOM      5  C   UNL     1     -45.231 -10.594   1.312  1.00  0.00     0.239 A 
ATOM      6  C   UNL     1     -44.637  -9.391  -0.697  1.00  0.00     0.146 A 
ATOM      7  O   UNL     1     -45.654 -10.644   2.500  1.00  0.00    -0.285 OA
ATOM      8  C   UNL     1     -45.160  -9.369   0.617  1.00  0.00     0.111 A 
ATOM      9  C   UNL     1     -44.458  -8.196  -1.406  1.00  0.00     0.094 A 
ATOM     10  C   UNL     1     -45.530  -8.131   1.190  1.00  0.00     0.134 A 
ATOM     11  C   UNL     1     -44.777  -6.968  -0.813  1.00  0.00     0.123 A 
ATOM     12  C   UNL     1     -45.336  -6.939   0.470  1.00  0.00     0.093 A 
BRANCH   3  13
ATOM     13  C   UNL     1     -44.030 -12.908  -1.465  1.00  0.00     0.025 A 
ATOM     14  C   UNL     1     -42.678 -13.225  -1.655  1.00  0.00     0.016 A 
ATOM     15  C   UNL     1     -42.323 -14.376  -2.357  1.00  0.00     0.051 A 
ATOM     16  C   UNL     1     -43.314 -15.224  -2.864  1.00  0.00     0.157 A 
ATOM     17  C   UNL     1     -45.019 -13.697  -2.078  1.00  0.00     0.062 A 
ATOM     18  C   UNL     1     -44.662 -14.860  -2.772  1.00  0.00     0.158 A 
BRANCH  16  19
ATOM     19  O   UNL     1     -42.942 -16.443  -3.418  1.00  0.00    -0.504 OA
ATOM     20  H   UNL     1     -43.509 -16.887  -4.128  1.00  0.00     0.293 HD
ENDBRANCH  16  19
BRANCH  18  21
ATOM     21  O   UNL     1     -45.638 -15.654  -3.378  1.00  0.00    -0.504 OA
ATOM     22  H   UNL     1     -45.932 -15.501  -4.348  1.00  0.00     0.293 HD
ENDBRANCH  18  21
ENDBRANCH   3  13
BRANCH  10  23
ATOM     23  O   UNL     1     -46.074  -8.072   2.468  1.00  0.00    -0.507 OA
ATOM     24  H   UNL     1     -47.057  -8.239   2.639  1.00  0.00     0.293 HD
ENDBRANCH  10  23
BRANCH  11  25
ATOM     25  O   UNL     1     -44.514  -5.773  -1.480  1.00  0.00    -0.508 OA
ATOM     26  H   UNL     1     -43.613  -5.313  -1.400  1.00  0.00     0.293 HD
ENDBRANCH  11  25
ENDBRANCH   1   2
BRANCH   1  27
ATOM     27  C   UNL     1     -45.573 -14.087   1.439  1.00  0.00     0.339 C 
ATOM     28  C   UNL     1     -44.776 -15.359   1.812  1.00  0.00     0.214 C 
ATOM     29  O   UNL     1     -46.721 -13.940   2.264  1.00  0.00    -0.332 OA
ATOM     30  C   UNL     1     -44.417 -15.371   3.316  1.00  0.00     0.180 C 
ATOM     31  C   UNL     1     -46.355 -13.808   3.635  1.00  0.00     0.179 C 
ATOM     32  C   UNL     1     -45.673 -15.100   4.155  1.00  0.00     0.177 C 
BRANCH  28  33
ATOM     33  O   UNL     1     -43.640 -15.490   0.990  1.00  0.00    -0.384 OA
ATOM     34  H   UNL     1     -43.946 -15.661   0.055  1.00  0.00     0.211 HD
ENDBRANCH  28  33
BRANCH  30  35
ATOM     35  O   UNL     1     -43.868 -16.611   3.686  1.00  0.00    -0.387 OA
ATOM     36  H   UNL     1     -43.006 -16.417   4.151  1.00  0.00     0.211 HD
ENDBRANCH  30  35
BRANCH  31  37
ATOM     37  C   UNL     1     -47.605 -13.441   4.460  1.00  0.00     0.191 C 
BRANCH  37  38
ATOM     38  O   UNL     1     -48.673 -14.296   4.145  1.00  0.00    -0.394 OA
ATOM     39  H   UNL     1     -48.383 -14.881   3.384  1.00  0.00     0.210 HD
ENDBRANCH  37  38
ENDBRANCH  31  37
BRANCH  32  40
ATOM     40  O   UNL     1     -46.518 -16.230   4.149  1.00  0.00    -0.387 OA
ATOM     41  H   UNL     1     -46.611 -16.589   5.068  1.00  0.00     0.211 HD
ENDBRANCH  32  40
ENDBRANCH   1  27
TORSDOF 12
ENDMDL
MODEL 4
REMARK VINA RESULT:    -6.572      1.639      5.032
REMARK INTER + INTRA:         -11.599
REMARK INTER:                  -9.563
REMARK INTRA:                  -2.036
REMARK UNBOUND:                -1.953
REMARK SMILES O=c1c(O[C@@H]2O[C@@H](CO)[C@@H](O)[C@@H](O)[C@@H]2O)c(-c2ccc(O)c(O)c2)oc2cc(O)cc(O)c12
REMARK SMILES IDX 4 1 3 2 16 3 25 4 2 5 26 6 1 7 33 8 27 9 31 10 28 11 30 12
REMARK SMILES IDX 17 13 18 14 19 15 20 16 24 17 22 18 21 19 23 21 32 23 29 25
REMARK SMILES IDX 5 27 14 28 6 29 12 30 7 31 10 32 15 33 13 35 8 37 9 38 11 40
REMARK H PARENT 21 20 23 22 32 24 29 26 15 34 13 36 9 39 11 41
REMARK Flexibility Score: inf
ROOT
ATOM      1  O   UNL     1     -46.182 -13.904   2.768  1.00  0.00    -0.454 OA
ENDROOT
BRANCH   1   2
ATOM      2  C   UNL     1     -45.043 -14.355   2.068  1.00  0.00     0.214 A 
ATOM      3  C   UNL     1     -43.993 -15.140   2.618  1.00  0.00     0.180 A 
ATOM      4  O   UNL     1     -42.890 -15.347   1.901  1.00  0.00    -0.452 OA
ATOM      5  C   UNL     1     -44.938 -13.949   0.730  1.00  0.00     0.239 A 
ATOM      6  C   UNL     1     -42.723 -14.910   0.660  1.00  0.00     0.146 A 
ATOM      7  O   UNL     1     -45.893 -13.306   0.213  1.00  0.00    -0.285 OA
ATOM      8  C   UNL     1     -43.763 -14.219  -0.003  1.00  0.00     0.111 A 
ATOM      9  C   UNL     1     -41.499 -15.132   0.015  1.00  0.00     0.094 A 
ATOM     10  C   UNL     1     -43.564 -13.786  -1.334  1.00  0.00     0.134 A 
ATOM     11  C   UNL     1     -41.288 -14.653  -1.284  1.00  0.00     0.123 A 
ATOM     12  C   UNL     1     -42.326 -14.007  -1.965  1.00  0.00     0.093 A 
BRANCH   3  13
ATOM     13  C   UNL     1     -44.037 -15.755   3.959  1.00  0.00     0.025 A 
ATOM     14  C   UNL     1     -44.876 -16.857   4.174  1.00  0.00     0.016 A 
ATOM     15  C   UNL     1     -44.887 -17.495   5.414  1.00  0.00     0.051 A 
ATOM     16  C   UNL     1     -44.053 -17.045   6.443  1.00  0.00     0.157 A 
ATOM     17  C   UNL     1     -43.291 -15.233   5.031  1.00  0.00     0.062 A 
ATOM     18  C   UNL     1     -43.293 -15.883   6.272  1.00  0.00     0.158 A 
BRANCH  16  19
ATOM     19  O   UNL     1     -43.961 -17.789   7.613  1.00  0.00    -0.504 OA
ATOM     20  H   UNL     1     -44.780 -18.216   8.026  1.00  0.00     0.293 HD
ENDBRANCH  16  19
BRANCH  18  21
ATOM     21  O   UNL     1     -42.548 -15.376   7.340  1.00  0.00    -0.504 OA
ATOM     22  H   UNL     1     -42.997 -14.913   8.137  1.00  0.00     0.293 HD
ENDBRANCH  18  21
ENDBRANCH   3  13
BRANCH  10  23
ATOM     23  O   UNL     1     -44.573 -13.129  -2.029  1.00  0.00    -0.507 OA
ATOM     24  H   UNL     1     -44.793 -12.156  -1.859  1.00  0.00     0.293 HD
ENDBRANCH  10  23
BRANCH  11  25
ATOM     25  O   UNL     1     -40.042 -14.790  -1.893  1.00  0.00    -0.508 OA
ATOM     26  H   UNL     1     -39.618 -14.020  -2.401  1.00  0.00     0.293 HD
ENDBRANCH  11  25
ENDBRANCH   1   2
BRANCH   1  27
ATOM     27  C   UNL     1     -46.274 -12.789   3.658  1.00  0.00     0.339 C 
ATOM     28  C   UNL     1     -47.607 -12.031   3.456  1.00  0.00     0.214 C 
ATOM     29  O   UNL     1     -46.127 -13.218   5.005  1.00  0.00    -0.332 OA
ATOM     30  C   UNL     1     -48.810 -12.879   3.933  1.00  0.00     0.180 C 
ATOM     31  C   UNL     1     -47.170 -14.115   5.377  1.00  0.00     0.179 C 
ATOM     32  C   UNL     1     -48.549 -13.404   5.350  1.00  0.00     0.177 C 
BRANCH  28  33
ATOM     33  O   UNL     1     -47.742 -11.615   2.117  1.00  0.00    -0.384 OA
ATOM     34  H   UNL     1     -48.254 -10.758   2.105  1.00  0.00     0.211 HD
ENDBRANCH  28  33
BRANCH  30  35
ATOM     35  O   UNL     1     -49.989 -12.114   3.928  1.00  0.00    -0.387 OA
ATOM     36  H   UNL     1     -49.711 -11.157   3.862  1.00  0.00     0.211 HD
ENDBRANCH  30  35
BRANCH  31  37
ATOM     37  C   UNL     1     -46.854 -14.714   6.762  1.00  0.00     0.191 C 
BRANCH  37  38
ATOM     38  O   UNL     1     -46.081 -13.821   7.521  1.00  0.00    -0.394 OA
ATOM     39  H   UNL     1     -46.637 -13.006   7.695  1.00  0.00     0.210 HD
ENDBRANCH  37  38
ENDBRANCH  31  37
BRANCH  32  40
ATOM     40  O   UNL     1     -48.666 -12.358   6.289  1.00  0.00    -0.387 OA
ATOM     41  H   UNL     1     -48.268 -12.632   7.155  1.00  0.00     0.211 HD
ENDBRANCH  32  40
ENDBRANCH   1  27
TORSDOF 12
ENDMDL
MODEL 5
REMARK VINA RESULT:    -6.511      1.851      5.562
REMARK INTER + INTRA:         -11.509
REMARK INTER:                  -9.887
REMARK INTRA:                  -1.622
REMARK UNBOUND:                -1.953
REMARK SMILES O=c1c(O[C@@H]2O[C@@H](CO)[C@@H](O)[C@@H](O)[C@@H]2O)c(-c2ccc(O)c(O)c2)oc2cc(O)cc(O)c12
REMARK SMILES IDX 4 1 3 2 16 3 25 4 2 5 26 6 1 7 33 8 27 9 31 10 28 11 30 12
REMARK SMILES IDX 17 13 18 14 19 15 20 16 24 17 22 18 21 19 23 21 32 23 29 25
REMARK SMILES IDX 5 27 14 28 6 29 12 30 7 31 10 32 15 33 13 35 8 37 9 38 11 40
REMARK H PARENT 21 20 23 22 32 24 29 26 15 34 13 36 9 39 11 41
REMARK Flexibility Score: inf
ROOT
ATOM      1  O   UNL     1     -47.208 -12.583   4.313  1.00  0.00    -0.454 OA
ENDROOT
BRANCH   1   2
ATOM      2  C   UNL     1     -46.347 -13.425   3.578  1.00  0.00     0.214 A 
ATOM      3  C   UNL     1     -45.530 -14.453   4.126  1.00  0.00     0.180 A 
ATOM      4  O   UNL     1     -44.632 -15.054   3.349  1.00  0.00    -0.452 OA
ATOM      5  C   UNL     1     -46.275 -13.184   2.198  1.00  0.00     0.239 A 
ATOM      6  C   UNL     1     -44.481 -14.796   2.057  1.00  0.00     0.146 A 
ATOM      7  O   UNL     1     -47.041 -12.319   1.692  1.00  0.00    -0.285 OA
ATOM      8  C   UNL     1     -45.330 -13.870   1.407  1.00  0.00     0.111 A 
ATOM      9  C   UNL     1     -43.464 -15.443   1.344  1.00  0.00     0.094 A 
ATOM     10  C   UNL     1     -45.160 -13.632   0.025  1.00  0.00     0.134 A 
ATOM     11  C   UNL     1     -43.266 -15.164  -0.015  1.00  0.00     0.123 A 
ATOM     12  C   UNL     1     -44.128 -14.282  -0.677  1.00  0.00     0.093 A 
BRANCH   3  13
ATOM     13  C   UNL     1     -45.608 -14.910   5.528  1.00  0.00     0.025 A 
ATOM     14  C   UNL     1     -46.479 -15.958   5.853  1.00  0.00     0.016 A 
ATOM     15  C   UNL     1     -46.523 -16.451   7.157  1.00  0.00     0.051 A 
ATOM     16  C   UNL     1     -45.689 -15.908   8.141  1.00  0.00     0.157 A 
ATOM     17  C   UNL     1     -44.861 -14.289   6.544  1.00  0.00     0.062 A 
ATOM     18  C   UNL     1     -44.896 -14.793   7.851  1.00  0.00     0.158 A 
BRANCH  16  19
ATOM     19  O   UNL     1     -45.632 -16.517   9.389  1.00  0.00    -0.504 OA
ATOM     20  H   UNL     1     -46.470 -16.664   9.937  1.00  0.00     0.293 HD
ENDBRANCH  16  19
BRANCH  18  21
ATOM     21  O   UNL     1     -44.151 -14.188   8.866  1.00  0.00    -0.504 OA
ATOM     22  H   UNL     1     -44.516 -13.394   9.402  1.00  0.00     0.293 HD
ENDBRANCH  18  21
ENDBRANCH   3  13
BRANCH  10  23
ATOM     23  O   UNL     1     -45.993 -12.751  -0.656  1.00  0.00    -0.507 OA
ATOM     24  H   UNL     1     -46.561 -12.069  -0.170  1.00  0.00     0.293 HD
ENDBRANCH  10  23
BRANCH  11  25
ATOM     25  O   UNL     1     -42.197 -15.734  -0.704  1.00  0.00    -0.508 OA
ATOM     26  H   UNL     1     -41.888 -16.680  -0.504  1.00  0.00     0.293 HD
ENDBRANCH  11  25
ENDBRANCH   1   2
BRANCH   1  27
ATOM     27  C   UNL     1     -48.530 -12.875   4.774  1.00  0.00     0.339 C 
ATOM     28  C   UNL     1     -48.779 -12.249   6.166  1.00  0.00     0.214 C 
ATOM     29  O   UNL     1     -49.493 -12.430   3.830  1.00  0.00    -0.332 OA
ATOM     30  C   UNL     1     -48.840 -10.706   6.080  1.00  0.00     0.180 C 
ATOM     31  C   UNL     1     -49.432 -11.016   3.661  1.00  0.00     0.179 C 
ATOM     32  C   UNL     1     -49.814 -10.283   4.973  1.00  0.00     0.177 C 
BRANCH  28  33
ATOM     33  O   UNL     1     -47.816 -12.695   7.091  1.00  0.00    -0.384 OA
ATOM     34  H   UNL     1     -48.180 -13.497   7.562  1.00  0.00     0.211 HD
ENDBRANCH  28  33
BRANCH  30  35
ATOM     35  O   UNL     1     -49.259 -10.156   7.305  1.00  0.00    -0.387 OA
ATOM     36  H   UNL     1     -50.098 -10.632   7.561  1.00  0.00     0.211 HD
ENDBRANCH  30  35
BRANCH  31  37
ATOM     37  C   UNL     1     -50.339 -10.607   2.483  1.00  0.00     0.191 C 
BRANCH  37  38
ATOM     38  O   UNL     1     -51.574 -11.271   2.558  1.00  0.00    -0.394 OA
ATOM     39  H   UNL     1     -52.178 -10.729   3.146  1.00  0.00     0.210 HD
ENDBRANCH  37  38
ENDBRANCH  31  37
BRANCH  32  40
ATOM     40  O   UNL     1     -51.145 -10.505   5.381  1.00  0.00    -0.387 OA
ATOM     41  H   UNL     1     -51.672  -9.669   5.295  1.00  0.00     0.211 HD
ENDBRANCH  32  40
ENDBRANCH   1  27
TORSDOF 12
ENDMDL
MODEL 6
REMARK VINA RESULT:    -6.498      3.631      7.010
REMARK INTER + INTRA:         -11.490
REMARK INTER:                  -9.413
REMARK INTRA:                  -2.077
REMARK UNBOUND:                -1.953
REMARK SMILES O=c1c(O[C@@H]2O[C@@H](CO)[C@@H](O)[C@@H](O)[C@@H]2O)c(-c2ccc(O)c(O)c2)oc2cc(O)cc(O)c12
REMARK SMILES IDX 4 1 3 2 16 3 25 4 2 5 26 6 1 7 33 8 27 9 31 10 28 11 30 12
REMARK SMILES IDX 17 13 18 14 19 15 20 16 24 17 22 18 21 19 23 21 32 23 29 25
REMARK SMILES IDX 5 27 14 28 6 29 12 30 7 31 10 32 15 33 13 35 8 37 9 38 11 40
REMARK H PARENT 21 20 23 22 32 24 29 26 15 34 13 36 9 39 11 41
REMARK Flexibility Score: inf
ROOT
ATOM      1  O   UNL     1     -49.241 -15.002   6.266  1.00  0.00    -0.454 OA
ENDROOT
BRANCH   1   2
ATOM      2  C   UNL     1     -47.975 -15.594   6.081  1.00  0.00     0.214 A 
ATOM      3  C   UNL     1     -46.896 -15.026   5.347  1.00  0.00     0.180 A 
ATOM      4  O   UNL     1     -45.818 -15.766   5.098  1.00  0.00    -0.452 OA
ATOM      5  C   UNL     1     -47.799 -16.868   6.641  1.00  0.00     0.239 A 
ATOM      6  C   UNL     1     -45.651 -17.004   5.545  1.00  0.00     0.146 A 
ATOM      7  O   UNL     1     -48.725 -17.354   7.347  1.00  0.00    -0.285 OA
ATOM      8  C   UNL     1     -46.624 -17.603   6.377  1.00  0.00     0.111 A 
ATOM      9  C   UNL     1     -44.503 -17.716   5.175  1.00  0.00     0.094 A 
ATOM     10  C   UNL     1     -46.407 -18.914   6.857  1.00  0.00     0.134 A 
ATOM     11  C   UNL     1     -44.318 -19.035   5.610  1.00  0.00     0.123 A 
ATOM     12  C   UNL     1     -45.254 -19.621   6.469  1.00  0.00     0.093 A 
BRANCH   3  13
ATOM     13  C   UNL     1     -46.888 -13.645   4.828  1.00  0.00     0.025 A 
ATOM     14  C   UNL     1     -46.722 -12.582   5.726  1.00  0.00     0.016 A 
ATOM     15  C   UNL     1     -46.646 -11.273   5.254  1.00  0.00     0.051 A 
ATOM     16  C   UNL     1     -46.723 -11.016   3.880  1.00  0.00     0.157 A 
ATOM     17  C   UNL     1     -47.086 -13.372   3.463  1.00  0.00     0.062 A 
ATOM     18  C   UNL     1     -46.996 -12.058   2.987  1.00  0.00     0.158 A 
BRANCH  16  19
ATOM     19  O   UNL     1     -46.485  -9.727   3.419  1.00  0.00    -0.504 OA
ATOM     20  H   UNL     1     -46.809  -9.432   2.507  1.00  0.00     0.293 HD
ENDBRANCH  16  19
BRANCH  18  21
ATOM     21  O   UNL     1     -47.183 -11.779   1.631  1.00  0.00    -0.504 OA
ATOM     22  H   UNL     1     -47.728 -10.969   1.318  1.00  0.00     0.293 HD
ENDBRANCH  18  21
ENDBRANCH   3  13
BRANCH  10  23
ATOM     23  O   UNL     1     -47.327 -19.526   7.701  1.00  0.00    -0.507 OA
ATOM     24  H   UNL     1     -48.260 -19.767   7.391  1.00  0.00     0.293 HD
ENDBRANCH  10  23
BRANCH  11  25
ATOM     25  O   UNL     1     -43.225 -19.778   5.168  1.00  0.00    -0.508 OA
ATOM     26  H   UNL     1     -43.281 -20.348   4.330  1.00  0.00     0.293 HD
ENDBRANCH  11  25
ENDBRANCH   1   2
BRANCH   1  27
ATOM     27  C   UNL     1     -50.356 -15.027   5.370  1.00  0.00     0.339 C 
ATOM     28  C   UNL     1     -51.682 -15.212   6.144  1.00  0.00     0.214 C 
ATOM     29  O   UNL     1     -50.382 -13.846   4.581  1.00  0.00    -0.332 OA
ATOM     30  C   UNL     1     -52.017 -13.957   6.984  1.00  0.00     0.180 C 
ATOM     31  C   UNL     1     -50.549 -12.687   5.393  1.00  0.00     0.179 C 
ATOM     32  C   UNL     1     -51.926 -12.702   6.107  1.00  0.00     0.177 C 
BRANCH  28  33
ATOM     33  O   UNL     1     -51.640 -16.383   6.925  1.00  0.00    -0.384 OA
ATOM     34  H   UNL     1     -51.640 -16.120   7.887  1.00  0.00     0.211 HD
ENDBRANCH  28  33
BRANCH  30  35
ATOM     35  O   UNL     1     -53.311 -14.055   7.526  1.00  0.00    -0.387 OA
ATOM     36  H   UNL     1     -53.472 -15.022   7.714  1.00  0.00     0.211 HD
ENDBRANCH  30  35
BRANCH  31  37
ATOM     37  C   UNL     1     -50.360 -11.427   4.525  1.00  0.00     0.191 C 
BRANCH  37  38
ATOM     38  O   UNL     1     -50.875 -11.635   3.236  1.00  0.00    -0.394 OA
ATOM     39  H   UNL     1     -51.097 -12.608   3.148  1.00  0.00     0.210 HD
ENDBRANCH  37  38
ENDBRANCH  31  37
BRANCH  32  40
ATOM     40  O   UNL     1     -53.023 -12.642   5.223  1.00  0.00    -0.387 OA
ATOM     41  H   UNL     1     -52.720 -12.796   4.292  1.00  0.00     0.211 HD
ENDBRANCH  32  40
ENDBRANCH   1  27
TORSDOF 12
ENDMDL
MODEL 7
REMARK VINA RESULT:    -6.481      3.395      7.528
REMARK INTER + INTRA:         -11.465
REMARK INTER:                  -9.461
REMARK INTRA:                  -2.004
REMARK UNBOUND:                -1.953
REMARK SMILES O=c1c(O[C@@H]2O[C@@H](CO)[C@@H](O)[C@@H](O)[C@@H]2O)c(-c2ccc(O)c(O)c2)oc2cc(O)cc(O)c12
REMARK SMILES IDX 4 1 3 2 16 3 25 4 2 5 26 6 1 7 33 8 27 9 31 10 28 11 30 12
REMARK SMILES IDX 17 13 18 14 19 15 20 16 24 17 22 18 21 19 23 21 32 23 29 25
REMARK SMILES IDX 5 27 14 28 6 29 12 30 7 31 10 32 15 33 13 35 8 37 9 38 11 40
REMARK H PARENT 21 20 23 22 32 24 29 26 15 34 13 36 9 39 11 41
REMARK Flexibility Score: inf
ROOT
ATOM      1  O   UNL     1     -43.977 -13.190   0.010  1.00  0.00    -0.454 OA
ENDROOT
BRANCH   1   2
ATOM      2  C   UNL     1     -44.722 -12.362   0.875  1.00  0.00     0.214 A 
ATOM      3  C   UNL     1     -44.539 -10.960   1.038  1.00  0.00     0.180 A 
ATOM      4  O   UNL     1     -45.186 -10.329   2.015  1.00  0.00    -0.452 OA
ATOM      5  C   UNL     1     -45.692 -13.001   1.662  1.00  0.00     0.239 A 
ATOM      6  C   UNL     1     -46.052 -10.917   2.830  1.00  0.00     0.146 A 
ATOM      7  O   UNL     1     -45.907 -14.231   1.481  1.00  0.00    -0.285 OA
ATOM      8  C   UNL     1     -46.377 -12.283   2.664  1.00  0.00     0.111 A 
ATOM      9  C   UNL     1     -46.632 -10.173   3.865  1.00  0.00     0.094 A 
ATOM     10  C   UNL     1     -47.320 -12.877   3.533  1.00  0.00     0.134 A 
ATOM     11  C   UNL     1     -47.526 -10.780   4.757  1.00  0.00     0.123 A 
ATOM     12  C   UNL     1     -47.889 -12.120   4.574  1.00  0.00     0.093 A 
BRANCH   3  13
ATOM     13  C   UNL     1     -43.662 -10.138   0.182  1.00  0.00     0.025 A 
ATOM     14  C   UNL     1     -42.529  -9.537   0.749  1.00  0.00     0.016 A 
ATOM     15  C   UNL     1     -41.650  -8.809  -0.052  1.00  0.00     0.051 A 
ATOM     16  C   UNL     1     -41.890  -8.686  -1.426  1.00  0.00     0.157 A 
ATOM     17  C   UNL     1     -43.962  -9.911  -1.172  1.00  0.00     0.062 A 
ATOM     18  C   UNL     1     -43.072  -9.190  -1.979  1.00  0.00     0.158 A 
BRANCH  16  19
ATOM     19  O   UNL     1     -40.923  -8.095  -2.230  1.00  0.00    -0.504 OA
ATOM     20  H   UNL     1     -40.207  -7.500  -1.834  1.00  0.00     0.293 HD
ENDBRANCH  16  19
BRANCH  18  21
ATOM     21  O   UNL     1     -43.358  -8.967  -3.328  1.00  0.00    -0.504 OA
ATOM     22  H   UNL     1     -42.658  -9.126  -4.060  1.00  0.00     0.293 HD
ENDBRANCH  18  21
ENDBRANCH   3  13
BRANCH  10  23
ATOM     23  O   UNL     1     -47.688 -14.209   3.384  1.00  0.00    -0.507 OA
ATOM     24  H   UNL     1     -48.375 -14.501   2.701  1.00  0.00     0.293 HD
ENDBRANCH  10  23
BRANCH  11  25
ATOM     25  O   UNL     1     -48.033 -10.068   5.842  1.00  0.00    -0.508 OA
ATOM     26  H   UNL     1     -47.873  -9.070   5.938  1.00  0.00     0.293 HD
ENDBRANCH  11  25
ENDBRANCH   1   2
BRANCH   1  27
ATOM     27  C   UNL     1     -42.670 -13.727   0.228  1.00  0.00     0.339 C 
ATOM     28  C   UNL     1     -42.627 -15.233  -0.120  1.00  0.00     0.214 C 
ATOM     29  O   UNL     1     -41.705 -13.000  -0.520  1.00  0.00    -0.332 OA
ATOM     30  C   UNL     1     -42.780 -15.459  -1.643  1.00  0.00     0.180 C 
ATOM     31  C   UNL     1     -41.953 -13.105  -1.920  1.00  0.00     0.179 C 
ATOM     32  C   UNL     1     -41.789 -14.569  -2.404  1.00  0.00     0.177 C 
BRANCH  28  33
ATOM     33  O   UNL     1     -43.589 -15.942   0.625  1.00  0.00    -0.384 OA
ATOM     34  H   UNL     1     -43.347 -16.910   0.613  1.00  0.00     0.211 HD
ENDBRANCH  28  33
BRANCH  30  35
ATOM     35  O   UNL     1     -42.546 -16.805  -1.971  1.00  0.00    -0.387 OA
ATOM     36  H   UNL     1     -41.716 -16.826  -2.526  1.00  0.00     0.211 HD
ENDBRANCH  30  35
BRANCH  31  37
ATOM     37  C   UNL     1     -41.020 -12.137  -2.674  1.00  0.00     0.191 C 
BRANCH  37  38
ATOM     38  O   UNL     1     -41.672 -11.596  -3.794  1.00  0.00    -0.394 OA
ATOM     39  H   UNL     1     -42.626 -11.902  -3.771  1.00  0.00     0.210 HD
ENDBRANCH  37  38
ENDBRANCH  31  37
BRANCH  32  40
ATOM     40  O   UNL     1     -40.477 -15.068  -2.266  1.00  0.00    -0.387 OA
ATOM     41  H   UNL     1     -40.169 -15.457  -3.125  1.00  0.00     0.211 HD
ENDBRANCH  32  40
ENDBRANCH   1  27
TORSDOF 12
ENDMDL
MODEL 8
REMARK VINA RESULT:    -6.404      3.338      7.419
REMARK INTER + INTRA:         -11.353
REMARK INTER:                  -9.341
REMARK INTRA:                  -2.012
REMARK UNBOUND:                -1.953
REMARK SMILES O=c1c(O[C@@H]2O[C@@H](CO)[C@@H](O)[C@@H](O)[C@@H]2O)c(-c2ccc(O)c(O)c2)oc2cc(O)cc(O)c12
REMARK SMILES IDX 4 1 3 2 16 3 25 4 2 5 26 6 1 7 33 8 27 9 31 10 28 11 30 12
REMARK SMILES IDX 17 13 18 14 19 15 20 16 24 17 22 18 21 19 23 21 32 23 29 25
REMARK SMILES IDX 5 27 14 28 6 29 12 30 7 31 10 32 15 33 13 35 8 37 9 38 11 40
REMARK H PARENT 21 20 23 22 32 24 29 26 15 34 13 36 9 39 11 41
REMARK Flexibility Score: inf
ROOT
ATOM      1  O   UNL     1     -46.798 -17.451   6.378  1.00  0.00    -0.454 OA
ENDROOT
BRANCH   1   2
ATOM      2  C   UNL     1     -47.233 -16.110   6.328  1.00  0.00     0.214 A 
ATOM      3  C   UNL     1     -46.452 -15.004   5.892  1.00  0.00     0.180 A 
ATOM      4  O   UNL     1     -46.919 -13.769   6.063  1.00  0.00    -0.452 OA
ATOM      5  C   UNL     1     -48.534 -15.862   6.791  1.00  0.00     0.239 A 
ATOM      6  C   UNL     1     -48.113 -13.494   6.571  1.00  0.00     0.146 A 
ATOM      7  O   UNL     1     -49.257 -16.842   7.121  1.00  0.00    -0.285 OA
ATOM      8  C   UNL     1     -48.999 -14.537   6.925  1.00  0.00     0.111 A 
ATOM      9  C   UNL     1     -48.483 -12.157   6.764  1.00  0.00     0.094 A 
ATOM     10  C   UNL     1     -50.273 -14.214   7.442  1.00  0.00     0.134 A 
ATOM     11  C   UNL     1     -49.727 -11.842   7.327  1.00  0.00     0.123 A 
ATOM     12  C   UNL     1     -50.628 -12.866   7.639  1.00  0.00     0.093 A 
BRANCH   3  13
ATOM     13  C   UNL     1     -45.129 -15.130   5.250  1.00  0.00     0.025 A 
ATOM     14  C   UNL     1     -43.978 -14.880   6.009  1.00  0.00     0.016 A 
ATOM     15  C   UNL     1     -42.715 -15.055   5.444  1.00  0.00     0.051 A 
ATOM     16  C   UNL     1     -42.593 -15.493   4.121  1.00  0.00     0.157 A 
ATOM     17  C   UNL     1     -45.002 -15.453   3.888  1.00  0.00     0.062 A 
ATOM     18  C   UNL     1     -43.734 -15.642   3.323  1.00  0.00     0.158 A 
BRANCH  16  19
ATOM     19  O   UNL     1     -41.334 -15.815   3.628  1.00  0.00    -0.504 OA
ATOM     20  H   UNL     1     -40.500 -15.388   4.010  1.00  0.00     0.293 HD
ENDBRANCH  16  19
BRANCH  18  21
ATOM     21  O   UNL     1     -43.598 -15.971   1.973  1.00  0.00    -0.504 OA
ATOM     22  H   UNL     1     -43.763 -16.924   1.632  1.00  0.00     0.293 HD
ENDBRANCH  18  21
ENDBRANCH   3  13
BRANCH  10  23
ATOM     23  O   UNL     1     -51.183 -15.211   7.775  1.00  0.00    -0.507 OA
ATOM     24  H   UNL     1     -51.714 -15.185   8.636  1.00  0.00     0.293 HD
ENDBRANCH  10  23
BRANCH  11  25
ATOM     25  O   UNL     1     -50.060 -10.518   7.606  1.00  0.00    -0.508 OA
ATOM     26  H   UNL     1     -50.030  -9.805   6.885  1.00  0.00     0.293 HD
ENDBRANCH  11  25
ENDBRANCH   1   2
BRANCH   1  27
ATOM     27  C   UNL     1     -46.103 -18.104   7.443  1.00  0.00     0.339 C 
ATOM     28  C   UNL     1     -46.660 -19.528   7.674  1.00  0.00     0.214 C 
ATOM     29  O   UNL     1     -44.708 -18.135   7.177  1.00  0.00    -0.332 OA
ATOM     30  C   UNL     1     -46.314 -20.462   6.490  1.00  0.00     0.180 C 
ATOM     31  C   UNL     1     -44.425 -18.883   5.998  1.00  0.00     0.179 C 
ATOM     32  C   UNL     1     -44.814 -20.373   6.178  1.00  0.00     0.177 C 
BRANCH  28  33
ATOM     33  O   UNL     1     -48.044 -19.483   7.932  1.00  0.00    -0.384 OA
ATOM     34  H   UNL     1     -48.466 -18.857   7.279  1.00  0.00     0.211 HD
ENDBRANCH  28  33
BRANCH  30  35
ATOM     35  O   UNL     1     -46.650 -21.793   6.793  1.00  0.00    -0.387 OA
ATOM     36  H   UNL     1     -46.115 -22.371   6.180  1.00  0.00     0.211 HD
ENDBRANCH  30  35
BRANCH  31  37
ATOM     37  C   UNL     1     -42.936 -18.713   5.634  1.00  0.00     0.191 C 
BRANCH  37  38
ATOM     38  O   UNL     1     -42.411 -19.914   5.132  1.00  0.00    -0.394 OA
ATOM     39  H   UNL     1     -41.840 -19.691   4.339  1.00  0.00     0.210 HD
ENDBRANCH  37  38
ENDBRANCH  31  37
BRANCH  32  40
ATOM     40  O   UNL     1     -44.067 -21.038   7.173  1.00  0.00    -0.387 OA
ATOM     41  H   UNL     1     -43.114 -20.769   7.120  1.00  0.00     0.211 HD
ENDBRANCH  32  40
ENDBRANCH   1  27
TORSDOF 12
ENDMDL
MODEL 9
REMARK VINA RESULT:    -6.174      4.074      7.137
REMARK INTER + INTRA:         -11.014
REMARK INTER:                  -9.717
REMARK INTRA:                  -1.297
REMARK UNBOUND:                -1.953
REMARK SMILES O=c1c(O[C@@H]2O[C@@H](CO)[C@@H](O)[C@@H](O)[C@@H]2O)c(-c2ccc(O)c(O)c2)oc2cc(O)cc(O)c12
REMARK SMILES IDX 4 1 3 2 16 3 25 4 2 5 26 6 1 7 33 8 27 9 31 10 28 11 30 12
REMARK SMILES IDX 17 13 18 14 19 15 20 16 24 17 22 18 21 19 23 21 32 23 29 25
REMARK SMILES IDX 5 27 14 28 6 29 12 30 7 31 10 32 15 33 13 35 8 37 9 38 11 40
REMARK H PARENT 21 20 23 22 32 24 29 26 15 34 13 36 9 39 11 41
REMARK Flexibility Score: inf
ROOT
ATOM      1  O   UNL     1     -44.169 -12.336  -1.138  1.00  0.00    -0.454 OA
ENDROOT
BRANCH   1   2
ATOM      2  C   UNL     1     -43.502 -11.312  -0.434  1.00  0.00     0.214 A 
ATOM      3  C   UNL     1     -43.957 -10.706   0.770  1.00  0.00     0.180 A 
ATOM      4  O   UNL     1     -43.326  -9.629   1.236  1.00  0.00    -0.452 OA
ATOM      5  C   UNL     1     -42.314 -10.838  -1.008  1.00  0.00     0.239 A 
ATOM      6  C   UNL     1     -42.245  -9.105   0.674  1.00  0.00     0.146 A 
ATOM      7  O   UNL     1     -41.868 -11.410  -2.041  1.00  0.00    -0.285 OA
ATOM      8  C   UNL     1     -41.660  -9.713  -0.461  1.00  0.00     0.111 A 
ATOM      9  C   UNL     1     -41.694  -7.935   1.210  1.00  0.00     0.094 A 
ATOM     10  C   UNL     1     -40.496  -9.145  -1.024  1.00  0.00     0.134 A 
ATOM     11  C   UNL     1     -40.571  -7.345   0.616  1.00  0.00     0.123 A 
ATOM     12  C   UNL     1     -39.959  -7.964  -0.480  1.00  0.00     0.093 A 
BRANCH   3  13
ATOM     13  C   UNL     1     -45.106 -11.194   1.558  1.00  0.00     0.025 A 
ATOM     14  C   UNL     1     -44.886 -12.151   2.558  1.00  0.00     0.016 A 
ATOM     15  C   UNL     1     -45.944 -12.581   3.358  1.00  0.00     0.051 A 
ATOM     16  C   UNL     1     -47.225 -12.049   3.174  1.00  0.00     0.157 A 
ATOM     17  C   UNL     1     -46.415 -10.754   1.297  1.00  0.00     0.062 A 
ATOM     18  C   UNL     1     -47.475 -11.176   2.110  1.00  0.00     0.158 A 
BRANCH  16  19
ATOM     19  O   UNL     1     -48.227 -12.370   4.082  1.00  0.00    -0.504 OA
ATOM     20  H   UNL     1     -49.069 -12.843   3.784  1.00  0.00     0.293 HD
ENDBRANCH  16  19
BRANCH  18  21
ATOM     21  O   UNL     1     -48.778 -10.736   1.864  1.00  0.00    -0.504 OA
ATOM     22  H   UNL     1     -49.367 -10.354   2.611  1.00  0.00     0.293 HD
ENDBRANCH  18  21
ENDBRANCH   3  13
BRANCH  10  23
ATOM     23  O   UNL     1     -39.875  -9.731  -2.122  1.00  0.00    -0.507 OA
ATOM     24  H   UNL     1     -40.385  -9.959  -2.966  1.00  0.00     0.293 HD
ENDBRANCH  10  23
BRANCH  11  25
ATOM     25  O   UNL     1     -40.076  -6.132   1.090  1.00  0.00    -0.508 OA
ATOM     26  H   UNL     1     -39.394  -6.099   1.841  1.00  0.00     0.293 HD
ENDBRANCH  11  25
ENDBRANCH   1   2
BRANCH   1  27
ATOM     27  C   UNL     1     -44.263 -13.718  -0.786  1.00  0.00     0.339 C 
ATOM     28  C   UNL     1     -45.435 -14.399  -1.531  1.00  0.00     0.214 C 
ATOM     29  O   UNL     1     -43.034 -14.381  -1.048  1.00  0.00    -0.332 OA
ATOM     30  C   UNL     1     -45.145 -14.509  -3.046  1.00  0.00     0.180 C 
ATOM     31  C   UNL     1     -42.715 -14.343  -2.436  1.00  0.00     0.179 C 
ATOM     32  C   UNL     1     -43.760 -15.132  -3.268  1.00  0.00     0.177 C 
BRANCH  28  33
ATOM     33  O   UNL     1     -46.647 -13.731  -1.265  1.00  0.00    -0.384 OA
ATOM     34  H   UNL     1     -47.055 -14.133  -0.448  1.00  0.00     0.211 HD
ENDBRANCH  28  33
BRANCH  30  35
ATOM     35  O   UNL     1     -46.119 -15.297  -3.683  1.00  0.00    -0.387 OA
ATOM     36  H   UNL     1     -46.010 -15.152  -4.664  1.00  0.00     0.211 HD
ENDBRANCH  30  35
BRANCH  31  37
ATOM     37  C   UNL     1     -41.285 -14.881  -2.643  1.00  0.00     0.191 C 
BRANCH  37  38
ATOM     38  O   UNL     1     -41.148 -15.437  -3.924  1.00  0.00    -0.394 OA
ATOM     39  H   UNL     1     -40.172 -15.600  -4.085  1.00  0.00     0.210 HD
ENDBRANCH  37  38
ENDBRANCH  31  37
BRANCH  32  40
ATOM     40  O   UNL     1     -43.792 -16.511  -2.978  1.00  0.00    -0.387 OA
ATOM     41  H   UNL     1     -44.693 -16.770  -2.654  1.00  0.00     0.211 HD
ENDBRANCH  32  40
ENDBRANCH   1  27
TORSDOF 12
ENDMDL
