MODEL 1
REMARK VINA RESULT:    -4.650      0.000      0.000
REMARK INTER + INTRA:         -12.254
REMARK INTER:                 -10.630
REMARK INTRA:                  -1.623
REMARK UNBOUND:                -1.623
REMARK SMILES CCCCCCCCCCCCCCCCCCCCCCCC(=O)[O-]
REMARK SMILES IDX 13 1 14 2 15 3 16 4 17 5 18 6 19 7 20 8 21 9 22 10 23 11
REMARK SMILES IDX 24 12 25 13 26 14 12 15 11 16 10 17 9 18 8 19 7 20 6 21 5 22
REMARK SMILES IDX 4 23 3 24 2 25 1 26
REMARK H PARENT
REMARK Flexibility Score: inf
ROOT
ATOM      1  C   UNL     1      13.785  22.605 -20.162  1.00  0.00     0.000 C 
ENDROOT
BRANCH   1   2
ATOM      2  C   UNL     1      13.363  21.721 -18.967  1.00  0.00     0.000 C 
BRANCH   2   3
ATOM      3  C   UNL     1      14.522  21.033 -18.223  1.00  0.00     0.000 C 
BRANCH   3   4
ATOM      4  C   UNL     1      15.307  20.057 -19.110  1.00  0.00     0.000 C 
BRANCH   4   5
ATOM      5  C   UNL     1      16.090  19.053 -18.253  1.00  0.00     0.000 C 
BRANCH   5   6
ATOM      6  C   UNL     1      16.930  19.737 -17.159  1.00  0.00     0.000 C 
BRANCH   6   7
ATOM      7  C   UNL     1      17.346  18.814 -15.992  1.00  0.00     0.000 C 
BRANCH   7   8
ATOM      8  C   UNL     1      18.601  17.954 -16.238  1.00  0.00     0.000 C 
BRANCH   8   9
ATOM      9  C   UNL     1      19.862  18.791 -16.508  1.00  0.00     0.000 C 
BRANCH   9  10
ATOM     10  C   UNL     1      20.959  18.578 -15.451  1.00  0.00     0.006 C 
BRANCH  10  11
ATOM     11  C   UNL     1      20.401  18.429 -14.030  1.00  0.00     0.053 C 
BRANCH  11  12
ATOM     12  C   UNL     1      20.486  19.733 -13.300  1.00  0.00     0.041 C 
ATOM     13  O   UNL     1      19.455  20.437 -13.140  1.00  0.00    -0.550 OA
ATOM     14  O   UNL     1      21.695  20.148 -12.752  1.00  0.00    -0.550 OA
ENDBRANCH  11  12
ENDBRANCH  10  11
ENDBRANCH   9  10
ENDBRANCH   8   9
ENDBRANCH   7   8
ENDBRANCH   6   7
ENDBRANCH   5   6
ENDBRANCH   4   5
ENDBRANCH   3   4
ENDBRANCH   2   3
ENDBRANCH   1   2
BRANCH   1  15
ATOM     15  C   UNL     1      12.626  23.176 -21.004  1.00  0.00     0.000 C 
BRANCH  15  16
ATOM     16  C   UNL     1      12.250  22.336 -22.237  1.00  0.00     0.000 C 
BRANCH  16  17
ATOM     17  C   UNL     1      13.401  22.224 -23.249  1.00  0.00     0.000 C 
BRANCH  17  18
ATOM     18  C   UNL     1      13.220  23.173 -24.450  1.00  0.00    -0.000 C 
BRANCH  18  19
ATOM     19  C   UNL     1      13.701  22.600 -25.799  1.00  0.00    -0.000 C 
BRANCH  19  20
ATOM     20  C   UNL     1      12.589  22.318 -26.832  1.00  0.00    -0.000 C 
BRANCH  20  21
ATOM     21  C   UNL     1      12.937  21.257 -27.892  1.00  0.00    -0.000 C 
BRANCH  21  22
ATOM     22  C   UNL     1      12.083  19.985 -27.760  1.00  0.00    -0.000 C 
BRANCH  22  23
ATOM     23  C   UNL     1      12.026  19.464 -26.315  1.00  0.00    -0.000 C 
BRANCH  23  24
ATOM     24  C   UNL     1      12.969  18.269 -26.093  1.00  0.00    -0.000 C 
BRANCH  24  25
ATOM     25  C   UNL     1      13.052  17.841 -24.618  1.00  0.00    -0.003 C 
ATOM     26  C   UNL     1      12.254  18.756 -23.688  1.00  0.00     0.004 C 
ENDBRANCH  24  25
ENDBRANCH  23  24
ENDBRANCH  22  23
ENDBRANCH  21  22
ENDBRANCH  20  21
ENDBRANCH  19  20
ENDBRANCH  18  19
ENDBRANCH  17  18
ENDBRANCH  16  17
ENDBRANCH  15  16
ENDBRANCH   1  15
TORSDOF 22
ENDMDL
MODEL 2
REMARK VINA RESULT:    -4.635      1.848      4.274
REMARK INTER + INTRA:         -12.219
REMARK INTER:                  -9.599
REMARK INTRA:                  -2.620
REMARK UNBOUND:                -1.623
REMARK SMILES CCCCCCCCCCCCCCCCCCCCCCCC(=O)[O-]
REMARK SMILES IDX 13 1 14 2 15 3 16 4 17 5 18 6 19 7 20 8 21 9 22 10 23 11
REMARK SMILES IDX 24 12 25 13 26 14 12 15 11 16 10 17 9 18 8 19 7 20 6 21 5 22
REMARK SMILES IDX 4 23 3 24 2 25 1 26
REMARK H PARENT
REMARK Flexibility Score: inf
ROOT
ATOM      1  C   UNL     1      13.697  22.266 -23.244  1.00  0.00     0.000 C 
ENDROOT
BRANCH   1   2
ATOM      2  C   UNL     1      12.584  22.995 -22.460  1.00  0.00     0.000 C 
BRANCH   2   3
ATOM      3  C   UNL     1      12.943  23.364 -21.008  1.00  0.00     0.000 C 
BRANCH   3   4
ATOM      4  C   UNL     1      11.969  22.767 -19.982  1.00  0.00     0.000 C 
BRANCH   4   5
ATOM      5  C   UNL     1      12.729  21.987 -18.902  1.00  0.00     0.000 C 
BRANCH   5   6
ATOM      6  C   UNL     1      14.219  21.798 -19.244  1.00  0.00     0.000 C 
BRANCH   6   7
ATOM      7  C   UNL     1      14.792  20.409 -18.890  1.00  0.00     0.000 C 
BRANCH   7   8
ATOM      8  C   UNL     1      16.315  20.356 -18.659  1.00  0.00     0.000 C 
BRANCH   8   9
ATOM      9  C   UNL     1      16.693  20.035 -17.203  1.00  0.00     0.000 C 
BRANCH   9  10
ATOM     10  C   UNL     1      17.778  18.951 -17.092  1.00  0.00     0.006 C 
BRANCH  10  11
ATOM     11  C   UNL     1      18.614  19.068 -15.812  1.00  0.00     0.053 C 
BRANCH  11  12
ATOM     12  C   UNL     1      20.012  18.594 -16.059  1.00  0.00     0.041 C 
ATOM     13  O   UNL     1      20.946  18.958 -15.298  1.00  0.00    -0.550 OA
ATOM     14  O   UNL     1      20.275  17.711 -17.099  1.00  0.00    -0.550 OA
ENDBRANCH  11  12
ENDBRANCH  10  11
ENDBRANCH   9  10
ENDBRANCH   8   9
ENDBRANCH   7   8
ENDBRANCH   6   7
ENDBRANCH   5   6
ENDBRANCH   4   5
ENDBRANCH   3   4
ENDBRANCH   2   3
ENDBRANCH   1   2
BRANCH   1  15
ATOM     15  C   UNL     1      13.852  22.689 -24.719  1.00  0.00     0.000 C 
BRANCH  15  16
ATOM     16  C   UNL     1      12.559  22.613 -25.551  1.00  0.00     0.000 C 
BRANCH  16  17
ATOM     17  C   UNL     1      11.892  21.231 -25.483  1.00  0.00     0.000 C 
BRANCH  17  18
ATOM     18  C   UNL     1      12.381  20.289 -26.600  1.00  0.00    -0.000 C 
BRANCH  18  19
ATOM     19  C   UNL     1      12.688  18.849 -26.137  1.00  0.00    -0.000 C 
BRANCH  19  20
ATOM     20  C   UNL     1      12.259  18.513 -24.692  1.00  0.00    -0.000 C 
BRANCH  20  21
ATOM     21  C   UNL     1      13.335  17.818 -23.838  1.00  0.00    -0.000 C 
BRANCH  21  22
ATOM     22  C   UNL     1      13.835  18.699 -22.682  1.00  0.00    -0.000 C 
BRANCH  22  23
ATOM     23  C   UNL     1      14.366  17.872 -21.501  1.00  0.00    -0.000 C 
BRANCH  23  24
ATOM     24  C   UNL     1      15.904  17.844 -21.458  1.00  0.00    -0.000 C 
BRANCH  24  25
ATOM     25  C   UNL     1      16.453  17.018 -20.283  1.00  0.00    -0.003 C 
ATOM     26  C   UNL     1      15.411  16.772 -19.191  1.00  0.00     0.004 C 
ENDBRANCH  24  25
ENDBRANCH  23  24
ENDBRANCH  22  23
ENDBRANCH  21  22
ENDBRANCH  20  21
ENDBRANCH  19  20
ENDBRANCH  18  19
ENDBRANCH  17  18
ENDBRANCH  16  17
ENDBRANCH  15  16
ENDBRANCH   1  15
TORSDOF 22
ENDMDL
MODEL 3
REMARK VINA RESULT:    -4.623      3.271      9.111
REMARK INTER + INTRA:         -12.192
REMARK INTER:                  -9.434
REMARK INTRA:                  -2.759
REMARK UNBOUND:                -1.623
REMARK SMILES CCCCCCCCCCCCCCCCCCCCCCCC(=O)[O-]
REMARK SMILES IDX 13 1 14 2 15 3 16 4 17 5 18 6 19 7 20 8 21 9 22 10 23 11
REMARK SMILES IDX 24 12 25 13 26 14 12 15 11 16 10 17 9 18 8 19 7 20 6 21 5 22
REMARK SMILES IDX 4 23 3 24 2 25 1 26
REMARK H PARENT
REMARK Flexibility Score: inf
ROOT
ATOM      1  C   UNL     1      13.189  21.933 -23.293  1.00  0.00     0.000 C 
ENDROOT
BRANCH   1   2
ATOM      2  C   UNL     1      13.308  23.081 -24.320  1.00  0.00     0.000 C 
BRANCH   2   3
ATOM      3  C   UNL     1      13.505  22.633 -25.780  1.00  0.00     0.000 C 
BRANCH   3   4
ATOM      4  C   UNL     1      12.242  22.007 -26.388  1.00  0.00     0.000 C 
BRANCH   4   5
ATOM      5  C   UNL     1      12.605  21.068 -27.547  1.00  0.00     0.000 C 
BRANCH   5   6
ATOM      6  C   UNL     1      12.366  19.586 -27.207  1.00  0.00     0.000 C 
BRANCH   6   7
ATOM      7  C   UNL     1      11.925  19.320 -25.751  1.00  0.00     0.000 C 
BRANCH   7   8
ATOM      8  C   UNL     1      12.996  18.698 -24.833  1.00  0.00     0.000 C 
BRANCH   8   9
ATOM      9  C   UNL     1      12.447  18.291 -23.456  1.00  0.00     0.000 C 
BRANCH   9  10
ATOM     10  C   UNL     1      13.454  18.525 -22.318  1.00  0.00     0.006 C 
BRANCH  10  11
ATOM     11  C   UNL     1      13.828  17.237 -21.574  1.00  0.00     0.053 C 
BRANCH  11  12
ATOM     12  C   UNL     1      15.033  16.607 -22.200  1.00  0.00     0.041 C 
ATOM     13  O   UNL     1      16.187  17.010 -21.898  1.00  0.00    -0.550 OA
ATOM     14  O   UNL     1      14.885  15.541 -23.080  1.00  0.00    -0.550 OA
ENDBRANCH  11  12
ENDBRANCH  10  11
ENDBRANCH   9  10
ENDBRANCH   8   9
ENDBRANCH   7   8
ENDBRANCH   6   7
ENDBRANCH   5   6
ENDBRANCH   4   5
ENDBRANCH   3   4
ENDBRANCH   2   3
ENDBRANCH   1   2
BRANCH   1  15
ATOM     15  C   UNL     1      11.875  21.900 -22.487  1.00  0.00     0.000 C 
BRANCH  15  16
ATOM     16  C   UNL     1      12.051  22.014 -20.962  1.00  0.00     0.000 C 
BRANCH  16  17
ATOM     17  C   UNL     1      12.996  23.156 -20.559  1.00  0.00     0.000 C 
BRANCH  17  18
ATOM     18  C   UNL     1      14.223  22.653 -19.774  1.00  0.00    -0.000 C 
BRANCH  18  19
ATOM     19  C   UNL     1      14.159  21.165 -19.368  1.00  0.00    -0.000 C 
BRANCH  19  20
ATOM     20  C   UNL     1      15.499  20.543 -18.922  1.00  0.00    -0.000 C 
BRANCH  20  21
ATOM     21  C   UNL     1      15.497  19.009 -18.800  1.00  0.00    -0.000 C 
BRANCH  21  22
ATOM     22  C   UNL     1      16.573  18.490 -17.831  1.00  0.00    -0.000 C 
BRANCH  22  23
ATOM     23  C   UNL     1      16.944  19.525 -16.758  1.00  0.00    -0.000 C 
BRANCH  23  24
ATOM     24  C   UNL     1      18.410  19.393 -16.307  1.00  0.00    -0.000 C 
BRANCH  24  25
ATOM     25  C   UNL     1      18.891  17.933 -16.266  1.00  0.00    -0.003 C 
ATOM     26  C   UNL     1      20.384  17.791 -16.565  1.00  0.00     0.004 C 
ENDBRANCH  24  25
ENDBRANCH  23  24
ENDBRANCH  22  23
ENDBRANCH  21  22
ENDBRANCH  20  21
ENDBRANCH  19  20
ENDBRANCH  18  19
ENDBRANCH  17  18
ENDBRANCH  16  17
ENDBRANCH  15  16
ENDBRANCH   1  15
TORSDOF 22
ENDMDL
MODEL 4
REMARK VINA RESULT:    -4.605      2.233      3.951
REMARK INTER + INTRA:         -12.152
REMARK INTER:                  -8.862
REMARK INTRA:                  -3.289
REMARK UNBOUND:                -1.623
REMARK SMILES CCCCCCCCCCCCCCCCCCCCCCCC(=O)[O-]
REMARK SMILES IDX 13 1 14 2 15 3 16 4 17 5 18 6 19 7 20 8 21 9 22 10 23 11
REMARK SMILES IDX 24 12 25 13 26 14 12 15 11 16 10 17 9 18 8 19 7 20 6 21 5 22
REMARK SMILES IDX 4 23 3 24 2 25 1 26
REMARK H PARENT
REMARK Flexibility Score: inf
ROOT
ATOM      1  C   UNL     1      13.095  21.460 -18.985  1.00  0.00     0.000 C 
ENDROOT
BRANCH   1   2
ATOM      2  C   UNL     1      14.636  21.544 -19.045  1.00  0.00     0.000 C 
BRANCH   2   3
ATOM      3  C   UNL     1      15.379  20.602 -18.079  1.00  0.00     0.000 C 
BRANCH   3   4
ATOM      4  C   UNL     1      16.875  20.477 -18.399  1.00  0.00     0.000 C 
BRANCH   4   5
ATOM      5  C   UNL     1      17.689  20.270 -17.114  1.00  0.00     0.000 C 
BRANCH   5   6
ATOM      6  C   UNL     1      17.396  18.919 -16.437  1.00  0.00     0.000 C 
BRANCH   6   7
ATOM      7  C   UNL     1      18.554  17.899 -16.502  1.00  0.00     0.000 C 
BRANCH   7   8
ATOM      8  C   UNL     1      19.971  18.503 -16.560  1.00  0.00     0.000 C 
BRANCH   8   9
ATOM      9  C   UNL     1      20.676  18.520 -15.193  1.00  0.00     0.000 C 
BRANCH   9  10
ATOM     10  C   UNL     1      20.437  19.823 -14.413  1.00  0.00     0.006 C 
BRANCH  10  11
ATOM     11  C   UNL     1      19.344  19.691 -13.346  1.00  0.00     0.053 C 
BRANCH  11  12
ATOM     12  C   UNL     1      19.412  18.344 -12.697  1.00  0.00     0.041 C 
ATOM     13  O   UNL     1      20.331  18.082 -11.878  1.00  0.00    -0.550 OA
ATOM     14  O   UNL     1      18.432  17.394 -12.959  1.00  0.00    -0.550 OA
ENDBRANCH  11  12
ENDBRANCH  10  11
ENDBRANCH   9  10
ENDBRANCH   8   9
ENDBRANCH   7   8
ENDBRANCH   6   7
ENDBRANCH   5   6
ENDBRANCH   4   5
ENDBRANCH   3   4
ENDBRANCH   2   3
ENDBRANCH   1   2
BRANCH   1  15
ATOM     15  C   UNL     1      12.349  22.761 -19.342  1.00  0.00     0.000 C 
BRANCH  15  16
ATOM     16  C   UNL     1      12.623  23.295 -20.760  1.00  0.00     0.000 C 
BRANCH  16  17
ATOM     17  C   UNL     1      12.054  22.381 -21.856  1.00  0.00     0.000 C 
BRANCH  17  18
ATOM     18  C   UNL     1      12.996  22.265 -23.070  1.00  0.00    -0.000 C 
BRANCH  18  19
ATOM     19  C   UNL     1      13.384  20.819 -23.445  1.00  0.00    -0.000 C 
BRANCH  19  20
ATOM     20  C   UNL     1      13.201  19.774 -22.325  1.00  0.00    -0.000 C 
BRANCH  20  21
ATOM     21  C   UNL     1      14.232  18.631 -22.324  1.00  0.00    -0.000 C 
BRANCH  21  22
ATOM     22  C   UNL     1      14.777  18.325 -20.919  1.00  0.00    -0.000 C 
BRANCH  22  23
ATOM     23  C   UNL     1      16.231  17.828 -20.948  1.00  0.00    -0.000 C 
BRANCH  23  24
ATOM     24  C   UNL     1      16.558  16.921 -19.749  1.00  0.00    -0.000 C 
BRANCH  24  25
ATOM     25  C   UNL     1      15.406  16.836 -18.734  1.00  0.00    -0.003 C 
ATOM     26  C   UNL     1      15.649  15.790 -17.646  1.00  0.00     0.004 C 
ENDBRANCH  24  25
ENDBRANCH  23  24
ENDBRANCH  22  23
ENDBRANCH  21  22
ENDBRANCH  20  21
ENDBRANCH  19  20
ENDBRANCH  18  19
ENDBRANCH  17  18
ENDBRANCH  16  17
ENDBRANCH  15  16
ENDBRANCH   1  15
TORSDOF 22
ENDMDL
MODEL 5
REMARK VINA RESULT:    -4.588      3.859     11.066
REMARK INTER + INTRA:         -12.112
REMARK INTER:                 -10.523
REMARK INTRA:                  -1.589
REMARK UNBOUND:                -1.623
REMARK SMILES CCCCCCCCCCCCCCCCCCCCCCCC(=O)[O-]
REMARK SMILES IDX 13 1 14 2 15 3 16 4 17 5 18 6 19 7 20 8 21 9 22 10 23 11
REMARK SMILES IDX 24 12 25 13 26 14 12 15 11 16 10 17 9 18 8 19 7 20 6 21 5 22
REMARK SMILES IDX 4 23 3 24 2 25 1 26
REMARK H PARENT
REMARK Flexibility Score: inf
ROOT
ATOM      1  C   UNL     1      12.971  22.310 -19.376  1.00  0.00     0.000 C 
ENDROOT
BRANCH   1   2
ATOM      2  C   UNL     1      12.507  22.986 -20.685  1.00  0.00     0.000 C 
BRANCH   2   3
ATOM      3  C   UNL     1      12.067  22.019 -21.799  1.00  0.00     0.000 C 
BRANCH   3   4
ATOM      4  C   UNL     1      12.249  22.606 -23.206  1.00  0.00     0.000 C 
BRANCH   4   5
ATOM      5  C   UNL     1      13.698  22.434 -23.683  1.00  0.00     0.000 C 
BRANCH   5   6
ATOM      6  C   UNL     1      13.900  22.883 -25.141  1.00  0.00     0.000 C 
BRANCH   6   7
ATOM      7  C   UNL     1      12.718  22.568 -26.084  1.00  0.00     0.000 C 
BRANCH   7   8
ATOM      8  C   UNL     1      13.103  22.046 -27.482  1.00  0.00     0.000 C 
BRANCH   8   9
ATOM      9  C   UNL     1      12.497  20.668 -27.798  1.00  0.00     0.000 C 
BRANCH   9  10
ATOM     10  C   UNL     1      12.063  19.903 -26.537  1.00  0.00     0.006 C 
BRANCH  10  11
ATOM     11  C   UNL     1      12.723  18.524 -26.415  1.00  0.00     0.053 C 
BRANCH  11  12
ATOM     12  C   UNL     1      13.027  18.219 -24.981  1.00  0.00     0.041 C 
ATOM     13  O   UNL     1      12.954  19.127 -24.112  1.00  0.00    -0.550 OA
ATOM     14  O   UNL     1      13.343  16.922 -24.596  1.00  0.00    -0.550 OA
ENDBRANCH  11  12
ENDBRANCH  10  11
ENDBRANCH   9  10
ENDBRANCH   8   9
ENDBRANCH   7   8
ENDBRANCH   6   7
ENDBRANCH   5   6
ENDBRANCH   4   5
ENDBRANCH   3   4
ENDBRANCH   2   3
ENDBRANCH   1   2
BRANCH   1  15
ATOM     15  C   UNL     1      14.432  21.817 -19.368  1.00  0.00     0.000 C 
BRANCH  15  16
ATOM     16  C   UNL     1      14.846  21.045 -18.103  1.00  0.00     0.000 C 
BRANCH  16  17
ATOM     17  C   UNL     1      16.195  20.327 -18.264  1.00  0.00     0.000 C 
BRANCH  17  18
ATOM     18  C   UNL     1      16.032  18.874 -18.747  1.00  0.00    -0.000 C 
BRANCH  18  19
ATOM     19  C   UNL     1      16.621  17.811 -17.795  1.00  0.00    -0.000 C 
BRANCH  19  20
ATOM     20  C   UNL     1      17.220  18.358 -16.482  1.00  0.00    -0.000 C 
BRANCH  20  21
ATOM     21  C   UNL     1      18.490  17.638 -15.995  1.00  0.00    -0.000 C 
BRANCH  21  22
ATOM     22  C   UNL     1      19.757  18.110 -16.728  1.00  0.00    -0.000 C 
BRANCH  22  23
ATOM     23  C   UNL     1      20.896  18.468 -15.759  1.00  0.00    -0.000 C 
BRANCH  23  24
ATOM     24  C   UNL     1      20.482  19.560 -14.758  1.00  0.00    -0.000 C 
BRANCH  24  25
ATOM     25  C   UNL     1      20.377  19.038 -13.315  1.00  0.00    -0.003 C 
ATOM     26  C   UNL     1      21.643  18.319 -12.850  1.00  0.00     0.004 C 
ENDBRANCH  24  25
ENDBRANCH  23  24
ENDBRANCH  22  23
ENDBRANCH  21  22
ENDBRANCH  20  21
ENDBRANCH  19  20
ENDBRANCH  18  19
ENDBRANCH  17  18
ENDBRANCH  16  17
ENDBRANCH  15  16
ENDBRANCH   1  15
TORSDOF 22
ENDMDL
MODEL 6
REMARK VINA RESULT:    -4.569      1.905      2.422
REMARK INTER + INTRA:         -12.068
REMARK INTER:                  -9.734
REMARK INTRA:                  -2.334
REMARK UNBOUND:                -1.623
REMARK SMILES CCCCCCCCCCCCCCCCCCCCCCCC(=O)[O-]
REMARK SMILES IDX 13 1 14 2 15 3 16 4 17 5 18 6 19 7 20 8 21 9 22 10 23 11
REMARK SMILES IDX 24 12 25 13 26 14 12 15 11 16 10 17 9 18 8 19 7 20 6 21 5 22
REMARK SMILES IDX 4 23 3 24 2 25 1 26
REMARK H PARENT
REMARK Flexibility Score: inf
ROOT
ATOM      1  C   UNL     1      13.476  22.523 -20.917  1.00  0.00     0.000 C 
ENDROOT
BRANCH   1   2
ATOM      2  C   UNL     1      12.677  21.682 -19.898  1.00  0.00     0.000 C 
BRANCH   2   3
ATOM      3  C   UNL     1      13.471  21.232 -18.658  1.00  0.00     0.000 C 
BRANCH   3   4
ATOM      4  C   UNL     1      14.926  20.865 -18.981  1.00  0.00     0.000 C 
BRANCH   4   5
ATOM      5  C   UNL     1      15.850  21.230 -17.811  1.00  0.00     0.000 C 
BRANCH   5   6
ATOM      6  C   UNL     1      16.776  20.070 -17.403  1.00  0.00     0.000 C 
BRANCH   6   7
ATOM      7  C   UNL     1      18.237  20.480 -17.114  1.00  0.00     0.000 C 
BRANCH   7   8
ATOM      8  C   UNL     1      18.996  19.583 -16.116  1.00  0.00     0.000 C 
BRANCH   8   9
ATOM      9  C   UNL     1      18.167  18.380 -15.636  1.00  0.00     0.000 C 
BRANCH   9  10
ATOM     10  C   UNL     1      18.686  17.040 -16.185  1.00  0.00     0.006 C 
BRANCH  10  11
ATOM     11  C   UNL     1      19.884  17.202 -17.127  1.00  0.00     0.053 C 
BRANCH  11  12
ATOM     12  C   UNL     1      21.082  16.498 -16.571  1.00  0.00     0.041 C 
ATOM     13  O   UNL     1      21.631  16.920 -15.519  1.00  0.00    -0.550 OA
ATOM     14  O   UNL     1      21.562  15.347 -17.184  1.00  0.00    -0.550 OA
ENDBRANCH  11  12
ENDBRANCH  10  11
ENDBRANCH   9  10
ENDBRANCH   8   9
ENDBRANCH   7   8
ENDBRANCH   6   7
ENDBRANCH   5   6
ENDBRANCH   4   5
ENDBRANCH   3   4
ENDBRANCH   2   3
ENDBRANCH   1   2
BRANCH   1  15
ATOM     15  C   UNL     1      12.636  23.193 -22.024  1.00  0.00     0.000 C 
BRANCH  15  16
ATOM     16  C   UNL     1      12.270  22.273 -23.203  1.00  0.00     0.000 C 
BRANCH  16  17
ATOM     17  C   UNL     1      13.450  22.041 -24.159  1.00  0.00     0.000 C 
BRANCH  17  18
ATOM     18  C   UNL     1      13.411  22.982 -25.378  1.00  0.00    -0.000 C 
BRANCH  18  19
ATOM     19  C   UNL     1      13.202  22.270 -26.732  1.00  0.00    -0.000 C 
BRANCH  19  20
ATOM     20  C   UNL     1      12.070  21.221 -26.759  1.00  0.00    -0.000 C 
BRANCH  20  21
ATOM     21  C   UNL     1      12.352  19.981 -27.627  1.00  0.00    -0.000 C 
BRANCH  21  22
ATOM     22  C   UNL     1      12.635  18.723 -26.789  1.00  0.00    -0.000 C 
BRANCH  22  23
ATOM     23  C   UNL     1      12.147  18.862 -25.339  1.00  0.00    -0.000 C 
BRANCH  23  24
ATOM     24  C   UNL     1      13.075  18.142 -24.344  1.00  0.00    -0.000 C 
BRANCH  24  25
ATOM     25  C   UNL     1      12.864  18.601 -22.892  1.00  0.00    -0.003 C 
ATOM     26  C   UNL     1      14.168  18.991 -22.197  1.00  0.00     0.004 C 
ENDBRANCH  24  25
ENDBRANCH  23  24
ENDBRANCH  22  23
ENDBRANCH  21  22
ENDBRANCH  20  21
ENDBRANCH  19  20
ENDBRANCH  18  19
ENDBRANCH  17  18
ENDBRANCH  16  17
ENDBRANCH  15  16
ENDBRANCH   1  15
TORSDOF 22
ENDMDL
MODEL 7
REMARK VINA RESULT:    -4.549      2.304      4.369
REMARK INTER + INTRA:         -12.024
REMARK INTER:                  -9.326
REMARK INTRA:                  -2.698
REMARK UNBOUND:                -1.623
REMARK SMILES CCCCCCCCCCCCCCCCCCCCCCCC(=O)[O-]
REMARK SMILES IDX 13 1 14 2 15 3 16 4 17 5 18 6 19 7 20 8 21 9 22 10 23 11
REMARK SMILES IDX 24 12 25 13 26 14 12 15 11 16 10 17 9 18 8 19 7 20 6 21 5 22
REMARK SMILES IDX 4 23 3 24 2 25 1 26
REMARK H PARENT
REMARK Flexibility Score: inf
ROOT
ATOM      1  C   UNL     1      12.595  18.832 -22.137  1.00  0.00     0.000 C 
ENDROOT
BRANCH   1   2
ATOM      2  C   UNL     1      14.135  18.945 -22.193  1.00  0.00     0.000 C 
BRANCH   2   3
ATOM      3  C   UNL     1      14.898  17.854 -21.421  1.00  0.00     0.000 C 
BRANCH   3   4
ATOM      4  C   UNL     1      14.719  17.962 -19.900  1.00  0.00     0.000 C 
BRANCH   4   5
ATOM      5  C   UNL     1      15.146  19.349 -19.400  1.00  0.00     0.000 C 
BRANCH   5   6
ATOM      6  C   UNL     1      16.048  19.279 -18.155  1.00  0.00     0.000 C 
BRANCH   6   7
ATOM      7  C   UNL     1      16.543  17.861 -17.795  1.00  0.00     0.000 C 
BRANCH   7   8
ATOM      8  C   UNL     1      17.929  17.790 -17.123  1.00  0.00     0.000 C 
BRANCH   8   9
ATOM      9  C   UNL     1      18.130  18.864 -16.041  1.00  0.00     0.000 C 
BRANCH   9  10
ATOM     10  C   UNL     1      17.379  18.547 -14.737  1.00  0.00     0.006 C 
BRANCH  10  11
ATOM     11  C   UNL     1      17.587  17.104 -14.261  1.00  0.00     0.053 C 
BRANCH  11  12
ATOM     12  C   UNL     1      16.267  16.444 -14.010  1.00  0.00     0.041 C 
ATOM     13  O   UNL     1      15.693  16.582 -12.899  1.00  0.00    -0.550 OA
ATOM     14  O   UNL     1      15.647  15.718 -15.020  1.00  0.00    -0.550 OA
ENDBRANCH  11  12
ENDBRANCH  10  11
ENDBRANCH   9  10
ENDBRANCH   8   9
ENDBRANCH   7   8
ENDBRANCH   6   7
ENDBRANCH   5   6
ENDBRANCH   4   5
ENDBRANCH   3   4
ENDBRANCH   2   3
ENDBRANCH   1   2
BRANCH   1  15
ATOM     15  C   UNL     1      11.875  18.929 -23.497  1.00  0.00     0.000 C 
BRANCH  15  16
ATOM     16  C   UNL     1      12.777  19.332 -24.678  1.00  0.00     0.000 C 
BRANCH  16  17
ATOM     17  C   UNL     1      11.983  19.921 -25.854  1.00  0.00     0.000 C 
BRANCH  17  18
ATOM     18  C   UNL     1      12.845  20.838 -26.742  1.00  0.00    -0.000 C 
BRANCH  18  19
ATOM     19  C   UNL     1      12.682  22.346 -26.456  1.00  0.00    -0.000 C 
BRANCH  19  20
ATOM     20  C   UNL     1      13.557  22.901 -25.312  1.00  0.00    -0.000 C 
BRANCH  20  21
ATOM     21  C   UNL     1      12.789  23.651 -24.209  1.00  0.00    -0.000 C 
BRANCH  21  22
ATOM     22  C   UNL     1      12.217  22.708 -23.137  1.00  0.00    -0.000 C 
BRANCH  22  23
ATOM     23  C   UNL     1      13.201  22.470 -21.981  1.00  0.00    -0.000 C 
BRANCH  23  24
ATOM     24  C   UNL     1      12.598  22.858 -20.619  1.00  0.00    -0.000 C 
BRANCH  24  25
ATOM     25  C   UNL     1      12.174  21.637 -19.786  1.00  0.00    -0.003 C 
ATOM     26  C   UNL     1      12.310  21.869 -18.280  1.00  0.00     0.004 C 
ENDBRANCH  24  25
ENDBRANCH  23  24
ENDBRANCH  22  23
ENDBRANCH  21  22
ENDBRANCH  20  21
ENDBRANCH  19  20
ENDBRANCH  18  19
ENDBRANCH  17  18
ENDBRANCH  16  17
ENDBRANCH  15  16
ENDBRANCH   1  15
TORSDOF 22
ENDMDL
MODEL 8
REMARK VINA RESULT:    -4.534      2.350      4.399
REMARK INTER + INTRA:         -11.990
REMARK INTER:                  -8.834
REMARK INTRA:                  -3.155
REMARK UNBOUND:                -1.623
REMARK SMILES CCCCCCCCCCCCCCCCCCCCCCCC(=O)[O-]
REMARK SMILES IDX 13 1 14 2 15 3 16 4 17 5 18 6 19 7 20 8 21 9 22 10 23 11
REMARK SMILES IDX 24 12 25 13 26 14 12 15 11 16 10 17 9 18 8 19 7 20 6 21 5 22
REMARK SMILES IDX 4 23 3 24 2 25 1 26
REMARK H PARENT
REMARK Flexibility Score: inf
ROOT
ATOM      1  C   UNL     1      17.835  20.171 -17.125  1.00  0.00     0.000 C 
ENDROOT
BRANCH   1   2
ATOM      2  C   UNL     1      17.194  18.810 -16.772  1.00  0.00     0.000 C 
BRANCH   2   3
ATOM      3  C   UNL     1      17.062  18.523 -15.265  1.00  0.00     0.000 C 
BRANCH   3   4
ATOM      4  C   UNL     1      16.826  17.037 -14.958  1.00  0.00     0.000 C 
BRANCH   4   5
ATOM      5  C   UNL     1      16.851  16.206 -16.248  1.00  0.00     0.000 C 
BRANCH   5   6
ATOM      6  C   UNL     1      18.097  15.307 -16.351  1.00  0.00     0.000 C 
BRANCH   6   7
ATOM      7  C   UNL     1      19.084  15.697 -17.472  1.00  0.00     0.000 C 
BRANCH   7   8
ATOM      8  C   UNL     1      20.213  16.662 -17.061  1.00  0.00     0.000 C 
BRANCH   8   9
ATOM      9  C   UNL     1      20.424  16.729 -15.539  1.00  0.00     0.000 C 
BRANCH   9  10
ATOM     10  C   UNL     1      21.348  17.882 -15.114  1.00  0.00     0.006 C 
BRANCH  10  11
ATOM     11  C   UNL     1      20.594  19.194 -14.864  1.00  0.00     0.053 C 
BRANCH  11  12
ATOM     12  C   UNL     1      20.564  19.505 -13.400  1.00  0.00     0.041 C 
ATOM     13  O   UNL     1      21.581  19.986 -12.835  1.00  0.00    -0.550 OA
ATOM     14  O   UNL     1      19.397  19.311 -12.670  1.00  0.00    -0.550 OA
ENDBRANCH  11  12
ENDBRANCH  10  11
ENDBRANCH   9  10
ENDBRANCH   8   9
ENDBRANCH   7   8
ENDBRANCH   6   7
ENDBRANCH   5   6
ENDBRANCH   4   5
ENDBRANCH   3   4
ENDBRANCH   2   3
ENDBRANCH   1   2
BRANCH   1  15
ATOM     15  C   UNL     1      16.946  21.124 -17.950  1.00  0.00     0.000 C 
BRANCH  15  16
ATOM     16  C   UNL     1      15.575  20.549 -18.346  1.00  0.00     0.000 C 
BRANCH  16  17
ATOM     17  C   UNL     1      14.694  21.572 -19.079  1.00  0.00     0.000 C 
BRANCH  17  18
ATOM     18  C   UNL     1      13.224  21.513 -18.622  1.00  0.00    -0.000 C 
BRANCH  18  19
ATOM     19  C   UNL     1      12.218  22.137 -19.612  1.00  0.00    -0.000 C 
BRANCH  19  20
ATOM     20  C   UNL     1      12.799  23.212 -20.555  1.00  0.00    -0.000 C 
BRANCH  20  21
ATOM     21  C   UNL     1      12.608  22.935 -22.057  1.00  0.00    -0.000 C 
BRANCH  21  22
ATOM     22  C   UNL     1      12.389  21.443 -22.361  1.00  0.00    -0.000 C 
BRANCH  22  23
ATOM     23  C   UNL     1      13.610  20.796 -23.033  1.00  0.00    -0.000 C 
BRANCH  23  24
ATOM     24  C   UNL     1      13.748  19.306 -22.672  1.00  0.00    -0.000 C 
BRANCH  24  25
ATOM     25  C   UNL     1      13.005  18.935 -21.378  1.00  0.00    -0.003 C 
ATOM     26  C   UNL     1      13.863  18.113 -20.416  1.00  0.00     0.004 C 
ENDBRANCH  24  25
ENDBRANCH  23  24
ENDBRANCH  22  23
ENDBRANCH  21  22
ENDBRANCH  20  21
ENDBRANCH  19  20
ENDBRANCH  18  19
ENDBRANCH  17  18
ENDBRANCH  16  17
ENDBRANCH  15  16
ENDBRANCH   1  15
TORSDOF 22
ENDMDL
MODEL 9
REMARK VINA RESULT:    -4.506      3.249      9.419
REMARK INTER + INTRA:         -11.924
REMARK INTER:                  -9.395
REMARK INTRA:                  -2.529
REMARK UNBOUND:                -1.623
REMARK SMILES CCCCCCCCCCCCCCCCCCCCCCCC(=O)[O-]
REMARK SMILES IDX 13 1 14 2 15 3 16 4 17 5 18 6 19 7 20 8 21 9 22 10 23 11
REMARK SMILES IDX 24 12 25 13 26 14 12 15 11 16 10 17 9 18 8 19 7 20 6 21 5 22
REMARK SMILES IDX 4 23 3 24 2 25 1 26
REMARK H PARENT
REMARK Flexibility Score: inf
ROOT
ATOM      1  C   UNL     1      12.305  21.901 -21.462  1.00  0.00     0.000 C 
ENDROOT
BRANCH   1   2
ATOM      2  C   UNL     1      13.333  22.193 -22.578  1.00  0.00     0.000 C 
BRANCH   2   3
ATOM      3  C   UNL     1      12.739  22.767 -23.878  1.00  0.00     0.000 C 
BRANCH   3   4
ATOM      4  C   UNL     1      13.739  22.767 -25.042  1.00  0.00     0.000 C 
BRANCH   4   5
ATOM      5  C   UNL     1      13.009  22.621 -26.385  1.00  0.00     0.000 C 
BRANCH   5   6
ATOM      6  C   UNL     1      11.981  21.475 -26.379  1.00  0.00     0.000 C 
BRANCH   6   7
ATOM      7  C   UNL     1      12.531  20.112 -26.853  1.00  0.00     0.000 C 
BRANCH   7   8
ATOM      8  C   UNL     1      12.129  18.897 -25.993  1.00  0.00     0.000 C 
BRANCH   8   9
ATOM      9  C   UNL     1      12.319  19.135 -24.486  1.00  0.00     0.000 C 
BRANCH   9  10
ATOM     10  C   UNL     1      13.276  18.121 -23.838  1.00  0.00     0.006 C 
BRANCH  10  11
ATOM     11  C   UNL     1      13.621  18.468 -22.384  1.00  0.00     0.053 C 
BRANCH  11  12
ATOM     12  C   UNL     1      13.797  17.218 -21.579  1.00  0.00     0.041 C 
ATOM     13  O   UNL     1      13.279  17.125 -20.436  1.00  0.00    -0.550 OA
ATOM     14  O   UNL     1      14.491  16.138 -22.111  1.00  0.00    -0.550 OA
ENDBRANCH  11  12
ENDBRANCH  10  11
ENDBRANCH   9  10
ENDBRANCH   8   9
ENDBRANCH   7   8
ENDBRANCH   6   7
ENDBRANCH   5   6
ENDBRANCH   4   5
ENDBRANCH   3   4
ENDBRANCH   2   3
ENDBRANCH   1   2
BRANCH   1  15
ATOM     15  C   UNL     1      12.438  22.774 -20.197  1.00  0.00     0.000 C 
BRANCH  15  16
ATOM     16  C   UNL     1      12.749  21.997 -18.906  1.00  0.00     0.000 C 
BRANCH  16  17
ATOM     17  C   UNL     1      13.841  20.934 -19.104  1.00  0.00     0.000 C 
BRANCH  17  18
ATOM     18  C   UNL     1      14.990  21.078 -18.088  1.00  0.00    -0.000 C 
BRANCH  18  19
ATOM     19  C   UNL     1      16.268  20.293 -18.449  1.00  0.00    -0.000 C 
BRANCH  19  20
ATOM     20  C   UNL     1      16.039  18.970 -19.210  1.00  0.00    -0.000 C 
BRANCH  20  21
ATOM     21  C   UNL     1      16.191  17.695 -18.361  1.00  0.00    -0.000 C 
BRANCH  21  22
ATOM     22  C   UNL     1      16.778  17.977 -16.968  1.00  0.00    -0.000 C 
BRANCH  22  23
ATOM     23  C   UNL     1      17.626  16.808 -16.441  1.00  0.00    -0.000 C 
BRANCH  23  24
ATOM     24  C   UNL     1      19.102  16.929 -16.861  1.00  0.00    -0.000 C 
BRANCH  24  25
ATOM     25  C   UNL     1      19.609  18.380 -16.849  1.00  0.00    -0.003 C 
ATOM     26  C   UNL     1      20.737  18.607 -15.842  1.00  0.00     0.004 C 
ENDBRANCH  24  25
ENDBRANCH  23  24
ENDBRANCH  22  23
ENDBRANCH  21  22
ENDBRANCH  20  21
ENDBRANCH  19  20
ENDBRANCH  18  19
ENDBRANCH  17  18
ENDBRANCH  16  17
ENDBRANCH  15  16
ENDBRANCH   1  15
TORSDOF 22
ENDMDL
