MODEL 1
REMARK VINA RESULT:    -4.538      0.000      0.000
REMARK INTER + INTRA:          -7.316
REMARK INTER:                  -6.660
REMARK INTRA:                  -0.656
REMARK UNBOUND:                -0.656
REMARK SMILES C=C1C=C[C@H](C(C)C)CCC(C)=CCC1
REMARK SMILES IDX 3 1 4 2 5 3 9 4 10 5 11 6 12 7 13 8 6 10 7 11 8 12 2 13 1 14
REMARK SMILES IDX 15 15 14 16
REMARK H PARENT
REMARK Flexibility Score: 70.00
ROOT
ATOM      1  C   UNL     1      12.053  32.067  22.343  1.00  0.00    -0.001 C 
ATOM      2  C   UNL     1      10.963  32.386  23.103  1.00  0.00    -0.023 C 
ENDROOT
BRANCH   2   3
ATOM      3  C   UNL     1      10.378  33.785  23.386  1.00  0.00     0.014 C 
BRANCH   3   4
ATOM      4  C   UNL     1       9.375  34.097  22.279  1.00  0.00     0.012 C 
BRANCH   4   5
ATOM      5  C   UNL     1       8.680  33.104  21.375  1.00  0.00     0.031 C 
BRANCH   5   6
ATOM      6  C   UNL     1       8.830  33.544  19.904  1.00  0.00    -0.077 C 
ATOM      7  C   UNL     1       7.609  34.147  19.257  1.00  0.00     0.039 C 
ATOM      8  C   UNL     1       9.972  33.471  19.133  1.00  0.00    -0.028 CG0
ATOM      9  G   UNL     1      11.321  32.793  19.429  1.00  0.00     0.000 G0
ENDBRANCH   5   6
ENDBRANCH   4   5
ENDBRANCH   3   4
BRANCH   3  10
ATOM     10  C   UNL     1       9.768  33.835  24.821  1.00  0.00    -0.010 C 
ATOM     11  C   UNL     1      10.460  32.852  25.780  1.00  0.00     0.008 C 
ATOM     12  C   UNL     1       8.260  33.533  24.793  1.00  0.00     0.008 C 
ENDBRANCH   3  10
ENDBRANCH   2   3
BRANCH   1  13
ATOM     13  C   UNL     1      12.896  32.995  21.520  1.00  0.00    -0.055 C 
ATOM     14  C   UNL     1      14.094  33.343  21.994  1.00  0.00     0.012 C 
BRANCH  13  15
ATOM     15  C   UNL     1      12.364  33.662  20.241  1.00  0.00     0.039 C 
BRANCH  15  16
ATOM     16  C   UNL     1      11.333  32.798  19.424  1.00  0.00     0.032 CG0
ATOM     17  G   UNL     1       9.976  33.455  19.119  1.00  0.00     0.000 G0
ENDBRANCH  15  16
ENDBRANCH  13  15
ENDBRANCH   1  13
TORSDOF 1
ENDMDL
MODEL 2
REMARK VINA RESULT:    -4.474      1.210      3.572
REMARK INTER + INTRA:          -7.223
REMARK INTER:                  -6.447
REMARK INTRA:                  -0.776
REMARK UNBOUND:                -0.656
REMARK SMILES C=C1C=C[C@H](C(C)C)CCC(C)=CCC1
REMARK SMILES IDX 3 1 4 2 5 3 9 4 10 5 11 6 12 7 13 8 6 10 7 11 8 12 2 13 1 14
REMARK SMILES IDX 15 15 14 16
REMARK H PARENT
REMARK Flexibility Score: 70.00
ROOT
ATOM      1  C   UNL     1       8.524  34.251  21.509  1.00  0.00    -0.001 C 
ATOM      2  C   UNL     1       9.258  34.226  22.661  1.00  0.00    -0.023 C 
ENDROOT
BRANCH   2   3
ATOM      3  C   UNL     1       9.574  33.013  23.560  1.00  0.00     0.014 C 
BRANCH   3   4
ATOM      4  C   UNL     1      11.070  32.732  23.443  1.00  0.00     0.012 C 
BRANCH   4   5
ATOM      5  C   UNL     1      11.983  33.126  22.305  1.00  0.00     0.031 C 
BRANCH   5   6
ATOM      6  C   UNL     1      12.069  31.974  21.282  1.00  0.00    -0.077 C 
ATOM      7  C   UNL     1      13.122  30.927  21.539  1.00  0.00     0.039 C 
ATOM      8  C   UNL     1      11.263  31.790  20.177  1.00  0.00    -0.028 CG0
ATOM      9  G   UNL     1      10.211  32.725  19.556  1.00  0.00     0.000 G0
ENDBRANCH   5   6
ENDBRANCH   4   5
ENDBRANCH   3   4
BRANCH   3  10
ATOM     10  C   UNL     1       9.097  33.284  25.020  1.00  0.00    -0.010 C 
ATOM     11  C   UNL     1      10.181  32.945  26.057  1.00  0.00     0.008 C 
ATOM     12  C   UNL     1       7.824  32.483  25.344  1.00  0.00     0.008 C 
ENDBRANCH   3  10
ENDBRANCH   2   3
BRANCH   1  13
ATOM     13  C   UNL     1       7.921  33.085  20.784  1.00  0.00    -0.055 C 
ATOM     14  C   UNL     1       6.726  32.645  21.184  1.00  0.00     0.012 C 
BRANCH  13  15
ATOM     15  C   UNL     1       8.696  32.302  19.711  1.00  0.00     0.039 C 
BRANCH  15  16
ATOM     16  C   UNL     1      10.204  32.720  19.548  1.00  0.00     0.032 CG0
ATOM     17  G   UNL     1      11.249  31.784  20.179  1.00  0.00     0.000 G0
ENDBRANCH  15  16
ENDBRANCH  13  15
ENDBRANCH   1  13
TORSDOF 1
ENDMDL
MODEL 3
REMARK VINA RESULT:    -4.237      2.243      4.510
REMARK INTER + INTRA:          -6.874
REMARK INTER:                  -6.104
REMARK INTRA:                  -0.770
REMARK UNBOUND:                -0.656
REMARK SMILES C=C1C=C[C@H](C(C)C)CCC(C)=CCC1
REMARK SMILES IDX 3 1 4 2 5 3 9 4 10 5 11 6 12 7 13 8 6 10 7 11 8 12 2 13 1 14
REMARK SMILES IDX 15 15 14 16
REMARK H PARENT
REMARK Flexibility Score: 70.00
ROOT
ATOM      1  C   UNL     1      10.246  33.903  24.069  1.00  0.00    -0.001 C 
ATOM      2  C   UNL     1      10.982  33.538  22.978  1.00  0.00    -0.023 C 
ENDROOT
BRANCH   2   3
ATOM      3  C   UNL     1      11.491  32.131  22.602  1.00  0.00     0.014 C 
BRANCH   3   4
ATOM      4  C   UNL     1      10.542  31.565  21.549  1.00  0.00     0.012 C 
BRANCH   4   5
ATOM      5  C   UNL     1       9.328  32.245  20.960  1.00  0.00     0.031 C 
BRANCH   5   6
ATOM      6  C   UNL     1       8.049  31.502  21.400  1.00  0.00    -0.077 C 
ATOM      7  C   UNL     1       7.527  30.449  20.455  1.00  0.00     0.039 C 
ATOM      8  C   UNL     1       7.355  31.680  22.579  1.00  0.00    -0.028 CG0
ATOM      9  G   UNL     1       7.527  32.748  23.674  1.00  0.00     0.000 G0
ENDBRANCH   5   6
ENDBRANCH   4   5
ENDBRANCH   3   4
BRANCH   3  10
ATOM     10  C   UNL     1      12.978  32.200  22.137  1.00  0.00    -0.010 C 
ATOM     11  C   UNL     1      13.222  33.346  21.141  1.00  0.00     0.008 C 
ATOM     12  C   UNL     1      13.421  30.874  21.496  1.00  0.00     0.008 C 
ENDBRANCH   3  10
ENDBRANCH   2   3
BRANCH   1  13
ATOM     13  C   UNL     1       9.673  33.007  25.127  1.00  0.00    -0.055 C 
ATOM     14  C   UNL     1      10.437  32.707  26.179  1.00  0.00     0.012 C 
BRANCH  13  15
ATOM     15  C   UNL     1       8.309  32.317  24.958  1.00  0.00     0.039 C 
BRANCH  15  16
ATOM     16  C   UNL     1       7.505  32.744  23.675  1.00  0.00     0.032 CG0
ATOM     17  G   UNL     1       7.348  31.679  22.576  1.00  0.00     0.000 G0
ENDBRANCH  15  16
ENDBRANCH  13  15
ENDBRANCH   1  13
TORSDOF 1
ENDMDL
MODEL 4
REMARK VINA RESULT:    -4.176      2.679      4.368
REMARK INTER + INTRA:          -6.784
REMARK INTER:                  -6.085
REMARK INTRA:                  -0.699
REMARK UNBOUND:                -0.656
REMARK SMILES C=C1C=C[C@H](C(C)C)CCC(C)=CCC1
REMARK SMILES IDX 3 1 4 2 5 3 9 4 10 5 11 6 12 7 13 8 6 10 7 11 8 12 2 13 1 14
REMARK SMILES IDX 15 15 14 16
REMARK H PARENT
REMARK Flexibility Score: 70.00
ROOT
ATOM      1  C   UNL     1      14.605  33.512  21.092  1.00  0.00    -0.001 C 
ATOM      2  C   UNL     1      13.639  33.125  21.976  1.00  0.00    -0.023 C 
ENDROOT
BRANCH   2   3
ATOM      3  C   UNL     1      12.202  32.657  21.670  1.00  0.00     0.014 C 
BRANCH   3   4
ATOM      4  C   UNL     1      12.169  31.139  21.824  1.00  0.00     0.012 C 
BRANCH   4   5
ATOM      5  C   UNL     1      12.157  30.112  20.715  1.00  0.00     0.031 C 
BRANCH   5   6
ATOM      6  C   UNL     1      13.587  29.582  20.480  1.00  0.00    -0.077 C 
ATOM      7  C   UNL     1      14.061  28.496  21.413  1.00  0.00     0.039 C 
ATOM      8  C   UNL     1      14.460  29.976  19.486  1.00  0.00    -0.028 CG0
ATOM      9  G   UNL     1      14.352  31.134  18.480  1.00  0.00     0.000 G0
ENDBRANCH   5   6
ENDBRANCH   4   5
ENDBRANCH   3   4
BRANCH   3  10
ATOM     10  C   UNL     1      11.183  33.404  22.585  1.00  0.00    -0.010 C 
ATOM     11  C   UNL     1      10.752  32.552  23.790  1.00  0.00     0.008 C 
ATOM     12  C   UNL     1       9.933  33.825  21.794  1.00  0.00     0.008 C 
ENDBRANCH   3  10
ENDBRANCH   2   3
BRANCH   1  13
ATOM     13  C   UNL     1      14.534  33.491  19.594  1.00  0.00    -0.055 C 
ATOM     14  C   UNL     1      13.732  34.369  18.989  1.00  0.00     0.012 C 
BRANCH  13  15
ATOM     15  C   UNL     1      15.233  32.404  18.760  1.00  0.00     0.039 C 
BRANCH  15  16
ATOM     16  C   UNL     1      14.356  31.131  18.465  1.00  0.00     0.032 CG0
ATOM     17  G   UNL     1      14.458  29.976  19.476  1.00  0.00     0.000 G0
ENDBRANCH  15  16
ENDBRANCH  13  15
ENDBRANCH   1  13
TORSDOF 1
ENDMDL
MODEL 5
REMARK VINA RESULT:    -4.161      2.885      5.179
REMARK INTER + INTRA:          -6.763
REMARK INTER:                  -6.265
REMARK INTRA:                  -0.498
REMARK UNBOUND:                -0.656
REMARK SMILES C=C1C=C[C@H](C(C)C)CCC(C)=CCC1
REMARK SMILES IDX 3 1 4 2 5 3 9 4 10 5 11 6 12 7 13 8 6 10 7 11 8 12 2 13 1 14
REMARK SMILES IDX 15 15 14 16
REMARK H PARENT
REMARK Flexibility Score: 70.00
ROOT
ATOM      1  C   UNL     1       9.474  34.342  23.098  1.00  0.00    -0.001 C 
ATOM      2  C   UNL     1       8.557  34.156  22.102  1.00  0.00    -0.023 C 
ENDROOT
BRANCH   2   3
ATOM      3  C   UNL     1       8.374  32.921  21.197  1.00  0.00     0.014 C 
BRANCH   3   4
ATOM      4  C   UNL     1       7.601  31.875  21.996  1.00  0.00     0.012 C 
BRANCH   4   5
ATOM      5  C   UNL     1       8.179  30.808  22.896  1.00  0.00     0.031 C 
BRANCH   5   6
ATOM      6  C   UNL     1       7.447  30.817  24.254  1.00  0.00    -0.077 C 
ATOM      7  C   UNL     1       6.280  29.872  24.392  1.00  0.00     0.039 C 
ATOM      8  C   UNL     1       7.769  31.576  25.361  1.00  0.00    -0.028 CG0
ATOM      9  G   UNL     1       8.787  32.720  25.510  1.00  0.00     0.000 G0
ENDBRANCH   5   6
ENDBRANCH   4   5
ENDBRANCH   3   4
BRANCH   3  10
ATOM     10  C   UNL     1       7.683  33.328  19.859  1.00  0.00    -0.010 C 
ATOM     11  C   UNL     1       8.272  34.622  19.272  1.00  0.00     0.008 C 
ATOM     12  C   UNL     1       6.167  33.507  20.050  1.00  0.00     0.008 C 
ENDBRANCH   3  10
ENDBRANCH   2   3
BRANCH   1  13
ATOM     13  C   UNL     1      10.472  33.351  23.618  1.00  0.00    -0.055 C 
ATOM     14  C   UNL     1      11.561  33.111  22.884  1.00  0.00     0.012 C 
BRANCH  13  15
ATOM     15  C   UNL     1      10.205  32.509  24.876  1.00  0.00     0.039 C 
BRANCH  15  16
ATOM     16  C   UNL     1       8.790  32.725  25.528  1.00  0.00     0.032 CG0
ATOM     17  G   UNL     1       7.779  31.574  25.376  1.00  0.00     0.000 G0
ENDBRANCH  15  16
ENDBRANCH  13  15
ENDBRANCH   1  13
TORSDOF 1
ENDMDL
MODEL 6
REMARK VINA RESULT:    -4.141      1.877      4.230
REMARK INTER + INTRA:          -6.733
REMARK INTER:                  -6.257
REMARK INTRA:                  -0.476
REMARK UNBOUND:                -0.656
REMARK SMILES C=C1C=C[C@H](C(C)C)CCC(C)=CCC1
REMARK SMILES IDX 3 1 4 2 5 3 9 4 10 5 11 6 12 7 13 8 6 10 7 11 8 12 2 13 1 14
REMARK SMILES IDX 15 15 14 16
REMARK H PARENT
REMARK Flexibility Score: 70.00
ROOT
ATOM      1  C   UNL     1       9.696  32.491  25.007  1.00  0.00    -0.001 C 
ATOM      2  C   UNL     1      10.756  32.774  24.193  1.00  0.00    -0.023 C 
ENDROOT
BRANCH   2   3
ATOM      3  C   UNL     1      10.765  32.920  22.658  1.00  0.00     0.014 C 
BRANCH   3   4
ATOM      4  C   UNL     1       9.891  34.121  22.305  1.00  0.00     0.012 C 
BRANCH   4   5
ATOM      5  C   UNL     1       8.821  34.186  21.240  1.00  0.00     0.031 C 
BRANCH   5   6
ATOM      6  C   UNL     1       8.639  32.794  20.598  1.00  0.00    -0.077 C 
ATOM      7  C   UNL     1       9.293  32.585  19.256  1.00  0.00     0.039 C 
ATOM      8  C   UNL     1       7.967  31.718  21.140  1.00  0.00    -0.028 CG0
ATOM      9  G   UNL     1       7.083  31.636  22.396  1.00  0.00     0.000 G0
ENDBRANCH   5   6
ENDBRANCH   4   5
ENDBRANCH   3   4
BRANCH   3  10
ATOM     10  C   UNL     1      12.229  33.031  22.134  1.00  0.00    -0.010 C 
ATOM     11  C   UNL     1      12.289  33.536  20.682  1.00  0.00     0.008 C 
ATOM     12  C   UNL     1      12.956  31.678  22.226  1.00  0.00     0.008 C 
ENDBRANCH   3  10
ENDBRANCH   2   3
BRANCH   1  13
ATOM     13  C   UNL     1       8.256  32.344  24.613  1.00  0.00    -0.055 C 
ATOM     14  C   UNL     1       7.366  33.173  25.164  1.00  0.00     0.012 C 
BRANCH  13  15
ATOM     15  C   UNL     1       7.768  31.188  23.726  1.00  0.00     0.039 C 
BRANCH  15  16
ATOM     16  C   UNL     1       7.069  31.631  22.387  1.00  0.00     0.032 CG0
ATOM     17  G   UNL     1       7.965  31.717  21.139  1.00  0.00     0.000 G0
ENDBRANCH  15  16
ENDBRANCH  13  15
ENDBRANCH   1  13
TORSDOF 1
ENDMDL
MODEL 7
REMARK VINA RESULT:    -4.009      2.138      4.937
REMARK INTER + INTRA:          -6.540
REMARK INTER:                  -5.729
REMARK INTRA:                  -0.811
REMARK UNBOUND:                -0.656
REMARK SMILES C=C1C=C[C@H](C(C)C)CCC(C)=CCC1
REMARK SMILES IDX 3 1 4 2 5 3 9 4 10 5 11 6 12 7 13 8 6 10 7 11 8 12 2 13 1 14
REMARK SMILES IDX 15 15 14 16
REMARK H PARENT
REMARK Flexibility Score: 70.00
ROOT
ATOM      1  C   UNL     1       9.787  30.846  21.101  1.00  0.00    -0.001 C 
ATOM      2  C   UNL     1      10.924  31.368  21.651  1.00  0.00    -0.023 C 
ENDROOT
BRANCH   2   3
ATOM      3  C   UNL     1      11.250  32.849  21.935  1.00  0.00     0.014 C 
BRANCH   3   4
ATOM      4  C   UNL     1      11.209  33.047  23.448  1.00  0.00     0.012 C 
BRANCH   4   5
ATOM      5  C   UNL     1      10.219  33.880  24.229  1.00  0.00     0.031 C 
BRANCH   5   6
ATOM      6  C   UNL     1       9.083  32.981  24.759  1.00  0.00    -0.077 C 
ATOM      7  C   UNL     1       9.274  32.400  26.137  1.00  0.00     0.039 C 
ATOM      8  C   UNL     1       7.900  32.681  24.114  1.00  0.00    -0.028 CG0
ATOM      9  G   UNL     1       7.457  32.983  22.672  1.00  0.00     0.000 G0
ENDBRANCH   5   6
ENDBRANCH   4   5
ENDBRANCH   3   4
BRANCH   3  10
ATOM     10  C   UNL     1      12.614  33.236  21.286  1.00  0.00    -0.010 C 
ATOM     11  C   UNL     1      12.447  33.751  19.847  1.00  0.00     0.008 C 
ATOM     12  C   UNL     1      13.585  32.043  21.284  1.00  0.00     0.008 C 
ENDBRANCH   3  10
ENDBRANCH   2   3
BRANCH   1  13
ATOM     13  C   UNL     1       8.536  31.580  20.722  1.00  0.00    -0.055 C 
ATOM     14  C   UNL     1       8.511  32.218  19.549  1.00  0.00     0.012 C 
BRANCH  13  15
ATOM     15  C   UNL     1       7.357  31.740  21.696  1.00  0.00     0.039 C 
BRANCH  15  16
ATOM     16  C   UNL     1       7.458  32.980  22.659  1.00  0.00     0.032 CG0
ATOM     17  G   UNL     1       7.891  32.693  24.107  1.00  0.00     0.000 G0
ENDBRANCH  15  16
ENDBRANCH  13  15
ENDBRANCH   1  13
TORSDOF 1
ENDMDL
MODEL 8
REMARK VINA RESULT:    -4.004      2.362      3.102
REMARK INTER + INTRA:          -6.532
REMARK INTER:                  -5.937
REMARK INTRA:                  -0.595
REMARK UNBOUND:                -0.656
REMARK SMILES C=C1C=C[C@H](C(C)C)CCC(C)=CCC1
REMARK SMILES IDX 3 1 4 2 5 3 9 4 10 5 11 6 12 7 13 8 6 10 7 11 8 12 2 13 1 14
REMARK SMILES IDX 15 15 14 16
REMARK H PARENT
REMARK Flexibility Score: 70.00
ROOT
ATOM      1  C   UNL     1      12.852  33.143  21.918  1.00  0.00    -0.001 C 
ATOM      2  C   UNL     1      11.729  33.144  22.695  1.00  0.00    -0.023 C 
ENDROOT
BRANCH   2   3
ATOM      3  C   UNL     1      10.257  33.092  22.239  1.00  0.00     0.014 C 
BRANCH   3   4
ATOM      4  C   UNL     1       9.886  31.624  22.047  1.00  0.00     0.012 C 
BRANCH   4   5
ATOM      5  C   UNL     1       9.696  30.898  20.735  1.00  0.00     0.031 C 
BRANCH   5   6
ATOM      6  C   UNL     1      10.448  29.552  20.768  1.00  0.00    -0.077 C 
ATOM      7  C   UNL     1       9.598  28.311  20.875  1.00  0.00     0.039 C 
ATOM      8  C   UNL     1      11.813  29.367  20.680  1.00  0.00    -0.028 CG0
ATOM      9  G   UNL     1      12.953  30.399  20.708  1.00  0.00     0.000 G0
ENDBRANCH   5   6
ENDBRANCH   4   5
ENDBRANCH   3   4
BRANCH   3  10
ATOM     10  C   UNL     1       9.348  33.842  23.260  1.00  0.00    -0.010 C 
ATOM     11  C   UNL     1       9.981  33.911  24.659  1.00  0.00     0.008 C 
ATOM     12  C   UNL     1       7.965  33.175  23.366  1.00  0.00     0.008 C 
ENDBRANCH   3  10
ENDBRANCH   2   3
BRANCH   1  13
ATOM     13  C   UNL     1      12.932  32.998  20.427  1.00  0.00    -0.055 C 
ATOM     14  C   UNL     1      12.933  34.108  19.686  1.00  0.00     0.012 C 
BRANCH  13  15
ATOM     15  C   UNL     1      12.860  31.626  19.737  1.00  0.00     0.039 C 
BRANCH  15  16
ATOM     16  C   UNL     1      12.981  30.391  20.704  1.00  0.00     0.032 CG0
ATOM     17  G   UNL     1      11.824  29.377  20.672  1.00  0.00     0.000 G0
ENDBRANCH  15  16
ENDBRANCH  13  15
ENDBRANCH   1  13
TORSDOF 1
ENDMDL
MODEL 9
REMARK VINA RESULT:    -3.847      2.084      4.379
REMARK INTER + INTRA:          -6.302
REMARK INTER:                  -5.510
REMARK INTRA:                  -0.792
REMARK UNBOUND:                -0.656
REMARK SMILES C=C1C=C[C@H](C(C)C)CCC(C)=CCC1
REMARK SMILES IDX 3 1 4 2 5 3 9 4 10 5 11 6 12 7 13 8 6 10 7 11 8 12 2 13 1 14
REMARK SMILES IDX 15 15 14 16
REMARK H PARENT
REMARK Flexibility Score: 70.00
ROOT
ATOM      1  C   UNL     1      12.548  30.119  20.850  1.00  0.00    -0.001 C 
ATOM      2  C   UNL     1      13.158  31.055  21.635  1.00  0.00    -0.023 C 
ENDROOT
BRANCH   2   3
ATOM      3  C   UNL     1      13.198  32.584  21.435  1.00  0.00     0.014 C 
BRANCH   3   4
ATOM      4  C   UNL     1      12.296  33.211  22.496  1.00  0.00     0.012 C 
BRANCH   4   5
ATOM      5  C   UNL     1      11.312  32.494  23.391  1.00  0.00     0.031 C 
BRANCH   5   6
ATOM      6  C   UNL     1       9.873  32.748  22.895  1.00  0.00    -0.077 C 
ATOM      7  C   UNL     1       9.134  33.892  23.541  1.00  0.00     0.039 C 
ATOM      8  C   UNL     1       9.209  32.056  21.903  1.00  0.00    -0.028 CG0
ATOM      9  G   UNL     1       9.609  30.771  21.157  1.00  0.00     0.000 G0
ENDBRANCH   5   6
ENDBRANCH   4   5
ENDBRANCH   3   4
BRANCH   3  10
ATOM     10  C   UNL     1      14.670  33.097  21.479  1.00  0.00    -0.010 C 
ATOM     11  C   UNL     1      15.170  33.543  20.094  1.00  0.00     0.008 C 
ATOM     12  C   UNL     1      15.617  32.018  22.032  1.00  0.00     0.008 C 
ENDBRANCH   3  10
ENDBRANCH   2   3
BRANCH   1  13
ATOM     13  C   UNL     1      11.686  30.357  19.645  1.00  0.00    -0.055 C 
ATOM     14  C   UNL     1      12.223  30.159  18.439  1.00  0.00     0.012 C 
BRANCH  13  15
ATOM     15  C   UNL     1      10.276  30.958  19.758  1.00  0.00     0.039 C 
BRANCH  15  16
ATOM     16  C   UNL     1       9.590  30.778  21.163  1.00  0.00     0.032 CG0
ATOM     17  G   UNL     1       9.203  32.067  21.909  1.00  0.00     0.000 G0
ENDBRANCH  15  16
ENDBRANCH  13  15
ENDBRANCH   1  13
TORSDOF 1
ENDMDL
