MODEL 1
REMARK VINA RESULT:    -4.858      0.000      0.000
REMARK INTER + INTRA:          -5.327
REMARK INTER:                  -5.142
REMARK INTRA:                  -0.185
REMARK UNBOUND:                -0.185
REMARK SMILES C=C(C)[C@@H]1CC[C@@]2(C)CCCC(=C)[C@H]2C1
REMARK SMILES IDX 4 1 5 2 6 3 7 4 9 5 10 6 11 7 12 8 13 9 14 10 15 11 8 12
REMARK SMILES IDX 2 13 3 14 1 15
REMARK H PARENT
REMARK Flexibility Score: inf
ROOT
ATOM      1  C   UNL     1      14.199   3.813  18.508  1.00  0.00     0.015 C 
ATOM      2  C   UNL     1      14.592   3.702  17.027  1.00  0.00     0.008 C 
ATOM      3  C   UNL     1      13.673   4.563  16.155  1.00  0.00     0.008 C 
ATOM      4  C   UNL     1      13.603   6.059  16.609  1.00  0.00    -0.026 C 
ATOM      5  C   UNL     1      12.437   6.774  15.875  1.00  0.00     0.008 C 
ATOM      6  C   UNL     1      11.035   6.222  16.213  1.00  0.00     0.005 C 
ATOM      7  C   UNL     1      10.896   5.609  17.621  1.00  0.00     0.031 C 
ATOM      8  C   UNL     1      11.940   6.115  18.586  1.00  0.00    -0.074 C 
ATOM      9  C   UNL     1      11.571   6.496  19.822  1.00  0.00     0.008 C 
ATOM     10  C   UNL     1      13.400   6.221  18.159  1.00  0.00     0.021 C 
ATOM     11  C   UNL     1      14.309   5.272  18.979  1.00  0.00     0.016 C 
ATOM     12  C   UNL     1      14.918   6.767  16.187  1.00  0.00     0.012 C 
ENDROOT
BRANCH   1  13
ATOM     13  C   UNL     1      15.039   2.885  19.376  1.00  0.00    -0.077 C 
ATOM     14  C   UNL     1      14.653   2.637  20.811  1.00  0.00     0.039 C 
ATOM     15  C   UNL     1      16.134   2.272  18.890  1.00  0.00     0.008 C 
ENDBRANCH   1  13
TORSDOF 1
ENDMDL
MODEL 2
REMARK VINA RESULT:    -4.663      1.545      4.559
REMARK INTER + INTRA:          -5.121
REMARK INTER:                  -4.958
REMARK INTRA:                  -0.163
REMARK UNBOUND:                -0.185
REMARK SMILES C=C(C)[C@@H]1CC[C@@]2(C)CCCC(=C)[C@H]2C1
REMARK SMILES IDX 4 1 5 2 6 3 7 4 9 5 10 6 11 7 12 8 13 9 14 10 15 11 8 12
REMARK SMILES IDX 2 13 3 14 1 15
REMARK H PARENT
REMARK Flexibility Score: inf
ROOT
ATOM      1  C   UNL     1      12.298   6.971  18.632  1.00  0.00     0.015 C 
ATOM      2  C   UNL     1      11.517   5.649  18.652  1.00  0.00     0.008 C 
ATOM      3  C   UNL     1      12.256   4.569  17.855  1.00  0.00     0.008 C 
ATOM      4  C   UNL     1      13.735   4.355  18.317  1.00  0.00    -0.026 C 
ATOM      5  C   UNL     1      14.487   3.481  17.277  1.00  0.00     0.008 C 
ATOM      6  C   UNL     1      14.626   4.127  15.881  1.00  0.00     0.005 C 
ATOM      7  C   UNL     1      14.670   5.668  15.875  1.00  0.00     0.031 C 
ATOM      8  C   UNL     1      15.099   6.247  17.201  1.00  0.00    -0.074 C 
ATOM      9  C   UNL     1      16.013   7.233  17.229  1.00  0.00     0.008 C 
ATOM     10  C   UNL     1      14.521   5.705  18.504  1.00  0.00     0.021 C 
ATOM     11  C   UNL     1      13.690   6.775  19.254  1.00  0.00     0.016 C 
ATOM     12  C   UNL     1      13.729   3.576  19.658  1.00  0.00     0.012 C 
ENDROOT
BRANCH   1  13
ATOM     13  C   UNL     1      11.528   8.081  19.335  1.00  0.00    -0.077 C 
ATOM     14  C   UNL     1      11.483   8.135  20.840  1.00  0.00     0.039 C 
ATOM     15  C   UNL     1      10.875   9.029  18.638  1.00  0.00     0.008 C 
ENDBRANCH   1  13
TORSDOF 1
ENDMDL
MODEL 3
REMARK VINA RESULT:    -4.551      1.622      3.820
REMARK INTER + INTRA:          -5.003
REMARK INTER:                  -4.814
REMARK INTRA:                  -0.189
REMARK UNBOUND:                -0.185
REMARK SMILES C=C(C)[C@@H]1CC[C@@]2(C)CCCC(=C)[C@H]2C1
REMARK SMILES IDX 4 1 5 2 6 3 7 4 9 5 10 6 11 7 12 8 13 9 14 10 15 11 8 12
REMARK SMILES IDX 2 13 3 14 1 15
REMARK H PARENT
REMARK Flexibility Score: inf
ROOT
ATOM      1  C   UNL     1      12.735   5.709  20.182  1.00  0.00     0.015 C 
ATOM      2  C   UNL     1      12.079   6.935  19.530  1.00  0.00     0.008 C 
ATOM      3  C   UNL     1      12.567   7.109  18.088  1.00  0.00     0.008 C 
ATOM      4  C   UNL     1      12.377   5.832  17.205  1.00  0.00    -0.026 C 
ATOM      5  C   UNL     1      13.164   5.993  15.876  1.00  0.00     0.008 C 
ATOM      6  C   UNL     1      14.694   6.095  16.049  1.00  0.00     0.005 C 
ATOM      7  C   UNL     1      15.264   5.367  17.283  1.00  0.00     0.031 C 
ATOM      8  C   UNL     1      14.355   4.274  17.789  1.00  0.00    -0.074 C 
ATOM      9  C   UNL     1      14.874   3.074  18.105  1.00  0.00     0.008 C 
ATOM     10  C   UNL     1      12.855   4.515  17.919  1.00  0.00     0.021 C 
ATOM     11  C   UNL     1      12.386   4.436  19.394  1.00  0.00     0.016 C 
ATOM     12  C   UNL     1      10.875   5.700  16.841  1.00  0.00     0.012 C 
ENDROOT
BRANCH   1  13
ATOM     13  C   UNL     1      12.336   5.580  21.647  1.00  0.00    -0.077 C 
ATOM     14  C   UNL     1      12.725   4.353  22.431  1.00  0.00     0.039 C 
ATOM     15  C   UNL     1      11.634   6.544  22.268  1.00  0.00     0.008 C 
ENDBRANCH   1  13
TORSDOF 1
ENDMDL
MODEL 4
REMARK VINA RESULT:    -4.527      1.143      3.229
REMARK INTER + INTRA:          -4.978
REMARK INTER:                  -4.795
REMARK INTRA:                  -0.183
REMARK UNBOUND:                -0.185
REMARK SMILES C=C(C)[C@@H]1CC[C@@]2(C)CCCC(=C)[C@H]2C1
REMARK SMILES IDX 4 1 5 2 6 3 7 4 9 5 10 6 11 7 12 8 13 9 14 10 15 11 8 12
REMARK SMILES IDX 2 13 3 14 1 15
REMARK H PARENT
REMARK Flexibility Score: inf
ROOT
ATOM      1  C   UNL     1      13.788   4.390  19.495  1.00  0.00     0.015 C 
ATOM      2  C   UNL     1      12.749   5.439  19.919  1.00  0.00     0.008 C 
ATOM      3  C   UNL     1      12.650   6.557  18.875  1.00  0.00     0.008 C 
ATOM      4  C   UNL     1      12.368   6.037  17.428  1.00  0.00    -0.026 C 
ATOM      5  C   UNL     1      12.585   7.187  16.407  1.00  0.00     0.008 C 
ATOM      6  C   UNL     1      14.036   7.709  16.334  1.00  0.00     0.005 C 
ATOM      7  C   UNL     1      15.123   6.672  16.679  1.00  0.00     0.031 C 
ATOM      8  C   UNL     1      14.651   5.249  16.507  1.00  0.00    -0.074 C 
ATOM      9  C   UNL     1      15.439   4.362  15.875  1.00  0.00     0.008 C 
ATOM     10  C   UNL     1      13.281   4.823  17.023  1.00  0.00     0.021 C 
ATOM     11  C   UNL     1      13.394   3.764  18.148  1.00  0.00     0.016 C 
ATOM     12  C   UNL     1      10.879   5.612  17.334  1.00  0.00     0.012 C 
ENDROOT
BRANCH   1  13
ATOM     13  C   UNL     1      13.970   3.325  20.569  1.00  0.00    -0.077 C 
ATOM     14  C   UNL     1      15.201   2.456  20.571  1.00  0.00     0.039 C 
ATOM     15  C   UNL     1      13.048   3.135  21.530  1.00  0.00     0.008 C 
ENDBRANCH   1  13
TORSDOF 1
ENDMDL
MODEL 5
REMARK VINA RESULT:    -4.382      1.714      2.406
REMARK INTER + INTRA:          -4.824
REMARK INTER:                  -4.639
REMARK INTRA:                  -0.185
REMARK UNBOUND:                -0.185
REMARK SMILES C=C(C)[C@@H]1CC[C@@]2(C)CCCC(=C)[C@H]2C1
REMARK SMILES IDX 4 1 5 2 6 3 7 4 9 5 10 6 11 7 12 8 13 9 14 10 15 11 8 12
REMARK SMILES IDX 2 13 3 14 1 15
REMARK H PARENT
REMARK Flexibility Score: inf
ROOT
ATOM      1  C   UNL     1      15.550   4.926  17.210  1.00  0.00     0.015 C 
ATOM      2  C   UNL     1      15.151   5.814  16.021  1.00  0.00     0.008 C 
ATOM      3  C   UNL     1      13.657   6.150  16.072  1.00  0.00     0.008 C 
ATOM      4  C   UNL     1      13.206   6.788  17.427  1.00  0.00    -0.026 C 
ATOM      5  C   UNL     1      11.655   6.811  17.504  1.00  0.00     0.008 C 
ATOM      6  C   UNL     1      10.996   5.416  17.517  1.00  0.00     0.005 C 
ATOM      7  C   UNL     1      11.853   4.292  18.134  1.00  0.00     0.031 C 
ATOM      8  C   UNL     1      12.916   4.813  19.070  1.00  0.00    -0.074 C 
ATOM      9  C   UNL     1      13.097   4.219  20.262  1.00  0.00     0.008 C 
ATOM     10  C   UNL     1      13.762   6.020  18.682  1.00  0.00     0.021 C 
ATOM     11  C   UNL     1      15.259   5.650  18.535  1.00  0.00     0.016 C 
ATOM     12  C   UNL     1      13.693   8.260  17.470  1.00  0.00     0.012 C 
ENDROOT
BRANCH   1  13
ATOM     13  C   UNL     1      17.010   4.501  17.119  1.00  0.00    -0.077 C 
ATOM     14  C   UNL     1      17.528   3.386  17.990  1.00  0.00     0.039 C 
ATOM     15  C   UNL     1      17.862   5.104  16.271  1.00  0.00     0.008 C 
ENDBRANCH   1  13
TORSDOF 1
ENDMDL
MODEL 6
REMARK VINA RESULT:    -4.253      1.561      5.050
REMARK INTER + INTRA:          -4.687
REMARK INTER:                  -4.498
REMARK INTRA:                  -0.189
REMARK UNBOUND:                -0.185
REMARK SMILES C=C(C)[C@@H]1CC[C@@]2(C)CCCC(=C)[C@H]2C1
REMARK SMILES IDX 4 1 5 2 6 3 7 4 9 5 10 6 11 7 12 8 13 9 14 10 15 11 8 12
REMARK SMILES IDX 2 13 3 14 1 15
REMARK H PARENT
REMARK Flexibility Score: inf
ROOT
ATOM      1  C   UNL     1      12.774   6.964  16.958  1.00  0.00     0.015 C 
ATOM      2  C   UNL     1      11.669   6.054  17.515  1.00  0.00     0.008 C 
ATOM      3  C   UNL     1      12.247   4.704  17.953  1.00  0.00     0.008 C 
ATOM      4  C   UNL     1      13.434   4.830  18.963  1.00  0.00    -0.026 C 
ATOM      5  C   UNL     1      14.144   3.457  19.111  1.00  0.00     0.008 C 
ATOM      6  C   UNL     1      14.813   2.942  17.819  1.00  0.00     0.005 C 
ATOM      7  C   UNL     1      15.295   4.039  16.849  1.00  0.00     0.031 C 
ATOM      8  C   UNL     1      15.519   5.367  17.532  1.00  0.00    -0.074 C 
ATOM      9  C   UNL     1      16.638   6.066  17.272  1.00  0.00     0.008 C 
ATOM     10  C   UNL     1      14.498   5.904  18.529  1.00  0.00     0.021 C 
ATOM     11  C   UNL     1      13.845   7.218  18.032  1.00  0.00     0.016 C 
ATOM     12  C   UNL     1      12.863   5.208  20.355  1.00  0.00     0.012 C 
ENDROOT
BRANCH   1  13
ATOM     13  C   UNL     1      12.200   8.271  16.427  1.00  0.00    -0.077 C 
ATOM     14  C   UNL     1      13.119   9.331  15.875  1.00  0.00     0.039 C 
ATOM     15  C   UNL     1      10.877   8.510  16.439  1.00  0.00     0.008 C 
ENDBRANCH   1  13
TORSDOF 1
ENDMDL
MODEL 7
REMARK VINA RESULT:    -4.223      1.876      3.385
REMARK INTER + INTRA:          -4.656
REMARK INTER:                  -4.468
REMARK INTRA:                  -0.187
REMARK UNBOUND:                -0.185
REMARK SMILES C=C(C)[C@@H]1CC[C@@]2(C)CCCC(=C)[C@H]2C1
REMARK SMILES IDX 4 1 5 2 6 3 7 4 9 5 10 6 11 7 12 8 13 9 14 10 15 11 8 12
REMARK SMILES IDX 2 13 3 14 1 15
REMARK H PARENT
REMARK Flexibility Score: inf
ROOT
ATOM      1  C   UNL     1      14.431   5.661  17.354  1.00  0.00     0.015 C 
ATOM      2  C   UNL     1      13.157   5.092  17.997  1.00  0.00     0.008 C 
ATOM      3  C   UNL     1      12.125   6.200  18.230  1.00  0.00     0.008 C 
ATOM      4  C   UNL     1      11.787   7.021  16.942  1.00  0.00    -0.026 C 
ATOM      5  C   UNL     1      10.983   8.292  17.327  1.00  0.00     0.008 C 
ATOM      6  C   UNL     1      11.758   9.295  18.209  1.00  0.00     0.005 C 
ATOM      7  C   UNL     1      13.287   9.292  18.014  1.00  0.00     0.031 C 
ATOM      8  C   UNL     1      13.706   8.732  16.677  1.00  0.00    -0.074 C 
ATOM      9  C   UNL     1      14.634   9.379  15.949  1.00  0.00     0.008 C 
ATOM     10  C   UNL     1      13.067   7.457  16.139  1.00  0.00     0.021 C 
ATOM     11  C   UNL     1      14.099   6.310  16.000  1.00  0.00     0.016 C 
ATOM     12  C   UNL     1      10.878   6.158  16.028  1.00  0.00     0.012 C 
ENDROOT
BRANCH   1  13
ATOM     13  C   UNL     1      15.504   4.591  17.208  1.00  0.00    -0.077 C 
ATOM     14  C   UNL     1      15.325   3.246  17.864  1.00  0.00     0.039 C 
ATOM     15  C   UNL     1      16.625   4.816  16.500  1.00  0.00     0.008 C 
ENDBRANCH   1  13
TORSDOF 1
ENDMDL
MODEL 8
REMARK VINA RESULT:    -4.115      2.227      3.886
REMARK INTER + INTRA:          -4.541
REMARK INTER:                  -4.362
REMARK INTRA:                  -0.179
REMARK UNBOUND:                -0.185
REMARK SMILES C=C(C)[C@@H]1CC[C@@]2(C)CCCC(=C)[C@H]2C1
REMARK SMILES IDX 4 1 5 2 6 3 7 4 9 5 10 6 11 7 12 8 13 9 14 10 15 11 8 12
REMARK SMILES IDX 2 13 3 14 1 15
REMARK H PARENT
REMARK Flexibility Score: inf
ROOT
ATOM      1  C   UNL     1      14.437   6.567  17.376  1.00  0.00     0.015 C 
ATOM      2  C   UNL     1      14.817   6.851  18.837  1.00  0.00     0.008 C 
ATOM      3  C   UNL     1      13.763   7.737  19.510  1.00  0.00     0.008 C 
ATOM      4  C   UNL     1      12.310   7.167  19.407  1.00  0.00    -0.026 C 
ATOM      5  C   UNL     1      11.289   8.255  19.835  1.00  0.00     0.008 C 
ATOM      6  C   UNL     1      11.262   9.500  18.923  1.00  0.00     0.005 C 
ATOM      7  C   UNL     1      11.652   9.243  17.453  1.00  0.00     0.031 C 
ATOM      8  C   UNL     1      11.474   7.801  17.044  1.00  0.00    -0.074 C 
ATOM      9  C   UNL     1      10.875   7.513  15.875  1.00  0.00     0.008 C 
ATOM     10  C   UNL     1      11.945   6.675  17.958  1.00  0.00     0.021 C 
ATOM     11  C   UNL     1      13.081   5.845  17.309  1.00  0.00     0.016 C 
ATOM     12  C   UNL     1      12.169   5.984  20.400  1.00  0.00     0.012 C 
ENDROOT
BRANCH   1  13
ATOM     13  C   UNL     1      15.524   5.772  16.665  1.00  0.00    -0.077 C 
ATOM     14  C   UNL     1      16.962   6.214  16.749  1.00  0.00     0.039 C 
ATOM     15  C   UNL     1      15.231   4.669  15.951  1.00  0.00     0.008 C 
ENDBRANCH   1  13
TORSDOF 1
ENDMDL
