MODEL 1
REMARK VINA RESULT:    -3.974      0.000      0.000
REMARK INTER + INTRA:          -5.622
REMARK INTER:                  -5.485
REMARK INTRA:                  -0.137
REMARK UNBOUND:                -0.137
REMARK SMILES CCCCCCCCO
REMARK SMILES IDX 5 1 4 2 3 3 2 4 1 5 6 6 7 7 8 8 9 9
REMARK H PARENT 9 10
REMARK Flexibility Score: inf
ROOT
ATOM      1  C   UNL     1     116.970 116.922 115.843  1.00  0.00     0.000 C 
ENDROOT
BRANCH   1   2
ATOM      2  C   UNL     1     116.242 116.490 114.559  1.00  0.00    -0.000 C 
BRANCH   2   3
ATOM      3  C   UNL     1     116.958 116.967 113.283  1.00  0.00    -0.000 C 
BRANCH   3   4
ATOM      4  C   UNL     1     117.069 115.859 112.223  1.00  0.00    -0.003 C 
ATOM      5  C   UNL     1     115.709 115.322 111.782  1.00  0.00     0.004 C 
ENDBRANCH   3   4
ENDBRANCH   2   3
ENDBRANCH   1   2
BRANCH   1   6
ATOM      6  C   UNL     1     116.030 116.993 117.059  1.00  0.00     0.002 C 
BRANCH   6   7
ATOM      7  C   UNL     1     115.114 115.763 117.167  1.00  0.00     0.028 C 
BRANCH   7   8
ATOM      8  C   UNL     1     113.970 115.959 118.171  1.00  0.00     0.156 C 
BRANCH   8   9
ATOM      9  O   UNL     1     112.872 115.167 117.809  1.00  0.00    -0.396 OA
ATOM     10  H   UNL     1     112.915 114.347 118.368  1.00  0.00     0.210 HD
ENDBRANCH   8   9
ENDBRANCH   7   8
ENDBRANCH   6   7
ENDBRANCH   1   6
TORSDOF 7
ENDMDL
MODEL 2
REMARK VINA RESULT:    -3.958      3.180      3.648
REMARK INTER + INTRA:          -5.599
REMARK INTER:                  -5.439
REMARK INTRA:                  -0.160
REMARK UNBOUND:                -0.137
REMARK SMILES CCCCCCCCO
REMARK SMILES IDX 5 1 4 2 3 3 2 4 1 5 6 6 7 7 8 8 9 9
REMARK H PARENT 9 10
REMARK Flexibility Score: inf
ROOT
ATOM      1  C   UNL     1     116.214 116.132 116.212  1.00  0.00     0.000 C 
ENDROOT
BRANCH   1   2
ATOM      2  C   UNL     1     116.548 117.001 114.987  1.00  0.00    -0.000 C 
BRANCH   2   3
ATOM      3  C   UNL     1     116.575 116.193 113.678  1.00  0.00    -0.000 C 
BRANCH   3   4
ATOM      4  C   UNL     1     116.838 117.076 112.448  1.00  0.00    -0.003 C 
ATOM      5  C   UNL     1     115.554 117.591 111.802  1.00  0.00     0.004 C 
ENDBRANCH   3   4
ENDBRANCH   2   3
ENDBRANCH   1   2
BRANCH   1   6
ATOM      6  C   UNL     1     117.363 116.088 117.235  1.00  0.00     0.002 C 
BRANCH   6   7
ATOM      7  C   UNL     1     118.070 117.445 117.386  1.00  0.00     0.028 C 
BRANCH   7   8
ATOM      8  C   UNL     1     119.361 117.356 118.210  1.00  0.00     0.156 C 
BRANCH   8   9
ATOM      9  O   UNL     1     120.332 118.216 117.678  1.00  0.00    -0.396 OA
ATOM     10  H   UNL     1     119.884 119.088 117.521  1.00  0.00     0.210 HD
ENDBRANCH   8   9
ENDBRANCH   7   8
ENDBRANCH   6   7
ENDBRANCH   1   6
TORSDOF 7
ENDMDL
MODEL 3
REMARK VINA RESULT:    -3.937      2.250      2.388
REMARK INTER + INTRA:          -5.571
REMARK INTER:                  -5.435
REMARK INTRA:                  -0.135
REMARK UNBOUND:                -0.137
REMARK SMILES CCCCCCCCO
REMARK SMILES IDX 5 1 4 2 3 3 2 4 1 5 6 6 7 7 8 8 9 9
REMARK H PARENT 9 10
REMARK Flexibility Score: inf
ROOT
ATOM      1  C   UNL     1     116.636 117.014 115.858  1.00  0.00     0.000 C 
ENDROOT
BRANCH   1   2
ATOM      2  C   UNL     1     116.216 116.378 114.523  1.00  0.00    -0.000 C 
BRANCH   2   3
ATOM      3  C   UNL     1     116.969 116.975 113.320  1.00  0.00    -0.000 C 
BRANCH   3   4
ATOM      4  C   UNL     1     117.098 115.981 112.155  1.00  0.00    -0.003 C 
ATOM      5  C   UNL     1     115.774 115.307 111.800  1.00  0.00     0.004 C 
ENDBRANCH   3   4
ENDBRANCH   2   3
ENDBRANCH   1   2
BRANCH   1   6
ATOM      6  C   UNL     1     116.344 116.103 117.064  1.00  0.00     0.002 C 
BRANCH   6   7
ATOM      7  C   UNL     1     117.506 115.146 117.372  1.00  0.00     0.028 C 
BRANCH   7   8
ATOM      8  C   UNL     1     117.106 114.009 118.322  1.00  0.00     0.156 C 
BRANCH   8   9
ATOM      9  O   UNL     1     117.884 112.871 118.066  1.00  0.00    -0.396 OA
ATOM     10  H   UNL     1     118.455 113.088 117.284  1.00  0.00     0.210 HD
ENDBRANCH   8   9
ENDBRANCH   7   8
ENDBRANCH   6   7
ENDBRANCH   1   6
TORSDOF 7
ENDMDL
MODEL 4
REMARK VINA RESULT:    -3.936      3.160      5.367
REMARK INTER + INTRA:          -5.569
REMARK INTER:                  -5.421
REMARK INTRA:                  -0.148
REMARK UNBOUND:                -0.137
REMARK SMILES CCCCCCCCO
REMARK SMILES IDX 5 1 4 2 3 3 2 4 1 5 6 6 7 7 8 8 9 9
REMARK H PARENT 9 10
REMARK Flexibility Score: inf
ROOT
ATOM      1  C   UNL     1     116.365 116.920 114.753  1.00  0.00     0.000 C 
ENDROOT
BRANCH   1   2
ATOM      2  C   UNL     1     116.863 116.320 116.079  1.00  0.00    -0.000 C 
BRANCH   2   3
ATOM      3  C   UNL     1     117.233 117.397 117.114  1.00  0.00    -0.000 C 
BRANCH   3   4
ATOM      4  C   UNL     1     118.536 117.071 117.860  1.00  0.00    -0.003 C 
ATOM      5  C   UNL     1     119.575 118.186 117.753  1.00  0.00     0.004 C 
ENDBRANCH   3   4
ENDBRANCH   2   3
ENDBRANCH   1   2
BRANCH   1   6
ATOM      6  C   UNL     1     116.994 116.241 113.524  1.00  0.00     0.002 C 
BRANCH   6   7
ATOM      7  C   UNL     1     115.983 116.032 112.385  1.00  0.00     0.028 C 
BRANCH   7   8
ATOM      8  C   UNL     1     115.471 117.352 111.794  1.00  0.00     0.156 C 
BRANCH   8   9
ATOM      9  O   UNL     1     116.551 118.166 111.426  1.00  0.00    -0.396 OA
ATOM     10  H   UNL     1     117.306 117.557 111.215  1.00  0.00     0.210 HD
ENDBRANCH   8   9
ENDBRANCH   7   8
ENDBRANCH   6   7
ENDBRANCH   1   6
TORSDOF 7
ENDMDL
MODEL 5
REMARK VINA RESULT:    -3.933      2.670      5.268
REMARK INTER + INTRA:          -5.564
REMARK INTER:                  -5.413
REMARK INTRA:                  -0.151
REMARK UNBOUND:                -0.137
REMARK SMILES CCCCCCCCO
REMARK SMILES IDX 5 1 4 2 3 3 2 4 1 5 6 6 7 7 8 8 9 9
REMARK H PARENT 9 10
REMARK Flexibility Score: inf
ROOT
ATOM      1  C   UNL     1     116.809 116.303 114.594  1.00  0.00     0.000 C 
ENDROOT
BRANCH   1   2
ATOM      2  C   UNL     1     116.398 116.957 115.923  1.00  0.00    -0.000 C 
BRANCH   2   3
ATOM      3  C   UNL     1     116.125 115.924 117.031  1.00  0.00    -0.000 C 
BRANCH   3   4
ATOM      4  C   UNL     1     114.832 116.222 117.807  1.00  0.00    -0.003 C 
ATOM      5  C   UNL     1     113.811 115.089 117.715  1.00  0.00     0.004 C 
ENDBRANCH   3   4
ENDBRANCH   2   3
ENDBRANCH   1   2
BRANCH   1   6
ATOM      6  C   UNL     1     116.229 117.035 113.370  1.00  0.00     0.002 C 
BRANCH   6   7
ATOM      7  C   UNL     1     117.198 117.046 112.177  1.00  0.00     0.028 C 
BRANCH   7   8
ATOM      8  C   UNL     1     117.675 115.641 111.784  1.00  0.00     0.156 C 
BRANCH   8   9
ATOM      9  O   UNL     1     116.588 114.866 111.355  1.00  0.00    -0.396 OA
ATOM     10  H   UNL     1     116.969 114.050 110.936  1.00  0.00     0.210 HD
ENDBRANCH   8   9
ENDBRANCH   7   8
ENDBRANCH   6   7
ENDBRANCH   1   6
TORSDOF 7
ENDMDL
MODEL 6
REMARK VINA RESULT:    -3.925      2.175      2.441
REMARK INTER + INTRA:          -5.554
REMARK INTER:                  -5.426
REMARK INTRA:                  -0.128
REMARK UNBOUND:                -0.137
REMARK SMILES CCCCCCCCO
REMARK SMILES IDX 5 1 4 2 3 3 2 4 1 5 6 6 7 7 8 8 9 9
REMARK H PARENT 9 10
REMARK Flexibility Score: inf
ROOT
ATOM      1  C   UNL     1     116.935 116.577 115.823  1.00  0.00     0.000 C 
ENDROOT
BRANCH   1   2
ATOM      2  C   UNL     1     116.256 116.349 114.462  1.00  0.00    -0.000 C 
BRANCH   2   3
ATOM      3  C   UNL     1     117.016 117.016 113.302  1.00  0.00    -0.000 C 
BRANCH   3   4
ATOM      4  C   UNL     1     117.149 116.093 112.080  1.00  0.00    -0.003 C 
ATOM      5  C   UNL     1     115.845 115.381 111.728  1.00  0.00     0.004 C 
ENDBRANCH   3   4
ENDBRANCH   2   3
ENDBRANCH   1   2
BRANCH   1   6
ATOM      6  C   UNL     1     115.929 116.921 116.935  1.00  0.00     0.002 C 
BRANCH   6   7
ATOM      7  C   UNL     1     116.280 118.229 117.663  1.00  0.00     0.028 C 
BRANCH   7   8
ATOM      8  C   UNL     1     115.079 119.173 117.803  1.00  0.00     0.156 C 
BRANCH   8   9
ATOM      9  O   UNL     1     115.463 120.344 118.472  1.00  0.00    -0.396 OA
ATOM     10  H   UNL     1     116.393 120.199 118.788  1.00  0.00     0.210 HD
ENDBRANCH   8   9
ENDBRANCH   7   8
ENDBRANCH   6   7
ENDBRANCH   1   6
TORSDOF 7
ENDMDL
MODEL 7
REMARK VINA RESULT:    -3.915      2.887      5.243
REMARK INTER + INTRA:          -5.540
REMARK INTER:                  -5.373
REMARK INTRA:                  -0.168
REMARK UNBOUND:                -0.137
REMARK SMILES CCCCCCCCO
REMARK SMILES IDX 5 1 4 2 3 3 2 4 1 5 6 6 7 7 8 8 9 9
REMARK H PARENT 9 10
REMARK Flexibility Score: inf
ROOT
ATOM      1  C   UNL     1     116.823 116.254 114.632  1.00  0.00     0.000 C 
ENDROOT
BRANCH   1   2
ATOM      2  C   UNL     1     116.452 116.967 115.944  1.00  0.00    -0.000 C 
BRANCH   2   3
ATOM      3  C   UNL     1     116.256 115.987 117.115  1.00  0.00    -0.000 C 
BRANCH   3   4
ATOM      4  C   UNL     1     117.583 115.606 117.790  1.00  0.00    -0.003 C 
ATOM      5  C   UNL     1     117.926 114.126 117.632  1.00  0.00     0.004 C 
ENDBRANCH   3   4
ENDBRANCH   2   3
ENDBRANCH   1   2
BRANCH   1   6
ATOM      6  C   UNL     1     116.212 116.937 113.396  1.00  0.00     0.002 C 
BRANCH   6   7
ATOM      7  C   UNL     1     117.233 117.122 112.261  1.00  0.00     0.028 C 
BRANCH   7   8
ATOM      8  C   UNL     1     117.736 115.790 111.690  1.00  0.00     0.156 C 
BRANCH   8   9
ATOM      9  O   UNL     1     116.653 114.941 111.423  1.00  0.00    -0.396 OA
ATOM     10  H   UNL     1     115.854 115.359 111.840  1.00  0.00     0.210 HD
ENDBRANCH   8   9
ENDBRANCH   7   8
ENDBRANCH   6   7
ENDBRANCH   1   6
TORSDOF 7
ENDMDL
MODEL 8
REMARK VINA RESULT:    -3.907      2.911      5.281
REMARK INTER + INTRA:          -5.529
REMARK INTER:                  -5.348
REMARK INTRA:                  -0.180
REMARK UNBOUND:                -0.137
REMARK SMILES CCCCCCCCO
REMARK SMILES IDX 5 1 4 2 3 3 2 4 1 5 6 6 7 7 8 8 9 9
REMARK H PARENT 9 10
REMARK Flexibility Score: inf
ROOT
ATOM      1  C   UNL     1     116.381 116.911 114.748  1.00  0.00     0.000 C 
ENDROOT
BRANCH   1   2
ATOM      2  C   UNL     1     116.826 116.225 116.050  1.00  0.00    -0.000 C 
BRANCH   2   3
ATOM      3  C   UNL     1     116.899 117.201 117.238  1.00  0.00    -0.000 C 
BRANCH   3   4
ATOM      4  C   UNL     1     115.509 117.648 117.718  1.00  0.00    -0.003 C 
ATOM      5  C   UNL     1     115.322 119.163 117.666  1.00  0.00     0.004 C 
ENDBRANCH   3   4
ENDBRANCH   2   3
ENDBRANCH   1   2
BRANCH   1   6
ATOM      6  C   UNL     1     117.013 116.273 113.498  1.00  0.00     0.002 C 
BRANCH   6   7
ATOM      7  C   UNL     1     115.983 116.009 112.388  1.00  0.00     0.028 C 
BRANCH   7   8
ATOM      8  C   UNL     1     115.460 117.299 111.742  1.00  0.00     0.156 C 
BRANCH   8   9
ATOM      9  O   UNL     1     116.526 118.168 111.469  1.00  0.00    -0.396 OA
ATOM     10  H   UNL     1     116.135 118.968 111.030  1.00  0.00     0.210 HD
ENDBRANCH   8   9
ENDBRANCH   7   8
ENDBRANCH   6   7
ENDBRANCH   1   6
TORSDOF 7
ENDMDL
MODEL 9
REMARK VINA RESULT:    -3.817      2.050      2.248
REMARK INTER + INTRA:          -5.405
REMARK INTER:                  -5.228
REMARK INTRA:                  -0.177
REMARK UNBOUND:                -0.137
REMARK SMILES CCCCCCCCO
REMARK SMILES IDX 5 1 4 2 3 3 2 4 1 5 6 6 7 7 8 8 9 9
REMARK H PARENT 9 10
REMARK Flexibility Score: inf
ROOT
ATOM      1  C   UNL     1     116.335 116.879 115.002  1.00  0.00     0.000 C 
ENDROOT
BRANCH   1   2
ATOM      2  C   UNL     1     117.046 116.451 113.706  1.00  0.00    -0.000 C 
BRANCH   2   3
ATOM      3  C   UNL     1     116.663 117.331 112.503  1.00  0.00    -0.000 C 
BRANCH   3   4
ATOM      4  C   UNL     1     115.508 116.736 111.683  1.00  0.00    -0.003 C 
ATOM      5  C   UNL     1     115.470 115.209 111.732  1.00  0.00     0.004 C 
ENDBRANCH   3   4
ENDBRANCH   2   3
ENDBRANCH   1   2
BRANCH   1   6
ATOM      6  C   UNL     1     117.071 116.400 116.265  1.00  0.00     0.002 C 
BRANCH   6   7
ATOM      7  C   UNL     1     116.110 115.857 117.336  1.00  0.00     0.028 C 
BRANCH   7   8
ATOM      8  C   UNL     1     116.715 114.706 118.150  1.00  0.00     0.156 C 
BRANCH   8   9
ATOM      9  O   UNL     1     117.929 114.299 117.581  1.00  0.00    -0.396 OA
ATOM     10  H   UNL     1     118.010 114.775 116.713  1.00  0.00     0.210 HD
ENDBRANCH   8   9
ENDBRANCH   7   8
ENDBRANCH   6   7
ENDBRANCH   1   6
TORSDOF 7
ENDMDL
