MODEL 1
REMARK VINA RESULT:    -5.334      0.000      0.000
REMARK INTER + INTRA:          -6.739
REMARK INTER:                  -6.425
REMARK INTRA:                  -0.314
REMARK UNBOUND:                -0.314
REMARK SMILES Oc1cc(O)c2c(c1)O[C@@H](c1ccc(O)c(O)c1)[C@H](O)C2
REMARK SMILES IDX 21 1 19 2 10 3 9 4 7 5 8 6 2 7 3 8 4 9 6 10 20 11 11 13
REMARK SMILES IDX 18 14 12 15 16 16 13 17 14 18 17 19 15 21 5 23 1 25
REMARK H PARENT 20 12 17 20 15 22 5 24 1 26
REMARK Flexibility Score: inf
ROOT
ATOM      1  C   UNL     1     154.585 154.276 140.239  1.00  0.00     0.079 C 
ATOM      2  C   UNL     1     153.444 155.306 140.330  1.00  0.00     0.164 C 
ATOM      3  C   UNL     1     153.228 155.962 138.954  1.00  0.00     0.232 C 
ATOM      4  O   UNL     1     152.973 154.962 137.966  1.00  0.00    -0.482 OA
ATOM      5  C   UNL     1     153.611 153.716 137.977  1.00  0.00     0.131 A 
ATOM      6  C   UNL     1     153.446 152.852 136.892  1.00  0.00     0.093 A 
ATOM      7  C   UNL     1     154.076 151.601 136.884  1.00  0.00     0.122 A 
ATOM      8  C   UNL     1     154.874 151.218 137.965  1.00  0.00     0.092 A 
ATOM      9  C   UNL     1     155.043 152.075 139.063  1.00  0.00     0.126 A 
ATOM     10  C   UNL     1     154.394 153.325 139.082  1.00  0.00     0.039 A 
ENDROOT
BRANCH   2  11
ATOM     11  O   UNL     1     153.767 156.290 141.279  1.00  0.00    -0.389 OA
ATOM     12  H   UNL     1     154.499 155.919 141.838  1.00  0.00     0.211 HD
ENDBRANCH   2  11
BRANCH   3  13
ATOM     13  C   UNL     1     152.077 156.941 138.992  1.00  0.00    -0.001 A 
ATOM     14  C   UNL     1     150.861 156.590 139.605  1.00  0.00     0.057 A 
ATOM     15  C   UNL     1     152.227 158.230 138.457  1.00  0.00     0.012 A 
ATOM     16  C   UNL     1     149.804 157.509 139.664  1.00  0.00     0.157 A 
ATOM     17  C   UNL     1     151.173 159.146 138.515  1.00  0.00     0.050 A 
ATOM     18  C   UNL     1     149.959 158.788 139.117  1.00  0.00     0.157 A 
BRANCH  16  19
ATOM     19  O   UNL     1     148.596 157.157 140.267  1.00  0.00    -0.504 OA
ATOM     20  H   UNL     1     147.708 157.317 139.807  1.00  0.00     0.293 HD
ENDBRANCH  16  19
BRANCH  18  21
ATOM     21  O   UNL     1     148.905 159.699 139.176  1.00  0.00    -0.504 OA
ATOM     22  H   UNL     1     148.916 160.558 138.641  1.00  0.00     0.293 HD
ENDBRANCH  18  21
ENDBRANCH   3  13
BRANCH   9  23
ATOM     23  O   UNL     1     155.853 151.690 140.130  1.00  0.00    -0.507 OA
ATOM     24  H   UNL     1     155.925 150.721 140.420  1.00  0.00     0.293 HD
ENDBRANCH   9  23
BRANCH   7  25
ATOM     25  O   UNL     1     153.918 150.735 135.805  1.00  0.00    -0.508 OA
ATOM     26  H   UNL     1     153.637 151.071 134.891  1.00  0.00     0.293 HD
ENDBRANCH   7  25
TORSDOF 6
ENDMDL
MODEL 2
REMARK VINA RESULT:    -5.204      1.918      3.412
REMARK INTER + INTRA:          -6.583
REMARK INTER:                  -6.223
REMARK INTRA:                  -0.360
REMARK UNBOUND:                -0.314
REMARK SMILES Oc1cc(O)c2c(c1)O[C@@H](c1ccc(O)c(O)c1)[C@H](O)C2
REMARK SMILES IDX 21 1 19 2 10 3 9 4 7 5 8 6 2 7 3 8 4 9 6 10 20 11 11 13
REMARK SMILES IDX 18 14 12 15 16 16 13 17 14 18 17 19 15 21 5 23 1 25
REMARK H PARENT 20 12 17 20 15 22 5 24 1 26
REMARK Flexibility Score: inf
ROOT
ATOM      1  C   UNL     1     154.090 152.834 139.743  1.00  0.00     0.079 C 
ATOM      2  C   UNL     1     153.147 153.867 139.098  1.00  0.00     0.164 C 
ATOM      3  C   UNL     1     152.943 155.053 140.058  1.00  0.00     0.232 C 
ATOM      4  O   UNL     1     154.205 155.622 140.413  1.00  0.00    -0.482 OA
ATOM      5  C   UNL     1     155.351 154.843 140.608  1.00  0.00     0.131 A 
ATOM      6  C   UNL     1     156.507 155.441 141.117  1.00  0.00     0.093 A 
ATOM      7  C   UNL     1     157.664 154.680 141.320  1.00  0.00     0.122 A 
ATOM      8  C   UNL     1     157.662 153.317 141.012  1.00  0.00     0.092 A 
ATOM      9  C   UNL     1     156.509 152.706 140.495  1.00  0.00     0.126 A 
ATOM     10  C   UNL     1     155.350 153.475 140.271  1.00  0.00     0.039 A 
ENDROOT
BRANCH   2  11
ATOM     11  O   UNL     1     151.909 153.268 138.814  1.00  0.00    -0.389 OA
ATOM     12  H   UNL     1     152.061 152.287 138.805  1.00  0.00     0.211 HD
ENDBRANCH   2  11
BRANCH   3  13
ATOM     13  C   UNL     1     152.066 156.114 139.434  1.00  0.00    -0.001 A 
ATOM     14  C   UNL     1     150.938 156.601 140.117  1.00  0.00     0.057 A 
ATOM     15  C   UNL     1     152.399 156.662 138.185  1.00  0.00     0.012 A 
ATOM     16  C   UNL     1     150.142 157.606 139.550  1.00  0.00     0.157 A 
ATOM     17  C   UNL     1     151.605 157.663 137.618  1.00  0.00     0.050 A 
ATOM     18  C   UNL     1     150.475 158.137 138.298  1.00  0.00     0.157 A 
BRANCH  16  19
ATOM     19  O   UNL     1     149.019 158.082 140.226  1.00  0.00    -0.504 OA
ATOM     20  H   UNL     1     148.513 158.898 139.904  1.00  0.00     0.293 HD
ENDBRANCH  16  19
BRANCH  18  21
ATOM     21  O   UNL     1     149.681 159.135 137.736  1.00  0.00    -0.504 OA
ATOM     22  H   UNL     1     148.948 158.918 137.072  1.00  0.00     0.293 HD
ENDBRANCH  18  21
ENDBRANCH   3  13
BRANCH   9  23
ATOM     23  O   UNL     1     156.512 151.343 140.205  1.00  0.00    -0.507 OA
ATOM     24  H   UNL     1     157.040 150.967 139.425  1.00  0.00     0.293 HD
ENDBRANCH   9  23
BRANCH   7  25
ATOM     25  O   UNL     1     158.819 155.267 141.830  1.00  0.00    -0.508 OA
ATOM     26  H   UNL     1     159.121 155.104 142.783  1.00  0.00     0.293 HD
ENDBRANCH   7  25
TORSDOF 6
ENDMDL
MODEL 3
REMARK VINA RESULT:    -5.154      3.242      4.639
REMARK INTER + INTRA:          -6.522
REMARK INTER:                  -6.147
REMARK INTRA:                  -0.375
REMARK UNBOUND:                -0.314
REMARK SMILES Oc1cc(O)c2c(c1)O[C@@H](c1ccc(O)c(O)c1)[C@H](O)C2
REMARK SMILES IDX 21 1 19 2 10 3 9 4 7 5 8 6 2 7 3 8 4 9 6 10 20 11 11 13
REMARK SMILES IDX 18 14 12 15 16 16 13 17 14 18 17 19 15 21 5 23 1 25
REMARK H PARENT 20 12 17 20 15 22 5 24 1 26
REMARK Flexibility Score: inf
ROOT
ATOM      1  C   UNL     1     154.507 156.193 137.104  1.00  0.00     0.079 C 
ATOM      2  C   UNL     1     153.437 156.261 138.210  1.00  0.00     0.164 C 
ATOM      3  C   UNL     1     153.035 157.727 138.452  1.00  0.00     0.232 C 
ATOM      4  O   UNL     1     152.588 158.324 137.233  1.00  0.00    -0.482 OA
ATOM      5  C   UNL     1     153.168 158.026 135.995  1.00  0.00     0.131 A 
ATOM      6  C   UNL     1     152.800 158.767 134.869  1.00  0.00     0.093 A 
ATOM      7  C   UNL     1     153.369 158.485 133.622  1.00  0.00     0.122 A 
ATOM      8  C   UNL     1     154.310 157.460 133.503  1.00  0.00     0.092 A 
ATOM      9  C   UNL     1     154.685 156.705 134.625  1.00  0.00     0.126 A 
ATOM     10  C   UNL     1     154.098 156.973 135.877  1.00  0.00     0.039 A 
ENDROOT
BRANCH   2  11
ATOM     11  O   UNL     1     153.945 155.707 139.396  1.00  0.00    -0.389 OA
ATOM     12  H   UNL     1     154.465 154.902 139.136  1.00  0.00     0.211 HD
ENDBRANCH   2  11
BRANCH   3  13
ATOM     13  C   UNL     1     151.945 157.828 139.494  1.00  0.00    -0.001 A 
ATOM     14  C   UNL     1     150.707 157.192 139.297  1.00  0.00     0.057 A 
ATOM     15  C   UNL     1     152.176 158.519 140.695  1.00  0.00     0.012 A 
ATOM     16  C   UNL     1     149.706 157.262 140.277  1.00  0.00     0.157 A 
ATOM     17  C   UNL     1     151.178 158.590 141.672  1.00  0.00     0.050 A 
ATOM     18  C   UNL     1     149.942 157.963 141.465  1.00  0.00     0.157 A 
BRANCH  16  19
ATOM     19  O   UNL     1     148.477 156.635 140.075  1.00  0.00    -0.504 OA
ATOM     20  H   UNL     1     147.603 157.102 140.288  1.00  0.00     0.293 HD
ENDBRANCH  16  19
BRANCH  18  21
ATOM     21  O   UNL     1     148.945 158.033 142.437  1.00  0.00    -0.504 OA
ATOM     22  H   UNL     1     148.890 158.808 143.086  1.00  0.00     0.293 HD
ENDBRANCH  18  21
ENDBRANCH   3  13
BRANCH   9  23
ATOM     23  O   UNL     1     155.636 155.693 134.500  1.00  0.00    -0.507 OA
ATOM     24  H   UNL     1     155.966 155.173 135.304  1.00  0.00     0.293 HD
ENDBRANCH   9  23
BRANCH   7  25
ATOM     25  O   UNL     1     153.009 159.221 132.496  1.00  0.00    -0.508 OA
ATOM     26  H   UNL     1     153.702 159.556 131.836  1.00  0.00     0.293 HD
ENDBRANCH   7  25
TORSDOF 6
ENDMDL
MODEL 4
REMARK VINA RESULT:    -5.150      2.098      3.098
REMARK INTER + INTRA:          -6.518
REMARK INTER:                  -6.169
REMARK INTRA:                  -0.349
REMARK UNBOUND:                -0.314
REMARK SMILES Oc1cc(O)c2c(c1)O[C@@H](c1ccc(O)c(O)c1)[C@H](O)C2
REMARK SMILES IDX 21 1 19 2 10 3 9 4 7 5 8 6 2 7 3 8 4 9 6 10 20 11 11 13
REMARK SMILES IDX 18 14 12 15 16 16 13 17 14 18 17 19 15 21 5 23 1 25
REMARK H PARENT 20 12 17 20 15 22 5 24 1 26
REMARK Flexibility Score: inf
ROOT
ATOM      1  C   UNL     1     153.319 154.847 137.641  1.00  0.00     0.079 C 
ATOM      2  C   UNL     1     152.808 156.060 138.440  1.00  0.00     0.164 C 
ATOM      3  C   UNL     1     152.431 155.620 139.867  1.00  0.00     0.232 C 
ATOM      4  O   UNL     1     153.548 154.990 140.499  1.00  0.00    -0.482 OA
ATOM      5  C   UNL     1     154.440 154.169 139.800  1.00  0.00     0.131 A 
ATOM      6  C   UNL     1     155.407 153.451 140.508  1.00  0.00     0.093 A 
ATOM      7  C   UNL     1     156.309 152.623 139.829  1.00  0.00     0.122 A 
ATOM      8  C   UNL     1     156.240 152.515 138.438  1.00  0.00     0.092 A 
ATOM      9  C   UNL     1     155.277 153.235 137.715  1.00  0.00     0.126 A 
ATOM     10  C   UNL     1     154.382 154.084 138.395  1.00  0.00     0.039 A 
ENDROOT
BRANCH   2  11
ATOM     11  O   UNL     1     151.684 156.610 137.802  1.00  0.00    -0.389 OA
ATOM     12  H   UNL     1     150.891 156.335 138.332  1.00  0.00     0.211 HD
ENDBRANCH   2  11
BRANCH   3  13
ATOM     13  C   UNL     1     151.977 156.798 140.698  1.00  0.00    -0.001 A 
ATOM     14  C   UNL     1     150.624 156.946 141.046  1.00  0.00     0.057 A 
ATOM     15  C   UNL     1     152.913 157.731 141.173  1.00  0.00     0.012 A 
ATOM     16  C   UNL     1     150.208 158.024 141.842  1.00  0.00     0.157 A 
ATOM     17  C   UNL     1     152.499 158.806 141.965  1.00  0.00     0.050 A 
ATOM     18  C   UNL     1     151.147 158.956 142.300  1.00  0.00     0.157 A 
BRANCH  16  19
ATOM     19  O   UNL     1     148.864 158.173 142.181  1.00  0.00    -0.504 OA
ATOM     20  H   UNL     1     148.514 157.904 143.093  1.00  0.00     0.293 HD
ENDBRANCH  16  19
BRANCH  18  21
ATOM     21  O   UNL     1     150.731 160.027 143.090  1.00  0.00    -0.504 OA
ATOM     22  H   UNL     1     151.395 160.652 143.528  1.00  0.00     0.293 HD
ENDBRANCH  18  21
ENDBRANCH   3  13
BRANCH   9  23
ATOM     23  O   UNL     1     155.207 153.110 136.328  1.00  0.00    -0.507 OA
ATOM     24  H   UNL     1     154.331 152.914 135.857  1.00  0.00     0.293 HD
ENDBRANCH   9  23
BRANCH   7  25
ATOM     25  O   UNL     1     157.275 151.902 140.527  1.00  0.00    -0.508 OA
ATOM     26  H   UNL     1     158.231 152.230 140.604  1.00  0.00     0.293 HD
ENDBRANCH   7  25
TORSDOF 6
ENDMDL
MODEL 5
REMARK VINA RESULT:    -5.138     15.128     17.424
REMARK INTER + INTRA:          -6.504
REMARK INTER:                  -6.487
REMARK INTRA:                  -0.017
REMARK UNBOUND:                -0.314
REMARK SMILES Oc1cc(O)c2c(c1)O[C@@H](c1ccc(O)c(O)c1)[C@H](O)C2
REMARK SMILES IDX 21 1 19 2 10 3 9 4 7 5 8 6 2 7 3 8 4 9 6 10 20 11 11 13
REMARK SMILES IDX 18 14 12 15 16 16 13 17 14 18 17 19 15 21 5 23 1 25
REMARK H PARENT 20 12 17 20 15 22 5 24 1 26
REMARK Flexibility Score: inf
ROOT
ATOM      1  C   UNL     1     165.067 156.906 127.632  1.00  0.00     0.079 C 
ATOM      2  C   UNL     1     164.703 155.420 127.454  1.00  0.00     0.164 C 
ATOM      3  C   UNL     1     163.172 155.255 127.476  1.00  0.00     0.232 C 
ATOM      4  O   UNL     1     162.573 156.080 126.475  1.00  0.00    -0.482 OA
ATOM      5  C   UNL     1     163.066 157.351 126.157  1.00  0.00     0.131 A 
ATOM      6  C   UNL     1     162.336 158.172 125.293  1.00  0.00     0.093 A 
ATOM      7  C   UNL     1     162.811 159.447 124.962  1.00  0.00     0.122 A 
ATOM      8  C   UNL     1     164.019 159.899 125.500  1.00  0.00     0.092 A 
ATOM      9  C   UNL     1     164.763 159.082 126.364  1.00  0.00     0.126 A 
ATOM     10  C   UNL     1     164.297 157.792 126.682  1.00  0.00     0.039 A 
ENDROOT
BRANCH   2  11
ATOM     11  O   UNL     1     165.276 154.663 128.489  1.00  0.00    -0.389 OA
ATOM     12  H   UNL     1     165.139 153.709 128.254  1.00  0.00     0.211 HD
ENDBRANCH   2  11
BRANCH   3  13
ATOM     13  C   UNL     1     162.776 153.814 127.248  1.00  0.00    -0.001 A 
ATOM     14  C   UNL     1     163.679 152.910 126.663  1.00  0.00     0.057 A 
ATOM     15  C   UNL     1     161.517 153.353 127.664  1.00  0.00     0.012 A 
ATOM     16  C   UNL     1     163.321 151.567 126.477  1.00  0.00     0.157 A 
ATOM     17  C   UNL     1     161.159 152.014 127.479  1.00  0.00     0.050 A 
ATOM     18  C   UNL     1     162.058 151.119 126.884  1.00  0.00     0.157 A 
BRANCH  16  19
ATOM     19  O   UNL     1     164.216 150.673 125.890  1.00  0.00    -0.504 OA
ATOM     20  H   UNL     1     164.076 149.671 125.944  1.00  0.00     0.293 HD
ENDBRANCH  16  19
BRANCH  18  21
ATOM     21  O   UNL     1     161.705 149.783 126.697  1.00  0.00    -0.504 OA
ATOM     22  H   UNL     1     160.975 149.346 127.247  1.00  0.00     0.293 HD
ENDBRANCH  18  21
ENDBRANCH   3  13
BRANCH   9  23
ATOM     23  O   UNL     1     165.960 159.548 126.907  1.00  0.00    -0.507 OA
ATOM     24  H   UNL     1     166.038 159.794 127.887  1.00  0.00     0.293 HD
ENDBRANCH   9  23
BRANCH   7  25
ATOM     25  O   UNL     1     162.088 160.272 124.104  1.00  0.00    -0.508 OA
ATOM     26  H   UNL     1     161.090 160.155 123.970  1.00  0.00     0.293 HD
ENDBRANCH   7  25
TORSDOF 6
ENDMDL
MODEL 6
REMARK VINA RESULT:    -5.127      4.726      6.862
REMARK INTER + INTRA:          -6.489
REMARK INTER:                  -6.173
REMARK INTRA:                  -0.317
REMARK UNBOUND:                -0.314
REMARK SMILES Oc1cc(O)c2c(c1)O[C@@H](c1ccc(O)c(O)c1)[C@H](O)C2
REMARK SMILES IDX 21 1 19 2 10 3 9 4 7 5 8 6 2 7 3 8 4 9 6 10 20 11 11 13
REMARK SMILES IDX 18 14 12 15 16 16 13 17 14 18 17 19 15 21 5 23 1 25
REMARK H PARENT 20 12 17 20 15 22 5 24 1 26
REMARK Flexibility Score: inf
ROOT
ATOM      1  C   UNL     1     153.074 158.865 133.334  1.00  0.00     0.079 C 
ATOM      2  C   UNL     1     152.012 158.910 134.448  1.00  0.00     0.164 C 
ATOM      3  C   UNL     1     152.607 158.352 135.754  1.00  0.00     0.232 C 
ATOM      4  O   UNL     1     153.789 159.075 136.106  1.00  0.00    -0.482 OA
ATOM      5  C   UNL     1     154.696 159.541 135.148  1.00  0.00     0.131 A 
ATOM      6  C   UNL     1     155.911 160.090 135.565  1.00  0.00     0.093 A 
ATOM      7  C   UNL     1     156.833 160.562 134.623  1.00  0.00     0.122 A 
ATOM      8  C   UNL     1     156.536 160.482 133.260  1.00  0.00     0.092 A 
ATOM      9  C   UNL     1     155.317 159.937 132.829  1.00  0.00     0.126 A 
ATOM     10  C   UNL     1     154.380 159.481 133.776  1.00  0.00     0.039 A 
ENDROOT
BRANCH   2  11
ATOM     11  O   UNL     1     150.896 158.145 134.072  1.00  0.00    -0.389 OA
ATOM     12  H   UNL     1     150.227 158.239 134.799  1.00  0.00     0.211 HD
ENDBRANCH   2  11
BRANCH   3  13
ATOM     13  C   UNL     1     151.609 158.432 136.886  1.00  0.00    -0.001 A 
ATOM     14  C   UNL     1     151.428 157.344 137.757  1.00  0.00     0.057 A 
ATOM     15  C   UNL     1     150.887 159.616 137.109  1.00  0.00     0.012 A 
ATOM     16  C   UNL     1     150.522 157.430 138.824  1.00  0.00     0.157 A 
ATOM     17  C   UNL     1     149.983 159.701 138.172  1.00  0.00     0.050 A 
ATOM     18  C   UNL     1     149.797 158.610 139.031  1.00  0.00     0.157 A 
BRANCH  16  19
ATOM     19  O   UNL     1     150.339 156.347 139.683  1.00  0.00    -0.504 OA
ATOM     20  H   UNL     1     151.125 155.838 140.069  1.00  0.00     0.293 HD
ENDBRANCH  16  19
BRANCH  18  21
ATOM     21  O   UNL     1     148.896 158.692 140.091  1.00  0.00    -0.504 OA
ATOM     22  H   UNL     1     147.966 158.298 140.029  1.00  0.00     0.293 HD
ENDBRANCH  18  21
ENDBRANCH   3  13
BRANCH   9  23
ATOM     23  O   UNL     1     155.037 159.848 131.466  1.00  0.00    -0.507 OA
ATOM     24  H   UNL     1     155.774 159.758 130.776  1.00  0.00     0.293 HD
ENDBRANCH   9  23
BRANCH   7  25
ATOM     25  O   UNL     1     158.048 161.108 135.031  1.00  0.00    -0.508 OA
ATOM     26  H   UNL     1     158.150 161.562 135.931  1.00  0.00     0.293 HD
ENDBRANCH   7  25
TORSDOF 6
ENDMDL
MODEL 7
REMARK VINA RESULT:    -5.109      1.961      2.549
REMARK INTER + INTRA:          -6.468
REMARK INTER:                  -6.143
REMARK INTRA:                  -0.326
REMARK UNBOUND:                -0.314
REMARK SMILES Oc1cc(O)c2c(c1)O[C@@H](c1ccc(O)c(O)c1)[C@H](O)C2
REMARK SMILES IDX 21 1 19 2 10 3 9 4 7 5 8 6 2 7 3 8 4 9 6 10 20 11 11 13
REMARK SMILES IDX 18 14 12 15 16 16 13 17 14 18 17 19 15 21 5 23 1 25
REMARK H PARENT 20 12 17 20 15 22 5 24 1 26
REMARK Flexibility Score: inf
ROOT
ATOM      1  C   UNL     1     154.883 156.339 137.157  1.00  0.00     0.079 C 
ATOM      2  C   UNL     1     154.076 156.927 138.329  1.00  0.00     0.164 C 
ATOM      3  C   UNL     1     152.614 156.451 138.242  1.00  0.00     0.232 C 
ATOM      4  O   UNL     1     152.562 155.023 138.213  1.00  0.00    -0.482 OA
ATOM      5  C   UNL     1     153.517 154.250 137.544  1.00  0.00     0.131 A 
ATOM      6  C   UNL     1     153.315 152.874 137.411  1.00  0.00     0.093 A 
ATOM      7  C   UNL     1     154.259 152.083 136.745  1.00  0.00     0.122 A 
ATOM      8  C   UNL     1     155.406 152.673 136.210  1.00  0.00     0.092 A 
ATOM      9  C   UNL     1     155.623 154.053 136.341  1.00  0.00     0.126 A 
ATOM     10  C   UNL     1     154.685 154.848 137.029  1.00  0.00     0.039 A 
ENDROOT
BRANCH   2  11
ATOM     11  O   UNL     1     154.121 158.330 138.281  1.00  0.00    -0.389 OA
ATOM     12  H   UNL     1     153.675 158.601 137.437  1.00  0.00     0.211 HD
ENDBRANCH   2  11
BRANCH   3  13
ATOM     13  C   UNL     1     151.803 156.964 139.409  1.00  0.00    -0.001 A 
ATOM     14  C   UNL     1     150.533 157.529 139.203  1.00  0.00     0.057 A 
ATOM     15  C   UNL     1     152.292 156.836 140.720  1.00  0.00     0.012 A 
ATOM     16  C   UNL     1     149.769 157.978 140.290  1.00  0.00     0.157 A 
ATOM     17  C   UNL     1     151.531 157.285 141.804  1.00  0.00     0.050 A 
ATOM     18  C   UNL     1     150.270 157.858 141.592  1.00  0.00     0.157 A 
BRANCH  16  19
ATOM     19  O   UNL     1     148.512 158.544 140.083  1.00  0.00    -0.504 OA
ATOM     20  H   UNL     1     148.063 159.112 140.792  1.00  0.00     0.293 HD
ENDBRANCH  16  19
BRANCH  18  21
ATOM     21  O   UNL     1     149.510 158.307 142.671  1.00  0.00    -0.504 OA
ATOM     22  H   UNL     1     148.499 158.346 142.627  1.00  0.00     0.293 HD
ENDBRANCH  18  21
ENDBRANCH   3  13
BRANCH   9  23
ATOM     23  O   UNL     1     156.764 154.636 135.790  1.00  0.00    -0.507 OA
ATOM     24  H   UNL     1     156.789 154.948 134.826  1.00  0.00     0.293 HD
ENDBRANCH   9  23
BRANCH   7  25
ATOM     25  O   UNL     1     154.063 150.711 136.607  1.00  0.00    -0.508 OA
ATOM     26  H   UNL     1     153.138 150.299 136.654  1.00  0.00     0.293 HD
ENDBRANCH   7  25
TORSDOF 6
ENDMDL
MODEL 8
REMARK VINA RESULT:    -5.106      4.647      7.398
REMARK INTER + INTRA:          -6.464
REMARK INTER:                  -6.091
REMARK INTRA:                  -0.373
REMARK UNBOUND:                -0.314
REMARK SMILES Oc1cc(O)c2c(c1)O[C@@H](c1ccc(O)c(O)c1)[C@H](O)C2
REMARK SMILES IDX 21 1 19 2 10 3 9 4 7 5 8 6 2 7 3 8 4 9 6 10 20 11 11 13
REMARK SMILES IDX 18 14 12 15 16 16 13 17 14 18 17 19 15 21 5 23 1 25
REMARK H PARENT 20 12 17 20 15 22 5 24 1 26
REMARK Flexibility Score: inf
ROOT
ATOM      1  C   UNL     1     152.979 156.839 137.327  1.00  0.00     0.079 C 
ATOM      2  C   UNL     1     153.823 157.573 136.269  1.00  0.00     0.164 C 
ATOM      3  C   UNL     1     152.903 158.130 135.167  1.00  0.00     0.232 C 
ATOM      4  O   UNL     1     151.904 158.976 135.741  1.00  0.00    -0.482 OA
ATOM      5  C   UNL     1     151.312 158.704 136.980  1.00  0.00     0.131 A 
ATOM      6  C   UNL     1     150.225 159.474 137.404  1.00  0.00     0.093 A 
ATOM      7  C   UNL     1     149.619 159.217 138.639  1.00  0.00     0.122 A 
ATOM      8  C   UNL     1     150.101 158.187 139.450  1.00  0.00     0.092 A 
ATOM      9  C   UNL     1     151.195 157.410 139.038  1.00  0.00     0.126 A 
ATOM     10  C   UNL     1     151.819 157.680 137.804  1.00  0.00     0.039 A 
ENDROOT
BRANCH   2  11
ATOM     11  O   UNL     1     154.753 156.685 135.703  1.00  0.00    -0.389 OA
ATOM     12  H   UNL     1     154.337 156.323 134.878  1.00  0.00     0.211 HD
ENDBRANCH   2  11
BRANCH   3  13
ATOM     13  C   UNL     1     153.692 158.907 134.138  1.00  0.00    -0.001 A 
ATOM     14  C   UNL     1     153.667 158.528 132.785  1.00  0.00     0.057 A 
ATOM     15  C   UNL     1     154.421 160.046 134.518  1.00  0.00     0.012 A 
ATOM     16  C   UNL     1     154.377 159.266 131.827  1.00  0.00     0.157 A 
ATOM     17  C   UNL     1     155.130 160.781 133.564  1.00  0.00     0.050 A 
ATOM     18  C   UNL     1     155.111 160.393 132.217  1.00  0.00     0.157 A 
BRANCH  16  19
ATOM     19  O   UNL     1     154.356 158.886 130.486  1.00  0.00    -0.504 OA
ATOM     20  H   UNL     1     154.507 159.557 129.742  1.00  0.00     0.293 HD
ENDBRANCH  16  19
BRANCH  18  21
ATOM     21  O   UNL     1     155.817 161.124 131.263  1.00  0.00    -0.504 OA
ATOM     22  H   UNL     1     156.821 161.038 131.165  1.00  0.00     0.293 HD
ENDBRANCH  18  21
ENDBRANCH   3  13
BRANCH   9  23
ATOM     23  O   UNL     1     151.660 156.374 139.847  1.00  0.00    -0.507 OA
ATOM     24  H   UNL     1     151.026 155.805 140.397  1.00  0.00     0.293 HD
ENDBRANCH   9  23
BRANCH   7  25
ATOM     25  O   UNL     1     148.534 159.978 139.068  1.00  0.00    -0.508 OA
ATOM     26  H   UNL     1     148.310 160.076 140.052  1.00  0.00     0.293 HD
ENDBRANCH   7  25
TORSDOF 6
ENDMDL
MODEL 9
REMARK VINA RESULT:    -5.087      1.950      7.084
REMARK INTER + INTRA:          -6.442
REMARK INTER:                  -6.121
REMARK INTRA:                  -0.321
REMARK UNBOUND:                -0.314
REMARK SMILES Oc1cc(O)c2c(c1)O[C@@H](c1ccc(O)c(O)c1)[C@H](O)C2
REMARK SMILES IDX 21 1 19 2 10 3 9 4 7 5 8 6 2 7 3 8 4 9 6 10 20 11 11 13
REMARK SMILES IDX 18 14 12 15 16 16 13 17 14 18 17 19 15 21 5 23 1 25
REMARK H PARENT 20 12 17 20 15 22 5 24 1 26
REMARK Flexibility Score: inf
ROOT
ATOM      1  C   UNL     1     152.432 156.726 137.895  1.00  0.00     0.079 C 
ATOM      2  C   UNL     1     153.393 155.563 138.202  1.00  0.00     0.164 C 
ATOM      3  C   UNL     1     154.150 155.849 139.513  1.00  0.00     0.232 C 
ATOM      4  O   UNL     1     153.223 156.077 140.576  1.00  0.00    -0.482 OA
ATOM      5  C   UNL     1     152.014 156.756 140.385  1.00  0.00     0.131 A 
ATOM      6  C   UNL     1     151.235 157.093 141.495  1.00  0.00     0.093 A 
ATOM      7  C   UNL     1     150.022 157.772 141.325  1.00  0.00     0.122 A 
ATOM      8  C   UNL     1     149.591 158.114 140.041  1.00  0.00     0.092 A 
ATOM      9  C   UNL     1     150.361 157.776 138.918  1.00  0.00     0.126 A 
ATOM     10  C   UNL     1     151.572 157.075 139.085  1.00  0.00     0.039 A 
ENDROOT
BRANCH   2  11
ATOM     11  O   UNL     1     154.311 155.414 137.149  1.00  0.00    -0.389 OA
ATOM     12  H   UNL     1     154.747 154.531 137.274  1.00  0.00     0.211 HD
ENDBRANCH   2  11
BRANCH   3  13
ATOM     13  C   UNL     1     155.064 154.701 139.876  1.00  0.00    -0.001 A 
ATOM     14  C   UNL     1     154.598 153.376 139.831  1.00  0.00     0.057 A 
ATOM     15  C   UNL     1     156.404 154.945 140.215  1.00  0.00     0.012 A 
ATOM     16  C   UNL     1     155.455 152.309 140.141  1.00  0.00     0.157 A 
ATOM     17  C   UNL     1     157.259 153.883 140.525  1.00  0.00     0.050 A 
ATOM     18  C   UNL     1     156.787 152.563 140.490  1.00  0.00     0.157 A 
BRANCH  16  19
ATOM     19  O   UNL     1     154.989 150.996 140.102  1.00  0.00    -0.504 OA
ATOM     20  H   UNL     1     155.537 150.228 140.472  1.00  0.00     0.293 HD
ENDBRANCH  16  19
BRANCH  18  21
ATOM     21  O   UNL     1     157.636 151.502 140.799  1.00  0.00    -0.504 OA
ATOM     22  H   UNL     1     158.355 151.587 141.506  1.00  0.00     0.293 HD
ENDBRANCH  18  21
ENDBRANCH   3  13
BRANCH   9  23
ATOM     23  O   UNL     1     149.930 158.134 137.642  1.00  0.00    -0.507 OA
ATOM     24  H   UNL     1     149.213 157.607 137.156  1.00  0.00     0.293 HD
ENDBRANCH   9  23
BRANCH   7  25
ATOM     25  O   UNL     1     149.241 158.115 142.426  1.00  0.00    -0.508 OA
ATOM     26  H   UNL     1     148.870 159.051 142.543  1.00  0.00     0.293 HD
ENDBRANCH   7  25
TORSDOF 6
ENDMDL
