MODEL 1
REMARK VINA RESULT:     0.306      0.000      0.000
REMARK INTER + INTRA:           0.213
REMARK INTER:                   0.342
REMARK INTRA:                  -0.129
REMARK UNBOUND:                -0.129
REMARK SMILES O=C([O-])C=Cc1ccccc1
REMARK SMILES IDX 4 1 5 2 2 3 1 4 3 5 6 6 7 7 11 8 8 9 10 10 9 11
REMARK H PARENT
REMARK Flexibility Score: inf
ROOT
ATOM      1  C   UNL     1      17.676  38.229  46.401  1.00  0.00     0.025 C 
ATOM      2  C   UNL     1      16.804  38.902  47.166  1.00  0.00     0.010 C 
ENDROOT
BRANCH   1   3
ATOM      3  C   UNL     1      19.116  38.181  46.709  1.00  0.00     0.064 C 
ATOM      4  O   UNL     1      19.753  37.094  46.686  1.00  0.00    -0.545 OA
ATOM      5  O   UNL     1      19.785  39.355  47.030  1.00  0.00    -0.545 OA
ENDBRANCH   1   3
BRANCH   2   6
ATOM      6  C   UNL     1      15.341  38.990  46.911  1.00  0.00    -0.026 A 
ATOM      7  C   UNL     1      14.725  40.104  46.297  1.00  0.00     0.008 A 
ATOM      8  C   UNL     1      14.533  37.906  47.303  1.00  0.00     0.008 A 
ATOM      9  C   UNL     1      13.342  40.121  46.086  1.00  0.00     0.001 A 
ATOM     10  C   UNL     1      13.151  37.930  47.089  1.00  0.00     0.001 A 
ATOM     11  C   UNL     1      12.557  39.036  46.482  1.00  0.00     0.000 A 
ENDBRANCH   2   6
TORSDOF 2
ENDMDL
MODEL 2
REMARK VINA RESULT:     0.548      3.002      5.399
REMARK INTER + INTRA:           0.483
REMARK INTER:                   0.609
REMARK INTRA:                  -0.127
REMARK UNBOUND:                -0.129
REMARK SMILES O=C([O-])C=Cc1ccccc1
REMARK SMILES IDX 4 1 5 2 2 3 1 4 3 5 6 6 7 7 11 8 8 9 10 10 9 11
REMARK H PARENT
REMARK Flexibility Score: inf
ROOT
ATOM      1  C   UNL     1      15.347  38.760  47.099  1.00  0.00     0.025 C 
ATOM      2  C   UNL     1      16.310  38.616  46.177  1.00  0.00     0.010 C 
ENDROOT
BRANCH   1   3
ATOM      3  C   UNL     1      13.928  38.910  46.734  1.00  0.00     0.064 C 
ATOM      4  O   UNL     1      13.503  39.961  46.182  1.00  0.00    -0.545 OA
ATOM      5  O   UNL     1      13.040  37.877  47.004  1.00  0.00    -0.545 OA
ENDBRANCH   1   3
BRANCH   2   6
ATOM      6  C   UNL     1      17.759  38.459  46.478  1.00  0.00    -0.026 A 
ATOM      7  C   UNL     1      18.613  39.546  46.771  1.00  0.00     0.008 A 
ATOM      8  C   UNL     1      18.303  37.161  46.469  1.00  0.00     0.008 A 
ATOM      9  C   UNL     1      19.968  39.329  47.046  1.00  0.00     0.001 A 
ATOM     10  C   UNL     1      19.657  36.951  46.745  1.00  0.00     0.001 A 
ATOM     11  C   UNL     1      20.488  38.033  47.033  1.00  0.00     0.000 A 
ENDBRANCH   2   6
TORSDOF 2
ENDMDL
MODEL 3
REMARK VINA RESULT:     1.363     19.226     19.541
REMARK INTER + INTRA:           1.394
REMARK INTER:                   1.524
REMARK INTRA:                  -0.131
REMARK UNBOUND:                -0.129
REMARK SMILES O=C([O-])C=Cc1ccccc1
REMARK SMILES IDX 4 1 5 2 2 3 1 4 3 5 6 6 7 7 11 8 8 9 10 10 9 11
REMARK H PARENT
REMARK Flexibility Score: inf
ROOT
ATOM      1  C   UNL     1      19.608  20.418  52.336  1.00  0.00     0.025 C 
ATOM      2  C   UNL     1      18.620  19.875  51.609  1.00  0.00     0.010 C 
ENDROOT
BRANCH   1   3
ATOM      3  C   UNL     1      21.016  20.367  51.908  1.00  0.00     0.064 C 
ATOM      4  O   UNL     1      21.937  20.097  52.724  1.00  0.00    -0.545 OA
ATOM      5  O   UNL     1      21.336  20.621  50.581  1.00  0.00    -0.545 OA
ENDBRANCH   1   3
BRANCH   2   6
ATOM      6  C   UNL     1      17.180  19.892  51.984  1.00  0.00    -0.026 A 
ATOM      7  C   UNL     1      16.726  19.913  53.322  1.00  0.00     0.008 A 
ATOM      8  C   UNL     1      16.224  19.887  50.950  1.00  0.00     0.008 A 
ATOM      9  C   UNL     1      15.356  19.928  53.605  1.00  0.00     0.001 A 
ATOM     10  C   UNL     1      14.857  19.902  51.241  1.00  0.00     0.001 A 
ATOM     11  C   UNL     1      14.424  19.923  52.566  1.00  0.00     0.000 A 
ENDBRANCH   2   6
TORSDOF 2
ENDMDL
MODEL 4
REMARK VINA RESULT:     3.102     19.174     19.751
REMARK INTER + INTRA:           3.336
REMARK INTER:                   3.482
REMARK INTRA:                  -0.146
REMARK UNBOUND:                -0.129
REMARK SMILES O=C([O-])C=Cc1ccccc1
REMARK SMILES IDX 4 1 5 2 2 3 1 4 3 5 6 6 7 7 11 8 8 9 10 10 9 11
REMARK H PARENT
REMARK Flexibility Score: inf
ROOT
ATOM      1  C   UNL     1      21.556  20.271  52.058  1.00  0.00     0.025 C 
ATOM      2  C   UNL     1      20.301  19.875  52.320  1.00  0.00     0.010 C 
ENDROOT
BRANCH   1   3
ATOM      3  C   UNL     1      22.630  20.186  53.062  1.00  0.00     0.064 C 
ATOM      4  O   UNL     1      22.383  19.879  54.259  1.00  0.00    -0.545 OA
ATOM      5  O   UNL     1      23.941  20.448  52.684  1.00  0.00    -0.545 OA
ENDBRANCH   1   3
BRANCH   2   6
ATOM      6  C   UNL     1      19.172  19.935  51.352  1.00  0.00    -0.026 A 
ATOM      7  C   UNL     1      17.814  19.923  51.742  1.00  0.00     0.008 A 
ATOM      8  C   UNL     1      19.477  20.005  49.980  1.00  0.00     0.008 A 
ATOM      9  C   UNL     1      16.800  19.982  50.779  1.00  0.00     0.001 A 
ATOM     10  C   UNL     1      18.459  20.063  49.024  1.00  0.00     0.001 A 
ATOM     11  C   UNL     1      17.123  20.052  49.423  1.00  0.00     0.000 A 
ENDBRANCH   2   6
TORSDOF 2
ENDMDL
