MODEL 1
REMARK VINA RESULT:    -3.818      0.000      0.000
REMARK INTER + INTRA:         -10.114
REMARK INTER:                  -7.390
REMARK INTRA:                  -2.724
REMARK UNBOUND:                -2.724
REMARK SMILES CCCCCCCCCCCCCCCCCC(=O)[O-]
REMARK SMILES IDX 10 1 11 2 12 3 13 4 14 5 15 6 16 7 17 8 18 9 19 10 20 11
REMARK SMILES IDX 9 12 8 13 7 14 6 15 5 16 4 17 3 18 2 19 1 20
REMARK H PARENT
REMARK Flexibility Score: inf
ROOT
ATOM      1  C   UNL     1     -27.698 -52.592  30.384  1.00  0.00     0.000 C 
ENDROOT
BRANCH   1   2
ATOM      2  C   UNL     1     -27.621 -51.074  30.623  1.00  0.00     0.000 C 
BRANCH   2   3
ATOM      3  C   UNL     1     -26.511 -50.404  29.797  1.00  0.00     0.000 C 
BRANCH   3   4
ATOM      4  C   UNL     1     -25.220 -50.183  30.605  1.00  0.00     0.000 C 
BRANCH   4   5
ATOM      5  C   UNL     1     -25.488 -49.934  32.100  1.00  0.00     0.000 C 
BRANCH   5   6
ATOM      6  C   UNL     1     -24.785 -50.913  33.058  1.00  0.00     0.000 C 
BRANCH   6   7
ATOM      7  C   UNL     1     -25.090 -50.626  34.538  1.00  0.00     0.006 C 
BRANCH   7   8
ATOM      8  C   UNL     1     -26.567 -50.273  34.768  1.00  0.00     0.053 C 
BRANCH   8   9
ATOM      9  C   UNL     1     -27.461 -51.455  34.552  1.00  0.00     0.041 C 
ATOM     10  O   UNL     1     -27.113 -52.596  34.957  1.00  0.00    -0.550 OA
ATOM     11  O   UNL     1     -28.690 -51.293  33.927  1.00  0.00    -0.550 OA
ENDBRANCH   8   9
ENDBRANCH   7   8
ENDBRANCH   6   7
ENDBRANCH   5   6
ENDBRANCH   4   5
ENDBRANCH   3   4
ENDBRANCH   2   3
ENDBRANCH   1   2
BRANCH   1  12
ATOM     12  C   UNL     1     -26.975 -53.398  31.476  1.00  0.00     0.000 C 
BRANCH  12  13
ATOM     13  C   UNL     1     -25.607 -53.927  31.007  1.00  0.00    -0.000 C 
BRANCH  13  14
ATOM     14  C   UNL     1     -25.586 -54.247  29.503  1.00  0.00    -0.000 C 
BRANCH  14  15
ATOM     15  C   UNL     1     -24.570 -53.387  28.730  1.00  0.00    -0.000 C 
BRANCH  15  16
ATOM     16  C   UNL     1     -24.848 -53.358  27.218  1.00  0.00    -0.000 C 
BRANCH  16  17
ATOM     17  C   UNL     1     -25.704 -52.169  26.740  1.00  0.00    -0.000 C 
BRANCH  17  18
ATOM     18  C   UNL     1     -27.214 -52.480  26.661  1.00  0.00    -0.000 C 
BRANCH  18  19
ATOM     19  C   UNL     1     -27.490 -53.954  26.331  1.00  0.00    -0.003 C 
ATOM     20  C   UNL     1     -27.646 -54.163  24.828  1.00  0.00     0.004 C 
ENDBRANCH  18  19
ENDBRANCH  17  18
ENDBRANCH  16  17
ENDBRANCH  15  16
ENDBRANCH  14  15
ENDBRANCH  13  14
ENDBRANCH  12  13
ENDBRANCH   1  12
TORSDOF 16
ENDMDL
MODEL 2
REMARK VINA RESULT:    -3.795      6.888      8.930
REMARK INTER + INTRA:         -10.068
REMARK INTER:                  -8.037
REMARK INTRA:                  -2.031
REMARK UNBOUND:                -2.724
REMARK SMILES CCCCCCCCCCCCCCCCCC(=O)[O-]
REMARK SMILES IDX 10 1 11 2 12 3 13 4 14 5 15 6 16 7 17 8 18 9 19 10 20 11
REMARK SMILES IDX 9 12 8 13 7 14 6 15 5 16 4 17 3 18 2 19 1 20
REMARK H PARENT
REMARK Flexibility Score: inf
ROOT
ATOM      1  C   UNL     1     -31.554 -50.197  23.708  1.00  0.00     0.000 C 
ENDROOT
BRANCH   1   2
ATOM      2  C   UNL     1     -32.975 -49.676  23.429  1.00  0.00     0.000 C 
BRANCH   2   3
ATOM      3  C   UNL     1     -33.949 -49.977  24.580  1.00  0.00     0.000 C 
BRANCH   3   4
ATOM      4  C   UNL     1     -34.715 -51.297  24.380  1.00  0.00     0.000 C 
BRANCH   4   5
ATOM      5  C   UNL     1     -34.208 -52.426  25.294  1.00  0.00     0.000 C 
BRANCH   5   6
ATOM      6  C   UNL     1     -33.654 -51.963  26.654  1.00  0.00     0.000 C 
BRANCH   6   7
ATOM      7  C   UNL     1     -34.084 -52.873  27.817  1.00  0.00     0.006 C 
BRANCH   7   8
ATOM      8  C   UNL     1     -35.456 -53.516  27.574  1.00  0.00     0.053 C 
BRANCH   8   9
ATOM      9  C   UNL     1     -35.707 -54.661  28.505  1.00  0.00     0.041 C 
ATOM     10  O   UNL     1     -36.614 -54.585  29.375  1.00  0.00    -0.550 OA
ATOM     11  O   UNL     1     -34.957 -55.825  28.395  1.00  0.00    -0.550 OA
ENDBRANCH   8   9
ENDBRANCH   7   8
ENDBRANCH   6   7
ENDBRANCH   5   6
ENDBRANCH   4   5
ENDBRANCH   3   4
ENDBRANCH   2   3
ENDBRANCH   1   2
BRANCH   1  12
ATOM     12  C   UNL     1     -31.099 -51.247  22.681  1.00  0.00     0.000 C 
BRANCH  12  13
ATOM     13  C   UNL     1     -30.985 -52.656  23.292  1.00  0.00    -0.000 C 
BRANCH  13  14
ATOM     14  C   UNL     1     -30.000 -53.550  22.522  1.00  0.00    -0.000 C 
BRANCH  14  15
ATOM     15  C   UNL     1     -28.959 -54.213  23.443  1.00  0.00    -0.000 C 
BRANCH  15  16
ATOM     16  C   UNL     1     -28.800 -53.477  24.783  1.00  0.00    -0.000 C 
BRANCH  16  17
ATOM     17  C   UNL     1     -27.521 -52.625  24.905  1.00  0.00    -0.000 C 
BRANCH  17  18
ATOM     18  C   UNL     1     -26.931 -52.189  23.547  1.00  0.00    -0.000 C 
BRANCH  18  19
ATOM     19  C   UNL     1     -27.341 -50.759  23.165  1.00  0.00    -0.003 C 
ATOM     20  C   UNL     1     -27.786 -49.967  24.391  1.00  0.00     0.004 C 
ENDBRANCH  18  19
ENDBRANCH  17  18
ENDBRANCH  16  17
ENDBRANCH  15  16
ENDBRANCH  14  15
ENDBRANCH  13  14
ENDBRANCH  12  13
ENDBRANCH   1  12
TORSDOF 16
ENDMDL
MODEL 3
REMARK VINA RESULT:    -3.780      5.735      8.176
REMARK INTER + INTRA:         -10.040
REMARK INTER:                  -7.114
REMARK INTRA:                  -2.926
REMARK UNBOUND:                -2.724
REMARK SMILES CCCCCCCCCCCCCCCCCC(=O)[O-]
REMARK SMILES IDX 10 1 11 2 12 3 13 4 14 5 15 6 16 7 17 8 18 9 19 10 20 11
REMARK SMILES IDX 9 12 8 13 7 14 6 15 5 16 4 17 3 18 2 19 1 20
REMARK H PARENT
REMARK Flexibility Score: inf
ROOT
ATOM      1  C   UNL     1     -32.381 -50.209  34.424  1.00  0.00     0.000 C 
ENDROOT
BRANCH   1   2
ATOM      2  C   UNL     1     -31.604 -49.547  33.273  1.00  0.00     0.000 C 
BRANCH   2   3
ATOM      3  C   UNL     1     -30.141 -49.253  33.643  1.00  0.00     0.000 C 
BRANCH   3   4
ATOM      4  C   UNL     1     -29.622 -50.157  34.775  1.00  0.00     0.000 C 
BRANCH   4   5
ATOM      5  C   UNL     1     -28.808 -49.385  35.829  1.00  0.00     0.000 C 
BRANCH   5   6
ATOM      6  C   UNL     1     -28.154 -48.086  35.322  1.00  0.00     0.000 C 
BRANCH   6   7
ATOM      7  C   UNL     1     -26.744 -48.309  34.749  1.00  0.00     0.006 C 
BRANCH   7   8
ATOM      8  C   UNL     1     -25.893 -49.222  35.642  1.00  0.00     0.053 C 
BRANCH   8   9
ATOM      9  C   UNL     1     -25.390 -50.419  34.894  1.00  0.00     0.041 C 
ATOM     10  O   UNL     1     -24.187 -50.477  34.526  1.00  0.00    -0.550 OA
ATOM     11  O   UNL     1     -26.242 -51.482  34.628  1.00  0.00    -0.550 OA
ENDBRANCH   8   9
ENDBRANCH   7   8
ENDBRANCH   6   7
ENDBRANCH   5   6
ENDBRANCH   4   5
ENDBRANCH   3   4
ENDBRANCH   2   3
ENDBRANCH   1   2
BRANCH   1  12
ATOM     12  C   UNL     1     -33.207 -49.198  35.236  1.00  0.00     0.000 C 
BRANCH  12  13
ATOM     13  C   UNL     1     -32.623 -48.954  36.640  1.00  0.00    -0.000 C 
BRANCH  13  14
ATOM     14  C   UNL     1     -31.896 -47.604  36.746  1.00  0.00    -0.000 C 
BRANCH  14  15
ATOM     15  C   UNL     1     -32.203 -46.673  35.559  1.00  0.00    -0.000 C 
BRANCH  15  16
ATOM     16  C   UNL     1     -30.983 -45.844  35.125  1.00  0.00    -0.000 C 
BRANCH  16  17
ATOM     17  C   UNL     1     -30.987 -45.414  33.645  1.00  0.00    -0.000 C 
BRANCH  17  18
ATOM     18  C   UNL     1     -29.641 -45.648  32.925  1.00  0.00    -0.000 C 
BRANCH  18  19
ATOM     19  C   UNL     1     -28.526 -44.738  33.462  1.00  0.00    -0.003 C 
ATOM     20  C   UNL     1     -27.251 -44.883  32.636  1.00  0.00     0.004 C 
ENDBRANCH  18  19
ENDBRANCH  17  18
ENDBRANCH  16  17
ENDBRANCH  15  16
ENDBRANCH  14  15
ENDBRANCH  13  14
ENDBRANCH  12  13
ENDBRANCH   1  12
TORSDOF 16
ENDMDL
MODEL 4
REMARK VINA RESULT:    -3.674      2.989      6.648
REMARK INTER + INTRA:          -9.835
REMARK INTER:                  -6.645
REMARK INTRA:                  -3.190
REMARK UNBOUND:                -2.724
REMARK SMILES CCCCCCCCCCCCCCCCCC(=O)[O-]
REMARK SMILES IDX 10 1 11 2 12 3 13 4 14 5 15 6 16 7 17 8 18 9 19 10 20 11
REMARK SMILES IDX 9 12 8 13 7 14 6 15 5 16 4 17 3 18 2 19 1 20
REMARK H PARENT
REMARK Flexibility Score: inf
ROOT
ATOM      1  C   UNL     1     -27.343 -52.436  34.149  1.00  0.00     0.000 C 
ENDROOT
BRANCH   1   2
ATOM      2  C   UNL     1     -26.239 -51.585  34.800  1.00  0.00     0.000 C 
BRANCH   2   3
ATOM      3  C   UNL     1     -25.845 -50.373  33.939  1.00  0.00     0.000 C 
BRANCH   3   4
ATOM      4  C   UNL     1     -24.808 -50.725  32.857  1.00  0.00     0.000 C 
BRANCH   4   5
ATOM      5  C   UNL     1     -25.188 -50.183  31.468  1.00  0.00     0.000 C 
BRANCH   5   6
ATOM      6  C   UNL     1     -25.369 -51.256  30.378  1.00  0.00     0.000 C 
BRANCH   6   7
ATOM      7  C   UNL     1     -24.991 -52.668  30.859  1.00  0.00     0.006 C 
BRANCH   7   8
ATOM      8  C   UNL     1     -25.985 -53.731  30.371  1.00  0.00     0.053 C 
BRANCH   8   9
ATOM      9  C   UNL     1     -25.580 -54.307  29.050  1.00  0.00     0.041 C 
ATOM     10  O   UNL     1     -26.151 -55.338  28.605  1.00  0.00    -0.550 OA
ATOM     11  O   UNL     1     -24.590 -53.691  28.296  1.00  0.00    -0.550 OA
ENDBRANCH   8   9
ENDBRANCH   7   8
ENDBRANCH   6   7
ENDBRANCH   5   6
ENDBRANCH   4   5
ENDBRANCH   3   4
ENDBRANCH   2   3
ENDBRANCH   1   2
BRANCH   1  12
ATOM     12  C   UNL     1     -28.492 -51.582  33.587  1.00  0.00     0.000 C 
BRANCH  12  13
ATOM     13  C   UNL     1     -28.623 -51.705  32.057  1.00  0.00    -0.000 C 
BRANCH  13  14
ATOM     14  C   UNL     1     -28.859 -50.347  31.378  1.00  0.00    -0.000 C 
BRANCH  14  15
ATOM     15  C   UNL     1     -29.268 -49.249  32.377  1.00  0.00    -0.000 C 
BRANCH  15  16
ATOM     16  C   UNL     1     -28.315 -48.043  32.354  1.00  0.00    -0.000 C 
BRANCH  16  17
ATOM     17  C   UNL     1     -27.851 -47.559  33.742  1.00  0.00    -0.000 C 
BRANCH  17  18
ATOM     18  C   UNL     1     -28.846 -47.876  34.878  1.00  0.00    -0.000 C 
BRANCH  18  19
ATOM     19  C   UNL     1     -28.181 -48.617  36.048  1.00  0.00    -0.003 C 
ATOM     20  C   UNL     1     -29.100 -49.697  36.611  1.00  0.00     0.004 C 
ENDBRANCH  18  19
ENDBRANCH  17  18
ENDBRANCH  16  17
ENDBRANCH  15  16
ENDBRANCH  14  15
ENDBRANCH  13  14
ENDBRANCH  12  13
ENDBRANCH   1  12
TORSDOF 16
ENDMDL
MODEL 5
REMARK VINA RESULT:    -3.674      8.947     11.262
REMARK INTER + INTRA:          -9.835
REMARK INTER:                  -7.469
REMARK INTRA:                  -2.366
REMARK UNBOUND:                -2.724
REMARK SMILES CCCCCCCCCCCCCCCCCC(=O)[O-]
REMARK SMILES IDX 10 1 11 2 12 3 13 4 14 5 15 6 16 7 17 8 18 9 19 10 20 11
REMARK SMILES IDX 9 12 8 13 7 14 6 15 5 16 4 17 3 18 2 19 1 20
REMARK H PARENT
REMARK Flexibility Score: inf
ROOT
ATOM      1  C   UNL     1     -33.265 -49.259  33.235  1.00  0.00     0.000 C 
ENDROOT
BRANCH   1   2
ATOM      2  C   UNL     1     -33.741 -48.422  32.035  1.00  0.00     0.000 C 
BRANCH   2   3
ATOM      3  C   UNL     1     -35.177 -47.903  32.214  1.00  0.00     0.000 C 
BRANCH   3   4
ATOM      4  C   UNL     1     -35.935 -47.782  30.879  1.00  0.00     0.000 C 
BRANCH   4   5
ATOM      5  C   UNL     1     -36.348 -46.334  30.558  1.00  0.00     0.000 C 
BRANCH   5   6
ATOM      6  C   UNL     1     -35.540 -45.249  31.292  1.00  0.00     0.000 C 
BRANCH   6   7
ATOM      7  C   UNL     1     -34.506 -44.557  30.387  1.00  0.00     0.006 C 
BRANCH   7   8
ATOM      8  C   UNL     1     -35.150 -43.514  29.463  1.00  0.00     0.053 C 
BRANCH   8   9
ATOM      9  C   UNL     1     -34.882 -43.809  28.020  1.00  0.00     0.041 C 
ATOM     10  O   UNL     1     -33.839 -43.372  27.466  1.00  0.00    -0.550 OA
ATOM     11  O   UNL     1     -35.771 -44.590  27.292  1.00  0.00    -0.550 OA
ENDBRANCH   8   9
ENDBRANCH   7   8
ENDBRANCH   6   7
ENDBRANCH   5   6
ENDBRANCH   4   5
ENDBRANCH   3   4
ENDBRANCH   2   3
ENDBRANCH   1   2
BRANCH   1  12
ATOM     12  C   UNL     1     -34.253 -49.220  34.412  1.00  0.00     0.000 C 
BRANCH  12  13
ATOM     13  C   UNL     1     -33.544 -49.058  35.770  1.00  0.00    -0.000 C 
BRANCH  13  14
ATOM     14  C   UNL     1     -32.097 -49.572  35.740  1.00  0.00    -0.000 C 
BRANCH  14  15
ATOM     15  C   UNL     1     -31.117 -48.624  36.456  1.00  0.00    -0.000 C 
BRANCH  15  16
ATOM     16  C   UNL     1     -30.504 -47.580  35.508  1.00  0.00    -0.000 C 
BRANCH  16  17
ATOM     17  C   UNL     1     -31.059 -46.152  35.674  1.00  0.00    -0.000 C 
BRANCH  17  18
ATOM     18  C   UNL     1     -31.033 -45.319  34.374  1.00  0.00    -0.000 C 
BRANCH  18  19
ATOM     19  C   UNL     1     -32.370 -45.373  33.619  1.00  0.00    -0.003 C 
ATOM     20  C   UNL     1     -33.541 -45.535  34.582  1.00  0.00     0.004 C 
ENDBRANCH  18  19
ENDBRANCH  17  18
ENDBRANCH  16  17
ENDBRANCH  15  16
ENDBRANCH  14  15
ENDBRANCH  13  14
ENDBRANCH  12  13
ENDBRANCH   1  12
TORSDOF 16
ENDMDL
MODEL 6
REMARK VINA RESULT:    -3.666      4.640      8.025
REMARK INTER + INTRA:          -9.819
REMARK INTER:                  -7.048
REMARK INTRA:                  -2.771
REMARK UNBOUND:                -2.724
REMARK SMILES CCCCCCCCCCCCCCCCCC(=O)[O-]
REMARK SMILES IDX 10 1 11 2 12 3 13 4 14 5 15 6 16 7 17 8 18 9 19 10 20 11
REMARK SMILES IDX 9 12 8 13 7 14 6 15 5 16 4 17 3 18 2 19 1 20
REMARK H PARENT
REMARK Flexibility Score: inf
ROOT
ATOM      1  C   UNL     1     -29.882 -50.320  22.324  1.00  0.00     0.000 C 
ENDROOT
BRANCH   1   2
ATOM      2  C   UNL     1     -29.990 -51.851  22.207  1.00  0.00     0.000 C 
BRANCH   2   3
ATOM      3  C   UNL     1     -29.715 -52.564  23.541  1.00  0.00     0.000 C 
BRANCH   3   4
ATOM      4  C   UNL     1     -28.560 -53.576  23.446  1.00  0.00     0.000 C 
BRANCH   4   5
ATOM      5  C   UNL     1     -27.392 -53.241  24.391  1.00  0.00     0.000 C 
BRANCH   5   6
ATOM      6  C   UNL     1     -26.595 -51.978  24.016  1.00  0.00     0.000 C 
BRANCH   6   7
ATOM      7  C   UNL     1     -25.944 -51.297  25.233  1.00  0.00     0.006 C 
BRANCH   7   8
ATOM      8  C   UNL     1     -26.510 -51.820  26.560  1.00  0.00     0.053 C 
BRANCH   8   9
ATOM      9  C   UNL     1     -25.452 -52.473  27.396  1.00  0.00     0.041 C 
ATOM     10  O   UNL     1     -25.330 -52.172  28.613  1.00  0.00    -0.550 OA
ATOM     11  O   UNL     1     -24.618 -53.434  26.839  1.00  0.00    -0.550 OA
ENDBRANCH   8   9
ENDBRANCH   7   8
ENDBRANCH   6   7
ENDBRANCH   5   6
ENDBRANCH   4   5
ENDBRANCH   3   4
ENDBRANCH   2   3
ENDBRANCH   1   2
BRANCH   1  12
ATOM     12  C   UNL     1     -28.519 -49.787  21.853  1.00  0.00     0.000 C 
BRANCH  12  13
ATOM     13  C   UNL     1     -28.045 -48.575  22.677  1.00  0.00    -0.000 C 
BRANCH  13  14
ATOM     14  C   UNL     1     -26.526 -48.585  22.914  1.00  0.00    -0.000 C 
BRANCH  14  15
ATOM     15  C   UNL     1     -26.100 -47.647  24.058  1.00  0.00    -0.000 C 
BRANCH  15  16
ATOM     16  C   UNL     1     -27.181 -46.611  24.409  1.00  0.00    -0.000 C 
BRANCH  16  17
ATOM     17  C   UNL     1     -27.560 -46.554  25.901  1.00  0.00    -0.000 C 
BRANCH  17  18
ATOM     18  C   UNL     1     -27.746 -47.941  26.551  1.00  0.00    -0.000 C 
BRANCH  18  19
ATOM     19  C   UNL     1     -29.220 -48.373  26.596  1.00  0.00    -0.003 C 
ATOM     20  C   UNL     1     -29.420 -49.722  25.913  1.00  0.00     0.004 C 
ENDBRANCH  18  19
ENDBRANCH  17  18
ENDBRANCH  16  17
ENDBRANCH  15  16
ENDBRANCH  14  15
ENDBRANCH  13  14
ENDBRANCH  12  13
ENDBRANCH   1  12
TORSDOF 16
ENDMDL
MODEL 7
REMARK VINA RESULT:    -3.651      9.677     12.180
REMARK INTER + INTRA:          -9.790
REMARK INTER:                  -7.208
REMARK INTRA:                  -2.581
REMARK UNBOUND:                -2.724
REMARK SMILES CCCCCCCCCCCCCCCCCC(=O)[O-]
REMARK SMILES IDX 10 1 11 2 12 3 13 4 14 5 15 6 16 7 17 8 18 9 19 10 20 11
REMARK SMILES IDX 9 12 8 13 7 14 6 15 5 16 4 17 3 18 2 19 1 20
REMARK H PARENT
REMARK Flexibility Score: inf
ROOT
ATOM      1  C   UNL     1     -34.920 -46.459  25.630  1.00  0.00     0.000 C 
ENDROOT
BRANCH   1   2
ATOM      2  C   UNL     1     -34.928 -46.760  24.121  1.00  0.00     0.000 C 
BRANCH   2   3
ATOM      3  C   UNL     1     -33.877 -45.943  23.353  1.00  0.00     0.000 C 
BRANCH   3   4
ATOM      4  C   UNL     1     -33.480 -44.648  24.085  1.00  0.00     0.000 C 
BRANCH   4   5
ATOM      5  C   UNL     1     -32.004 -44.270  23.869  1.00  0.00     0.000 C 
BRANCH   5   6
ATOM      6  C   UNL     1     -31.000 -45.418  24.076  1.00  0.00     0.000 C 
BRANCH   6   7
ATOM      7  C   UNL     1     -30.046 -45.604  22.884  1.00  0.00     0.006 C 
BRANCH   7   8
ATOM      8  C   UNL     1     -29.775 -47.085  22.584  1.00  0.00     0.053 C 
BRANCH   8   9
ATOM      9  C   UNL     1     -30.960 -47.750  21.955  1.00  0.00     0.041 C 
ATOM     10  O   UNL     1     -31.413 -47.333  20.856  1.00  0.00    -0.550 OA
ATOM     11  O   UNL     1     -31.548 -48.849  22.567  1.00  0.00    -0.550 OA
ENDBRANCH   8   9
ENDBRANCH   7   8
ENDBRANCH   6   7
ENDBRANCH   5   6
ENDBRANCH   4   5
ENDBRANCH   3   4
ENDBRANCH   2   3
ENDBRANCH   1   2
BRANCH   1  12
ATOM     12  C   UNL     1     -34.078 -47.468  26.428  1.00  0.00     0.000 C 
BRANCH  12  13
ATOM     13  C   UNL     1     -32.792 -46.839  26.999  1.00  0.00    -0.000 C 
BRANCH  13  14
ATOM     14  C   UNL     1     -32.853 -46.667  28.525  1.00  0.00    -0.000 C 
BRANCH  14  15
ATOM     15  C   UNL     1     -32.724 -45.195  28.959  1.00  0.00    -0.000 C 
BRANCH  15  16
ATOM     16  C   UNL     1     -32.893 -44.215  27.786  1.00  0.00    -0.000 C 
BRANCH  16  17
ATOM     17  C   UNL     1     -34.213 -43.419  27.794  1.00  0.00    -0.000 C 
BRANCH  17  18
ATOM     18  C   UNL     1     -35.167 -43.806  28.943  1.00  0.00    -0.000 C 
BRANCH  18  19
ATOM     19  C   UNL     1     -36.274 -44.768  28.485  1.00  0.00    -0.003 C 
ATOM     20  C   UNL     1     -36.838 -45.560  29.661  1.00  0.00     0.004 C 
ENDBRANCH  18  19
ENDBRANCH  17  18
ENDBRANCH  16  17
ENDBRANCH  15  16
ENDBRANCH  14  15
ENDBRANCH  13  14
ENDBRANCH  12  13
ENDBRANCH   1  12
TORSDOF 16
ENDMDL
MODEL 8
REMARK VINA RESULT:    -3.622      7.145     10.009
REMARK INTER + INTRA:          -9.733
REMARK INTER:                  -7.828
REMARK INTRA:                  -1.905
REMARK UNBOUND:                -2.724
REMARK SMILES CCCCCCCCCCCCCCCCCC(=O)[O-]
REMARK SMILES IDX 10 1 11 2 12 3 13 4 14 5 15 6 16 7 17 8 18 9 19 10 20 11
REMARK SMILES IDX 9 12 8 13 7 14 6 15 5 16 4 17 3 18 2 19 1 20
REMARK H PARENT
REMARK Flexibility Score: inf
ROOT
ATOM      1  C   UNL     1     -33.738 -45.846  32.187  1.00  0.00     0.000 C 
ENDROOT
BRANCH   1   2
ATOM      2  C   UNL     1     -33.456 -44.498  32.872  1.00  0.00     0.000 C 
BRANCH   2   3
ATOM      3  C   UNL     1     -32.737 -44.662  34.221  1.00  0.00     0.000 C 
BRANCH   3   4
ATOM      4  C   UNL     1     -32.056 -46.034  34.368  1.00  0.00     0.000 C 
BRANCH   4   5
ATOM      5  C   UNL     1     -30.735 -45.963  35.154  1.00  0.00     0.000 C 
BRANCH   5   6
ATOM      6  C   UNL     1     -29.462 -46.126  34.304  1.00  0.00     0.000 C 
BRANCH   6   7
ATOM      7  C   UNL     1     -29.098 -44.853  33.520  1.00  0.00     0.006 C 
BRANCH   7   8
ATOM      8  C   UNL     1     -27.616 -44.822  33.123  1.00  0.00     0.053 C 
BRANCH   8   9
ATOM      9  C   UNL     1     -27.428 -45.063  31.657  1.00  0.00     0.041 C 
ATOM     10  O   UNL     1     -27.681 -44.151  30.826  1.00  0.00    -0.550 OA
ATOM     11  O   UNL     1     -26.949 -46.287  31.208  1.00  0.00    -0.550 OA
ENDBRANCH   8   9
ENDBRANCH   7   8
ENDBRANCH   6   7
ENDBRANCH   5   6
ENDBRANCH   4   5
ENDBRANCH   3   4
ENDBRANCH   2   3
ENDBRANCH   1   2
BRANCH   1  12
ATOM     12  C   UNL     1     -35.167 -45.936  31.626  1.00  0.00     0.000 C 
BRANCH  12  13
ATOM     13  C   UNL     1     -36.007 -47.022  32.325  1.00  0.00    -0.000 C 
BRANCH  13  14
ATOM     14  C   UNL     1     -35.159 -47.918  33.241  1.00  0.00    -0.000 C 
BRANCH  14  15
ATOM     15  C   UNL     1     -35.811 -48.141  34.618  1.00  0.00    -0.000 C 
BRANCH  15  16
ATOM     16  C   UNL     1     -35.113 -49.242  35.433  1.00  0.00    -0.000 C 
BRANCH  16  17
ATOM     17  C   UNL     1     -33.646 -48.944  35.799  1.00  0.00    -0.000 C 
BRANCH  17  18
ATOM     18  C   UNL     1     -32.655 -50.036  35.343  1.00  0.00    -0.000 C 
BRANCH  18  19
ATOM     19  C   UNL     1     -31.201 -49.693  35.702  1.00  0.00    -0.003 C 
ATOM     20  C   UNL     1     -30.297 -49.773  34.476  1.00  0.00     0.004 C 
ENDBRANCH  18  19
ENDBRANCH  17  18
ENDBRANCH  16  17
ENDBRANCH  15  16
ENDBRANCH  14  15
ENDBRANCH  13  14
ENDBRANCH  12  13
ENDBRANCH   1  12
TORSDOF 16
ENDMDL
MODEL 9
REMARK VINA RESULT:    -3.594      8.287     10.194
REMARK INTER + INTRA:          -9.681
REMARK INTER:                  -6.860
REMARK INTRA:                  -2.821
REMARK UNBOUND:                -2.724
REMARK SMILES CCCCCCCCCCCCCCCCCC(=O)[O-]
REMARK SMILES IDX 10 1 11 2 12 3 13 4 14 5 15 6 16 7 17 8 18 9 19 10 20 11
REMARK SMILES IDX 9 12 8 13 7 14 6 15 5 16 4 17 3 18 2 19 1 20
REMARK H PARENT
REMARK Flexibility Score: inf
ROOT
ATOM      1  C   UNL     1     -29.714 -46.510  24.679  1.00  0.00     0.000 C 
ENDROOT
BRANCH   1   2
ATOM      2  C   UNL     1     -29.693 -45.730  23.353  1.00  0.00     0.000 C 
BRANCH   2   3
ATOM      3  C   UNL     1     -30.347 -46.510  22.201  1.00  0.00     0.000 C 
BRANCH   3   4
ATOM      4  C   UNL     1     -31.037 -47.801  22.676  1.00  0.00     0.000 C 
BRANCH   4   5
ATOM      5  C   UNL     1     -32.207 -48.221  21.767  1.00  0.00     0.000 C 
BRANCH   5   6
ATOM      6  C   UNL     1     -33.488 -48.641  22.509  1.00  0.00     0.000 C 
BRANCH   6   7
ATOM      7  C   UNL     1     -33.569 -48.071  23.936  1.00  0.00     0.006 C 
BRANCH   7   8
ATOM      8  C   UNL     1     -34.413 -46.790  24.001  1.00  0.00     0.053 C 
BRANCH   8   9
ATOM      9  C   UNL     1     -33.573 -45.586  24.297  1.00  0.00     0.041 C 
ATOM     10  O   UNL     1     -33.258 -44.790  23.372  1.00  0.00    -0.550 OA
ATOM     11  O   UNL     1     -33.160 -45.327  25.597  1.00  0.00    -0.550 OA
ENDBRANCH   8   9
ENDBRANCH   7   8
ENDBRANCH   6   7
ENDBRANCH   5   6
ENDBRANCH   4   5
ENDBRANCH   3   4
ENDBRANCH   2   3
ENDBRANCH   1   2
BRANCH   1  12
ATOM     12  C   UNL     1     -28.372 -46.437  25.428  1.00  0.00     0.000 C 
BRANCH  12  13
ATOM     13  C   UNL     1     -27.168 -46.361  24.471  1.00  0.00    -0.000 C 
BRANCH  13  14
ATOM     14  C   UNL     1     -26.478 -47.722  24.290  1.00  0.00    -0.000 C 
BRANCH  14  15
ATOM     15  C   UNL     1     -26.976 -48.477  23.043  1.00  0.00    -0.000 C 
BRANCH  15  16
ATOM     16  C   UNL     1     -27.971 -49.598  23.388  1.00  0.00    -0.000 C 
BRANCH  16  17
ATOM     17  C   UNL     1     -28.421 -50.454  22.189  1.00  0.00    -0.000 C 
BRANCH  17  18
ATOM     18  C   UNL     1     -29.207 -51.722  22.588  1.00  0.00    -0.000 C 
BRANCH  18  19
ATOM     19  C   UNL     1     -30.726 -51.528  22.469  1.00  0.00    -0.003 C 
ATOM     20  C   UNL     1     -31.374 -51.401  23.845  1.00  0.00     0.004 C 
ENDBRANCH  18  19
ENDBRANCH  17  18
ENDBRANCH  16  17
ENDBRANCH  15  16
ENDBRANCH  14  15
ENDBRANCH  13  14
ENDBRANCH  12  13
ENDBRANCH   1  12
TORSDOF 16
ENDMDL
