MODEL 1
REMARK VINA RESULT:    -3.633      0.000      0.000
REMARK INTER + INTRA:          -7.108
REMARK INTER:                  -5.756
REMARK INTRA:                  -1.352
REMARK UNBOUND:                -1.352
REMARK SMILES C=CCCCCCCCCCCC
REMARK SMILES IDX 7 1 8 2 9 3 10 4 11 5 12 6 13 7 6 8 5 9 4 10 3 11 2 12 1 13
REMARK H PARENT
REMARK Flexibility Score: inf
ROOT
ATOM      1  C   UNL     1     131.808 135.087 135.876  1.00  0.00     0.000 C 
ENDROOT
BRANCH   1   2
ATOM      2  C   UNL     1     132.299 136.402 135.236  1.00  0.00     0.000 C 
BRANCH   2   3
ATOM      3  C   UNL     1     133.668 136.899 135.741  1.00  0.00    -0.000 C 
BRANCH   3   4
ATOM      4  C   UNL     1     133.606 138.032 136.785  1.00  0.00    -0.000 C 
BRANCH   4   5
ATOM      5  C   UNL     1     132.899 139.314 136.312  1.00  0.00    -0.000 C 
BRANCH   5   6
ATOM      6  C   UNL     1     133.790 140.195 135.426  1.00  0.00    -0.003 C 
ATOM      7  C   UNL     1     134.885 140.872 136.246  1.00  0.00     0.004 C 
ENDBRANCH   5   6
ENDBRANCH   4   5
ENDBRANCH   3   4
ENDBRANCH   2   3
ENDBRANCH   1   2
BRANCH   1   8
ATOM      8  C   UNL     1     132.547 133.819 135.406  1.00  0.00     0.000 C 
BRANCH   8   9
ATOM      9  C   UNL     1     133.311 133.063 136.508  1.00  0.00     0.000 C 
BRANCH   9  10
ATOM     10  C   UNL     1     134.750 133.575 136.695  1.00  0.00     0.004 C 
BRANCH  10  11
ATOM     11  C   UNL     1     134.949 134.255 138.057  1.00  0.00     0.027 C 
BRANCH  11  12
ATOM     12  C   UNL     1     133.700 134.234 138.898  1.00  0.00    -0.035 C 
ATOM     13  C   UNL     1     133.145 135.357 139.364  1.00  0.00     0.004 C 
ENDBRANCH  11  12
ENDBRANCH  10  11
ENDBRANCH   9  10
ENDBRANCH   8   9
ENDBRANCH   1   8
TORSDOF 10
ENDMDL
MODEL 2
REMARK VINA RESULT:    -3.620      4.566      7.167
REMARK INTER + INTRA:          -7.088
REMARK INTER:                  -6.135
REMARK INTRA:                  -0.953
REMARK UNBOUND:                -1.352
REMARK SMILES C=CCCCCCCCCCCC
REMARK SMILES IDX 7 1 8 2 9 3 10 4 11 5 12 6 13 7 6 8 5 9 4 10 3 11 2 12 1 13
REMARK H PARENT
REMARK Flexibility Score: inf
ROOT
ATOM      1  C   UNL     1     138.632 133.784 137.124  1.00  0.00     0.000 C 
ENDROOT
BRANCH   1   2
ATOM      2  C   UNL     1     137.512 132.724 137.160  1.00  0.00     0.000 C 
BRANCH   2   3
ATOM      3  C   UNL     1     137.458 131.794 135.932  1.00  0.00    -0.000 C 
BRANCH   3   4
ATOM      4  C   UNL     1     136.749 132.385 134.697  1.00  0.00    -0.000 C 
BRANCH   4   5
ATOM      5  C   UNL     1     135.353 131.804 134.408  1.00  0.00    -0.000 C 
BRANCH   5   6
ATOM      6  C   UNL     1     134.232 132.840 134.567  1.00  0.00    -0.003 C 
ATOM      7  C   UNL     1     133.767 132.929 136.018  1.00  0.00     0.004 C 
ENDBRANCH   5   6
ENDBRANCH   4   5
ENDBRANCH   3   4
ENDBRANCH   2   3
ENDBRANCH   1   2
BRANCH   1   8
ATOM      8  C   UNL     1     139.838 133.428 136.233  1.00  0.00     0.000 C 
BRANCH   8   9
ATOM      9  C   UNL     1     140.167 134.459 135.139  1.00  0.00     0.000 C 
BRANCH   9  10
ATOM     10  C   UNL     1     139.518 135.830 135.395  1.00  0.00     0.004 C 
BRANCH  10  11
ATOM     11  C   UNL     1     140.523 136.982 135.246  1.00  0.00     0.027 C 
BRANCH  11  12
ATOM     12  C   UNL     1     140.687 137.769 136.519  1.00  0.00    -0.035 C 
ATOM     13  C   UNL     1     139.914 137.550 137.587  1.00  0.00     0.004 C 
ENDBRANCH  11  12
ENDBRANCH  10  11
ENDBRANCH   9  10
ENDBRANCH   8   9
ENDBRANCH   1   8
TORSDOF 10
ENDMDL
MODEL 3
REMARK VINA RESULT:    -3.597      3.435      6.238
REMARK INTER + INTRA:          -7.051
REMARK INTER:                  -6.171
REMARK INTRA:                  -0.880
REMARK UNBOUND:                -1.352
REMARK SMILES C=CCCCCCCCCCCC
REMARK SMILES IDX 7 1 8 2 9 3 10 4 11 5 12 6 13 7 6 8 5 9 4 10 3 11 2 12 1 13
REMARK H PARENT
REMARK Flexibility Score: inf
ROOT
ATOM      1  C   UNL     1     135.777 140.725 135.159  1.00  0.00     0.000 C 
ENDROOT
BRANCH   1   2
ATOM      2  C   UNL     1     136.864 139.637 135.271  1.00  0.00     0.000 C 
BRANCH   2   3
ATOM      3  C   UNL     1     138.271 140.077 134.822  1.00  0.00    -0.000 C 
BRANCH   3   4
ATOM      4  C   UNL     1     139.380 139.891 135.878  1.00  0.00    -0.000 C 
BRANCH   4   5
ATOM      5  C   UNL     1     138.965 139.087 137.123  1.00  0.00    -0.000 C 
BRANCH   5   6
ATOM      6  C   UNL     1     139.730 137.764 137.262  1.00  0.00    -0.003 C 
ATOM      7  C   UNL     1     140.881 137.687 136.263  1.00  0.00     0.004 C 
ENDBRANCH   5   6
ENDBRANCH   4   5
ENDBRANCH   3   4
ENDBRANCH   2   3
ENDBRANCH   1   2
BRANCH   1   8
ATOM      8  C   UNL     1     134.870 140.870 136.396  1.00  0.00     0.000 C 
BRANCH   8   9
ATOM      9  C   UNL     1     134.789 139.623 137.295  1.00  0.00     0.000 C 
BRANCH   9  10
ATOM     10  C   UNL     1     133.383 138.999 137.326  1.00  0.00     0.004 C 
BRANCH  10  11
ATOM     11  C   UNL     1     132.643 139.176 135.992  1.00  0.00     0.027 C 
BRANCH  11  12
ATOM     12  C   UNL     1     132.863 138.017 135.056  1.00  0.00    -0.035 C 
ATOM     13  C   UNL     1     131.865 137.490 134.340  1.00  0.00     0.004 C 
ENDBRANCH  11  12
ENDBRANCH  10  11
ENDBRANCH   9  10
ENDBRANCH   8   9
ENDBRANCH   1   8
TORSDOF 10
ENDMDL
MODEL 4
REMARK VINA RESULT:    -3.596      3.366      5.399
REMARK INTER + INTRA:          -7.049
REMARK INTER:                  -6.169
REMARK INTRA:                  -0.881
REMARK UNBOUND:                -1.352
REMARK SMILES C=CCCCCCCCCCCC
REMARK SMILES IDX 7 1 8 2 9 3 10 4 11 5 12 6 13 7 6 8 5 9 4 10 3 11 2 12 1 13
REMARK H PARENT
REMARK Flexibility Score: inf
ROOT
ATOM      1  C   UNL     1     135.876 133.221 134.993  1.00  0.00     0.000 C 
ENDROOT
BRANCH   1   2
ATOM      2  C   UNL     1     134.522 132.514 134.779  1.00  0.00     0.000 C 
BRANCH   2   3
ATOM      3  C   UNL     1     133.437 132.862 135.816  1.00  0.00    -0.000 C 
BRANCH   3   4
ATOM      4  C   UNL     1     132.307 133.774 135.297  1.00  0.00    -0.000 C 
BRANCH   4   5
ATOM      5  C   UNL     1     131.886 134.900 136.258  1.00  0.00    -0.000 C 
BRANCH   5   6
ATOM      6  C   UNL     1     132.730 134.937 137.540  1.00  0.00    -0.003 C 
ATOM      7  C   UNL     1     133.693 136.121 137.531  1.00  0.00     0.004 C 
ENDBRANCH   5   6
ENDBRANCH   4   5
ENDBRANCH   3   4
ENDBRANCH   2   3
ENDBRANCH   1   2
BRANCH   1   8
ATOM      8  C   UNL     1     136.422 133.160 136.433  1.00  0.00     0.000 C 
BRANCH   8   9
ATOM      9  C   UNL     1     137.620 132.216 136.637  1.00  0.00     0.000 C 
BRANCH   9  10
ATOM     10  C   UNL     1     138.631 132.276 135.478  1.00  0.00     0.004 C 
BRANCH  10  11
ATOM     11  C   UNL     1     139.698 133.359 135.697  1.00  0.00     0.027 C 
BRANCH  11  12
ATOM     12  C   UNL     1     139.693 134.398 134.607  1.00  0.00    -0.035 C 
ATOM     13  C   UNL     1     140.753 135.177 134.372  1.00  0.00     0.004 C 
ENDBRANCH  11  12
ENDBRANCH  10  11
ENDBRANCH   9  10
ENDBRANCH   8   9
ENDBRANCH   1   8
TORSDOF 10
ENDMDL
MODEL 5
REMARK VINA RESULT:    -3.595      4.780      5.927
REMARK INTER + INTRA:          -7.049
REMARK INTER:                  -5.777
REMARK INTRA:                  -1.272
REMARK UNBOUND:                -1.352
REMARK SMILES C=CCCCCCCCCCCC
REMARK SMILES IDX 7 1 8 2 9 3 10 4 11 5 12 6 13 7 6 8 5 9 4 10 3 11 2 12 1 13
REMARK H PARENT
REMARK Flexibility Score: inf
ROOT
ATOM      1  C   UNL     1     139.823 133.328 135.950  1.00  0.00     0.000 C 
ENDROOT
BRANCH   1   2
ATOM      2  C   UNL     1     140.109 134.597 135.121  1.00  0.00     0.000 C 
BRANCH   2   3
ATOM      3  C   UNL     1     139.211 135.805 135.451  1.00  0.00    -0.000 C 
BRANCH   3   4
ATOM      4  C   UNL     1     139.709 136.690 136.612  1.00  0.00    -0.000 C 
BRANCH   4   5
ATOM      5  C   UNL     1     140.808 137.699 136.235  1.00  0.00    -0.000 C 
BRANCH   5   6
ATOM      6  C   UNL     1     140.303 138.813 135.308  1.00  0.00    -0.003 C 
ATOM      7  C   UNL     1     139.297 139.710 136.024  1.00  0.00     0.004 C 
ENDBRANCH   5   6
ENDBRANCH   4   5
ENDBRANCH   3   4
ENDBRANCH   2   3
ENDBRANCH   1   2
BRANCH   1   8
ATOM      8  C   UNL     1     138.794 132.363 135.329  1.00  0.00     0.000 C 
BRANCH   8   9
ATOM      9  C   UNL     1     137.497 132.184 136.138  1.00  0.00     0.000 C 
BRANCH   9  10
ATOM     10  C   UNL     1     137.662 132.555 137.622  1.00  0.00     0.004 C 
BRANCH  10  11
ATOM     11  C   UNL     1     136.921 133.853 137.978  1.00  0.00     0.027 C 
BRANCH  11  12
ATOM     12  C   UNL     1     137.640 134.653 139.032  1.00  0.00    -0.035 C 
ATOM     13  C   UNL     1     138.884 134.353 139.418  1.00  0.00     0.004 C 
ENDBRANCH  11  12
ENDBRANCH  10  11
ENDBRANCH   9  10
ENDBRANCH   8   9
ENDBRANCH   1   8
TORSDOF 10
ENDMDL
MODEL 6
REMARK VINA RESULT:    -3.587      1.591      5.666
REMARK INTER + INTRA:          -7.035
REMARK INTER:                  -6.203
REMARK INTRA:                  -0.832
REMARK UNBOUND:                -1.352
REMARK SMILES C=CCCCCCCCCCCC
REMARK SMILES IDX 7 1 8 2 9 3 10 4 11 5 12 6 13 7 6 8 5 9 4 10 3 11 2 12 1 13
REMARK H PARENT
REMARK Flexibility Score: inf
ROOT
ATOM      1  C   UNL     1     133.517 136.887 135.440  1.00  0.00     0.000 C 
ENDROOT
BRANCH   1   2
ATOM      2  C   UNL     1     132.951 136.024 136.586  1.00  0.00     0.000 C 
BRANCH   2   3
ATOM      3  C   UNL     1     131.868 135.012 136.163  1.00  0.00    -0.000 C 
BRANCH   3   4
ATOM      4  C   UNL     1     132.380 133.818 135.332  1.00  0.00    -0.000 C 
BRANCH   4   5
ATOM      5  C   UNL     1     133.333 132.867 136.078  1.00  0.00    -0.000 C 
BRANCH   5   6
ATOM      6  C   UNL     1     134.773 132.928 135.550  1.00  0.00    -0.003 C 
ATOM      7  C   UNL     1     134.945 132.043 134.319  1.00  0.00     0.004 C 
ENDBRANCH   5   6
ENDBRANCH   4   5
ENDBRANCH   3   4
ENDBRANCH   2   3
ENDBRANCH   1   2
BRANCH   1   8
ATOM      8  C   UNL     1     132.639 138.085 135.032  1.00  0.00     0.000 C 
BRANCH   8   9
ATOM      9  C   UNL     1     132.781 139.332 135.923  1.00  0.00     0.000 C 
BRANCH   9  10
ATOM     10  C   UNL     1     133.945 140.242 135.496  1.00  0.00     0.004 C 
BRANCH  10  11
ATOM     11  C   UNL     1     134.845 140.624 136.682  1.00  0.00     0.027 C 
BRANCH  11  12
ATOM     12  C   UNL     1     134.877 139.558 137.745  1.00  0.00    -0.035 C 
ATOM     13  C   UNL     1     135.334 139.805 138.976  1.00  0.00     0.004 C 
ENDBRANCH  11  12
ENDBRANCH  10  11
ENDBRANCH   9  10
ENDBRANCH   8   9
ENDBRANCH   1   8
TORSDOF 10
ENDMDL
MODEL 7
REMARK VINA RESULT:    -3.573      2.979      5.163
REMARK INTER + INTRA:          -7.014
REMARK INTER:                  -5.404
REMARK INTRA:                  -1.610
REMARK UNBOUND:                -1.352
REMARK SMILES C=CCCCCCCCCCCC
REMARK SMILES IDX 7 1 8 2 9 3 10 4 11 5 12 6 13 7 6 8 5 9 4 10 3 11 2 12 1 13
REMARK H PARENT
REMARK Flexibility Score: inf
ROOT
ATOM      1  C   UNL     1     137.013 132.506 133.867  1.00  0.00     0.000 C 
ENDROOT
BRANCH   1   2
ATOM      2  C   UNL     1     138.115 132.619 134.940  1.00  0.00     0.000 C 
BRANCH   2   3
ATOM      3  C   UNL     1     137.812 131.885 136.261  1.00  0.00    -0.000 C 
BRANCH   3   4
ATOM      4  C   UNL     1     137.734 132.791 137.507  1.00  0.00    -0.000 C 
BRANCH   4   5
ATOM      5  C   UNL     1     136.353 133.417 137.770  1.00  0.00    -0.000 C 
BRANCH   5   6
ATOM      6  C   UNL     1     136.396 134.950 137.842  1.00  0.00    -0.003 C 
ATOM      7  C   UNL     1     136.220 135.571 136.459  1.00  0.00     0.004 C 
ENDBRANCH   5   6
ENDBRANCH   4   5
ENDBRANCH   3   4
ENDBRANCH   2   3
ENDBRANCH   1   2
BRANCH   1   8
ATOM      8  C   UNL     1     135.642 132.033 134.388  1.00  0.00     0.000 C 
BRANCH   8   9
ATOM      9  C   UNL     1     134.525 133.092 134.338  1.00  0.00     0.000 C 
BRANCH   9  10
ATOM     10  C   UNL     1     133.513 132.948 135.488  1.00  0.00     0.004 C 
BRANCH  10  11
ATOM     11  C   UNL     1     132.224 133.742 135.227  1.00  0.00     0.027 C 
BRANCH  11  12
ATOM     12  C   UNL     1     132.069 134.909 136.166  1.00  0.00    -0.035 C 
ATOM     13  C   UNL     1     132.566 134.886 137.406  1.00  0.00     0.004 C 
ENDBRANCH  11  12
ENDBRANCH  10  11
ENDBRANCH   9  10
ENDBRANCH   8   9
ENDBRANCH   1   8
TORSDOF 10
ENDMDL
MODEL 8
REMARK VINA RESULT:    -3.558      3.759      6.278
REMARK INTER + INTRA:          -6.990
REMARK INTER:                  -5.320
REMARK INTRA:                  -1.670
REMARK UNBOUND:                -1.352
REMARK SMILES C=CCCCCCCCCCCC
REMARK SMILES IDX 7 1 8 2 9 3 10 4 11 5 12 6 13 7 6 8 5 9 4 10 3 11 2 12 1 13
REMARK H PARENT
REMARK Flexibility Score: inf
ROOT
ATOM      1  C   UNL     1     135.585 139.985 134.131  1.00  0.00     0.000 C 
ENDROOT
BRANCH   1   2
ATOM      2  C   UNL     1     136.887 140.736 134.479  1.00  0.00     0.000 C 
BRANCH   2   3
ATOM      3  C   UNL     1     138.175 139.902 134.335  1.00  0.00    -0.000 C 
BRANCH   3   4
ATOM      4  C   UNL     1     139.022 139.782 135.618  1.00  0.00    -0.000 C 
BRANCH   4   5
ATOM      5  C   UNL     1     140.307 138.948 135.474  1.00  0.00    -0.000 C 
BRANCH   5   6
ATOM      6  C   UNL     1     140.370 137.772 136.457  1.00  0.00    -0.003 C 
ATOM      7  C   UNL     1     140.032 136.456 135.762  1.00  0.00     0.004 C 
ENDBRANCH   5   6
ENDBRANCH   4   5
ENDBRANCH   3   4
ENDBRANCH   2   3
ENDBRANCH   1   2
BRANCH   1   8
ATOM      8  C   UNL     1     134.409 140.240 135.094  1.00  0.00     0.000 C 
BRANCH   8   9
ATOM      9  C   UNL     1     134.807 140.771 136.483  1.00  0.00     0.000 C 
BRANCH   9  10
ATOM     10  C   UNL     1     134.812 139.674 137.562  1.00  0.00     0.004 C 
BRANCH  10  11
ATOM     11  C   UNL     1     136.224 139.127 137.824  1.00  0.00     0.027 C 
BRANCH  11  12
ATOM     12  C   UNL     1     136.327 137.650 137.549  1.00  0.00    -0.035 C 
ATOM     13  C   UNL     1     136.398 137.168 136.305  1.00  0.00     0.004 C 
ENDBRANCH  11  12
ENDBRANCH  10  11
ENDBRANCH   9  10
ENDBRANCH   8   9
ENDBRANCH   1   8
TORSDOF 10
ENDMDL
MODEL 9
REMARK VINA RESULT:    -3.545      5.200      7.637
REMARK INTER + INTRA:          -6.969
REMARK INTER:                  -5.310
REMARK INTRA:                  -1.659
REMARK UNBOUND:                -1.352
REMARK SMILES C=CCCCCCCCCCCC
REMARK SMILES IDX 7 1 8 2 9 3 10 4 11 5 12 6 13 7 6 8 5 9 4 10 3 11 2 12 1 13
REMARK H PARENT
REMARK Flexibility Score: inf
ROOT
ATOM      1  C   UNL     1     139.986 137.358 133.985  1.00  0.00     0.000 C 
ENDROOT
BRANCH   1   2
ATOM      2  C   UNL     1     140.519 135.941 134.275  1.00  0.00     0.000 C 
BRANCH   2   3
ATOM      3  C   UNL     1     139.433 134.880 134.539  1.00  0.00    -0.000 C 
BRANCH   3   4
ATOM      4  C   UNL     1     139.806 133.811 135.587  1.00  0.00    -0.000 C 
BRANCH   4   5
ATOM      5  C   UNL     1     139.119 133.973 136.954  1.00  0.00    -0.000 C 
BRANCH   5   6
ATOM      6  C   UNL     1     137.848 133.124 137.088  1.00  0.00    -0.003 C 
ATOM      7  C   UNL     1     137.982 131.809 136.325  1.00  0.00     0.004 C 
ENDBRANCH   5   6
ENDBRANCH   4   5
ENDBRANCH   3   4
ENDBRANCH   2   3
ENDBRANCH   1   2
BRANCH   1   8
ATOM      8  C   UNL     1     140.217 138.385 135.111  1.00  0.00     0.000 C 
BRANCH   8   9
ATOM      9  C   UNL     1     140.923 137.833 136.362  1.00  0.00     0.000 C 
BRANCH   9  10
ATOM     10  C   UNL     1     139.957 137.589 137.534  1.00  0.00     0.004 C 
BRANCH  10  11
ATOM     11  C   UNL     1     138.647 138.376 137.376  1.00  0.00     0.027 C 
BRANCH  11  12
ATOM     12  C   UNL     1     137.435 137.481 137.392  1.00  0.00    -0.035 C 
ATOM     13  C   UNL     1     136.938 136.949 136.271  1.00  0.00     0.004 C 
ENDBRANCH  11  12
ENDBRANCH  10  11
ENDBRANCH   9  10
ENDBRANCH   8   9
ENDBRANCH   1   8
TORSDOF 10
ENDMDL
