MODEL 1
REMARK VINA RESULT:     0.000      0.000      0.000
REMARK INTER + INTRA:          -0.335
REMARK INTER:                   0.000
REMARK INTRA:                  -0.335
REMARK UNBOUND:                -0.335
REMARK SMILES O=c1c(O)c(-c2ccc(O)c(O)c2)oc2cc(O)cc(O)c12
REMARK SMILES IDX 5 1 3 2 2 3 1 4 22 5 20 6 19 7 17 8 16 9 15 10 14 11 6 12
REMARK SMILES IDX 7 13 8 14 9 15 13 16 11 17 10 18 12 20 4 22 21 24 18 26
REMARK H PARENT 10 19 12 21 4 23 21 25 18 27
REMARK Flexibility Score: inf
ROOT
ATOM      1  C   UNL     1       5.971   5.866  13.024  1.00  0.00     0.180 A 
ATOM      2  C   UNL     1       5.296   6.148  14.224  1.00  0.00     0.208 A 
ATOM      3  C   UNL     1       5.772   5.587  15.420  1.00  0.00     0.238 A 
ATOM      4  O   UNL     1       5.197   5.887  16.499  1.00  0.00    -0.285 OA
ATOM      5  C   UNL     1       6.906   4.740  15.399  1.00  0.00     0.111 A 
ATOM      6  C   UNL     1       7.450   4.087  16.545  1.00  0.00     0.134 A 
ATOM      7  C   UNL     1       8.653   3.376  16.429  1.00  0.00     0.093 A 
ATOM      8  C   UNL     1       9.293   3.243  15.195  1.00  0.00     0.123 A 
ATOM      9  C   UNL     1       8.738   3.827  14.060  1.00  0.00     0.094 A 
ATOM     10  C   UNL     1       7.559   4.573  14.150  1.00  0.00     0.146 A 
ATOM     11  O   UNL     1       7.070   5.122  13.046  1.00  0.00    -0.452 OA
ENDROOT
BRANCH   1  12
ATOM     12  C   UNL     1       5.514   6.400  11.720  1.00  0.00     0.025 A 
ATOM     13  C   UNL     1       4.589   5.700  10.926  1.00  0.00     0.016 A 
ATOM     14  C   UNL     1       4.191   6.211   9.688  1.00  0.00     0.051 A 
ATOM     15  C   UNL     1       4.721   7.420   9.218  1.00  0.00     0.157 A 
ATOM     16  C   UNL     1       6.059   7.600  11.235  1.00  0.00     0.062 A 
ATOM     17  C   UNL     1       5.662   8.115   9.996  1.00  0.00     0.158 A 
BRANCH  15  18
ATOM     18  O   UNL     1       4.321   7.928   7.983  1.00  0.00    -0.504 OA
ATOM     19  H   UNL     1       4.969   8.415   7.375  1.00  0.00     0.293 HD
ENDBRANCH  15  18
BRANCH  17  20
ATOM     20  O   UNL     1       6.215   9.318   9.554  1.00  0.00    -0.504 OA
ATOM     21  H   UNL     1       7.136   9.364   9.134  1.00  0.00     0.293 HD
ENDBRANCH  17  20
ENDBRANCH   1  12
BRANCH   2  22
ATOM     22  O   UNL     1       4.191   7.004  14.226  1.00  0.00    -0.502 OA
ATOM     23  H   UNL     1       3.642   7.182  15.059  1.00  0.00     0.293 HD
ENDBRANCH   2  22
BRANCH   6  24
ATOM     24  O   UNL     1       6.841   4.081  17.803  1.00  0.00    -0.507 OA
ATOM     25  H   UNL     1       7.337   4.073  18.681  1.00  0.00     0.293 HD
ENDBRANCH   6  24
BRANCH   8  26
ATOM     26  O   UNL     1      10.480   2.521  15.086  1.00  0.00    -0.508 OA
ATOM     27  H   UNL     1      11.201   2.783  14.424  1.00  0.00     0.293 HD
ENDBRANCH   8  26
TORSDOF 6
ENDMDL
MODEL 2
REMARK VINA RESULT:     0.000      4.959      6.152
REMARK INTER + INTRA:          -0.335
REMARK INTER:                   0.000
REMARK INTRA:                  -0.335
REMARK UNBOUND:                -0.335
REMARK SMILES O=c1c(O)c(-c2ccc(O)c(O)c2)oc2cc(O)cc(O)c12
REMARK SMILES IDX 5 1 3 2 2 3 1 4 22 5 20 6 19 7 17 8 16 9 15 10 14 11 6 12
REMARK SMILES IDX 7 13 8 14 9 15 13 16 11 17 10 18 12 20 4 22 21 24 18 26
REMARK H PARENT 10 19 12 21 4 23 21 25 18 27
REMARK Flexibility Score: inf
ROOT
ATOM      1  C   UNL     1       4.924   1.572  11.956  1.00  0.00     0.180 A 
ATOM      2  C   UNL     1       5.686   0.698  12.751  1.00  0.00     0.208 A 
ATOM      3  C   UNL     1       5.236   0.385  14.043  1.00  0.00     0.238 A 
ATOM      4  O   UNL     1       5.893  -0.441  14.728  1.00  0.00    -0.285 OA
ATOM      5  C   UNL     1       4.039   0.962  14.531  1.00  0.00     0.111 A 
ATOM      6  C   UNL     1       3.510   0.747  15.839  1.00  0.00     0.134 A 
ATOM      7  C   UNL     1       2.250   1.265  16.169  1.00  0.00     0.093 A 
ATOM      8  C   UNL     1       1.533   2.045  15.259  1.00  0.00     0.123 A 
ATOM      9  C   UNL     1       2.067   2.310  14.001  1.00  0.00     0.094 A 
ATOM     10  C   UNL     1       3.305   1.777  13.630  1.00  0.00     0.146 A 
ATOM     11  O   UNL     1       3.773   2.045  12.417  1.00  0.00    -0.452 OA
ENDROOT
BRANCH   1  12
ATOM     12  C   UNL     1       5.347   1.969  10.594  1.00  0.00     0.025 A 
ATOM     13  C   UNL     1       6.168   3.090  10.379  1.00  0.00     0.016 A 
ATOM     14  C   UNL     1       6.534   3.460   9.082  1.00  0.00     0.051 A 
ATOM     15  C   UNL     1       6.076   2.725   7.981  1.00  0.00     0.157 A 
ATOM     16  C   UNL     1       4.873   1.248   9.485  1.00  0.00     0.062 A 
ATOM     17  C   UNL     1       5.239   1.615   8.185  1.00  0.00     0.158 A 
BRANCH  15  18
ATOM     18  O   UNL     1       6.445   3.095   6.689  1.00  0.00    -0.504 OA
ATOM     19  H   UNL     1       6.598   2.406   5.963  1.00  0.00     0.293 HD
ENDBRANCH  15  18
BRANCH  17  20
ATOM     20  O   UNL     1       4.759   0.867   7.110  1.00  0.00    -0.504 OA
ATOM     21  H   UNL     1       5.304   0.127   6.684  1.00  0.00     0.293 HD
ENDBRANCH  17  20
ENDBRANCH   1  12
BRANCH   2  22
ATOM     22  O   UNL     1       6.854   0.122  12.242  1.00  0.00    -0.502 OA
ATOM     23  H   UNL     1       6.987  -0.881  12.187  1.00  0.00     0.293 HD
ENDBRANCH   2  22
BRANCH   6  24
ATOM     24  O   UNL     1       4.187   0.060  16.851  1.00  0.00    -0.507 OA
ATOM     25  H   UNL     1       3.909  -0.835  17.223  1.00  0.00     0.293 HD
ENDBRANCH   6  24
BRANCH   8  26
ATOM     26  O   UNL     1       0.288   2.570  15.601  1.00  0.00    -0.508 OA
ATOM     27  H   UNL     1       0.047   2.779  16.563  1.00  0.00     0.293 HD
ENDBRANCH   8  26
TORSDOF 6
ENDMDL
MODEL 3
REMARK VINA RESULT:     0.000      6.433      8.004
REMARK INTER + INTRA:          -0.335
REMARK INTER:                   0.000
REMARK INTRA:                  -0.335
REMARK UNBOUND:                -0.335
REMARK SMILES O=c1c(O)c(-c2ccc(O)c(O)c2)oc2cc(O)cc(O)c12
REMARK SMILES IDX 5 1 3 2 2 3 1 4 22 5 20 6 19 7 17 8 16 9 15 10 14 11 6 12
REMARK SMILES IDX 7 13 8 14 9 15 13 16 11 17 10 18 12 20 4 22 21 24 18 26
REMARK H PARENT 10 19 12 21 4 23 21 25 18 27
REMARK Flexibility Score: inf
ROOT
ATOM      1  C   UNL     1       7.798   9.559  18.242  1.00  0.00     0.180 A 
ATOM      2  C   UNL     1       7.458  10.732  18.937  1.00  0.00     0.208 A 
ATOM      3  C   UNL     1       8.434  11.726  19.115  1.00  0.00     0.238 A 
ATOM      4  O   UNL     1       8.109  12.797  19.689  1.00  0.00    -0.285 OA
ATOM      5  C   UNL     1       9.742  11.526  18.610  1.00  0.00     0.111 A 
ATOM      6  C   UNL     1      10.820  12.449  18.767  1.00  0.00     0.134 A 
ATOM      7  C   UNL     1      12.035  12.208  18.113  1.00  0.00     0.093 A 
ATOM      8  C   UNL     1      12.231  11.046  17.362  1.00  0.00     0.123 A 
ATOM      9  C   UNL     1      11.204  10.112  17.252  1.00  0.00     0.094 A 
ATOM     10  C   UNL     1       9.968  10.341  17.862  1.00  0.00     0.146 A 
ATOM     11  O   UNL     1       9.013   9.430  17.723  1.00  0.00    -0.452 OA
ENDROOT
BRANCH   1  12
ATOM     12  C   UNL     1       6.830   8.457  18.037  1.00  0.00     0.025 A 
ATOM     13  C   UNL     1       6.697   7.416  18.973  1.00  0.00     0.016 A 
ATOM     14  C   UNL     1       5.795   6.374  18.746  1.00  0.00     0.051 A 
ATOM     15  C   UNL     1       5.023   6.347  17.577  1.00  0.00     0.157 A 
ATOM     16  C   UNL     1       6.070   8.415  16.857  1.00  0.00     0.062 A 
ATOM     17  C   UNL     1       5.165   7.372  16.627  1.00  0.00     0.158 A 
BRANCH  15  18
ATOM     18  O   UNL     1       4.123   5.306  17.355  1.00  0.00    -0.504 OA
ATOM     19  H   UNL     1       3.426   5.051  18.045  1.00  0.00     0.293 HD
ENDBRANCH  15  18
BRANCH  17  20
ATOM     20  O   UNL     1       4.417   7.372  15.449  1.00  0.00    -0.504 OA
ATOM     21  H   UNL     1       4.271   8.214  14.905  1.00  0.00     0.293 HD
ENDBRANCH  17  20
ENDBRANCH   1  12
BRANCH   2  22
ATOM     22  O   UNL     1       6.155  10.918  19.409  1.00  0.00    -0.502 OA
ATOM     23  H   UNL     1       5.844  11.791  19.820  1.00  0.00     0.293 HD
ENDBRANCH   2  22
BRANCH   6  24
ATOM     24  O   UNL     1      10.759  13.592  19.568  1.00  0.00    -0.507 OA
ATOM     25  H   UNL     1      10.914  13.603  20.565  1.00  0.00     0.293 HD
ENDBRANCH   6  24
BRANCH   8  26
ATOM     26  O   UNL     1      13.448  10.806  16.728  1.00  0.00    -0.508 OA
ATOM     27  H   UNL     1      13.776   9.865  16.548  1.00  0.00     0.293 HD
ENDBRANCH   8  26
TORSDOF 6
ENDMDL
MODEL 4
REMARK VINA RESULT:     0.000      4.974      6.666
REMARK INTER + INTRA:          -0.335
REMARK INTER:                   0.000
REMARK INTRA:                  -0.335
REMARK UNBOUND:                -0.335
REMARK SMILES O=c1c(O)c(-c2ccc(O)c(O)c2)oc2cc(O)cc(O)c12
REMARK SMILES IDX 5 1 3 2 2 3 1 4 22 5 20 6 19 7 17 8 16 9 15 10 14 11 6 12
REMARK SMILES IDX 7 13 8 14 9 15 13 16 11 17 10 18 12 20 4 22 21 24 18 26
REMARK H PARENT 10 19 12 21 4 23 21 25 18 27
REMARK Flexibility Score: inf
ROOT
ATOM      1  C   UNL     1       9.217   8.513  14.761  1.00  0.00     0.180 A 
ATOM      2  C   UNL     1       8.479   7.429  15.268  1.00  0.00     0.208 A 
ATOM      3  C   UNL     1       7.415   7.681  16.148  1.00  0.00     0.238 A 
ATOM      4  O   UNL     1       6.724   6.711  16.555  1.00  0.00    -0.285 OA
ATOM      5  C   UNL     1       7.111   9.012  16.523  1.00  0.00     0.111 A 
ATOM      6  C   UNL     1       6.080   9.380  17.438  1.00  0.00     0.134 A 
ATOM      7  C   UNL     1       5.783  10.736  17.635  1.00  0.00     0.093 A 
ATOM      8  C   UNL     1       6.524  11.734  16.998  1.00  0.00     0.123 A 
ATOM      9  C   UNL     1       7.570  11.385  16.149  1.00  0.00     0.094 A 
ATOM     10  C   UNL     1       7.867  10.042  15.904  1.00  0.00     0.146 A 
ATOM     11  O   UNL     1       8.866   9.753  15.079  1.00  0.00    -0.452 OA
ENDROOT
BRANCH   1  12
ATOM     12  C   UNL     1      10.368   8.325  13.849  1.00  0.00     0.025 A 
ATOM     13  C   UNL     1      11.673   8.153  14.343  1.00  0.00     0.016 A 
ATOM     14  C   UNL     1      12.747   8.002  13.463  1.00  0.00     0.051 A 
ATOM     15  C   UNL     1      12.538   8.033  12.078  1.00  0.00     0.157 A 
ATOM     16  C   UNL     1      10.166   8.377  12.460  1.00  0.00     0.062 A 
ATOM     17  C   UNL     1      11.240   8.225  11.576  1.00  0.00     0.158 A 
BRANCH  15  18
ATOM     18  O   UNL     1      13.611   7.880  11.202  1.00  0.00    -0.504 OA
ATOM     19  H   UNL     1      14.507   7.528  11.518  1.00  0.00     0.293 HD
ENDBRANCH  15  18
BRANCH  17  20
ATOM     20  O   UNL     1      10.997   8.270  10.202  1.00  0.00    -0.504 OA
ATOM     21  H   UNL     1      10.224   8.794   9.809  1.00  0.00     0.293 HD
ENDBRANCH  17  20
ENDBRANCH   1  12
BRANCH   2  22
ATOM     22  O   UNL     1       8.782   6.124  14.868  1.00  0.00    -0.502 OA
ATOM     23  H   UNL     1       8.433   5.724  14.006  1.00  0.00     0.293 HD
ENDBRANCH   2  22
BRANCH   6  24
ATOM     24  O   UNL     1       5.343   8.464  18.194  1.00  0.00    -0.507 OA
ATOM     25  H   UNL     1       4.429   8.119  17.945  1.00  0.00     0.293 HD
ENDBRANCH   6  24
BRANCH   8  26
ATOM     26  O   UNL     1       6.232  13.080  17.212  1.00  0.00    -0.508 OA
ATOM     27  H   UNL     1       5.294  13.445  17.094  1.00  0.00     0.293 HD
ENDBRANCH   8  26
TORSDOF 6
ENDMDL
MODEL 5
REMARK VINA RESULT:     0.000      6.478      9.517
REMARK INTER + INTRA:          -0.335
REMARK INTER:                   0.000
REMARK INTRA:                  -0.335
REMARK UNBOUND:                -0.335
REMARK SMILES O=c1c(O)c(-c2ccc(O)c(O)c2)oc2cc(O)cc(O)c12
REMARK SMILES IDX 5 1 3 2 2 3 1 4 22 5 20 6 19 7 17 8 16 9 15 10 14 11 6 12
REMARK SMILES IDX 7 13 8 14 9 15 13 16 11 17 10 18 12 20 4 22 21 24 18 26
REMARK H PARENT 10 19 12 21 4 23 21 25 18 27
REMARK Flexibility Score: inf
ROOT
ATOM      1  C   UNL     1      12.366   7.115  10.890  1.00  0.00     0.180 A 
ATOM      2  C   UNL     1      11.632   5.929  10.712  1.00  0.00     0.208 A 
ATOM      3  C   UNL     1      11.165   5.605   9.428  1.00  0.00     0.238 A 
ATOM      4  O   UNL     1      10.556   4.516   9.265  1.00  0.00    -0.285 OA
ATOM      5  C   UNL     1      11.423   6.476   8.343  1.00  0.00     0.111 A 
ATOM      6  C   UNL     1      10.963   6.266   7.008  1.00  0.00     0.134 A 
ATOM      7  C   UNL     1      11.389   7.126   5.988  1.00  0.00     0.093 A 
ATOM      8  C   UNL     1      12.204   8.226   6.267  1.00  0.00     0.123 A 
ATOM      9  C   UNL     1      12.609   8.473   7.576  1.00  0.00     0.094 A 
ATOM     10  C   UNL     1      12.231   7.612   8.610  1.00  0.00     0.146 A 
ATOM     11  O   UNL     1      12.648   7.878   9.841  1.00  0.00    -0.452 OA
ENDROOT
BRANCH   1  12
ATOM     12  C   UNL     1      12.870   7.537  12.217  1.00  0.00     0.025 A 
ATOM     13  C   UNL     1      12.092   8.333  13.076  1.00  0.00     0.016 A 
ATOM     14  C   UNL     1      12.598   8.740  14.313  1.00  0.00     0.051 A 
ATOM     15  C   UNL     1      13.892   8.371  14.705  1.00  0.00     0.157 A 
ATOM     16  C   UNL     1      14.174   7.187  12.605  1.00  0.00     0.062 A 
ATOM     17  C   UNL     1      14.683   7.593  13.844  1.00  0.00     0.158 A 
BRANCH  15  18
ATOM     18  O   UNL     1      14.393   8.776  15.941  1.00  0.00    -0.504 OA
ATOM     19  H   UNL     1      14.404   8.153  16.739  1.00  0.00     0.293 HD
ENDBRANCH  15  18
BRANCH  17  20
ATOM     20  O   UNL     1      15.978   7.214  14.200  1.00  0.00    -0.504 OA
ATOM     21  H   UNL     1      16.277   7.164  15.167  1.00  0.00     0.293 HD
ENDBRANCH  17  20
ENDBRANCH   1  12
BRANCH   2  22
ATOM     22  O   UNL     1      11.407   5.072  11.793  1.00  0.00    -0.502 OA
ATOM     23  H   UNL     1      11.269   4.075  11.677  1.00  0.00     0.293 HD
ENDBRANCH   2  22
BRANCH   6  24
ATOM     24  O   UNL     1      10.074   5.253   6.640  1.00  0.00    -0.507 OA
ATOM     25  H   UNL     1      10.311   4.274   6.580  1.00  0.00     0.293 HD
ENDBRANCH   6  24
BRANCH   8  26
ATOM     26  O   UNL     1      12.610   9.086   5.248  1.00  0.00    -0.508 OA
ATOM     27  H   UNL     1      12.214  10.013   5.148  1.00  0.00     0.293 HD
ENDBRANCH   8  26
TORSDOF 6
ENDMDL
MODEL 6
REMARK VINA RESULT:     0.000      3.873      6.200
REMARK INTER + INTRA:          -0.335
REMARK INTER:                   0.000
REMARK INTRA:                  -0.335
REMARK UNBOUND:                -0.335
REMARK SMILES O=c1c(O)c(-c2ccc(O)c(O)c2)oc2cc(O)cc(O)c12
REMARK SMILES IDX 5 1 3 2 2 3 1 4 22 5 20 6 19 7 17 8 16 9 15 10 14 11 6 12
REMARK SMILES IDX 7 13 8 14 9 15 13 16 11 17 10 18 12 20 4 22 21 24 18 26
REMARK H PARENT 10 19 12 21 4 23 21 25 18 27
REMARK Flexibility Score: inf
ROOT
ATOM      1  C   UNL     1       6.833   4.344  14.989  1.00  0.00     0.180 A 
ATOM      2  C   UNL     1       6.030   5.253  15.700  1.00  0.00     0.208 A 
ATOM      3  C   UNL     1       4.635   5.105  15.658  1.00  0.00     0.238 A 
ATOM      4  O   UNL     1       3.924   5.888  16.340  1.00  0.00    -0.285 OA
ATOM      5  C   UNL     1       4.059   4.062  14.894  1.00  0.00     0.111 A 
ATOM      6  C   UNL     1       2.656   3.843  14.749  1.00  0.00     0.134 A 
ATOM      7  C   UNL     1       2.201   2.701  14.076  1.00  0.00     0.093 A 
ATOM      8  C   UNL     1       3.099   1.807  13.488  1.00  0.00     0.123 A 
ATOM      9  C   UNL     1       4.469   2.044  13.573  1.00  0.00     0.094 A 
ATOM     10  C   UNL     1       4.954   3.155  14.270  1.00  0.00     0.146 A 
ATOM     11  O   UNL     1       6.267   3.337  14.336  1.00  0.00    -0.452 OA
ENDROOT
BRANCH   1  12
ATOM     12  C   UNL     1       8.310   4.451  14.965  1.00  0.00     0.025 A 
ATOM     13  C   UNL     1       8.973   5.219  13.992  1.00  0.00     0.016 A 
ATOM     14  C   UNL     1      10.368   5.285  13.973  1.00  0.00     0.051 A 
ATOM     15  C   UNL     1      11.123   4.574  14.916  1.00  0.00     0.157 A 
ATOM     16  C   UNL     1       9.071   3.724  15.895  1.00  0.00     0.062 A 
ATOM     17  C   UNL     1      10.469   3.788  15.880  1.00  0.00     0.158 A 
BRANCH  15  18
ATOM     18  O   UNL     1      12.515   4.643  14.897  1.00  0.00    -0.504 OA
ATOM     19  H   UNL     1      13.031   4.690  14.026  1.00  0.00     0.293 HD
ENDBRANCH  15  18
BRANCH  17  20
ATOM     20  O   UNL     1      11.191   3.062  16.828  1.00  0.00    -0.504 OA
ATOM     21  H   UNL     1      11.108   3.244  17.822  1.00  0.00     0.293 HD
ENDBRANCH  17  20
ENDBRANCH   1  12
BRANCH   2  22
ATOM     22  O   UNL     1       6.620   6.264  16.466  1.00  0.00    -0.502 OA
ATOM     23  H   UNL     1       7.380   6.836  16.119  1.00  0.00     0.293 HD
ENDBRANCH   2  22
BRANCH   6  24
ATOM     24  O   UNL     1       1.677   4.722  15.219  1.00  0.00    -0.507 OA
ATOM     25  H   UNL     1       1.421   5.589  14.771  1.00  0.00     0.293 HD
ENDBRANCH   6  24
BRANCH   8  26
ATOM     26  O   UNL     1       2.638   0.683  12.806  1.00  0.00    -0.508 OA
ATOM     27  H   UNL     1       3.235   0.166  12.171  1.00  0.00     0.293 HD
ENDBRANCH   8  26
TORSDOF 6
ENDMDL
MODEL 7
REMARK VINA RESULT:     0.000      6.439      9.563
REMARK INTER + INTRA:          -0.335
REMARK INTER:                   0.000
REMARK INTRA:                  -0.335
REMARK UNBOUND:                -0.335
REMARK SMILES O=c1c(O)c(-c2ccc(O)c(O)c2)oc2cc(O)cc(O)c12
REMARK SMILES IDX 5 1 3 2 2 3 1 4 22 5 20 6 19 7 17 8 16 9 15 10 14 11 6 12
REMARK SMILES IDX 7 13 8 14 9 15 13 16 11 17 10 18 12 20 4 22 21 24 18 26
REMARK H PARENT 10 19 12 21 4 23 21 25 18 27
REMARK Flexibility Score: inf
ROOT
ATOM      1  C   UNL     1      12.134   7.322  16.706  1.00  0.00     0.180 A 
ATOM      2  C   UNL     1      11.550   7.625  15.464  1.00  0.00     0.208 A 
ATOM      3  C   UNL     1      12.201   8.530  14.609  1.00  0.00     0.238 A 
ATOM      4  O   UNL     1      11.702   8.755  13.476  1.00  0.00    -0.285 OA
ATOM      5  C   UNL     1      13.416   9.131  15.013  1.00  0.00     0.111 A 
ATOM      6  C   UNL     1      14.140  10.091  14.244  1.00  0.00     0.134 A 
ATOM      7  C   UNL     1      15.399  10.522  14.685  1.00  0.00     0.093 A 
ATOM      8  C   UNL     1      15.928  10.076  15.898  1.00  0.00     0.123 A 
ATOM      9  C   UNL     1      15.203   9.184  16.684  1.00  0.00     0.094 A 
ATOM     10  C   UNL     1      13.961   8.708  16.254  1.00  0.00     0.146 A 
ATOM     11  O   UNL     1      13.307   7.851  17.029  1.00  0.00    -0.452 OA
ENDROOT
BRANCH   1  12
ATOM     12  C   UNL     1      11.495   6.398  17.671  1.00  0.00     0.025 A 
ATOM     13  C   UNL     1      10.584   6.861  18.635  1.00  0.00     0.016 A 
ATOM     14  C   UNL     1      10.012   5.975  19.552  1.00  0.00     0.051 A 
ATOM     15  C   UNL     1      10.352   4.616  19.528  1.00  0.00     0.157 A 
ATOM     16  C   UNL     1      11.849   5.039  17.665  1.00  0.00     0.062 A 
ATOM     17  C   UNL     1      11.278   4.148  18.581  1.00  0.00     0.158 A 
BRANCH  15  18
ATOM     18  O   UNL     1       9.779   3.733  20.442  1.00  0.00    -0.504 OA
ATOM     19  H   UNL     1       9.681   2.746  20.237  1.00  0.00     0.293 HD
ENDBRANCH  15  18
BRANCH  17  20
ATOM     20  O   UNL     1      11.645   2.802  18.535  1.00  0.00    -0.504 OA
ATOM     21  H   UNL     1      12.615   2.509  18.522  1.00  0.00     0.293 HD
ENDBRANCH  17  20
ENDBRANCH   1  12
BRANCH   2  22
ATOM     22  O   UNL     1      10.360   7.004  15.075  1.00  0.00    -0.502 OA
ATOM     23  H   UNL     1       9.821   7.313  14.275  1.00  0.00     0.293 HD
ENDBRANCH   2  22
BRANCH   6  24
ATOM     24  O   UNL     1      13.660  10.669  13.066  1.00  0.00    -0.507 OA
ATOM     25  H   UNL     1      13.175  10.169  12.337  1.00  0.00     0.293 HD
ENDBRANCH   6  24
BRANCH   8  26
ATOM     26  O   UNL     1      17.174  10.521  16.336  1.00  0.00    -0.508 OA
ATOM     27  H   UNL     1      17.489  10.365  17.286  1.00  0.00     0.293 HD
ENDBRANCH   8  26
TORSDOF 6
ENDMDL
MODEL 8
REMARK VINA RESULT:     0.000      5.567      8.190
REMARK INTER + INTRA:          -0.335
REMARK INTER:                   0.000
REMARK INTRA:                  -0.335
REMARK UNBOUND:                -0.335
REMARK SMILES O=c1c(O)c(-c2ccc(O)c(O)c2)oc2cc(O)cc(O)c12
REMARK SMILES IDX 5 1 3 2 2 3 1 4 22 5 20 6 19 7 17 8 16 9 15 10 14 11 6 12
REMARK SMILES IDX 7 13 8 14 9 15 13 16 11 17 10 18 12 20 4 22 21 24 18 26
REMARK H PARENT 10 19 12 21 4 23 21 25 18 27
REMARK Flexibility Score: inf
ROOT
ATOM      1  C   UNL     1      10.470   2.238  13.716  1.00  0.00     0.180 A 
ATOM      2  C   UNL     1      10.224   2.426  12.344  1.00  0.00     0.208 A 
ATOM      3  C   UNL     1      11.166   3.127  11.575  1.00  0.00     0.238 A 
ATOM      4  O   UNL     1      10.968   3.246  10.338  1.00  0.00    -0.285 OA
ATOM      5  C   UNL     1      12.332   3.645  12.188  1.00  0.00     0.111 A 
ATOM      6  C   UNL     1      13.334   4.405  11.512  1.00  0.00     0.134 A 
ATOM      7  C   UNL     1      14.510   4.754  12.189  1.00  0.00     0.093 A 
ATOM      8  C   UNL     1      14.690   4.426  13.535  1.00  0.00     0.123 A 
ATOM      9  C   UNL     1      13.692   3.737  14.219  1.00  0.00     0.094 A 
ATOM     10  C   UNL     1      12.524   3.342  13.561  1.00  0.00     0.146 A 
ATOM     11  O   UNL     1      11.603   2.677  14.248  1.00  0.00    -0.452 OA
ENDROOT
BRANCH   1  12
ATOM     12  C   UNL     1       9.512   1.531  14.597  1.00  0.00     0.025 A 
ATOM     13  C   UNL     1       8.481   2.220  15.259  1.00  0.00     0.016 A 
ATOM     14  C   UNL     1       7.604   1.536  16.105  1.00  0.00     0.051 A 
ATOM     15  C   UNL     1       7.752   0.158  16.314  1.00  0.00     0.157 A 
ATOM     16  C   UNL     1       9.669   0.154  14.825  1.00  0.00     0.062 A 
ATOM     17  C   UNL     1       8.792  -0.534  15.671  1.00  0.00     0.158 A 
BRANCH  15  18
ATOM     18  O   UNL     1       6.874  -0.521  17.157  1.00  0.00    -0.504 OA
ATOM     19  H   UNL     1       7.119  -0.734  18.117  1.00  0.00     0.293 HD
ENDBRANCH  15  18
BRANCH  17  20
ATOM     20  O   UNL     1       8.971  -1.905  15.863  1.00  0.00    -0.504 OA
ATOM     21  H   UNL     1       8.314  -2.588  15.506  1.00  0.00     0.293 HD
ENDBRANCH  17  20
ENDBRANCH   1  12
BRANCH   2  22
ATOM     22  O   UNL     1       9.076   1.889  11.754  1.00  0.00    -0.502 OA
ATOM     23  H   UNL     1       8.157   2.294  11.884  1.00  0.00     0.293 HD
ENDBRANCH   2  22
BRANCH   6  24
ATOM     24  O   UNL     1      13.212   4.861  10.197  1.00  0.00    -0.507 OA
ATOM     25  H   UNL     1      12.355   5.191   9.780  1.00  0.00     0.293 HD
ENDBRANCH   6  24
BRANCH   8  26
ATOM     26  O   UNL     1      15.856   4.792  14.205  1.00  0.00    -0.508 OA
ATOM     27  H   UNL     1      16.002   4.560  15.180  1.00  0.00     0.293 HD
ENDBRANCH   8  26
TORSDOF 6
ENDMDL
MODEL 9
REMARK VINA RESULT:     0.000      3.745      7.710
REMARK INTER + INTRA:          -0.335
REMARK INTER:                   0.000
REMARK INTRA:                  -0.335
REMARK UNBOUND:                -0.335
REMARK SMILES O=c1c(O)c(-c2ccc(O)c(O)c2)oc2cc(O)cc(O)c12
REMARK SMILES IDX 5 1 3 2 2 3 1 4 22 5 20 6 19 7 17 8 16 9 15 10 14 11 6 12
REMARK SMILES IDX 7 13 8 14 9 15 13 16 11 17 10 18 12 20 4 22 21 24 18 26
REMARK H PARENT 10 19 12 21 4 23 21 25 18 27
REMARK Flexibility Score: inf
ROOT
ATOM      1  C   UNL     1       9.969   3.132  14.807  1.00  0.00     0.180 A 
ATOM      2  C   UNL     1      10.851   3.913  15.573  1.00  0.00     0.208 A 
ATOM      3  C   UNL     1      11.092   5.242  15.190  1.00  0.00     0.238 A 
ATOM      4  O   UNL     1      11.840   5.953  15.910  1.00  0.00    -0.285 OA
ATOM      5  C   UNL     1      10.461   5.768  14.037  1.00  0.00     0.111 A 
ATOM      6  C   UNL     1      10.663   7.088  13.533  1.00  0.00     0.134 A 
ATOM      7  C   UNL     1       9.887   7.545  12.460  1.00  0.00     0.093 A 
ATOM      8  C   UNL     1       8.962   6.706  11.833  1.00  0.00     0.123 A 
ATOM      9  C   UNL     1       8.801   5.397  12.279  1.00  0.00     0.094 A 
ATOM     10  C   UNL     1       9.535   4.924  13.370  1.00  0.00     0.146 A 
ATOM     11  O   UNL     1       9.342   3.673  13.770  1.00  0.00    -0.452 OA
ENDROOT
BRANCH   1  12
ATOM     12  C   UNL     1       9.685   1.716  15.134  1.00  0.00     0.025 A 
ATOM     13  C   UNL     1      10.468   0.672  14.611  1.00  0.00     0.016 A 
ATOM     14  C   UNL     1      10.166  -0.658  14.914  1.00  0.00     0.051 A 
ATOM     15  C   UNL     1       9.070  -0.967  15.731  1.00  0.00     0.157 A 
ATOM     16  C   UNL     1       8.576   1.401  15.936  1.00  0.00     0.062 A 
ATOM     17  C   UNL     1       8.270   0.069  16.242  1.00  0.00     0.158 A 
BRANCH  15  18
ATOM     18  O   UNL     1       8.773  -2.294  16.033  1.00  0.00    -0.504 OA
ATOM     19  H   UNL     1       9.260  -2.794  16.767  1.00  0.00     0.293 HD
ENDBRANCH  15  18
BRANCH  17  20
ATOM     20  O   UNL     1       7.168  -0.204  17.052  1.00  0.00    -0.504 OA
ATOM     21  H   UNL     1       6.943   0.362  17.862  1.00  0.00     0.293 HD
ENDBRANCH  17  20
ENDBRANCH   1  12
BRANCH   2  22
ATOM     22  O   UNL     1      11.448   3.381  16.721  1.00  0.00    -0.502 OA
ATOM     23  H   UNL     1      12.068   3.922  17.312  1.00  0.00     0.293 HD
ENDBRANCH   2  22
BRANCH   6  24
ATOM     24  O   UNL     1      11.624   7.974  14.029  1.00  0.00    -0.507 OA
ATOM     25  H   UNL     1      12.283   7.756  14.761  1.00  0.00     0.293 HD
ENDBRANCH   6  24
BRANCH   8  26
ATOM     26  O   UNL     1       8.206   7.163  10.756  1.00  0.00    -0.508 OA
ATOM     27  H   UNL     1       8.443   6.923   9.801  1.00  0.00     0.293 HD
ENDBRANCH   8  26
TORSDOF 6
ENDMDL
