MODEL 1
REMARK VINA RESULT:    -4.127      0.000      0.000
REMARK INTER + INTRA:          -4.750
REMARK INTER:                  -4.731
REMARK INTRA:                  -0.019
REMARK UNBOUND:                -0.019
REMARK SMILES CC(C)[C@@H]([NH3+])C(=O)[O-]
REMARK SMILES IDX 4 1 5 2 6 6 7 7 8 8 2 9 1 10 3 11
REMARK H PARENT 5 3 5 4 5 5
REMARK Flexibility Score: inf
ROOT
ATOM      1  C   UNL     1      10.065 -15.019 -20.802  1.00  0.00     0.230 C 
ENDROOT
BRANCH   1   2
ATOM      2  N   UNL     1      10.123 -16.478 -20.979  1.00  0.00    -0.350 N 
ATOM      3  H   UNL     1      11.095 -16.756 -21.249  1.00  0.00     0.345 HD
ATOM      4  H   UNL     1       9.894 -16.965 -20.084  1.00  0.00     0.345 HD
ATOM      5  H   UNL     1       9.468 -16.800 -21.727  1.00  0.00     0.345 HD
ENDBRANCH   1   2
BRANCH   1   6
ATOM      6  C   UNL     1      10.728 -14.612 -19.509  1.00  0.00     0.099 C 
ATOM      7  O   UNL     1      11.198 -15.493 -18.740  1.00  0.00    -0.544 OA
ATOM      8  O   UNL     1      10.786 -13.276 -19.129  1.00  0.00    -0.544 OA
ENDBRANCH   1   6
BRANCH   1   9
ATOM      9  C   UNL     1      10.667 -14.234 -22.006  1.00  0.00     0.047 C 
ATOM     10  C   UNL     1       9.787 -13.043 -22.411  1.00  0.00     0.014 C 
ATOM     11  C   UNL     1      10.963 -15.116 -23.231  1.00  0.00     0.014 C 
ENDBRANCH   1   9
TORSDOF 3
ENDMDL
MODEL 2
REMARK VINA RESULT:    -3.932      1.692      2.443
REMARK INTER + INTRA:          -4.526
REMARK INTER:                  -4.482
REMARK INTRA:                  -0.044
REMARK UNBOUND:                -0.019
REMARK SMILES CC(C)[C@@H]([NH3+])C(=O)[O-]
REMARK SMILES IDX 4 1 5 2 6 6 7 7 8 8 2 9 1 10 3 11
REMARK H PARENT 5 3 5 4 5 5
REMARK Flexibility Score: inf
ROOT
ATOM      1  C   UNL     1      10.823 -14.733 -21.136  1.00  0.00     0.230 C 
ENDROOT
BRANCH   1   2
ATOM      2  N   UNL     1      10.657 -13.477 -21.884  1.00  0.00    -0.350 N 
ATOM      3  H   UNL     1      11.576 -13.196 -22.299  1.00  0.00     0.345 HD
ATOM      4  H   UNL     1       9.983 -13.606 -22.670  1.00  0.00     0.345 HD
ATOM      5  H   UNL     1      10.324 -12.703 -21.264  1.00  0.00     0.345 HD
ENDBRANCH   1   2
BRANCH   1   6
ATOM      6  C   UNL     1      10.844 -14.471 -19.650  1.00  0.00     0.099 C 
ATOM      7  O   UNL     1      10.639 -13.306 -19.216  1.00  0.00    -0.544 OA
ATOM      8  O   UNL     1      11.135 -15.490 -18.751  1.00  0.00    -0.544 OA
ENDBRANCH   1   6
BRANCH   1   9
ATOM      9  C   UNL     1       9.748 -15.803 -21.496  1.00  0.00     0.047 C 
ATOM     10  C   UNL     1      10.380 -17.168 -21.803  1.00  0.00     0.014 C 
ATOM     11  C   UNL     1       8.817 -15.379 -22.643  1.00  0.00     0.014 C 
ENDBRANCH   1   9
TORSDOF 3
ENDMDL
MODEL 3
REMARK VINA RESULT:    -3.831      1.897      2.322
REMARK INTER + INTRA:          -4.411
REMARK INTER:                  -4.356
REMARK INTRA:                  -0.055
REMARK UNBOUND:                -0.019
REMARK SMILES CC(C)[C@@H]([NH3+])C(=O)[O-]
REMARK SMILES IDX 4 1 5 2 6 6 7 7 8 8 2 9 1 10 3 11
REMARK H PARENT 5 3 5 4 5 5
REMARK Flexibility Score: inf
ROOT
ATOM      1  C   UNL     1      10.472 -14.393 -21.774  1.00  0.00     0.230 C 
ENDROOT
BRANCH   1   2
ATOM      2  N   UNL     1      11.793 -14.213 -22.396  1.00  0.00    -0.350 N 
ATOM      3  H   UNL     1      12.196 -15.149 -22.632  1.00  0.00     0.345 HD
ATOM      4  H   UNL     1      11.708 -13.673 -23.286  1.00  0.00     0.345 HD
ATOM      5  H   UNL     1      12.455 -13.721 -21.754  1.00  0.00     0.345 HD
ENDBRANCH   1   2
BRANCH   1   6
ATOM      6  C   UNL     1      10.358 -13.566 -20.516  1.00  0.00     0.099 C 
ATOM      7  O   UNL     1       9.982 -12.365 -20.587  1.00  0.00    -0.544 OA
ATOM      8  O   UNL     1      10.708 -14.097 -19.280  1.00  0.00    -0.544 OA
ENDBRANCH   1   6
BRANCH   1   9
ATOM      9  C   UNL     1       9.293 -14.089 -22.746  1.00  0.00     0.047 C 
ATOM     10  C   UNL     1       8.293 -15.252 -22.815  1.00  0.00     0.014 C 
ATOM     11  C   UNL     1       9.748 -13.696 -24.162  1.00  0.00     0.014 C 
ENDBRANCH   1   9
TORSDOF 3
ENDMDL
MODEL 4
REMARK VINA RESULT:    -3.692      2.135      3.085
REMARK INTER + INTRA:          -4.251
REMARK INTER:                  -4.254
REMARK INTRA:                   0.003
REMARK UNBOUND:                -0.019
REMARK SMILES CC(C)[C@@H]([NH3+])C(=O)[O-]
REMARK SMILES IDX 4 1 5 2 6 6 7 7 8 8 2 9 1 10 3 11
REMARK H PARENT 5 3 5 4 5 5
REMARK Flexibility Score: inf
ROOT
ATOM      1  C   UNL     1      10.910 -14.196 -21.927  1.00  0.00     0.230 C 
ENDROOT
BRANCH   1   2
ATOM      2  N   UNL     1      11.102 -14.598 -23.330  1.00  0.00    -0.350 N 
ATOM      3  H   UNL     1      10.990 -13.763 -23.949  1.00  0.00     0.345 HD
ATOM      4  H   UNL     1      12.066 -14.971 -23.474  1.00  0.00     0.345 HD
ATOM      5  H   UNL     1      10.403 -15.320 -23.620  1.00  0.00     0.345 HD
ENDBRANCH   1   2
BRANCH   1   6
ATOM      6  C   UNL     1      10.058 -12.952 -21.842  1.00  0.00     0.099 C 
ATOM      7  O   UNL     1      10.088 -12.243 -20.801  1.00  0.00    -0.544 OA
ATOM      8  O   UNL     1       9.203 -12.603 -22.880  1.00  0.00    -0.544 OA
ENDBRANCH   1   6
BRANCH   1   9
ATOM      9  C   UNL     1      10.321 -15.334 -21.041  1.00  0.00     0.047 C 
ATOM     10  C   UNL     1      10.890 -15.302 -19.615  1.00  0.00     0.014 C 
ATOM     11  C   UNL     1      10.489 -16.737 -21.648  1.00  0.00     0.014 C 
ENDBRANCH   1   9
TORSDOF 3
ENDMDL
MODEL 5
REMARK VINA RESULT:    -3.668      2.684      3.290
REMARK INTER + INTRA:          -4.224
REMARK INTER:                  -4.146
REMARK INTRA:                  -0.078
REMARK UNBOUND:                -0.019
REMARK SMILES CC(C)[C@@H]([NH3+])C(=O)[O-]
REMARK SMILES IDX 4 1 5 2 6 6 7 7 8 8 2 9 1 10 3 11
REMARK H PARENT 5 3 5 4 5 5
REMARK Flexibility Score: inf
ROOT
ATOM      1  C   UNL     1      10.308 -14.764 -22.083  1.00  0.00     0.230 C 
ENDROOT
BRANCH   1   2
ATOM      2  N   UNL     1      11.636 -14.347 -22.559  1.00  0.00    -0.350 N 
ATOM      3  H   UNL     1      11.534 -13.517 -23.189  1.00  0.00     0.345 HD
ATOM      4  H   UNL     1      12.240 -14.061 -21.757  1.00  0.00     0.345 HD
ATOM      5  H   UNL     1      12.109 -15.111 -23.094  1.00  0.00     0.345 HD
ENDBRANCH   1   2
BRANCH   1   6
ATOM      6  C   UNL     1      10.108 -16.246 -22.290  1.00  0.00     0.099 C 
ATOM      7  O   UNL     1       8.966 -16.753 -22.128  1.00  0.00    -0.544 OA
ATOM      8  O   UNL     1      11.180 -17.070 -22.611  1.00  0.00    -0.544 OA
ENDBRANCH   1   6
BRANCH   1   9
ATOM      9  C   UNL     1      10.041 -14.370 -20.599  1.00  0.00     0.047 C 
ATOM     10  C   UNL     1      10.185 -12.858 -20.373  1.00  0.00     0.014 C 
ATOM     11  C   UNL     1      10.910 -15.141 -19.591  1.00  0.00     0.014 C 
ENDBRANCH   1   9
TORSDOF 3
ENDMDL
MODEL 6
REMARK VINA RESULT:    -3.664      2.884      3.619
REMARK INTER + INTRA:          -4.218
REMARK INTER:                  -4.184
REMARK INTRA:                  -0.034
REMARK UNBOUND:                -0.019
REMARK SMILES CC(C)[C@@H]([NH3+])C(=O)[O-]
REMARK SMILES IDX 4 1 5 2 6 6 7 7 8 8 2 9 1 10 3 11
REMARK H PARENT 5 3 5 4 5 5
REMARK Flexibility Score: inf
ROOT
ATOM      1  C   UNL     1      10.083 -13.362 -20.978  1.00  0.00     0.230 C 
ENDROOT
BRANCH   1   2
ATOM      2  N   UNL     1      10.657 -12.466 -19.962  1.00  0.00    -0.350 N 
ATOM      3  H   UNL     1      10.291 -11.496 -20.108  1.00  0.00     0.345 HD
ATOM      4  H   UNL     1      10.373 -12.769 -19.004  1.00  0.00     0.345 HD
ATOM      5  H   UNL     1      11.701 -12.437 -20.023  1.00  0.00     0.345 HD
ENDBRANCH   1   2
BRANCH   1   6
ATOM      6  C   UNL     1      10.246 -12.776 -22.360  1.00  0.00     0.099 C 
ATOM      7  O   UNL     1       9.405 -11.943 -22.791  1.00  0.00    -0.544 OA
ATOM      8  O   UNL     1      11.289 -13.179 -23.185  1.00  0.00    -0.544 OA
ENDBRANCH   1   6
BRANCH   1   9
ATOM      9  C   UNL     1      10.663 -14.806 -20.916  1.00  0.00     0.047 C 
ATOM     10  C   UNL     1       9.753 -15.821 -21.623  1.00  0.00     0.014 C 
ATOM     11  C   UNL     1      10.980 -15.282 -19.488  1.00  0.00     0.014 C 
ENDBRANCH   1   9
TORSDOF 3
ENDMDL
MODEL 7
REMARK VINA RESULT:    -3.510      2.066      3.139
REMARK INTER + INTRA:          -4.043
REMARK INTER:                  -4.028
REMARK INTRA:                  -0.014
REMARK UNBOUND:                -0.019
REMARK SMILES CC(C)[C@@H]([NH3+])C(=O)[O-]
REMARK SMILES IDX 4 1 5 2 6 6 7 7 8 8 2 9 1 10 3 11
REMARK H PARENT 5 3 5 4 5 5
REMARK Flexibility Score: inf
ROOT
ATOM      1  C   UNL     1       9.807 -13.978 -22.668  1.00  0.00     0.230 C 
ENDROOT
BRANCH   1   2
ATOM      2  N   UNL     1       8.419 -14.370 -22.376  1.00  0.00    -0.350 N 
ATOM      3  H   UNL     1       8.353 -15.414 -22.342  1.00  0.00     0.345 HD
ATOM      4  H   UNL     1       8.124 -14.006 -21.443  1.00  0.00     0.345 HD
ATOM      5  H   UNL     1       7.760 -14.022 -23.109  1.00  0.00     0.345 HD
ENDBRANCH   1   2
BRANCH   1   6
ATOM      6  C   UNL     1      10.113 -12.623 -22.077  1.00  0.00     0.099 C 
ATOM      7  O   UNL     1      10.492 -11.683 -22.826  1.00  0.00    -0.544 OA
ATOM      8  O   UNL     1      10.029 -12.409 -20.706  1.00  0.00    -0.544 OA
ENDBRANCH   1   6
BRANCH   1   9
ATOM      9  C   UNL     1      10.851 -15.036 -22.200  1.00  0.00     0.047 C 
ATOM     10  C   UNL     1      11.207 -16.023 -23.320  1.00  0.00     0.014 C 
ATOM     11  C   UNL     1      10.428 -15.800 -20.934  1.00  0.00     0.014 C 
ENDBRANCH   1   9
TORSDOF 3
ENDMDL
MODEL 8
REMARK VINA RESULT:    -3.329      2.434      3.174
REMARK INTER + INTRA:          -3.835
REMARK INTER:                  -3.788
REMARK INTRA:                  -0.048
REMARK UNBOUND:                -0.019
REMARK SMILES CC(C)[C@@H]([NH3+])C(=O)[O-]
REMARK SMILES IDX 4 1 5 2 6 6 7 7 8 8 2 9 1 10 3 11
REMARK H PARENT 5 3 5 4 5 5
REMARK Flexibility Score: inf
ROOT
ATOM      1  C   UNL     1      10.909 -15.616 -22.190  1.00  0.00     0.230 C 
ENDROOT
BRANCH   1   2
ATOM      2  N   UNL     1      11.552 -14.371 -22.640  1.00  0.00    -0.350 N 
ATOM      3  H   UNL     1      10.971 -13.553 -22.342  1.00  0.00     0.345 HD
ATOM      4  H   UNL     1      12.492 -14.266 -22.200  1.00  0.00     0.345 HD
ATOM      5  H   UNL     1      11.650 -14.345 -23.680  1.00  0.00     0.345 HD
ENDBRANCH   1   2
BRANCH   1   6
ATOM      6  C   UNL     1       9.606 -15.319 -21.488  1.00  0.00     0.099 C 
ATOM      7  O   UNL     1       8.547 -15.193 -22.158  1.00  0.00    -0.544 OA
ATOM      8  O   UNL     1       9.565 -15.136 -20.111  1.00  0.00    -0.544 OA
ENDBRANCH   1   6
BRANCH   1   9
ATOM      9  C   UNL     1      10.697 -16.644 -23.342  1.00  0.00     0.047 C 
ATOM     10  C   UNL     1      11.631 -17.855 -23.207  1.00  0.00     0.014 C 
ATOM     11  C   UNL     1      10.824 -16.030 -24.746  1.00  0.00     0.014 C 
ENDBRANCH   1   9
TORSDOF 3
ENDMDL
MODEL 9
REMARK VINA RESULT:    -3.308      2.558      3.019
REMARK INTER + INTRA:          -3.810
REMARK INTER:                  -3.845
REMARK INTRA:                   0.035
REMARK UNBOUND:                -0.019
REMARK SMILES CC(C)[C@@H]([NH3+])C(=O)[O-]
REMARK SMILES IDX 4 1 5 2 6 6 7 7 8 8 2 9 1 10 3 11
REMARK H PARENT 5 3 5 4 5 5
REMARK Flexibility Score: inf
ROOT
ATOM      1  C   UNL     1      10.810 -13.333 -22.808  1.00  0.00     0.230 C 
ENDROOT
BRANCH   1   2
ATOM      2  N   UNL     1      11.542 -12.057 -22.813  1.00  0.00    -0.350 N 
ATOM      3  H   UNL     1      11.782 -11.798 -23.798  1.00  0.00     0.345 HD
ATOM      4  H   UNL     1      10.948 -11.293 -22.423  1.00  0.00     0.345 HD
ATOM      5  H   UNL     1      12.429 -12.122 -22.264  1.00  0.00     0.345 HD
ENDBRANCH   1   2
BRANCH   1   6
ATOM      6  C   UNL     1      10.026 -13.493 -21.529  1.00  0.00     0.099 C 
ATOM      7  O   UNL     1       9.871 -12.506 -20.761  1.00  0.00    -0.544 OA
ATOM      8  O   UNL     1       9.510 -14.730 -21.160  1.00  0.00    -0.544 OA
ENDBRANCH   1   6
BRANCH   1   9
ATOM      9  C   UNL     1       9.887 -13.511 -24.051  1.00  0.00     0.047 C 
ATOM     10  C   UNL     1       8.476 -12.960 -23.799  1.00  0.00     0.014 C 
ATOM     11  C   UNL     1       9.807 -14.961 -24.557  1.00  0.00     0.014 C 
ENDBRANCH   1   9
TORSDOF 3
ENDMDL
