MODEL 1
REMARK VINA RESULT:    -4.364      0.000      0.000
REMARK INTER + INTRA:          -9.977
REMARK INTER:                  -8.192
REMARK INTRA:                  -1.786
REMARK UNBOUND:                -1.786
REMARK SMILES CCCCCCCCC=CCCCCCCCC(=O)[O-]
REMARK SMILES IDX 10 1 9 2 11 3 12 4 13 5 14 6 15 7 16 8 17 9 18 10 19 11
REMARK SMILES IDX 20 12 8 13 7 14 6 15 5 16 4 17 3 18 2 19 1 20
REMARK H PARENT
REMARK Flexibility Score: inf
ROOT
ATOM      1  C   UNL     1     201.666 208.262 193.529  1.00  0.00    -0.031 C 
ATOM      2  C   UNL     1     201.240 206.996 193.663  1.00  0.00    -0.031 C 
ENDROOT
BRANCH   1   3
ATOM      3  C   UNL     1     203.050 208.676 193.944  1.00  0.00     0.027 C 
BRANCH   3   4
ATOM      4  C   UNL     1     203.683 207.634 194.878  1.00  0.00     0.004 C 
BRANCH   4   5
ATOM      5  C   UNL     1     204.870 206.892 194.234  1.00  0.00     0.000 C 
BRANCH   5   6
ATOM      6  C   UNL     1     206.036 206.570 195.188  1.00  0.00     0.000 C 
BRANCH   6   7
ATOM      7  C   UNL     1     205.566 206.049 196.556  1.00  0.00     0.000 C 
BRANCH   7   8
ATOM      8  C   UNL     1     206.207 204.700 196.932  1.00  0.00     0.006 C 
BRANCH   8   9
ATOM      9  C   UNL     1     205.382 203.857 197.917  1.00  0.00     0.053 C 
BRANCH   9  10
ATOM     10  C   UNL     1     204.766 202.662 197.254  1.00  0.00     0.041 C 
ATOM     11  O   UNL     1     205.142 202.311 196.105  1.00  0.00    -0.550 OA
ATOM     12  O   UNL     1     203.756 201.956 197.894  1.00  0.00    -0.550 OA
ENDBRANCH   9  10
ENDBRANCH   8   9
ENDBRANCH   7   8
ENDBRANCH   6   7
ENDBRANCH   5   6
ENDBRANCH   4   5
ENDBRANCH   3   4
ENDBRANCH   1   3
BRANCH   2  13
ATOM     13  C   UNL     1     199.855 206.582 193.246  1.00  0.00     0.027 C 
BRANCH  13  14
ATOM     14  C   UNL     1     199.899 205.359 192.317  1.00  0.00     0.004 C 
BRANCH  14  15
ATOM     15  C   UNL     1     199.030 205.538 191.062  1.00  0.00     0.000 C 
BRANCH  15  16
ATOM     16  C   UNL     1     199.852 205.930 189.825  1.00  0.00     0.000 C 
BRANCH  16  17
ATOM     17  C   UNL     1     201.196 205.189 189.802  1.00  0.00    -0.000 C 
BRANCH  17  18
ATOM     18  C   UNL     1     202.363 206.173 189.635  1.00  0.00    -0.000 C 
BRANCH  18  19
ATOM     19  C   UNL     1     203.310 206.177 190.845  1.00  0.00    -0.003 C 
ATOM     20  C   UNL     1     204.616 206.923 190.571  1.00  0.00     0.004 C 
ENDBRANCH  18  19
ENDBRANCH  17  18
ENDBRANCH  16  17
ENDBRANCH  15  16
ENDBRANCH  14  15
ENDBRANCH  13  14
ENDBRANCH   2  13
TORSDOF 15
ENDMDL
MODEL 2
REMARK VINA RESULT:    -4.327      9.731     11.762
REMARK INTER + INTRA:          -9.907
REMARK INTER:                  -8.633
REMARK INTRA:                  -1.275
REMARK UNBOUND:                -1.786
REMARK SMILES CCCCCCCCC=CCCCCCCCC(=O)[O-]
REMARK SMILES IDX 10 1 9 2 11 3 12 4 13 5 14 6 15 7 16 8 17 9 18 10 19 11
REMARK SMILES IDX 20 12 8 13 7 14 6 15 5 16 4 17 3 18 2 19 1 20
REMARK H PARENT
REMARK Flexibility Score: inf
ROOT
ATOM      1  C   UNL     1     211.818 205.297 196.891  1.00  0.00    -0.031 C 
ATOM      2  C   UNL     1     212.928 205.191 196.144  1.00  0.00    -0.031 C 
ENDROOT
BRANCH   1   3
ATOM      3  C   UNL     1     211.477 206.569 197.617  1.00  0.00     0.027 C 
BRANCH   3   4
ATOM      4  C   UNL     1     210.455 206.313 198.734  1.00  0.00     0.004 C 
BRANCH   4   5
ATOM      5  C   UNL     1     211.081 205.666 199.984  1.00  0.00     0.000 C 
BRANCH   5   6
ATOM      6  C   UNL     1     211.058 206.537 201.254  1.00  0.00     0.000 C 
BRANCH   6   7
ATOM      7  C   UNL     1     211.362 208.018 200.971  1.00  0.00     0.000 C 
BRANCH   7   8
ATOM      8  C   UNL     1     211.808 208.785 202.230  1.00  0.00     0.006 C 
BRANCH   8   9
ATOM      9  C   UNL     1     212.814 208.028 203.111  1.00  0.00     0.053 C 
BRANCH   9  10
ATOM     10  C   UNL     1     214.103 208.776 203.261  1.00  0.00     0.041 C 
ATOM     11  O   UNL     1     214.415 209.673 202.435  1.00  0.00    -0.550 OA
ATOM     12  O   UNL     1     214.973 208.460 204.296  1.00  0.00    -0.550 OA
ENDBRANCH   9  10
ENDBRANCH   8   9
ENDBRANCH   7   8
ENDBRANCH   6   7
ENDBRANCH   5   6
ENDBRANCH   4   5
ENDBRANCH   3   4
ENDBRANCH   1   3
BRANCH   2  13
ATOM     13  C   UNL     1     213.268 203.918 195.417  1.00  0.00     0.027 C 
BRANCH  13  14
ATOM     14  C   UNL     1     214.781 203.806 195.175  1.00  0.00     0.004 C 
BRANCH  14  15
ATOM     15  C   UNL     1     215.303 204.870 194.197  1.00  0.00     0.000 C 
BRANCH  15  16
ATOM     16  C   UNL     1     215.787 204.267 192.870  1.00  0.00     0.000 C 
BRANCH  16  17
ATOM     17  C   UNL     1     214.673 204.296 191.815  1.00  0.00    -0.000 C 
BRANCH  17  18
ATOM     18  C   UNL     1     213.696 205.452 192.080  1.00  0.00    -0.000 C 
BRANCH  18  19
ATOM     19  C   UNL     1     212.287 205.170 191.535  1.00  0.00    -0.003 C 
ATOM     20  C   UNL     1     211.594 204.016 192.260  1.00  0.00     0.004 C 
ENDBRANCH  18  19
ENDBRANCH  17  18
ENDBRANCH  16  17
ENDBRANCH  15  16
ENDBRANCH  14  15
ENDBRANCH  13  14
ENDBRANCH   2  13
TORSDOF 15
ENDMDL
MODEL 3
REMARK VINA RESULT:    -4.206      9.707     12.620
REMARK INTER + INTRA:          -9.679
REMARK INTER:                  -7.149
REMARK INTRA:                  -2.530
REMARK UNBOUND:                -1.786
REMARK SMILES CCCCCCCCC=CCCCCCCCC(=O)[O-]
REMARK SMILES IDX 10 1 9 2 11 3 12 4 13 5 14 6 15 7 16 8 17 9 18 10 19 11
REMARK SMILES IDX 20 12 8 13 7 14 6 15 5 16 4 17 3 18 2 19 1 20
REMARK H PARENT
REMARK Flexibility Score: inf
ROOT
ATOM      1  C   UNL     1     216.015 203.887 192.945  1.00  0.00    -0.031 C 
ATOM      2  C   UNL     1     215.585 204.072 194.203  1.00  0.00    -0.031 C 
ENDROOT
BRANCH   1   3
ATOM      3  C   UNL     1     217.114 204.728 192.356  1.00  0.00     0.027 C 
BRANCH   3   4
ATOM      4  C   UNL     1     217.018 206.183 192.841  1.00  0.00     0.004 C 
BRANCH   4   5
ATOM      5  C   UNL     1     216.494 207.144 191.757  1.00  0.00     0.000 C 
BRANCH   5   6
ATOM      6  C   UNL     1     214.969 207.119 191.542  1.00  0.00     0.000 C 
BRANCH   6   7
ATOM      7  C   UNL     1     214.573 206.728 190.108  1.00  0.00     0.000 C 
BRANCH   7   8
ATOM      8  C   UNL     1     213.262 205.921 190.052  1.00  0.00     0.006 C 
BRANCH   8   9
ATOM      9  C   UNL     1     213.191 204.757 191.053  1.00  0.00     0.053 C 
BRANCH   9  10
ATOM     10  C   UNL     1     211.985 204.849 191.937  1.00  0.00     0.041 C 
ATOM     11  O   UNL     1     211.530 205.974 192.272  1.00  0.00    -0.550 OA
ATOM     12  O   UNL     1     211.383 203.693 192.415  1.00  0.00    -0.550 OA
ENDBRANCH   9  10
ENDBRANCH   8   9
ENDBRANCH   7   8
ENDBRANCH   6   7
ENDBRANCH   5   6
ENDBRANCH   4   5
ENDBRANCH   3   4
ENDBRANCH   1   3
BRANCH   2  13
ATOM     13  C   UNL     1     214.487 203.229 194.792  1.00  0.00     0.027 C 
BRANCH  13  14
ATOM     14  C   UNL     1     213.827 203.935 195.986  1.00  0.00     0.004 C 
BRANCH  14  15
ATOM     15  C   UNL     1     212.648 204.827 195.567  1.00  0.00     0.000 C 
BRANCH  15  16
ATOM     16  C   UNL     1     212.825 206.287 196.011  1.00  0.00     0.000 C 
BRANCH  16  17
ATOM     17  C   UNL     1     213.637 207.080 194.978  1.00  0.00    -0.000 C 
BRANCH  17  18
ATOM     18  C   UNL     1     214.933 207.622 195.598  1.00  0.00    -0.000 C 
BRANCH  18  19
ATOM     19  C   UNL     1     214.689 208.367 196.919  1.00  0.00    -0.003 C 
ATOM     20  C   UNL     1     213.937 209.684 196.726  1.00  0.00     0.004 C 
ENDBRANCH  18  19
ENDBRANCH  17  18
ENDBRANCH  16  17
ENDBRANCH  15  16
ENDBRANCH  14  15
ENDBRANCH  13  14
ENDBRANCH   2  13
TORSDOF 15
ENDMDL
MODEL 4
REMARK VINA RESULT:    -4.186      1.427      2.023
REMARK INTER + INTRA:          -9.642
REMARK INTER:                  -7.519
REMARK INTRA:                  -2.122
REMARK UNBOUND:                -1.786
REMARK SMILES CCCCCCCCC=CCCCCCCCC(=O)[O-]
REMARK SMILES IDX 10 1 9 2 11 3 12 4 13 5 14 6 15 7 16 8 17 9 18 10 19 11
REMARK SMILES IDX 20 12 8 13 7 14 6 15 5 16 4 17 3 18 2 19 1 20
REMARK H PARENT
REMARK Flexibility Score: inf
ROOT
ATOM      1  C   UNL     1     201.332 207.359 192.622  1.00  0.00    -0.031 C 
ATOM      2  C   UNL     1     201.192 206.024 192.623  1.00  0.00    -0.031 C 
ENDROOT
BRANCH   1   3
ATOM      3  C   UNL     1     202.686 208.009 192.549  1.00  0.00     0.027 C 
BRANCH   3   4
ATOM      4  C   UNL     1     203.807 206.959 192.585  1.00  0.00     0.004 C 
BRANCH   4   5
ATOM      5  C   UNL     1     205.161 207.541 193.035  1.00  0.00     0.000 C 
BRANCH   5   6
ATOM      6  C   UNL     1     205.294 207.794 194.549  1.00  0.00     0.000 C 
BRANCH   6   7
ATOM      7  C   UNL     1     206.723 207.565 195.071  1.00  0.00     0.000 C 
BRANCH   7   8
ATOM      8  C   UNL     1     206.893 206.196 195.756  1.00  0.00     0.006 C 
BRANCH   8   9
ATOM      9  C   UNL     1     205.578 205.549 196.217  1.00  0.00     0.053 C 
BRANCH   9  10
ATOM     10  C   UNL     1     205.808 204.469 197.230  1.00  0.00     0.041 C 
ATOM     11  O   UNL     1     205.620 203.263 196.924  1.00  0.00    -0.550 OA
ATOM     12  O   UNL     1     206.199 204.800 198.521  1.00  0.00    -0.550 OA
ENDBRANCH   9  10
ENDBRANCH   8   9
ENDBRANCH   7   8
ENDBRANCH   6   7
ENDBRANCH   5   6
ENDBRANCH   4   5
ENDBRANCH   3   4
ENDBRANCH   1   3
BRANCH   2  13
ATOM     13  C   UNL     1     199.837 205.375 192.694  1.00  0.00     0.027 C 
BRANCH  13  14
ATOM     14  C   UNL     1     198.742 206.322 192.181  1.00  0.00     0.004 C 
BRANCH  14  15
ATOM     15  C   UNL     1     198.424 206.106 190.693  1.00  0.00     0.000 C 
BRANCH  15  16
ATOM     16  C   UNL     1     198.820 207.310 189.824  1.00  0.00     0.000 C 
BRANCH  16  17
ATOM     17  C   UNL     1     200.172 207.072 189.139  1.00  0.00    -0.000 C 
BRANCH  17  18
ATOM     18  C   UNL     1     200.399 205.576 188.876  1.00  0.00    -0.000 C 
BRANCH  18  19
ATOM     19  C   UNL     1     201.810 205.114 189.273  1.00  0.00    -0.003 C 
ATOM     20  C   UNL     1     202.851 206.227 189.154  1.00  0.00     0.004 C 
ENDBRANCH  18  19
ENDBRANCH  17  18
ENDBRANCH  16  17
ENDBRANCH  15  16
ENDBRANCH  14  15
ENDBRANCH  13  14
ENDBRANCH   2  13
TORSDOF 15
ENDMDL
MODEL 5
REMARK VINA RESULT:    -4.166     10.039     11.952
REMARK INTER + INTRA:          -9.605
REMARK INTER:                  -6.772
REMARK INTRA:                  -2.833
REMARK UNBOUND:                -1.786
REMARK SMILES CCCCCCCCC=CCCCCCCCC(=O)[O-]
REMARK SMILES IDX 10 1 9 2 11 3 12 4 13 5 14 6 15 7 16 8 17 9 18 10 19 11
REMARK SMILES IDX 20 12 8 13 7 14 6 15 5 16 4 17 3 18 2 19 1 20
REMARK H PARENT
REMARK Flexibility Score: inf
ROOT
ATOM      1  C   UNL     1     215.600 205.175 191.893  1.00  0.00    -0.031 C 
ATOM      2  C   UNL     1     214.644 204.236 191.818  1.00  0.00    -0.031 C 
ENDROOT
BRANCH   1   3
ATOM      3  C   UNL     1     216.973 204.860 192.420  1.00  0.00     0.027 C 
BRANCH   3   4
ATOM      4  C   UNL     1     217.013 204.955 193.952  1.00  0.00     0.004 C 
BRANCH   4   5
ATOM      5  C   UNL     1     216.776 206.385 194.472  1.00  0.00     0.000 C 
BRANCH   5   6
ATOM      6  C   UNL     1     215.713 206.513 195.578  1.00  0.00     0.000 C 
BRANCH   6   7
ATOM      7  C   UNL     1     214.330 206.919 195.038  1.00  0.00     0.000 C 
BRANCH   7   8
ATOM      8  C   UNL     1     213.394 205.713 194.833  1.00  0.00     0.006 C 
BRANCH   8   9
ATOM      9  C   UNL     1     212.979 205.004 196.133  1.00  0.00     0.053 C 
BRANCH   9  10
ATOM     10  C   UNL     1     213.438 203.579 196.167  1.00  0.00     0.041 C 
ATOM     11  O   UNL     1     213.009 202.796 197.054  1.00  0.00    -0.550 OA
ATOM     12  O   UNL     1     214.365 203.125 195.237  1.00  0.00    -0.550 OA
ENDBRANCH   9  10
ENDBRANCH   8   9
ENDBRANCH   7   8
ENDBRANCH   6   7
ENDBRANCH   5   6
ENDBRANCH   4   5
ENDBRANCH   3   4
ENDBRANCH   1   3
BRANCH   2  13
ATOM     13  C   UNL     1     213.271 204.551 191.289  1.00  0.00     0.027 C 
BRANCH  13  14
ATOM     14  C   UNL     1     213.340 205.581 190.151  1.00  0.00     0.004 C 
BRANCH  14  15
ATOM     15  C   UNL     1     212.433 206.796 190.398  1.00  0.00     0.000 C 
BRANCH  15  16
ATOM     16  C   UNL     1     212.794 207.552 191.686  1.00  0.00     0.000 C 
BRANCH  16  17
ATOM     17  C   UNL     1     213.508 208.872 191.366  1.00  0.00    -0.000 C 
BRANCH  17  18
ATOM     18  C   UNL     1     215.029 208.672 191.299  1.00  0.00    -0.000 C 
BRANCH  18  19
ATOM     19  C   UNL     1     215.600 208.943 189.899  1.00  0.00    -0.003 C 
ATOM     20  C   UNL     1     216.444 207.783 189.370  1.00  0.00     0.004 C 
ENDBRANCH  18  19
ENDBRANCH  17  18
ENDBRANCH  16  17
ENDBRANCH  15  16
ENDBRANCH  14  15
ENDBRANCH  13  14
ENDBRANCH   2  13
TORSDOF 15
ENDMDL
MODEL 6
REMARK VINA RESULT:    -4.093      2.981      4.586
REMARK INTER + INTRA:          -9.469
REMARK INTER:                  -6.682
REMARK INTRA:                  -2.787
REMARK UNBOUND:                -1.786
REMARK SMILES CCCCCCCCC=CCCCCCCCC(=O)[O-]
REMARK SMILES IDX 10 1 9 2 11 3 12 4 13 5 14 6 15 7 16 8 17 9 18 10 19 11
REMARK SMILES IDX 20 12 8 13 7 14 6 15 5 16 4 17 3 18 2 19 1 20
REMARK H PARENT
REMARK Flexibility Score: inf
ROOT
ATOM      1  C   UNL     1     200.752 205.418 190.253  1.00  0.00    -0.031 C 
ATOM      2  C   UNL     1     200.759 205.409 191.595  1.00  0.00    -0.031 C 
ENDROOT
BRANCH   1   3
ATOM      3  C   UNL     1     202.028 205.398 189.458  1.00  0.00     0.027 C 
BRANCH   3   4
ATOM      4  C   UNL     1     203.253 205.543 190.373  1.00  0.00     0.004 C 
BRANCH   4   5
ATOM      5  C   UNL     1     203.898 206.940 190.297  1.00  0.00     0.000 C 
BRANCH   5   6
ATOM      6  C   UNL     1     204.567 207.424 191.597  1.00  0.00     0.000 C 
BRANCH   6   7
ATOM      7  C   UNL     1     203.793 207.010 192.861  1.00  0.00     0.000 C 
BRANCH   7   8
ATOM      8  C   UNL     1     202.754 208.061 193.294  1.00  0.00     0.006 C 
BRANCH   8   9
ATOM      9  C   UNL     1     202.274 207.917 194.747  1.00  0.00     0.053 C 
BRANCH   9  10
ATOM     10  C   UNL     1     203.368 208.196 195.731  1.00  0.00     0.041 C 
ATOM     11  O   UNL     1     204.055 209.247 195.634  1.00  0.00    -0.550 OA
ATOM     12  O   UNL     1     203.650 207.280 196.736  1.00  0.00    -0.550 OA
ENDBRANCH   9  10
ENDBRANCH   8   9
ENDBRANCH   7   8
ENDBRANCH   6   7
ENDBRANCH   5   6
ENDBRANCH   4   5
ENDBRANCH   3   4
ENDBRANCH   1   3
BRANCH   2  13
ATOM     13  C   UNL     1     199.482 205.427 192.389  1.00  0.00     0.027 C 
BRANCH  13  14
ATOM     14  C   UNL     1     198.256 205.500 191.465  1.00  0.00     0.004 C 
BRANCH  14  15
ATOM     15  C   UNL     1     197.444 206.790 191.662  1.00  0.00     0.000 C 
BRANCH  15  16
ATOM     16  C   UNL     1     197.712 207.829 190.563  1.00  0.00     0.000 C 
BRANCH  16  17
ATOM     17  C   UNL     1     198.332 209.103 191.153  1.00  0.00    -0.000 C 
BRANCH  17  18
ATOM     18  C   UNL     1     199.848 208.940 191.340  1.00  0.00    -0.000 C 
BRANCH  18  19
ATOM     19  C   UNL     1     200.659 209.753 190.319  1.00  0.00    -0.003 C 
ATOM     20  C   UNL     1     201.020 208.945 189.073  1.00  0.00     0.004 C 
ENDBRANCH  18  19
ENDBRANCH  17  18
ENDBRANCH  16  17
ENDBRANCH  15  16
ENDBRANCH  14  15
ENDBRANCH  13  14
ENDBRANCH   2  13
TORSDOF 15
ENDMDL
MODEL 7
REMARK VINA RESULT:    -4.093      9.534     12.846
REMARK INTER + INTRA:          -9.467
REMARK INTER:                  -6.695
REMARK INTRA:                  -2.773
REMARK UNBOUND:                -1.786
REMARK SMILES CCCCCCCCC=CCCCCCCCC(=O)[O-]
REMARK SMILES IDX 10 1 9 2 11 3 12 4 13 5 14 6 15 7 16 8 17 9 18 10 19 11
REMARK SMILES IDX 20 12 8 13 7 14 6 15 5 16 4 17 3 18 2 19 1 20
REMARK H PARENT
REMARK Flexibility Score: inf
ROOT
ATOM      1  C   UNL     1     215.425 204.307 194.322  1.00  0.00    -0.031 C 
ATOM      2  C   UNL     1     215.944 203.867 193.164  1.00  0.00    -0.031 C 
ENDROOT
BRANCH   1   3
ATOM      3  C   UNL     1     214.434 203.489 195.101  1.00  0.00     0.027 C 
BRANCH   3   4
ATOM      4  C   UNL     1     213.273 204.359 195.605  1.00  0.00     0.004 C 
BRANCH   4   5
ATOM      5  C   UNL     1     212.562 205.127 194.475  1.00  0.00     0.000 C 
BRANCH   5   6
ATOM      6  C   UNL     1     211.542 204.304 193.665  1.00  0.00     0.000 C 
BRANCH   6   7
ATOM      7  C   UNL     1     211.952 204.121 192.194  1.00  0.00     0.000 C 
BRANCH   7   8
ATOM      8  C   UNL     1     212.976 205.172 191.726  1.00  0.00     0.006 C 
BRANCH   8   9
ATOM      9  C   UNL     1     212.722 205.722 190.314  1.00  0.00     0.053 C 
BRANCH   9  10
ATOM     10  C   UNL     1     211.780 206.887 190.327  1.00  0.00     0.041 C 
ATOM     11  O   UNL     1     210.557 206.717 190.080  1.00  0.00    -0.550 OA
ATOM     12  O   UNL     1     212.260 208.166 190.581  1.00  0.00    -0.550 OA
ENDBRANCH   9  10
ENDBRANCH   8   9
ENDBRANCH   7   8
ENDBRANCH   6   7
ENDBRANCH   5   6
ENDBRANCH   4   5
ENDBRANCH   3   4
ENDBRANCH   1   3
BRANCH   2  13
ATOM     13  C   UNL     1     216.938 204.686 192.386  1.00  0.00     0.027 C 
BRANCH  13  14
ATOM     14  C   UNL     1     217.125 206.075 193.015  1.00  0.00     0.004 C 
BRANCH  14  15
ATOM     15  C   UNL     1     216.147 207.116 192.450  1.00  0.00     0.000 C 
BRANCH  15  16
ATOM     16  C   UNL     1     215.582 208.046 193.534  1.00  0.00     0.000 C 
BRANCH  16  17
ATOM     17  C   UNL     1     216.366 207.900 194.845  1.00  0.00    -0.000 C 
BRANCH  17  18
ATOM     18  C   UNL     1     215.421 207.605 196.020  1.00  0.00    -0.000 C 
BRANCH  18  19
ATOM     19  C   UNL     1     214.018 208.195 195.812  1.00  0.00    -0.003 C 
ATOM     20  C   UNL     1     213.094 207.958 197.006  1.00  0.00     0.004 C 
ENDBRANCH  18  19
ENDBRANCH  17  18
ENDBRANCH  16  17
ENDBRANCH  15  16
ENDBRANCH  14  15
ENDBRANCH  13  14
ENDBRANCH   2  13
TORSDOF 15
ENDMDL
MODEL 8
REMARK VINA RESULT:    -4.065      9.337     11.225
REMARK INTER + INTRA:          -9.415
REMARK INTER:                  -6.463
REMARK INTRA:                  -2.953
REMARK UNBOUND:                -1.786
REMARK SMILES CCCCCCCCC=CCCCCCCCC(=O)[O-]
REMARK SMILES IDX 10 1 9 2 11 3 12 4 13 5 14 6 15 7 16 8 17 9 18 10 19 11
REMARK SMILES IDX 20 12 8 13 7 14 6 15 5 16 4 17 3 18 2 19 1 20
REMARK H PARENT
REMARK Flexibility Score: inf
ROOT
ATOM      1  C   UNL     1     213.967 203.819 194.696  1.00  0.00    -0.031 C 
ATOM      2  C   UNL     1     213.333 204.738 193.952  1.00  0.00    -0.031 C 
ENDROOT
BRANCH   1   3
ATOM      3  C   UNL     1     215.344 204.065 195.248  1.00  0.00     0.027 C 
BRANCH   3   4
ATOM      4  C   UNL     1     215.946 205.358 194.679  1.00  0.00     0.004 C 
BRANCH   4   5
ATOM      5  C   UNL     1     216.425 206.330 195.773  1.00  0.00     0.000 C 
BRANCH   5   6
ATOM      6  C   UNL     1     215.864 207.761 195.671  1.00  0.00     0.000 C 
BRANCH   6   7
ATOM      7  C   UNL     1     214.716 208.027 196.659  1.00  0.00     0.000 C 
BRANCH   7   8
ATOM      8  C   UNL     1     213.350 207.555 196.126  1.00  0.00     0.006 C 
BRANCH   8   9
ATOM      9  C   UNL     1     212.308 207.265 197.218  1.00  0.00     0.053 C 
BRANCH   9  10
ATOM     10  C   UNL     1     211.545 206.006 196.944  1.00  0.00     0.041 C 
ATOM     11  O   UNL     1     210.465 206.046 196.298  1.00  0.00    -0.550 OA
ATOM     12  O   UNL     1     212.011 204.791 197.430  1.00  0.00    -0.550 OA
ENDBRANCH   9  10
ENDBRANCH   8   9
ENDBRANCH   7   8
ENDBRANCH   6   7
ENDBRANCH   5   6
ENDBRANCH   4   5
ENDBRANCH   3   4
ENDBRANCH   1   3
BRANCH   2  13
ATOM     13  C   UNL     1     211.954 204.492 193.402  1.00  0.00     0.027 C 
BRANCH  13  14
ATOM     14  C   UNL     1     212.009 204.142 191.907  1.00  0.00     0.004 C 
BRANCH  14  15
ATOM     15  C   UNL     1     213.344 204.538 191.256  1.00  0.00     0.000 C 
BRANCH  15  16
ATOM     16  C   UNL     1     213.158 205.449 190.033  1.00  0.00     0.000 C 
BRANCH  16  17
ATOM     17  C   UNL     1     214.223 206.553 190.004  1.00  0.00    -0.000 C 
BRANCH  17  18
ATOM     18  C   UNL     1     215.102 206.502 191.263  1.00  0.00    -0.000 C 
BRANCH  18  19
ATOM     19  C   UNL     1     215.068 207.816 192.059  1.00  0.00    -0.003 C 
ATOM     20  C   UNL     1     213.662 208.186 192.529  1.00  0.00     0.004 C 
ENDBRANCH  18  19
ENDBRANCH  17  18
ENDBRANCH  16  17
ENDBRANCH  15  16
ENDBRANCH  14  15
ENDBRANCH  13  14
ENDBRANCH   2  13
TORSDOF 15
ENDMDL
MODEL 9
REMARK VINA RESULT:    -4.065      3.177      7.139
REMARK INTER + INTRA:          -9.415
REMARK INTER:                  -7.551
REMARK INTRA:                  -1.864
REMARK UNBOUND:                -1.786
REMARK SMILES CCCCCCCCC=CCCCCCCCC(=O)[O-]
REMARK SMILES IDX 10 1 9 2 11 3 12 4 13 5 14 6 15 7 16 8 17 9 18 10 19 11
REMARK SMILES IDX 20 12 8 13 7 14 6 15 5 16 4 17 3 18 2 19 1 20
REMARK H PARENT
REMARK Flexibility Score: inf
ROOT
ATOM      1  C   UNL     1     202.895 207.820 192.184  1.00  0.00    -0.031 C 
ATOM      2  C   UNL     1     203.165 207.300 193.391  1.00  0.00    -0.031 C 
ENDROOT
BRANCH   1   3
ATOM      3  C   UNL     1     203.287 207.113 190.916  1.00  0.00     0.027 C 
BRANCH   3   4
ATOM      4  C   UNL     1     202.681 205.704 190.857  1.00  0.00     0.004 C 
BRANCH   4   5
ATOM      5  C   UNL     1     201.411 205.631 189.987  1.00  0.00     0.000 C 
BRANCH   5   6
ATOM      6  C   UNL     1     200.082 205.661 190.764  1.00  0.00     0.000 C 
BRANCH   6   7
ATOM      7  C   UNL     1     200.222 205.161 192.213  1.00  0.00     0.000 C 
BRANCH   7   8
ATOM      8  C   UNL     1     199.746 206.196 193.248  1.00  0.00     0.006 C 
BRANCH   8   9
ATOM      9  C   UNL     1     198.793 207.263 192.686  1.00  0.00     0.053 C 
BRANCH   9  10
ATOM     10  C   UNL     1     199.346 208.647 192.839  1.00  0.00     0.041 C 
ATOM     11  O   UNL     1     199.410 209.182 193.977  1.00  0.00    -0.550 OA
ATOM     12  O   UNL     1     199.763 209.357 191.721  1.00  0.00    -0.550 OA
ENDBRANCH   9  10
ENDBRANCH   8   9
ENDBRANCH   7   8
ENDBRANCH   6   7
ENDBRANCH   5   6
ENDBRANCH   4   5
ENDBRANCH   3   4
ENDBRANCH   1   3
BRANCH   2  13
ATOM     13  C   UNL     1     202.771 208.007 194.659  1.00  0.00     0.027 C 
BRANCH  13  14
ATOM     14  C   UNL     1     203.966 208.137 195.615  1.00  0.00     0.004 C 
BRANCH  14  15
ATOM     15  C   UNL     1     205.317 208.018 194.892  1.00  0.00     0.000 C 
BRANCH  15  16
ATOM     16  C   UNL     1     206.033 206.693 195.192  1.00  0.00     0.000 C 
BRANCH  16  17
ATOM     17  C   UNL     1     205.332 205.934 196.326  1.00  0.00    -0.000 C 
BRANCH  17  18
ATOM     18  C   UNL     1     206.068 204.626 196.649  1.00  0.00    -0.000 C 
BRANCH  18  19
ATOM     19  C   UNL     1     205.459 203.887 197.852  1.00  0.00    -0.003 C 
ATOM     20  C   UNL     1     204.692 202.630 197.446  1.00  0.00     0.004 C 
ENDBRANCH  18  19
ENDBRANCH  17  18
ENDBRANCH  16  17
ENDBRANCH  15  16
ENDBRANCH  14  15
ENDBRANCH  13  14
ENDBRANCH   2  13
TORSDOF 15
ENDMDL
