MODEL 1
REMARK VINA RESULT:    -4.623      0.000      0.000
REMARK INTER + INTRA:          -4.910
REMARK INTER:                  -4.894
REMARK INTRA:                  -0.017
REMARK UNBOUND:                -0.017
REMARK SMILES O=C([O-])c1cccnc1
REMARK SMILES IDX 4 1 5 2 9 3 6 4 8 5 7 6 2 7 1 8 3 9
REMARK H PARENT
REMARK Flexibility Score: inf
ROOT
ATOM      1  C   UNL     1     103.471 100.136  99.308  1.00  0.00     0.016 A 
ATOM      2  C   UNL     1     104.697 100.793  99.501  1.00  0.00     0.013 A 
ATOM      3  C   UNL     1     102.534 100.151 100.357  1.00  0.00     0.120 A 
ATOM      4  C   UNL     1     104.964 101.439 100.708  1.00  0.00     0.021 A 
ATOM      5  N   UNL     1     102.820 100.788 101.524  1.00  0.00    -0.264 NA
ATOM      6  C   UNL     1     104.003 101.426 101.719  1.00  0.00     0.111 A 
ENDROOT
BRANCH   1   7
ATOM      7  C   UNL     1     103.177  99.447  98.033  1.00  0.00     0.073 C 
ATOM      8  O   UNL     1     102.910 100.108  96.995  1.00  0.00    -0.545 OA
ATOM      9  O   UNL     1     103.191  98.059  97.965  1.00  0.00    -0.545 OA
ENDBRANCH   1   7
TORSDOF 1
ENDMDL
MODEL 2
REMARK VINA RESULT:    -4.579      8.030      8.975
REMARK INTER + INTRA:          -4.864
REMARK INTER:                  -4.846
REMARK INTRA:                  -0.018
REMARK UNBOUND:                -0.017
REMARK SMILES O=C([O-])c1cccnc1
REMARK SMILES IDX 4 1 5 2 9 3 6 4 8 5 7 6 2 7 1 8 3 9
REMARK H PARENT
REMARK Flexibility Score: inf
ROOT
ATOM      1  C   UNL     1     105.519 108.774  99.368  1.00  0.00     0.016 A 
ATOM      2  C   UNL     1     104.377 107.978  99.543  1.00  0.00     0.013 A 
ATOM      3  C   UNL     1     106.404 108.921 100.453  1.00  0.00     0.120 A 
ATOM      4  C   UNL     1     104.138 107.353 100.768  1.00  0.00     0.021 A 
ATOM      5  N   UNL     1     106.146 108.301 101.636  1.00  0.00    -0.264 NA
ATOM      6  C   UNL     1     105.044 107.528 101.814  1.00  0.00     0.111 A 
ENDROOT
BRANCH   1   7
ATOM      7  C   UNL     1     105.784 109.442  98.076  1.00  0.00     0.073 C 
ATOM      8  O   UNL     1     105.971 108.764  97.031  1.00  0.00    -0.545 OA
ATOM      9  O   UNL     1     105.828 110.829  97.996  1.00  0.00    -0.545 OA
ENDBRANCH   1   7
TORSDOF 1
ENDMDL
MODEL 3
REMARK VINA RESULT:    -4.525      0.910      1.592
REMARK INTER + INTRA:          -4.806
REMARK INTER:                  -4.788
REMARK INTRA:                  -0.017
REMARK UNBOUND:                -0.017
REMARK SMILES O=C([O-])c1cccnc1
REMARK SMILES IDX 4 1 5 2 9 3 6 4 8 5 7 6 2 7 1 8 3 9
REMARK H PARENT
REMARK Flexibility Score: inf
ROOT
ATOM      1  C   UNL     1     103.440 100.134  99.297  1.00  0.00     0.016 A 
ATOM      2  C   UNL     1     102.608  99.946 100.412  1.00  0.00     0.013 A 
ATOM      3  C   UNL     1     104.547 100.994  99.427  1.00  0.00     0.120 A 
ATOM      4  C   UNL     1     102.884 100.602 101.612  1.00  0.00     0.021 A 
ATOM      5  N   UNL     1     104.792 101.621 100.608  1.00  0.00    -0.264 NA
ATOM      6  C   UNL     1     103.993 101.445 101.692  1.00  0.00     0.111 A 
ENDROOT
BRANCH   1   7
ATOM      7  C   UNL     1     103.158  99.445  98.019  1.00  0.00     0.073 C 
ATOM      8  O   UNL     1     102.903 100.105  96.978  1.00  0.00    -0.545 OA
ATOM      9  O   UNL     1     103.170  98.057  97.952  1.00  0.00    -0.545 OA
ENDBRANCH   1   7
TORSDOF 1
ENDMDL
MODEL 4
REMARK VINA RESULT:    -4.494      8.348      9.189
REMARK INTER + INTRA:          -4.773
REMARK INTER:                  -4.749
REMARK INTRA:                  -0.024
REMARK UNBOUND:                -0.017
REMARK SMILES O=C([O-])c1cccnc1
REMARK SMILES IDX 4 1 5 2 9 3 6 4 8 5 7 6 2 7 1 8 3 9
REMARK H PARENT
REMARK Flexibility Score: inf
ROOT
ATOM      1  C   UNL     1     104.711 108.518  99.895  1.00  0.00     0.016 A 
ATOM      2  C   UNL     1     103.549 108.781  99.152  1.00  0.00     0.013 A 
ATOM      3  C   UNL     1     105.938 109.008  99.411  1.00  0.00     0.120 A 
ATOM      4  C   UNL     1     103.625 109.512  97.966  1.00  0.00     0.021 A 
ATOM      5  N   UNL     1     105.984 109.716  98.251  1.00  0.00    -0.264 NA
ATOM      6  C   UNL     1     104.864 109.977  97.526  1.00  0.00     0.111 A 
ENDROOT
BRANCH   1   7
ATOM      7  C   UNL     1     104.644 107.744 101.153  1.00  0.00     0.073 C 
ATOM      8  O   UNL     1     103.552 107.256 101.547  1.00  0.00    -0.545 OA
ATOM      9  O   UNL     1     105.787 107.546 101.919  1.00  0.00    -0.545 OA
ENDBRANCH   1   7
TORSDOF 1
ENDMDL
MODEL 5
REMARK VINA RESULT:    -4.460      2.926      3.698
REMARK INTER + INTRA:          -4.738
REMARK INTER:                  -4.713
REMARK INTRA:                  -0.024
REMARK UNBOUND:                -0.017
REMARK SMILES O=C([O-])c1cccnc1
REMARK SMILES IDX 4 1 5 2 9 3 6 4 8 5 7 6 2 7 1 8 3 9
REMARK H PARENT
REMARK Flexibility Score: inf
ROOT
ATOM      1  C   UNL     1     104.323 100.387  99.845  1.00  0.00     0.016 A 
ATOM      2  C   UNL     1     105.476 100.108  99.093  1.00  0.00     0.013 A 
ATOM      3  C   UNL     1     103.088  99.904  99.377  1.00  0.00     0.120 A 
ATOM      4  C   UNL     1     105.382  99.369  97.913  1.00  0.00     0.021 A 
ATOM      5  N   UNL     1     103.024  99.186  98.223  1.00  0.00    -0.264 NA
ATOM      6  C   UNL     1     104.134  98.912  97.490  1.00  0.00     0.111 A 
ENDROOT
BRANCH   1   7
ATOM      7  C   UNL     1     104.410 101.170 101.097  1.00  0.00     0.073 C 
ATOM      8  O   UNL     1     105.510 101.649 101.478  1.00  0.00    -0.545 OA
ATOM      9  O   UNL     1     103.276 101.386 101.870  1.00  0.00    -0.545 OA
ENDBRANCH   1   7
TORSDOF 1
ENDMDL
MODEL 6
REMARK VINA RESULT:    -4.387      8.168      8.841
REMARK INTER + INTRA:          -4.660
REMARK INTER:                  -4.636
REMARK INTRA:                  -0.024
REMARK UNBOUND:                -0.017
REMARK SMILES O=C([O-])c1cccnc1
REMARK SMILES IDX 4 1 5 2 9 3 6 4 8 5 7 6 2 7 1 8 3 9
REMARK H PARENT
REMARK Flexibility Score: inf
ROOT
ATOM      1  C   UNL     1     104.981 108.931  99.259  1.00  0.00     0.016 A 
ATOM      2  C   UNL     1     106.225 109.094  99.890  1.00  0.00     0.013 A 
ATOM      3  C   UNL     1     104.025 108.100  99.873  1.00  0.00     0.120 A 
ATOM      4  C   UNL     1     106.491 108.443 101.095  1.00  0.00     0.021 A 
ATOM      5  N   UNL     1     104.312 107.476 101.046  1.00  0.00    -0.264 NA
ATOM      6  C   UNL     1     105.512 107.628 101.664  1.00  0.00     0.111 A 
ENDROOT
BRANCH   1   7
ATOM      7  C   UNL     1     104.686 109.616  97.983  1.00  0.00     0.073 C 
ATOM      8  O   UNL     1     105.474 110.485  97.525  1.00  0.00    -0.545 OA
ATOM      9  O   UNL     1     103.533 109.309  97.270  1.00  0.00    -0.545 OA
ENDBRANCH   1   7
TORSDOF 1
ENDMDL
MODEL 7
REMARK VINA RESULT:    -4.301      1.644      2.355
REMARK INTER + INTRA:          -4.569
REMARK INTER:                  -4.545
REMARK INTRA:                  -0.024
REMARK UNBOUND:                -0.017
REMARK SMILES O=C([O-])c1cccnc1
REMARK SMILES IDX 4 1 5 2 9 3 6 4 8 5 7 6 2 7 1 8 3 9
REMARK H PARENT
REMARK Flexibility Score: inf
ROOT
ATOM      1  C   UNL     1     103.420 100.408 100.642  1.00  0.00     0.016 A 
ATOM      2  C   UNL     1     102.510  99.516 101.231  1.00  0.00     0.013 A 
ATOM      3  C   UNL     1     104.140 101.279 101.480  1.00  0.00     0.120 A 
ATOM      4  C   UNL     1     102.336  99.504 102.615  1.00  0.00     0.021 A 
ATOM      5  N   UNL     1     103.950 101.247 102.827  1.00  0.00    -0.264 NA
ATOM      6  C   UNL     1     103.073 100.386 103.406  1.00  0.00     0.111 A 
ENDROOT
BRANCH   1   7
ATOM      7  C   UNL     1     103.613 100.431  99.176  1.00  0.00     0.073 C 
ATOM      8  O   UNL     1     104.423 101.239  98.649  1.00  0.00    -0.545 OA
ATOM      9  O   UNL     1     102.903  99.559  98.359  1.00  0.00    -0.545 OA
ENDBRANCH   1   7
TORSDOF 1
ENDMDL
MODEL 8
REMARK VINA RESULT:    -4.295      7.850      8.786
REMARK INTER + INTRA:          -4.563
REMARK INTER:                  -4.540
REMARK INTRA:                  -0.023
REMARK UNBOUND:                -0.017
REMARK SMILES O=C([O-])c1cccnc1
REMARK SMILES IDX 4 1 5 2 9 3 6 4 8 5 7 6 2 7 1 8 3 9
REMARK H PARENT
REMARK Flexibility Score: inf
ROOT
ATOM      1  C   UNL     1     105.554 108.567 100.654  1.00  0.00     0.016 A 
ATOM      2  C   UNL     1     106.508 109.361 101.310  1.00  0.00     0.013 A 
ATOM      3  C   UNL     1     104.771 107.689 101.427  1.00  0.00     0.120 A 
ATOM      4  C   UNL     1     106.664 109.271 102.694  1.00  0.00     0.021 A 
ATOM      5  N   UNL     1     104.945 107.620 102.774  1.00  0.00    -0.264 NA
ATOM      6  C   UNL     1     105.865 108.385 103.417  1.00  0.00     0.111 A 
ENDROOT
BRANCH   1   7
ATOM      7  C   UNL     1     105.378 108.654  99.189  1.00  0.00     0.073 C 
ATOM      8  O   UNL     1     104.700 107.790  98.572  1.00  0.00    -0.545 OA
ATOM      9  O   UNL     1     105.960 109.692  98.471  1.00  0.00    -0.545 OA
ENDBRANCH   1   7
TORSDOF 1
ENDMDL
