MODEL 1
REMARK VINA RESULT:    -4.461      0.000      0.000
REMARK INTER + INTRA:         -10.235
REMARK INTER:                  -8.373
REMARK INTRA:                  -1.862
REMARK UNBOUND:                -1.862
REMARK SMILES O=C([O-])CCCCCCCCCCCCCCC(=O)[O-]
REMARK SMILES IDX 10 1 9 2 8 3 7 4 6 5 5 6 4 7 2 8 1 9 3 10 11 11 12 12 13 13
REMARK SMILES IDX 14 14 15 15 16 16 17 17 18 18 19 19 20 20
REMARK H PARENT
REMARK Flexibility Score: inf
ROOT
ATOM      1  C   UNL     1      11.349 -17.434 -25.708  1.00  0.00     0.000 C 
ENDROOT
BRANCH   1   2
ATOM      2  C   UNL     1      10.283 -16.626 -26.470  1.00  0.00     0.000 C 
BRANCH   2   3
ATOM      3  C   UNL     1       8.867 -16.827 -25.912  1.00  0.00     0.000 C 
BRANCH   3   4
ATOM      4  C   UNL     1       8.329 -15.530 -25.296  1.00  0.00     0.000 C 
BRANCH   4   5
ATOM      5  C   UNL     1       9.474 -14.647 -24.779  1.00  0.00     0.000 C 
BRANCH   5   6
ATOM      6  C   UNL     1       8.987 -13.316 -24.180  1.00  0.00     0.006 C 
BRANCH   6   7
ATOM      7  C   UNL     1       8.827 -12.187 -25.212  1.00  0.00     0.053 C 
BRANCH   7   8
ATOM      8  C   UNL     1       9.518 -10.924 -24.796  1.00  0.00     0.041 C 
ATOM      9  O   UNL     1       9.624 -10.634 -23.575  1.00  0.00    -0.550 OA
ATOM     10  O   UNL     1      10.015 -10.050 -25.755  1.00  0.00    -0.550 OA
ENDBRANCH   7   8
ENDBRANCH   6   7
ENDBRANCH   5   6
ENDBRANCH   4   5
ENDBRANCH   3   4
ENDBRANCH   2   3
ENDBRANCH   1   2
BRANCH   1  11
ATOM     11  C   UNL     1      10.905 -18.840 -25.255  1.00  0.00     0.000 C 
BRANCH  11  12
ATOM     12  C   UNL     1      11.054 -19.118 -23.747  1.00  0.00     0.000 C 
BRANCH  12  13
ATOM     13  C   UNL     1       9.746 -19.018 -22.939  1.00  0.00     0.000 C 
BRANCH  13  14
ATOM     14  C   UNL     1       9.455 -17.601 -22.399  1.00  0.00     0.000 C 
BRANCH  14  15
ATOM     15  C   UNL     1      10.618 -17.039 -21.563  1.00  0.00     0.000 C 
BRANCH  15  16
ATOM     16  C   UNL     1      10.649 -15.502 -21.551  1.00  0.00     0.006 C 
BRANCH  16  17
ATOM     17  C   UNL     1       9.717 -14.904 -20.489  1.00  0.00     0.053 C 
BRANCH  17  18
ATOM     18  C   UNL     1      10.215 -13.563 -20.054  1.00  0.00     0.041 C 
ATOM     19  O   UNL     1      10.849 -13.442 -18.972  1.00  0.00    -0.550 OA
ATOM     20  O   UNL     1       9.937 -12.436 -20.817  1.00  0.00    -0.550 OA
ENDBRANCH  17  18
ENDBRANCH  16  17
ENDBRANCH  15  16
ENDBRANCH  14  15
ENDBRANCH  13  14
ENDBRANCH  12  13
ENDBRANCH  11  12
ENDBRANCH   1  11
TORSDOF 15
ENDMDL
MODEL 2
REMARK VINA RESULT:    -4.306      3.182      5.488
REMARK INTER + INTRA:          -9.943
REMARK INTER:                  -8.047
REMARK INTRA:                  -1.896
REMARK UNBOUND:                -1.862
REMARK SMILES O=C([O-])CCCCCCCCCCCCCCC(=O)[O-]
REMARK SMILES IDX 10 1 9 2 8 3 7 4 6 5 5 6 4 7 2 8 1 9 3 10 11 11 12 12 13 13
REMARK SMILES IDX 14 14 15 15 16 16 17 17 18 18 19 19 20 20
REMARK H PARENT
REMARK Flexibility Score: inf
ROOT
ATOM      1  C   UNL     1      10.152 -17.317 -22.327  1.00  0.00     0.000 C 
ENDROOT
BRANCH   1   2
ATOM      2  C   UNL     1      11.110 -16.390 -23.097  1.00  0.00     0.000 C 
BRANCH   2   3
ATOM      3  C   UNL     1      10.447 -15.715 -24.306  1.00  0.00     0.000 C 
BRANCH   3   4
ATOM      4  C   UNL     1      10.403 -14.192 -24.131  1.00  0.00     0.000 C 
BRANCH   4   5
ATOM      5  C   UNL     1      10.965 -13.778 -22.764  1.00  0.00     0.000 C 
BRANCH   5   6
ATOM      6  C   UNL     1       9.970 -12.956 -21.926  1.00  0.00     0.006 C 
BRANCH   6   7
ATOM      7  C   UNL     1      10.273 -12.957 -20.417  1.00  0.00     0.053 C 
BRANCH   7   8
ATOM      8  C   UNL     1      10.199 -14.329 -19.817  1.00  0.00     0.041 C 
ATOM      9  O   UNL     1      11.156 -14.770 -19.128  1.00  0.00    -0.550 OA
ATOM     10  O   UNL     1       9.090 -15.134 -20.047  1.00  0.00    -0.550 OA
ENDBRANCH   7   8
ENDBRANCH   6   7
ENDBRANCH   5   6
ENDBRANCH   4   5
ENDBRANCH   3   4
ENDBRANCH   2   3
ENDBRANCH   1   2
BRANCH   1  11
ATOM     11  C   UNL     1       8.701 -17.342 -22.852  1.00  0.00     0.000 C 
BRANCH  11  12
ATOM     12  C   UNL     1       8.170 -18.735 -23.237  1.00  0.00     0.000 C 
BRANCH  12  13
ATOM     13  C   UNL     1       8.741 -19.899 -22.404  1.00  0.00     0.000 C 
BRANCH  13  14
ATOM     14  C   UNL     1       9.478 -20.963 -23.246  1.00  0.00     0.000 C 
BRANCH  14  15
ATOM     15  C   UNL     1      10.651 -20.371 -24.047  1.00  0.00     0.000 C 
BRANCH  15  16
ATOM     16  C   UNL     1      10.373 -20.331 -25.558  1.00  0.00     0.006 C 
BRANCH  16  17
ATOM     17  C   UNL     1      10.417 -18.907 -26.128  1.00  0.00     0.053 C 
BRANCH  17  18
ATOM     18  C   UNL     1      11.740 -18.644 -26.774  1.00  0.00     0.041 C 
ATOM     19  O   UNL     1      12.317 -19.552 -27.429  1.00  0.00    -0.550 OA
ATOM     20  O   UNL     1      12.362 -17.413 -26.610  1.00  0.00    -0.550 OA
ENDBRANCH  17  18
ENDBRANCH  16  17
ENDBRANCH  15  16
ENDBRANCH  14  15
ENDBRANCH  13  14
ENDBRANCH  12  13
ENDBRANCH  11  12
ENDBRANCH   1  11
TORSDOF 15
ENDMDL
MODEL 3
REMARK VINA RESULT:    -4.246      0.824      4.765
REMARK INTER + INTRA:          -9.832
REMARK INTER:                  -8.173
REMARK INTRA:                  -1.659
REMARK UNBOUND:                -1.862
REMARK SMILES O=C([O-])CCCCCCCCCCCCCCC(=O)[O-]
REMARK SMILES IDX 10 1 9 2 8 3 7 4 6 5 5 6 4 7 2 8 1 9 3 10 11 11 12 12 13 13
REMARK SMILES IDX 14 14 15 15 16 16 17 17 18 18 19 19 20 20
REMARK H PARENT
REMARK Flexibility Score: inf
ROOT
ATOM      1  C   UNL     1      11.514 -17.587 -24.892  1.00  0.00     0.000 C 
ENDROOT
BRANCH   1   2
ATOM      2  C   UNL     1      10.526 -18.746 -24.667  1.00  0.00     0.000 C 
BRANCH   2   3
ATOM      3  C   UNL     1      10.296 -19.055 -23.181  1.00  0.00     0.000 C 
BRANCH   3   4
ATOM      4  C   UNL     1      11.006 -18.029 -22.289  1.00  0.00     0.000 C 
BRANCH   4   5
ATOM      5  C   UNL     1      10.006 -17.024 -21.700  1.00  0.00     0.000 C 
BRANCH   5   6
ATOM      6  C   UNL     1      10.654 -15.682 -21.316  1.00  0.00     0.006 C 
BRANCH   6   7
ATOM      7  C   UNL     1       9.647 -14.539 -21.108  1.00  0.00     0.053 C 
BRANCH   7   8
ATOM      8  C   UNL     1      10.136 -13.510 -20.134  1.00  0.00     0.041 C 
ATOM      9  O   UNL     1       9.937 -12.286 -20.352  1.00  0.00    -0.550 OA
ATOM     10  O   UNL     1      10.843 -13.899 -19.002  1.00  0.00    -0.550 OA
ENDBRANCH   7   8
ENDBRANCH   6   7
ENDBRANCH   5   6
ENDBRANCH   4   5
ENDBRANCH   3   4
ENDBRANCH   2   3
ENDBRANCH   1   2
BRANCH   1  11
ATOM     11  C   UNL     1      10.866 -16.234 -25.254  1.00  0.00     0.000 C 
BRANCH  11  12
ATOM     12  C   UNL     1       9.729 -16.311 -26.291  1.00  0.00     0.000 C 
BRANCH  12  13
ATOM     13  C   UNL     1       8.462 -15.516 -25.922  1.00  0.00     0.000 C 
BRANCH  13  14
ATOM     14  C   UNL     1       8.479 -14.949 -24.486  1.00  0.00     0.000 C 
BRANCH  14  15
ATOM     15  C   UNL     1       8.017 -13.483 -24.427  1.00  0.00     0.000 C 
BRANCH  15  16
ATOM     16  C   UNL     1       9.183 -12.490 -24.565  1.00  0.00     0.006 C 
BRANCH  16  17
ATOM     17  C   UNL     1       8.732 -11.124 -25.099  1.00  0.00     0.053 C 
BRANCH  17  18
ATOM     18  C   UNL     1       9.694 -10.058 -24.680  1.00  0.00     0.041 C 
ATOM     19  O   UNL     1       9.898  -9.061 -25.422  1.00  0.00    -0.550 OA
ATOM     20  O   UNL     1      10.403 -10.188 -23.492  1.00  0.00    -0.550 OA
ENDBRANCH  17  18
ENDBRANCH  16  17
ENDBRANCH  15  16
ENDBRANCH  14  15
ENDBRANCH  13  14
ENDBRANCH  12  13
ENDBRANCH  11  12
ENDBRANCH   1  11
TORSDOF 15
ENDMDL
MODEL 4
REMARK VINA RESULT:    -4.173      3.136      4.732
REMARK INTER + INTRA:          -9.694
REMARK INTER:                  -7.764
REMARK INTRA:                  -1.930
REMARK UNBOUND:                -1.862
REMARK SMILES O=C([O-])CCCCCCCCCCCCCCC(=O)[O-]
REMARK SMILES IDX 10 1 9 2 8 3 7 4 6 5 5 6 4 7 2 8 1 9 3 10 11 11 12 12 13 13
REMARK SMILES IDX 14 14 15 15 16 16 17 17 18 18 19 19 20 20
REMARK H PARENT
REMARK Flexibility Score: inf
ROOT
ATOM      1  C   UNL     1      11.312 -18.808 -23.425  1.00  0.00     0.000 C 
ENDROOT
BRANCH   1   2
ATOM      2  C   UNL     1      10.554 -20.131 -23.637  1.00  0.00     0.000 C 
BRANCH   2   3
ATOM      3  C   UNL     1      10.369 -20.484 -25.120  1.00  0.00     0.000 C 
BRANCH   3   4
ATOM      4  C   UNL     1       9.179 -19.726 -25.721  1.00  0.00     0.000 C 
BRANCH   4   5
ATOM      5  C   UNL     1       9.649 -18.495 -26.509  1.00  0.00     0.000 C 
BRANCH   5   6
ATOM      6  C   UNL     1      11.088 -18.630 -27.038  1.00  0.00     0.006 C 
BRANCH   6   7
ATOM      7  C   UNL     1      11.908 -17.331 -26.953  1.00  0.00     0.053 C 
BRANCH   7   8
ATOM      8  C   UNL     1      13.003 -17.274 -27.975  1.00  0.00     0.041 C 
ATOM      9  O   UNL     1      12.725 -17.308 -29.203  1.00  0.00    -0.550 OA
ATOM     10  O   UNL     1      14.332 -17.220 -27.574  1.00  0.00    -0.550 OA
ENDBRANCH   7   8
ENDBRANCH   6   7
ENDBRANCH   5   6
ENDBRANCH   4   5
ENDBRANCH   3   4
ENDBRANCH   2   3
ENDBRANCH   1   2
BRANCH   1  11
ATOM     11  C   UNL     1      10.636 -17.813 -22.458  1.00  0.00     0.000 C 
BRANCH  11  12
ATOM     12  C   UNL     1       9.303 -17.224 -22.954  1.00  0.00     0.000 C 
BRANCH  12  13
ATOM     13  C   UNL     1       9.430 -15.905 -23.739  1.00  0.00     0.000 C 
BRANCH  13  14
ATOM     14  C   UNL     1      10.877 -15.375 -23.835  1.00  0.00     0.000 C 
BRANCH  14  15
ATOM     15  C   UNL     1      11.082 -14.076 -23.035  1.00  0.00     0.000 C 
BRANCH  15  16
ATOM     16  C   UNL     1       9.808 -13.625 -22.303  1.00  0.00     0.006 C 
BRANCH  16  17
ATOM     17  C   UNL     1      10.088 -13.157 -20.869  1.00  0.00     0.053 C 
BRANCH  17  18
ATOM     18  C   UNL     1      10.141 -14.327 -19.939  1.00  0.00     0.041 C 
ATOM     19  O   UNL     1      11.051 -14.407 -19.072  1.00  0.00    -0.550 OA
ATOM     20  O   UNL     1       9.217 -15.356 -20.063  1.00  0.00    -0.550 OA
ENDBRANCH  17  18
ENDBRANCH  16  17
ENDBRANCH  15  16
ENDBRANCH  14  15
ENDBRANCH  13  14
ENDBRANCH  12  13
ENDBRANCH  11  12
ENDBRANCH   1  11
TORSDOF 15
ENDMDL
MODEL 5
REMARK VINA RESULT:    -4.147      1.685      3.209
REMARK INTER + INTRA:          -9.644
REMARK INTER:                  -8.394
REMARK INTRA:                  -1.250
REMARK UNBOUND:                -1.862
REMARK SMILES O=C([O-])CCCCCCCCCCCCCCC(=O)[O-]
REMARK SMILES IDX 10 1 9 2 8 3 7 4 6 5 5 6 4 7 2 8 1 9 3 10 11 11 12 12 13 13
REMARK SMILES IDX 14 14 15 15 16 16 17 17 18 18 19 19 20 20
REMARK H PARENT
REMARK Flexibility Score: inf
ROOT
ATOM      1  C   UNL     1      10.484 -14.521 -24.209  1.00  0.00     0.000 C 
ENDROOT
BRANCH   1   2
ATOM      2  C   UNL     1      10.037 -13.061 -24.007  1.00  0.00     0.000 C 
BRANCH   2   3
ATOM      3  C   UNL     1       8.653 -12.772 -24.604  1.00  0.00     0.000 C 
BRANCH   3   4
ATOM      4  C   UNL     1       8.476 -11.274 -24.883  1.00  0.00     0.000 C 
BRANCH   4   5
ATOM      5  C   UNL     1       9.758 -10.496 -24.556  1.00  0.00     0.000 C 
BRANCH   5   6
ATOM      6  C   UNL     1       9.569  -8.970 -24.608  1.00  0.00     0.006 C 
BRANCH   6   7
ATOM      7  C   UNL     1       8.345  -8.520 -25.425  1.00  0.00     0.053 C 
BRANCH   7   8
ATOM      8  C   UNL     1       8.716  -8.007 -26.783  1.00  0.00     0.041 C 
ATOM      9  O   UNL     1       8.478  -6.810 -27.094  1.00  0.00    -0.550 OA
ATOM     10  O   UNL     1       9.294  -8.856 -27.718  1.00  0.00    -0.550 OA
ENDBRANCH   7   8
ENDBRANCH   6   7
ENDBRANCH   5   6
ENDBRANCH   4   5
ENDBRANCH   3   4
ENDBRANCH   2   3
ENDBRANCH   1   2
BRANCH   1  11
ATOM     11  C   UNL     1       9.572 -15.366 -25.122  1.00  0.00     0.000 C 
BRANCH  11  12
ATOM     12  C   UNL     1       9.030 -16.659 -24.486  1.00  0.00     0.000 C 
BRANCH  12  13
ATOM     13  C   UNL     1       9.991 -17.347 -23.498  1.00  0.00     0.000 C 
BRANCH  13  14
ATOM     14  C   UNL     1       9.683 -17.043 -22.016  1.00  0.00     0.000 C 
BRANCH  14  15
ATOM     15  C   UNL     1      10.957 -16.799 -21.188  1.00  0.00     0.000 C 
BRANCH  15  16
ATOM     16  C   UNL     1      10.770 -15.703 -20.127  1.00  0.00     0.006 C 
BRANCH  16  17
ATOM     17  C   UNL     1       9.727 -14.656 -20.539  1.00  0.00     0.053 C 
BRANCH  17  18
ATOM     18  C   UNL     1      10.187 -13.284 -20.160  1.00  0.00     0.041 C 
ATOM     19  O   UNL     1       9.994 -12.313 -20.937  1.00  0.00    -0.550 OA
ATOM     20  O   UNL     1      10.876 -13.086 -18.970  1.00  0.00    -0.550 OA
ENDBRANCH  17  18
ENDBRANCH  16  17
ENDBRANCH  15  16
ENDBRANCH  14  15
ENDBRANCH  13  14
ENDBRANCH  12  13
ENDBRANCH  11  12
ENDBRANCH   1  11
TORSDOF 15
ENDMDL
MODEL 6
REMARK VINA RESULT:    -4.115      2.916      6.030
REMARK INTER + INTRA:          -9.585
REMARK INTER:                  -8.042
REMARK INTRA:                  -1.543
REMARK UNBOUND:                -1.862
REMARK SMILES O=C([O-])CCCCCCCCCCCCCCC(=O)[O-]
REMARK SMILES IDX 10 1 9 2 8 3 7 4 6 5 5 6 4 7 2 8 1 9 3 10 11 11 12 12 13 13
REMARK SMILES IDX 14 14 15 15 16 16 17 17 18 18 19 19 20 20
REMARK H PARENT
REMARK Flexibility Score: inf
ROOT
ATOM      1  C   UNL     1      10.867 -15.127 -20.504  1.00  0.00     0.000 C 
ENDROOT
BRANCH   1   2
ATOM      2  C   UNL     1       9.874 -16.127 -21.121  1.00  0.00     0.000 C 
BRANCH   2   3
ATOM      3  C   UNL     1      10.564 -17.349 -21.744  1.00  0.00     0.000 C 
BRANCH   3   4
ATOM      4  C   UNL     1      10.809 -17.137 -23.244  1.00  0.00     0.000 C 
BRANCH   4   5
ATOM      5  C   UNL     1       9.483 -17.009 -24.007  1.00  0.00     0.000 C 
BRANCH   5   6
ATOM      6  C   UNL     1       9.611 -17.350 -25.502  1.00  0.00     0.006 C 
BRANCH   6   7
ATOM      7  C   UNL     1      10.808 -16.676 -26.196  1.00  0.00     0.053 C 
BRANCH   7   8
ATOM      8  C   UNL     1      11.901 -17.646 -26.528  1.00  0.00     0.041 C 
ATOM      9  O   UNL     1      12.931 -17.254 -27.138  1.00  0.00    -0.550 OA
ATOM     10  O   UNL     1      11.769 -18.989 -26.197  1.00  0.00    -0.550 OA
ENDBRANCH   7   8
ENDBRANCH   6   7
ENDBRANCH   5   6
ENDBRANCH   4   5
ENDBRANCH   3   4
ENDBRANCH   2   3
ENDBRANCH   1   2
BRANCH   1  11
ATOM     11  C   UNL     1      10.309 -13.708 -20.270  1.00  0.00     0.000 C 
BRANCH  11  12
ATOM     12  C   UNL     1      10.050 -12.889 -21.548  1.00  0.00     0.000 C 
BRANCH  12  13
ATOM     13  C   UNL     1      10.944 -13.260 -22.747  1.00  0.00     0.000 C 
BRANCH  13  14
ATOM     14  C   UNL     1      10.165 -13.460 -24.065  1.00  0.00     0.000 C 
BRANCH  14  15
ATOM     15  C   UNL     1       8.784 -12.782 -24.041  1.00  0.00     0.000 C 
BRANCH  15  16
ATOM     16  C   UNL     1       8.673 -11.630 -25.052  1.00  0.00     0.006 C 
BRANCH  16  17
ATOM     17  C   UNL     1       9.830 -10.630 -24.934  1.00  0.00     0.053 C 
BRANCH  17  18
ATOM     18  C   UNL     1       9.305  -9.251 -24.694  1.00  0.00     0.041 C 
ATOM     19  O   UNL     1       8.334  -9.068 -23.914  1.00  0.00    -0.550 OA
ATOM     20  O   UNL     1       9.856  -8.170 -25.372  1.00  0.00    -0.550 OA
ENDBRANCH  17  18
ENDBRANCH  16  17
ENDBRANCH  15  16
ENDBRANCH  14  15
ENDBRANCH  13  14
ENDBRANCH  12  13
ENDBRANCH  11  12
ENDBRANCH   1  11
TORSDOF 15
ENDMDL
MODEL 7
REMARK VINA RESULT:    -4.109     16.478     18.877
REMARK INTER + INTRA:          -9.573
REMARK INTER:                  -7.756
REMARK INTRA:                  -1.817
REMARK UNBOUND:                -1.862
REMARK SMILES O=C([O-])CCCCCCCCCCCCCCC(=O)[O-]
REMARK SMILES IDX 10 1 9 2 8 3 7 4 6 5 5 6 4 7 2 8 1 9 3 10 11 11 12 12 13 13
REMARK SMILES IDX 14 14 15 15 16 16 17 17 18 18 19 19 20 20
REMARK H PARENT
REMARK Flexibility Score: inf
ROOT
ATOM      1  C   UNL     1      23.074  -2.979 -31.479  1.00  0.00     0.000 C 
ENDROOT
BRANCH   1   2
ATOM      2  C   UNL     1      22.505  -2.758 -30.065  1.00  0.00     0.000 C 
BRANCH   2   3
ATOM      3  C   UNL     1      23.577  -2.343 -29.047  1.00  0.00     0.000 C 
BRANCH   3   4
ATOM      4  C   UNL     1      24.854  -3.174 -29.224  1.00  0.00     0.000 C 
BRANCH   4   5
ATOM      5  C   UNL     1      26.081  -2.419 -28.696  1.00  0.00     0.000 C 
BRANCH   5   6
ATOM      6  C   UNL     1      25.804  -1.654 -27.389  1.00  0.00     0.006 C 
BRANCH   6   7
ATOM      7  C   UNL     1      26.689  -2.091 -26.210  1.00  0.00     0.053 C 
BRANCH   7   8
ATOM      8  C   UNL     1      25.927  -2.859 -25.172  1.00  0.00     0.041 C 
ATOM      9  O   UNL     1      24.851  -3.438 -25.477  1.00  0.00    -0.550 OA
ATOM     10  O   UNL     1      26.385  -2.907 -23.861  1.00  0.00    -0.550 OA
ENDBRANCH   7   8
ENDBRANCH   6   7
ENDBRANCH   5   6
ENDBRANCH   4   5
ENDBRANCH   3   4
ENDBRANCH   2   3
ENDBRANCH   1   2
BRANCH   1  11
ATOM     11  C   UNL     1      22.040  -3.400 -32.543  1.00  0.00     0.000 C 
BRANCH  11  12
ATOM     12  C   UNL     1      22.237  -4.815 -33.120  1.00  0.00     0.000 C 
BRANCH  12  13
ATOM     13  C   UNL     1      21.649  -5.951 -32.263  1.00  0.00     0.000 C 
BRANCH  13  14
ATOM     14  C   UNL     1      22.674  -6.611 -31.316  1.00  0.00     0.000 C 
BRANCH  14  15
ATOM     15  C   UNL     1      22.295  -6.450 -29.834  1.00  0.00     0.000 C 
BRANCH  15  16
ATOM     16  C   UNL     1      23.503  -6.595 -28.895  1.00  0.00     0.006 C 
BRANCH  16  17
ATOM     17  C   UNL     1      23.276  -5.922 -27.535  1.00  0.00     0.053 C 
BRANCH  17  18
ATOM     18  C   UNL     1      23.412  -6.921 -26.430  1.00  0.00     0.041 C 
ATOM     19  O   UNL     1      23.237  -8.147 -26.657  1.00  0.00    -0.550 OA
ATOM     20  O   UNL     1      23.683  -6.493 -25.136  1.00  0.00    -0.550 OA
ENDBRANCH  17  18
ENDBRANCH  16  17
ENDBRANCH  15  16
ENDBRANCH  14  15
ENDBRANCH  13  14
ENDBRANCH  12  13
ENDBRANCH  11  12
ENDBRANCH   1  11
TORSDOF 15
ENDMDL
MODEL 8
REMARK VINA RESULT:    -4.107      2.914      5.539
REMARK INTER + INTRA:          -9.570
REMARK INTER:                  -7.723
REMARK INTRA:                  -1.847
REMARK UNBOUND:                -1.862
REMARK SMILES O=C([O-])CCCCCCCCCCCCCCC(=O)[O-]
REMARK SMILES IDX 10 1 9 2 8 3 7 4 6 5 5 6 4 7 2 8 1 9 3 10 11 11 12 12 13 13
REMARK SMILES IDX 14 14 15 15 16 16 17 17 18 18 19 19 20 20
REMARK H PARENT
REMARK Flexibility Score: inf
ROOT
ATOM      1  C   UNL     1      11.302 -18.978 -23.821  1.00  0.00     0.000 C 
ENDROOT
BRANCH   1   2
ATOM      2  C   UNL     1      11.279 -18.133 -22.534  1.00  0.00     0.000 C 
BRANCH   2   3
ATOM      3  C   UNL     1       9.866 -17.684 -22.138  1.00  0.00     0.000 C 
BRANCH   3   4
ATOM      4  C   UNL     1       9.455 -16.419 -22.903  1.00  0.00     0.000 C 
BRANCH   4   5
ATOM      5  C   UNL     1      10.591 -15.386 -22.910  1.00  0.00     0.000 C 
BRANCH   5   6
ATOM      6  C   UNL     1      10.323 -14.187 -21.983  1.00  0.00     0.006 C 
BRANCH   6   7
ATOM      7  C   UNL     1       9.677 -14.568 -20.640  1.00  0.00     0.053 C 
BRANCH   7   8
ATOM      8  C   UNL     1      10.602 -14.361 -19.478  1.00  0.00     0.041 C 
ATOM      9  O   UNL     1      11.064 -15.352 -18.854  1.00  0.00    -0.550 OA
ATOM     10  O   UNL     1      10.926 -13.076 -19.063  1.00  0.00    -0.550 OA
ENDBRANCH   7   8
ENDBRANCH   6   7
ENDBRANCH   5   6
ENDBRANCH   4   5
ENDBRANCH   3   4
ENDBRANCH   2   3
ENDBRANCH   1   2
BRANCH   1  11
ATOM     11  C   UNL     1      10.852 -20.444 -23.651  1.00  0.00     0.000 C 
BRANCH  11  12
ATOM     12  C   UNL     1       9.798 -20.925 -24.665  1.00  0.00     0.000 C 
BRANCH  12  13
ATOM     13  C   UNL     1       8.631 -19.948 -24.899  1.00  0.00     0.000 C 
BRANCH  13  14
ATOM     14  C   UNL     1       8.690 -19.222 -26.261  1.00  0.00     0.000 C 
BRANCH  14  15
ATOM     15  C   UNL     1       8.338 -17.728 -26.147  1.00  0.00     0.000 C 
BRANCH  15  16
ATOM     16  C   UNL     1       9.238 -16.841 -27.021  1.00  0.00     0.006 C 
BRANCH  16  17
ATOM     17  C   UNL     1      10.643 -16.666 -26.430  1.00  0.00     0.053 C 
BRANCH  17  18
ATOM     18  C   UNL     1      11.669 -17.267 -27.338  1.00  0.00     0.041 C 
ATOM     19  O   UNL     1      11.317 -17.830 -28.408  1.00  0.00    -0.550 OA
ATOM     20  O   UNL     1      13.010 -17.251 -26.977  1.00  0.00    -0.550 OA
ENDBRANCH  17  18
ENDBRANCH  16  17
ENDBRANCH  15  16
ENDBRANCH  14  15
ENDBRANCH  13  14
ENDBRANCH  12  13
ENDBRANCH  11  12
ENDBRANCH   1  11
TORSDOF 15
ENDMDL
MODEL 9
REMARK VINA RESULT:    -4.034      3.819      6.292
REMARK INTER + INTRA:          -9.433
REMARK INTER:                  -7.516
REMARK INTRA:                  -1.917
REMARK UNBOUND:                -1.862
REMARK SMILES O=C([O-])CCCCCCCCCCCCCCC(=O)[O-]
REMARK SMILES IDX 10 1 9 2 8 3 7 4 6 5 5 6 4 7 2 8 1 9 3 10 11 11 12 12 13 13
REMARK SMILES IDX 14 14 15 15 16 16 17 17 18 18 19 19 20 20
REMARK H PARENT
REMARK Flexibility Score: inf
ROOT
ATOM      1  C   UNL     1       9.641 -19.473 -23.479  1.00  0.00     0.000 C 
ENDROOT
BRANCH   1   2
ATOM      2  C   UNL     1      11.179 -19.423 -23.540  1.00  0.00     0.000 C 
BRANCH   2   3
ATOM      3  C   UNL     1      11.750 -18.064 -23.112  1.00  0.00     0.000 C 
BRANCH   3   4
ATOM      4  C   UNL     1      10.634 -17.115 -22.657  1.00  0.00     0.000 C 
BRANCH   4   5
ATOM      5  C   UNL     1      10.812 -15.719 -23.269  1.00  0.00     0.000 C 
BRANCH   5   6
ATOM      6  C   UNL     1       9.940 -14.647 -22.592  1.00  0.00     0.006 C 
BRANCH   6   7
ATOM      7  C   UNL     1       9.753 -14.859 -21.079  1.00  0.00     0.053 C 
BRANCH   7   8
ATOM      8  C   UNL     1      10.133 -13.650 -20.278  1.00  0.00     0.041 C 
ATOM      9  O   UNL     1       9.896 -12.496 -20.722  1.00  0.00    -0.550 OA
ATOM     10  O   UNL     1      10.781 -13.796 -19.058  1.00  0.00    -0.550 OA
ENDBRANCH   7   8
ENDBRANCH   6   7
ENDBRANCH   5   6
ENDBRANCH   4   5
ENDBRANCH   3   4
ENDBRANCH   2   3
ENDBRANCH   1   2
BRANCH   1  11
ATOM     11  C   UNL     1       8.945 -19.873 -24.796  1.00  0.00     0.000 C 
BRANCH  11  12
ATOM     12  C   UNL     1       9.417 -19.104 -26.044  1.00  0.00     0.000 C 
BRANCH  12  13
ATOM     13  C   UNL     1       9.086 -17.599 -26.041  1.00  0.00     0.000 C 
BRANCH  13  14
ATOM     14  C   UNL     1      10.219 -16.712 -26.599  1.00  0.00     0.000 C 
BRANCH  14  15
ATOM     15  C   UNL     1      11.533 -17.488 -26.793  1.00  0.00     0.000 C 
BRANCH  15  16
ATOM     16  C   UNL     1      12.134 -17.292 -28.195  1.00  0.00     0.006 C 
BRANCH  16  17
ATOM     17  C   UNL     1      12.103 -18.577 -29.033  1.00  0.00     0.053 C 
BRANCH  17  18
ATOM     18  C   UNL     1      13.126 -19.549 -28.537  1.00  0.00     0.041 C 
ATOM     19  O   UNL     1      12.781 -20.706 -28.180  1.00  0.00    -0.550 OA
ATOM     20  O   UNL     1      14.454 -19.161 -28.422  1.00  0.00    -0.550 OA
ENDBRANCH  17  18
ENDBRANCH  16  17
ENDBRANCH  15  16
ENDBRANCH  14  15
ENDBRANCH  13  14
ENDBRANCH  12  13
ENDBRANCH  11  12
ENDBRANCH   1  11
TORSDOF 15
ENDMDL
