MODEL 1
REMARK VINA RESULT:    -2.965      0.000      0.000
REMARK INTER + INTRA:         -11.209
REMARK INTER:                  -6.779
REMARK INTRA:                  -4.431
REMARK UNBOUND:                -4.431
REMARK SMILES CCCCCCCCCCCCCCCCCCCCCCCC(=O)[O-]
REMARK SMILES IDX 13 1 14 2 15 3 16 4 17 5 18 6 19 7 20 8 21 9 22 10 23 11
REMARK SMILES IDX 24 12 25 13 26 14 12 15 11 16 10 17 9 18 8 19 7 20 6 21 5 22
REMARK SMILES IDX 4 23 3 24 2 25 1 26
REMARK H PARENT
REMARK Flexibility Score: inf
ROOT
ATOM      1  C   UNL     1     -14.575 -18.385   6.470  1.00  0.00     0.000 C 
ENDROOT
BRANCH   1   2
ATOM      2  C   UNL     1     -13.658 -19.478   5.901  1.00  0.00     0.000 C 
BRANCH   2   3
ATOM      3  C   UNL     1     -12.349 -18.877   5.366  1.00  0.00     0.000 C 
BRANCH   3   4
ATOM      4  C   UNL     1     -12.137 -19.161   3.870  1.00  0.00     0.000 C 
BRANCH   4   5
ATOM      5  C   UNL     1     -12.805 -18.105   2.971  1.00  0.00     0.000 C 
BRANCH   5   6
ATOM      6  C   UNL     1     -13.306 -18.690   1.640  1.00  0.00     0.000 C 
BRANCH   6   7
ATOM      7  C   UNL     1     -14.835 -18.655   1.453  1.00  0.00     0.000 C 
BRANCH   7   8
ATOM      8  C   UNL     1     -15.501 -20.047   1.539  1.00  0.00     0.000 C 
BRANCH   8   9
ATOM      9  C   UNL     1     -15.666 -20.520   2.990  1.00  0.00     0.000 C 
BRANCH   9  10
ATOM     10  C   UNL     1     -15.303 -22.003   3.133  1.00  0.00     0.006 C 
BRANCH  10  11
ATOM     11  C   UNL     1     -13.871 -22.265   2.657  1.00  0.00     0.053 C 
BRANCH  11  12
ATOM     12  C   UNL     1     -13.167 -23.191   3.598  1.00  0.00     0.041 C 
ATOM     13  O   UNL     1     -12.680 -24.273   3.178  1.00  0.00    -0.550 OA
ATOM     14  O   UNL     1     -13.082 -22.878   4.949  1.00  0.00    -0.550 OA
ENDBRANCH  11  12
ENDBRANCH  10  11
ENDBRANCH   9  10
ENDBRANCH   8   9
ENDBRANCH   7   8
ENDBRANCH   6   7
ENDBRANCH   5   6
ENDBRANCH   4   5
ENDBRANCH   3   4
ENDBRANCH   2   3
ENDBRANCH   1   2
BRANCH   1  15
ATOM     15  C   UNL     1     -15.873 -18.227   5.660  1.00  0.00     0.000 C 
BRANCH  15  16
ATOM     16  C   UNL     1     -15.886 -16.946   4.808  1.00  0.00     0.000 C 
BRANCH  16  17
ATOM     17  C   UNL     1     -14.784 -15.955   5.215  1.00  0.00     0.000 C 
BRANCH  17  18
ATOM     18  C   UNL     1     -14.415 -14.987   4.081  1.00  0.00    -0.000 C 
BRANCH  18  19
ATOM     19  C   UNL     1     -15.278 -15.243   2.837  1.00  0.00    -0.000 C 
BRANCH  19  20
ATOM     20  C   UNL     1     -14.550 -14.895   1.528  1.00  0.00    -0.000 C 
BRANCH  20  21
ATOM     21  C   UNL     1     -13.028 -14.776   1.709  1.00  0.00    -0.000 C 
BRANCH  21  22
ATOM     22  C   UNL     1     -12.535 -13.378   1.303  1.00  0.00    -0.000 C 
BRANCH  22  23
ATOM     23  C   UNL     1     -12.390 -12.427   2.502  1.00  0.00    -0.000 C 
BRANCH  23  24
ATOM     24  C   UNL     1     -13.597 -11.492   2.666  1.00  0.00    -0.000 C 
BRANCH  24  25
ATOM     25  C   UNL     1     -13.926 -11.277   4.147  1.00  0.00    -0.003 C 
ATOM     26  C   UNL     1     -12.918 -11.988   5.046  1.00  0.00     0.004 C 
ENDBRANCH  24  25
ENDBRANCH  23  24
ENDBRANCH  22  23
ENDBRANCH  21  22
ENDBRANCH  20  21
ENDBRANCH  19  20
ENDBRANCH  18  19
ENDBRANCH  17  18
ENDBRANCH  16  17
ENDBRANCH  15  16
ENDBRANCH   1  15
TORSDOF 22
ENDMDL
MODEL 2
REMARK VINA RESULT:    -2.954      3.247      7.734
REMARK INTER + INTRA:         -11.183
REMARK INTER:                  -6.894
REMARK INTRA:                  -4.289
REMARK UNBOUND:                -4.431
REMARK SMILES CCCCCCCCCCCCCCCCCCCCCCCC(=O)[O-]
REMARK SMILES IDX 13 1 14 2 15 3 16 4 17 5 18 6 19 7 20 8 21 9 22 10 23 11
REMARK SMILES IDX 24 12 25 13 26 14 12 15 11 16 10 17 9 18 8 19 7 20 6 21 5 22
REMARK SMILES IDX 4 23 3 24 2 25 1 26
REMARK H PARENT
REMARK Flexibility Score: inf
ROOT
ATOM      1  C   UNL     1     -13.495 -19.587   5.808  1.00  0.00     0.000 C 
ENDROOT
BRANCH   1   2
ATOM      2  C   UNL     1     -14.567 -18.718   6.482  1.00  0.00     0.000 C 
BRANCH   2   3
ATOM      3  C   UNL     1     -15.860 -18.692   5.652  1.00  0.00     0.000 C 
BRANCH   3   4
ATOM      4  C   UNL     1     -16.117 -17.322   5.002  1.00  0.00     0.000 C 
BRANCH   4   5
ATOM      5  C   UNL     1     -15.465 -16.169   5.785  1.00  0.00     0.000 C 
BRANCH   5   6
ATOM      6  C   UNL     1     -14.587 -15.270   4.897  1.00  0.00     0.000 C 
BRANCH   6   7
ATOM      7  C   UNL     1     -14.809 -15.442   3.383  1.00  0.00     0.000 C 
BRANCH   7   8
ATOM      8  C   UNL     1     -13.674 -14.847   2.520  1.00  0.00     0.000 C 
BRANCH   8   9
ATOM      9  C   UNL     1     -13.835 -13.334   2.316  1.00  0.00     0.000 C 
BRANCH   9  10
ATOM     10  C   UNL     1     -12.552 -12.585   2.694  1.00  0.00     0.006 C 
BRANCH  10  11
ATOM     11  C   UNL     1     -12.867 -11.356   3.551  1.00  0.00     0.053 C 
BRANCH  11  12
ATOM     12  C   UNL     1     -13.471 -11.768   4.857  1.00  0.00     0.041 C 
ATOM     13  O   UNL     1     -12.786 -12.401   5.701  1.00  0.00    -0.550 OA
ATOM     14  O   UNL     1     -14.805 -11.486   5.126  1.00  0.00    -0.550 OA
ENDBRANCH  11  12
ENDBRANCH  10  11
ENDBRANCH   9  10
ENDBRANCH   8   9
ENDBRANCH   7   8
ENDBRANCH   6   7
ENDBRANCH   5   6
ENDBRANCH   4   5
ENDBRANCH   3   4
ENDBRANCH   2   3
ENDBRANCH   1   2
BRANCH   1  15
ATOM     15  C   UNL     1     -12.326 -18.754   5.255  1.00  0.00     0.000 C 
BRANCH  15  16
ATOM     16  C   UNL     1     -12.572 -18.272   3.814  1.00  0.00     0.000 C 
BRANCH  16  17
ATOM     17  C   UNL     1     -11.806 -19.105   2.774  1.00  0.00     0.000 C 
BRANCH  17  18
ATOM     18  C   UNL     1     -12.487 -19.100   1.398  1.00  0.00    -0.000 C 
BRANCH  18  19
ATOM     19  C   UNL     1     -13.961 -18.681   1.516  1.00  0.00    -0.000 C 
BRANCH  19  20
ATOM     20  C   UNL     1     -14.930 -19.857   1.311  1.00  0.00    -0.000 C 
BRANCH  20  21
ATOM     21  C   UNL     1     -15.527 -20.371   2.631  1.00  0.00    -0.000 C 
BRANCH  21  22
ATOM     22  C   UNL     1     -15.461 -21.904   2.703  1.00  0.00    -0.000 C 
BRANCH  22  23
ATOM     23  C   UNL     1     -14.539 -22.408   3.825  1.00  0.00    -0.000 C 
BRANCH  23  24
ATOM     24  C   UNL     1     -13.060 -22.427   3.413  1.00  0.00    -0.000 C 
BRANCH  24  25
ATOM     25  C   UNL     1     -12.866 -23.198   2.102  1.00  0.00    -0.003 C 
ATOM     26  C   UNL     1     -11.667 -22.668   1.322  1.00  0.00     0.004 C 
ENDBRANCH  24  25
ENDBRANCH  23  24
ENDBRANCH  22  23
ENDBRANCH  21  22
ENDBRANCH  20  21
ENDBRANCH  19  20
ENDBRANCH  18  19
ENDBRANCH  17  18
ENDBRANCH  16  17
ENDBRANCH  15  16
ENDBRANCH   1  15
TORSDOF 22
ENDMDL
MODEL 3
REMARK VINA RESULT:    -2.902      5.358      9.623
REMARK INTER + INTRA:         -11.065
REMARK INTER:                  -7.738
REMARK INTRA:                  -3.327
REMARK UNBOUND:                -4.431
REMARK SMILES CCCCCCCCCCCCCCCCCCCCCCCC(=O)[O-]
REMARK SMILES IDX 13 1 14 2 15 3 16 4 17 5 18 6 19 7 20 8 21 9 22 10 23 11
REMARK SMILES IDX 24 12 25 13 26 14 12 15 11 16 10 17 9 18 8 19 7 20 6 21 5 22
REMARK SMILES IDX 4 23 3 24 2 25 1 26
REMARK H PARENT
REMARK Flexibility Score: inf
ROOT
ATOM      1  C   UNL     1     -14.147 -12.614   5.783  1.00  0.00     0.000 C 
ENDROOT
BRANCH   1   2
ATOM      2  C   UNL     1     -12.749 -12.430   5.173  1.00  0.00     0.000 C 
BRANCH   2   3
ATOM      3  C   UNL     1     -12.825 -11.670   3.839  1.00  0.00     0.000 C 
BRANCH   3   4
ATOM      4  C   UNL     1     -12.404 -12.536   2.641  1.00  0.00     0.000 C 
BRANCH   4   5
ATOM      5  C   UNL     1     -13.475 -12.570   1.536  1.00  0.00     0.000 C 
BRANCH   5   6
ATOM      6  C   UNL     1     -13.842 -11.168   1.021  1.00  0.00     0.000 C 
BRANCH   6   7
ATOM      7  C   UNL     1     -15.274 -10.710   1.354  1.00  0.00     0.000 C 
BRANCH   7   8
ATOM      8  C   UNL     1     -15.371  -9.221   1.752  1.00  0.00     0.000 C 
BRANCH   8   9
ATOM      9  C   UNL     1     -15.174  -9.011   3.260  1.00  0.00     0.000 C 
BRANCH   9  10
ATOM     10  C   UNL     1     -13.907  -8.195   3.544  1.00  0.00     0.006 C 
BRANCH  10  11
ATOM     11  C   UNL     1     -13.270  -7.699   2.243  1.00  0.00     0.053 C 
BRANCH  11  12
ATOM     12  C   UNL     1     -13.213  -6.204   2.224  1.00  0.00     0.041 C 
ATOM     13  O   UNL     1     -14.021  -5.530   2.914  1.00  0.00    -0.550 OA
ATOM     14  O   UNL     1     -12.293  -5.553   1.412  1.00  0.00    -0.550 OA
ENDBRANCH  11  12
ENDBRANCH  10  11
ENDBRANCH   9  10
ENDBRANCH   8   9
ENDBRANCH   7   8
ENDBRANCH   6   7
ENDBRANCH   5   6
ENDBRANCH   4   5
ENDBRANCH   3   4
ENDBRANCH   2   3
ENDBRANCH   1   2
BRANCH   1  15
ATOM     15  C   UNL     1     -15.260 -12.589   4.722  1.00  0.00     0.000 C 
BRANCH  15  16
ATOM     16  C   UNL     1     -15.935 -13.959   4.540  1.00  0.00     0.000 C 
BRANCH  16  17
ATOM     17  C   UNL     1     -15.082 -14.932   3.709  1.00  0.00     0.000 C 
BRANCH  17  18
ATOM     18  C   UNL     1     -14.416 -16.014   4.571  1.00  0.00    -0.000 C 
BRANCH  18  19
ATOM     19  C   UNL     1     -15.297 -16.377   5.776  1.00  0.00    -0.000 C 
BRANCH  19  20
ATOM     20  C   UNL     1     -14.943 -17.746   6.380  1.00  0.00    -0.000 C 
BRANCH  20  21
ATOM     21  C   UNL     1     -15.949 -18.842   5.997  1.00  0.00    -0.000 C 
BRANCH  21  22
ATOM     22  C   UNL     1     -15.266 -19.955   5.187  1.00  0.00    -0.000 C 
BRANCH  22  23
ATOM     23  C   UNL     1     -13.770 -20.095   5.513  1.00  0.00    -0.000 C 
BRANCH  23  24
ATOM     24  C   UNL     1     -12.906 -20.296   4.260  1.00  0.00    -0.000 C 
BRANCH  24  25
ATOM     25  C   UNL     1     -12.151 -19.011   3.902  1.00  0.00    -0.003 C 
ATOM     26  C   UNL     1     -11.303 -18.525   5.075  1.00  0.00     0.004 C 
ENDBRANCH  24  25
ENDBRANCH  23  24
ENDBRANCH  22  23
ENDBRANCH  21  22
ENDBRANCH  20  21
ENDBRANCH  19  20
ENDBRANCH  18  19
ENDBRANCH  17  18
ENDBRANCH  16  17
ENDBRANCH  15  16
ENDBRANCH   1  15
TORSDOF 22
ENDMDL
MODEL 4
REMARK VINA RESULT:    -2.896      2.066      4.230
REMARK INTER + INTRA:         -11.051
REMARK INTER:                  -7.864
REMARK INTRA:                  -3.187
REMARK UNBOUND:                -4.431
REMARK SMILES CCCCCCCCCCCCCCCCCCCCCCCC(=O)[O-]
REMARK SMILES IDX 13 1 14 2 15 3 16 4 17 5 18 6 19 7 20 8 21 9 22 10 23 11
REMARK SMILES IDX 24 12 25 13 26 14 12 15 11 16 10 17 9 18 8 19 7 20 6 21 5 22
REMARK SMILES IDX 4 23 3 24 2 25 1 26
REMARK H PARENT
REMARK Flexibility Score: inf
ROOT
ATOM      1  C   UNL     1     -14.678 -12.555   5.743  1.00  0.00     0.000 C 
ENDROOT
BRANCH   1   2
ATOM      2  C   UNL     1     -15.427 -13.834   5.341  1.00  0.00     0.000 C 
BRANCH   2   3
ATOM      3  C   UNL     1     -14.445 -14.974   5.027  1.00  0.00     0.000 C 
BRANCH   3   4
ATOM      4  C   UNL     1     -14.724 -15.635   3.668  1.00  0.00     0.000 C 
BRANCH   4   5
ATOM      5  C   UNL     1     -13.478 -16.324   3.083  1.00  0.00     0.000 C 
BRANCH   5   6
ATOM      6  C   UNL     1     -13.494 -17.850   3.282  1.00  0.00     0.000 C 
BRANCH   6   7
ATOM      7  C   UNL     1     -12.285 -18.414   4.051  1.00  0.00     0.000 C 
BRANCH   7   8
ATOM      8  C   UNL     1     -12.643 -18.958   5.453  1.00  0.00     0.000 C 
BRANCH   8   9
ATOM      9  C   UNL     1     -14.154 -19.166   5.624  1.00  0.00     0.000 C 
BRANCH   9  10
ATOM     10  C   UNL     1     -14.605 -20.492   4.999  1.00  0.00     0.006 C 
BRANCH  10  11
ATOM     11  C   UNL     1     -13.728 -21.651   5.480  1.00  0.00     0.053 C 
BRANCH  11  12
ATOM     12  C   UNL     1     -13.164 -22.402   4.316  1.00  0.00     0.041 C 
ATOM     13  O   UNL     1     -12.880 -21.798   3.249  1.00  0.00    -0.550 OA
ATOM     14  O   UNL     1     -12.989 -23.778   4.394  1.00  0.00    -0.550 OA
ENDBRANCH  11  12
ENDBRANCH  10  11
ENDBRANCH   9  10
ENDBRANCH   8   9
ENDBRANCH   7   8
ENDBRANCH   6   7
ENDBRANCH   5   6
ENDBRANCH   4   5
ENDBRANCH   3   4
ENDBRANCH   2   3
ENDBRANCH   1   2
BRANCH   1  15
ATOM     15  C   UNL     1     -13.192 -12.595   5.350  1.00  0.00     0.000 C 
BRANCH  15  16
ATOM     16  C   UNL     1     -12.871 -11.684   4.153  1.00  0.00     0.000 C 
BRANCH  16  17
ATOM     17  C   UNL     1     -12.633 -12.475   2.856  1.00  0.00     0.000 C 
BRANCH  17  18
ATOM     18  C   UNL     1     -13.873 -12.510   1.952  1.00  0.00    -0.000 C 
BRANCH  18  19
ATOM     19  C   UNL     1     -14.839 -11.367   2.298  1.00  0.00    -0.000 C 
BRANCH  19  20
ATOM     20  C   UNL     1     -15.297 -10.581   1.058  1.00  0.00    -0.000 C 
BRANCH  20  21
ATOM     21  C   UNL     1     -15.078  -9.066   1.201  1.00  0.00    -0.000 C 
BRANCH  21  22
ATOM     22  C   UNL     1     -13.741  -8.768   1.896  1.00  0.00    -0.000 C 
BRANCH  22  23
ATOM     23  C   UNL     1     -13.616  -7.302   2.341  1.00  0.00    -0.000 C 
BRANCH  23  24
ATOM     24  C   UNL     1     -14.067  -7.082   3.792  1.00  0.00    -0.000 C 
BRANCH  24  25
ATOM     25  C   UNL     1     -13.949  -8.377   4.604  1.00  0.00    -0.003 C 
ATOM     26  C   UNL     1     -15.320  -8.870   5.059  1.00  0.00     0.004 C 
ENDBRANCH  24  25
ENDBRANCH  23  24
ENDBRANCH  22  23
ENDBRANCH  21  22
ENDBRANCH  20  21
ENDBRANCH  19  20
ENDBRANCH  18  19
ENDBRANCH  17  18
ENDBRANCH  16  17
ENDBRANCH  15  16
ENDBRANCH   1  15
TORSDOF 22
ENDMDL
MODEL 5
REMARK VINA RESULT:    -2.864      4.018      8.373
REMARK INTER + INTRA:         -10.979
REMARK INTER:                  -7.394
REMARK INTRA:                  -3.586
REMARK UNBOUND:                -4.431
REMARK SMILES CCCCCCCCCCCCCCCCCCCCCCCC(=O)[O-]
REMARK SMILES IDX 13 1 14 2 15 3 16 4 17 5 18 6 19 7 20 8 21 9 22 10 23 11
REMARK SMILES IDX 24 12 25 13 26 14 12 15 11 16 10 17 9 18 8 19 7 20 6 21 5 22
REMARK SMILES IDX 4 23 3 24 2 25 1 26
REMARK H PARENT
REMARK Flexibility Score: inf
ROOT
ATOM      1  C   UNL     1     -12.800 -18.808   5.764  1.00  0.00     0.000 C 
ENDROOT
BRANCH   1   2
ATOM      2  C   UNL     1     -14.329 -18.918   5.671  1.00  0.00     0.000 C 
BRANCH   2   3
ATOM      3  C   UNL     1     -15.010 -18.120   6.794  1.00  0.00     0.000 C 
BRANCH   3   4
ATOM      4  C   UNL     1     -15.761 -16.885   6.270  1.00  0.00     0.000 C 
BRANCH   4   5
ATOM      5  C   UNL     1     -15.921 -16.902   4.739  1.00  0.00     0.000 C 
BRANCH   5   6
ATOM      6  C   UNL     1     -15.354 -15.638   4.069  1.00  0.00     0.000 C 
BRANCH   6   7
ATOM      7  C   UNL     1     -14.211 -14.953   4.843  1.00  0.00     0.000 C 
BRANCH   7   8
ATOM      8  C   UNL     1     -14.522 -13.493   5.241  1.00  0.00     0.000 C 
BRANCH   8   9
ATOM      9  C   UNL     1     -13.250 -12.702   5.578  1.00  0.00     0.000 C 
BRANCH   9  10
ATOM     10  C   UNL     1     -12.893 -11.722   4.454  1.00  0.00     0.006 C 
BRANCH  10  11
ATOM     11  C   UNL     1     -13.886 -10.558   4.405  1.00  0.00     0.053 C 
BRANCH  11  12
ATOM     12  C   UNL     1     -13.691  -9.754   3.158  1.00  0.00     0.041 C 
ATOM     13  O   UNL     1     -13.360  -8.542   3.230  1.00  0.00    -0.550 OA
ATOM     14  O   UNL     1     -13.914 -10.333   1.915  1.00  0.00    -0.550 OA
ENDBRANCH  11  12
ENDBRANCH  10  11
ENDBRANCH   9  10
ENDBRANCH   8   9
ENDBRANCH   7   8
ENDBRANCH   6   7
ENDBRANCH   5   6
ENDBRANCH   4   5
ENDBRANCH   3   4
ENDBRANCH   2   3
ENDBRANCH   1   2
BRANCH   1  15
ATOM     15  C   UNL     1     -12.171 -18.249   4.477  1.00  0.00     0.000 C 
BRANCH  15  16
ATOM     16  C   UNL     1     -12.717 -18.928   3.208  1.00  0.00     0.000 C 
BRANCH  16  17
ATOM     17  C   UNL     1     -13.206 -17.914   2.161  1.00  0.00     0.000 C 
BRANCH  17  18
ATOM     18  C   UNL     1     -14.481 -18.381   1.442  1.00  0.00    -0.000 C 
BRANCH  18  19
ATOM     19  C   UNL     1     -15.122 -19.569   2.175  1.00  0.00    -0.000 C 
BRANCH  19  20
ATOM     20  C   UNL     1     -15.554 -20.693   1.218  1.00  0.00    -0.000 C 
BRANCH  20  21
ATOM     21  C   UNL     1     -15.176 -22.090   1.734  1.00  0.00    -0.000 C 
BRANCH  21  22
ATOM     22  C   UNL     1     -13.729 -22.442   1.357  1.00  0.00    -0.000 C 
BRANCH  22  23
ATOM     23  C   UNL     1     -12.761 -22.331   2.546  1.00  0.00    -0.000 C 
BRANCH  23  24
ATOM     24  C   UNL     1     -13.108 -23.301   3.685  1.00  0.00    -0.000 C 
BRANCH  24  25
ATOM     25  C   UNL     1     -13.386 -22.542   4.987  1.00  0.00    -0.003 C 
ATOM     26  C   UNL     1     -14.869 -22.585   5.345  1.00  0.00     0.004 C 
ENDBRANCH  24  25
ENDBRANCH  23  24
ENDBRANCH  22  23
ENDBRANCH  21  22
ENDBRANCH  20  21
ENDBRANCH  19  20
ENDBRANCH  18  19
ENDBRANCH  17  18
ENDBRANCH  16  17
ENDBRANCH  15  16
ENDBRANCH   1  15
TORSDOF 22
ENDMDL
MODEL 6
REMARK VINA RESULT:    -2.805      3.407      7.500
REMARK INTER + INTRA:         -10.844
REMARK INTER:                  -7.441
REMARK INTRA:                  -3.403
REMARK UNBOUND:                -4.431
REMARK SMILES CCCCCCCCCCCCCCCCCCCCCCCC(=O)[O-]
REMARK SMILES IDX 13 1 14 2 15 3 16 4 17 5 18 6 19 7 20 8 21 9 22 10 23 11
REMARK SMILES IDX 24 12 25 13 26 14 12 15 11 16 10 17 9 18 8 19 7 20 6 21 5 22
REMARK SMILES IDX 4 23 3 24 2 25 1 26
REMARK H PARENT
REMARK Flexibility Score: inf
ROOT
ATOM      1  C   UNL     1     -15.062 -17.631   6.368  1.00  0.00     0.000 C 
ENDROOT
BRANCH   1   2
ATOM      2  C   UNL     1     -16.007 -17.078   5.291  1.00  0.00     0.000 C 
BRANCH   2   3
ATOM      3  C   UNL     1     -15.658 -15.622   4.944  1.00  0.00     0.000 C 
BRANCH   3   4
ATOM      4  C   UNL     1     -14.168 -15.434   4.618  1.00  0.00     0.000 C 
BRANCH   4   5
ATOM      5  C   UNL     1     -13.851 -15.708   3.137  1.00  0.00     0.000 C 
BRANCH   5   6
ATOM      6  C   UNL     1     -13.559 -14.423   2.344  1.00  0.00     0.000 C 
BRANCH   6   7
ATOM      7  C   UNL     1     -14.715 -13.937   1.450  1.00  0.00     0.000 C 
BRANCH   7   8
ATOM      8  C   UNL     1     -14.669 -12.423   1.147  1.00  0.00     0.000 C 
BRANCH   8   9
ATOM      9  C   UNL     1     -13.519 -11.721   1.883  1.00  0.00     0.000 C 
BRANCH   9  10
ATOM     10  C   UNL     1     -13.999 -10.429   2.556  1.00  0.00     0.006 C 
BRANCH  10  11
ATOM     11  C   UNL     1     -13.432 -10.304   3.972  1.00  0.00     0.053 C 
BRANCH  11  12
ATOM     12  C   UNL     1     -13.725 -11.538   4.766  1.00  0.00     0.041 C 
ATOM     13  O   UNL     1     -12.783 -12.236   5.225  1.00  0.00    -0.550 OA
ATOM     14  O   UNL     1     -15.040 -11.940   4.966  1.00  0.00    -0.550 OA
ENDBRANCH  11  12
ENDBRANCH  10  11
ENDBRANCH   9  10
ENDBRANCH   8   9
ENDBRANCH   7   8
ENDBRANCH   6   7
ENDBRANCH   5   6
ENDBRANCH   4   5
ENDBRANCH   3   4
ENDBRANCH   2   3
ENDBRANCH   1   2
BRANCH   1  15
ATOM     15  C   UNL     1     -14.693 -19.104   6.126  1.00  0.00     0.000 C 
BRANCH  15  16
ATOM     16  C   UNL     1     -15.794 -19.874   5.377  1.00  0.00     0.000 C 
BRANCH  16  17
ATOM     17  C   UNL     1     -15.362 -21.299   4.995  1.00  0.00     0.000 C 
BRANCH  17  18
ATOM     18  C   UNL     1     -13.902 -21.592   5.371  1.00  0.00    -0.000 C 
BRANCH  18  19
ATOM     19  C   UNL     1     -13.390 -22.850   4.653  1.00  0.00    -0.000 C 
BRANCH  19  20
ATOM     20  C   UNL     1     -13.527 -22.758   3.125  1.00  0.00    -0.000 C 
BRANCH  20  21
ATOM     21  C   UNL     1     -12.640 -21.661   2.514  1.00  0.00    -0.000 C 
BRANCH  21  22
ATOM     22  C   UNL     1     -13.493 -20.506   1.969  1.00  0.00    -0.000 C 
BRANCH  22  23
ATOM     23  C   UNL     1     -13.179 -19.163   2.648  1.00  0.00    -0.000 C 
BRANCH  23  24
ATOM     24  C   UNL     1     -11.781 -19.133   3.283  1.00  0.00    -0.000 C 
BRANCH  24  25
ATOM     25  C   UNL     1     -11.813 -18.432   4.646  1.00  0.00    -0.003 C 
ATOM     26  C   UNL     1     -10.449 -18.490   5.328  1.00  0.00     0.004 C 
ENDBRANCH  24  25
ENDBRANCH  23  24
ENDBRANCH  22  23
ENDBRANCH  21  22
ENDBRANCH  20  21
ENDBRANCH  19  20
ENDBRANCH  18  19
ENDBRANCH  17  18
ENDBRANCH  16  17
ENDBRANCH  15  16
ENDBRANCH   1  15
TORSDOF 22
ENDMDL
MODEL 7
REMARK VINA RESULT:    -2.794      4.609      8.493
REMARK INTER + INTRA:         -10.818
REMARK INTER:                  -7.854
REMARK INTRA:                  -2.965
REMARK UNBOUND:                -4.431
REMARK SMILES CCCCCCCCCCCCCCCCCCCCCCCC(=O)[O-]
REMARK SMILES IDX 13 1 14 2 15 3 16 4 17 5 18 6 19 7 20 8 21 9 22 10 23 11
REMARK SMILES IDX 24 12 25 13 26 14 12 15 11 16 10 17 9 18 8 19 7 20 6 21 5 22
REMARK SMILES IDX 4 23 3 24 2 25 1 26
REMARK H PARENT
REMARK Flexibility Score: inf
ROOT
ATOM      1  C   UNL     1     -14.798 -18.995   5.989  1.00  0.00     0.000 C 
ENDROOT
BRANCH   1   2
ATOM      2  C   UNL     1     -15.139 -17.528   6.291  1.00  0.00     0.000 C 
BRANCH   2   3
ATOM      3  C   UNL     1     -16.048 -16.936   5.202  1.00  0.00     0.000 C 
BRANCH   3   4
ATOM      4  C   UNL     1     -15.253 -16.276   4.064  1.00  0.00     0.000 C 
BRANCH   4   5
ATOM      5  C   UNL     1     -14.144 -15.345   4.585  1.00  0.00     0.000 C 
BRANCH   5   6
ATOM      6  C   UNL     1     -14.661 -13.936   4.923  1.00  0.00     0.000 C 
BRANCH   6   7
ATOM      7  C   UNL     1     -13.656 -13.039   5.669  1.00  0.00     0.000 C 
BRANCH   7   8
ATOM      8  C   UNL     1     -12.883 -12.073   4.744  1.00  0.00     0.000 C 
BRANCH   8   9
ATOM      9  C   UNL     1     -13.817 -11.307   3.797  1.00  0.00     0.000 C 
BRANCH   9  10
ATOM     10  C   UNL     1     -14.339 -10.023   4.453  1.00  0.00     0.006 C 
BRANCH  10  11
ATOM     11  C   UNL     1     -13.447  -8.828   4.105  1.00  0.00     0.053 C 
BRANCH  11  12
ATOM     12  C   UNL     1     -13.903  -8.185   2.834  1.00  0.00     0.041 C 
ATOM     13  O   UNL     1     -13.082  -7.568   2.106  1.00  0.00    -0.550 OA
ATOM     14  O   UNL     1     -15.243  -8.234   2.471  1.00  0.00    -0.550 OA
ENDBRANCH  11  12
ENDBRANCH  10  11
ENDBRANCH   9  10
ENDBRANCH   8   9
ENDBRANCH   7   8
ENDBRANCH   6   7
ENDBRANCH   5   6
ENDBRANCH   4   5
ENDBRANCH   3   4
ENDBRANCH   2   3
ENDBRANCH   1   2
BRANCH   1  15
ATOM     15  C   UNL     1     -15.923 -19.714   5.225  1.00  0.00     0.000 C 
BRANCH  15  16
ATOM     16  C   UNL     1     -15.653 -21.219   5.053  1.00  0.00     0.000 C 
BRANCH  16  17
ATOM     17  C   UNL     1     -14.197 -21.597   5.368  1.00  0.00     0.000 C 
BRANCH  17  18
ATOM     18  C   UNL     1     -13.736 -22.849   4.607  1.00  0.00    -0.000 C 
BRANCH  18  19
ATOM     19  C   UNL     1     -12.948 -22.467   3.345  1.00  0.00    -0.000 C 
BRANCH  19  20
ATOM     20  C   UNL     1     -13.860 -22.047   2.181  1.00  0.00    -0.000 C 
BRANCH  20  21
ATOM     21  C   UNL     1     -13.383 -20.762   1.487  1.00  0.00    -0.000 C 
BRANCH  21  22
ATOM     22  C   UNL     1     -13.896 -19.516   2.226  1.00  0.00    -0.000 C 
BRANCH  22  23
ATOM     23  C   UNL     1     -12.827 -18.420   2.356  1.00  0.00    -0.000 C 
BRANCH  23  24
ATOM     24  C   UNL     1     -11.593 -18.886   3.142  1.00  0.00    -0.000 C 
BRANCH  24  25
ATOM     25  C   UNL     1     -11.759 -18.607   4.640  1.00  0.00    -0.003 C 
ATOM     26  C   UNL     1     -10.405 -18.508   5.337  1.00  0.00     0.004 C 
ENDBRANCH  24  25
ENDBRANCH  23  24
ENDBRANCH  22  23
ENDBRANCH  21  22
ENDBRANCH  20  21
ENDBRANCH  19  20
ENDBRANCH  18  19
ENDBRANCH  17  18
ENDBRANCH  16  17
ENDBRANCH  15  16
ENDBRANCH   1  15
TORSDOF 22
ENDMDL
MODEL 8
REMARK VINA RESULT:    -2.698      5.343      9.284
REMARK INTER + INTRA:         -10.599
REMARK INTER:                  -7.127
REMARK INTRA:                  -3.472
REMARK UNBOUND:                -4.431
REMARK SMILES CCCCCCCCCCCCCCCCCCCCCCCC(=O)[O-]
REMARK SMILES IDX 13 1 14 2 15 3 16 4 17 5 18 6 19 7 20 8 21 9 22 10 23 11
REMARK SMILES IDX 24 12 25 13 26 14 12 15 11 16 10 17 9 18 8 19 7 20 6 21 5 22
REMARK SMILES IDX 4 23 3 24 2 25 1 26
REMARK H PARENT
REMARK Flexibility Score: inf
ROOT
ATOM      1  C   UNL     1     -14.126 -12.396   5.756  1.00  0.00     0.000 C 
ENDROOT
BRANCH   1   2
ATOM      2  C   UNL     1     -12.745 -12.384   5.084  1.00  0.00     0.000 C 
BRANCH   2   3
ATOM      3  C   UNL     1     -12.810 -11.723   3.698  1.00  0.00     0.000 C 
BRANCH   3   4
ATOM      4  C   UNL     1     -12.450 -12.696   2.564  1.00  0.00     0.000 C 
BRANCH   4   5
ATOM      5  C   UNL     1     -13.487 -12.682   1.427  1.00  0.00     0.000 C 
BRANCH   5   6
ATOM      6  C   UNL     1     -13.827 -11.259   0.950  1.00  0.00     0.000 C 
BRANCH   6   7
ATOM      7  C   UNL     1     -15.286 -10.827   1.190  1.00  0.00     0.000 C 
BRANCH   7   8
ATOM      8  C   UNL     1     -15.433  -9.344   1.596  1.00  0.00     0.000 C 
BRANCH   8   9
ATOM      9  C   UNL     1     -15.498  -9.165   3.119  1.00  0.00     0.000 C 
BRANCH   9  10
ATOM     10  C   UNL     1     -14.320  -8.327   3.629  1.00  0.00     0.006 C 
BRANCH  10  11
ATOM     11  C   UNL     1     -13.384  -7.941   2.480  1.00  0.00     0.053 C 
BRANCH  11  12
ATOM     12  C   UNL     1     -13.316  -6.453   2.335  1.00  0.00     0.041 C 
ATOM     13  O   UNL     1     -14.189  -5.724   2.874  1.00  0.00    -0.550 OA
ATOM     14  O   UNL     1     -12.312  -5.874   1.570  1.00  0.00    -0.550 OA
ENDBRANCH  11  12
ENDBRANCH  10  11
ENDBRANCH   9  10
ENDBRANCH   8   9
ENDBRANCH   7   8
ENDBRANCH   6   7
ENDBRANCH   5   6
ENDBRANCH   4   5
ENDBRANCH   3   4
ENDBRANCH   2   3
ENDBRANCH   1   2
BRANCH   1  15
ATOM     15  C   UNL     1     -15.276 -12.370   4.736  1.00  0.00     0.000 C 
BRANCH  15  16
ATOM     16  C   UNL     1     -16.070 -13.687   4.704  1.00  0.00     0.000 C 
BRANCH  16  17
ATOM     17  C   UNL     1     -15.674 -14.587   3.523  1.00  0.00     0.000 C 
BRANCH  17  18
ATOM     18  C   UNL     1     -14.490 -15.508   3.856  1.00  0.00    -0.000 C 
BRANCH  18  19
ATOM     19  C   UNL     1     -14.563 -16.812   3.047  1.00  0.00    -0.000 C 
BRANCH  19  20
ATOM     20  C   UNL     1     -13.283 -17.080   2.238  1.00  0.00    -0.000 C 
BRANCH  20  21
ATOM     21  C   UNL     1     -12.607 -18.407   2.620  1.00  0.00    -0.000 C 
BRANCH  21  22
ATOM     22  C   UNL     1     -12.234 -18.424   4.110  1.00  0.00    -0.000 C 
BRANCH  22  23
ATOM     23  C   UNL     1     -12.917 -19.565   4.881  1.00  0.00    -0.000 C 
BRANCH  23  24
ATOM     24  C   UNL     1     -13.544 -19.096   6.202  1.00  0.00    -0.000 C 
BRANCH  24  25
ATOM     25  C   UNL     1     -14.995 -18.648   5.991  1.00  0.00    -0.003 C 
ATOM     26  C   UNL     1     -15.430 -17.661   7.071  1.00  0.00     0.004 C 
ENDBRANCH  24  25
ENDBRANCH  23  24
ENDBRANCH  22  23
ENDBRANCH  21  22
ENDBRANCH  20  21
ENDBRANCH  19  20
ENDBRANCH  18  19
ENDBRANCH  17  18
ENDBRANCH  16  17
ENDBRANCH  15  16
ENDBRANCH   1  15
TORSDOF 22
ENDMDL
MODEL 9
REMARK VINA RESULT:    -2.633      4.331      8.549
REMARK INTER + INTRA:         -10.450
REMARK INTER:                  -7.109
REMARK INTRA:                  -3.341
REMARK UNBOUND:                -4.431
REMARK SMILES CCCCCCCCCCCCCCCCCCCCCCCC(=O)[O-]
REMARK SMILES IDX 13 1 14 2 15 3 16 4 17 5 18 6 19 7 20 8 21 9 22 10 23 11
REMARK SMILES IDX 24 12 25 13 26 14 12 15 11 16 10 17 9 18 8 19 7 20 6 21 5 22
REMARK SMILES IDX 4 23 3 24 2 25 1 26
REMARK H PARENT
REMARK Flexibility Score: inf
ROOT
ATOM      1  C   UNL     1     -15.004 -17.999   6.890  1.00  0.00     0.000 C 
ENDROOT
BRANCH   1   2
ATOM      2  C   UNL     1     -16.016 -16.908   6.509  1.00  0.00     0.000 C 
BRANCH   2   3
ATOM      3  C   UNL     1     -15.828 -16.467   5.048  1.00  0.00     0.000 C 
BRANCH   3   4
ATOM      4  C   UNL     1     -15.484 -14.974   4.923  1.00  0.00     0.000 C 
BRANCH   4   5
ATOM      5  C   UNL     1     -14.071 -14.743   4.358  1.00  0.00     0.000 C 
BRANCH   5   6
ATOM      6  C   UNL     1     -14.081 -14.378   2.863  1.00  0.00     0.000 C 
BRANCH   6   7
ATOM      7  C   UNL     1     -13.075 -13.285   2.457  1.00  0.00     0.000 C 
BRANCH   7   8
ATOM      8  C   UNL     1     -13.740 -12.006   1.902  1.00  0.00     0.000 C 
BRANCH   8   9
ATOM      9  C   UNL     1     -14.670 -11.345   2.929  1.00  0.00     0.000 C 
BRANCH   9  10
ATOM     10  C   UNL     1     -13.906 -10.969   4.205  1.00  0.00     0.006 C 
BRANCH  10  11
ATOM     11  C   UNL     1     -13.149  -9.651   4.023  1.00  0.00     0.053 C 
BRANCH  11  12
ATOM     12  C   UNL     1     -14.056  -8.487   4.269  1.00  0.00     0.041 C 
ATOM     13  O   UNL     1     -13.836  -7.382   3.708  1.00  0.00    -0.550 OA
ATOM     14  O   UNL     1     -15.124  -8.610   5.149  1.00  0.00    -0.550 OA
ENDBRANCH  11  12
ENDBRANCH  10  11
ENDBRANCH   9  10
ENDBRANCH   8   9
ENDBRANCH   7   8
ENDBRANCH   6   7
ENDBRANCH   5   6
ENDBRANCH   4   5
ENDBRANCH   3   4
ENDBRANCH   2   3
ENDBRANCH   1   2
BRANCH   1  15
ATOM     15  C   UNL     1     -14.881 -19.089   5.813  1.00  0.00     0.000 C 
BRANCH  15  16
ATOM     16  C   UNL     1     -13.473 -19.707   5.754  1.00  0.00     0.000 C 
BRANCH  16  17
ATOM     17  C   UNL     1     -12.391 -18.676   5.395  1.00  0.00     0.000 C 
BRANCH  17  18
ATOM     18  C   UNL     1     -11.961 -18.763   3.923  1.00  0.00    -0.000 C 
BRANCH  18  19
ATOM     19  C   UNL     1     -12.894 -17.933   3.027  1.00  0.00    -0.000 C 
BRANCH  19  20
ATOM     20  C   UNL     1     -13.617 -18.787   1.972  1.00  0.00    -0.000 C 
BRANCH  20  21
ATOM     21  C   UNL     1     -15.077 -19.086   2.351  1.00  0.00    -0.000 C 
BRANCH  21  22
ATOM     22  C   UNL     1     -15.353 -20.597   2.318  1.00  0.00    -0.000 C 
BRANCH  22  23
ATOM     23  C   UNL     1     -14.405 -21.354   1.373  1.00  0.00    -0.000 C 
BRANCH  23  24
ATOM     24  C   UNL     1     -13.802 -22.609   2.020  1.00  0.00    -0.000 C 
BRANCH  24  25
ATOM     25  C   UNL     1     -12.948 -22.242   3.239  1.00  0.00    -0.003 C 
ATOM     26  C   UNL     1     -13.243 -23.164   4.418  1.00  0.00     0.004 C 
ENDBRANCH  24  25
ENDBRANCH  23  24
ENDBRANCH  22  23
ENDBRANCH  21  22
ENDBRANCH  20  21
ENDBRANCH  19  20
ENDBRANCH  18  19
ENDBRANCH  17  18
ENDBRANCH  16  17
ENDBRANCH  15  16
ENDBRANCH   1  15
TORSDOF 22
ENDMDL
