MODEL 1
REMARK VINA RESULT:    -5.648      0.000      0.000
REMARK INTER + INTRA:          -7.038
REMARK INTER:                  -6.638
REMARK INTRA:                  -0.400
REMARK UNBOUND:                -0.400
REMARK SMILES CCCC[C@H]1OC(=O)C2=C1CCC=C2
REMARK SMILES IDX 3 1 2 2 1 3 4 4 5 5 10 6 6 7 9 8 11 9 7 10 14 11 12 12 8 13
REMARK SMILES IDX 13 14
REMARK H PARENT
REMARK Flexibility Score: inf
ROOT
ATOM      1  C   UNL     1      92.146 -60.735 100.949  1.00  0.00     0.004 C 
ENDROOT
BRANCH   1   2
ATOM      2  C   UNL     1      92.594 -59.324 100.550  1.00  0.00    -0.003 C 
ATOM      3  C   UNL     1      91.689 -58.262 101.169  1.00  0.00     0.004 C 
ENDBRANCH   1   2
BRANCH   1   4
ATOM      4  C   UNL     1      93.330 -61.555 101.484  1.00  0.00     0.050 C 
BRANCH   4   5
ATOM      5  C   UNL     1      93.345 -61.636 103.020  1.00  0.00     0.204 C 
ATOM      6  C   UNL     1      94.365 -60.708 103.652  1.00  0.00    -0.015 C 
ATOM      7  O   UNL     1      93.805 -62.930 103.420  1.00  0.00    -0.454 OA
ATOM      8  C   UNL     1      95.300 -61.401 104.281  1.00  0.00     0.062 C 
ATOM      9  C   UNL     1      94.440 -59.209 103.549  1.00  0.00     0.040 C 
ATOM     10  C   UNL     1      94.972 -62.796 104.152  1.00  0.00     0.338 C 
ATOM     11  C   UNL     1      96.434 -60.772 104.968  1.00  0.00     0.011 C 
ATOM     12  C   UNL     1      95.237 -58.606 104.730  1.00  0.00     0.032 C 
ATOM     13  O   UNL     1      95.627 -63.760 104.629  1.00  0.00    -0.246 OA
ATOM     14  C   UNL     1      96.444 -59.441 105.113  1.00  0.00    -0.026 C 
ENDBRANCH   4   5
ENDBRANCH   1   4
TORSDOF 3
ENDMDL
MODEL 2
REMARK VINA RESULT:    -5.598      2.348      3.942
REMARK INTER + INTRA:          -6.980
REMARK INTER:                  -6.491
REMARK INTRA:                  -0.489
REMARK UNBOUND:                -0.400
REMARK SMILES CCCC[C@H]1OC(=O)C2=C1CCC=C2
REMARK SMILES IDX 3 1 2 2 1 3 4 4 5 5 10 6 6 7 9 8 11 9 7 10 14 11 12 12 8 13
REMARK SMILES IDX 13 14
REMARK H PARENT
REMARK Flexibility Score: inf
ROOT
ATOM      1  C   UNL     1      92.509 -64.176 101.829  1.00  0.00     0.004 C 
ENDROOT
BRANCH   1   2
ATOM      2  C   UNL     1      92.856 -64.961 103.100  1.00  0.00    -0.003 C 
ATOM      3  C   UNL     1      92.163 -64.365 104.323  1.00  0.00     0.004 C 
ENDBRANCH   1   2
BRANCH   1   4
ATOM      4  C   UNL     1      92.095 -62.736 102.170  1.00  0.00     0.050 C 
BRANCH   4   5
ATOM      5  C   UNL     1      93.133 -61.698 101.709  1.00  0.00     0.204 C 
ATOM      6  C   UNL     1      93.923 -61.102 102.858  1.00  0.00    -0.015 C 
ATOM      7  O   UNL     1      92.455 -60.561 101.168  1.00  0.00    -0.454 OA
ATOM      8  C   UNL     1      93.677 -59.806 102.971  1.00  0.00     0.062 C 
ATOM      9  C   UNL     1      94.808 -61.818 103.842  1.00  0.00     0.040 C 
ATOM     10  C   UNL     1      92.762 -59.442 101.923  1.00  0.00     0.338 C 
ATOM     11  C   UNL     1      94.284 -58.967 104.010  1.00  0.00     0.011 C 
ATOM     12  C   UNL     1      95.836 -60.851 104.477  1.00  0.00     0.032 C 
ATOM     13  O   UNL     1      92.304 -58.289 101.705  1.00  0.00    -0.246 OA
ATOM     14  C   UNL     1      95.251 -59.485 104.777  1.00  0.00    -0.026 C 
ENDBRANCH   4   5
ENDBRANCH   1   4
TORSDOF 3
ENDMDL
MODEL 3
REMARK VINA RESULT:    -5.538      1.351      2.013
REMARK INTER + INTRA:          -6.909
REMARK INTER:                  -6.444
REMARK INTRA:                  -0.465
REMARK UNBOUND:                -0.400
REMARK SMILES CCCC[C@H]1OC(=O)C2=C1CCC=C2
REMARK SMILES IDX 3 1 2 2 1 3 4 4 5 5 10 6 6 7 9 8 11 9 7 10 14 11 12 12 8 13
REMARK SMILES IDX 13 14
REMARK H PARENT
REMARK Flexibility Score: inf
ROOT
ATOM      1  C   UNL     1      93.372 -63.455 101.786  1.00  0.00     0.004 C 
ENDROOT
BRANCH   1   2
ATOM      2  C   UNL     1      92.232 -62.455 102.017  1.00  0.00    -0.003 C 
ATOM      3  C   UNL     1      92.315 -61.288 101.037  1.00  0.00     0.004 C 
ENDBRANCH   1   2
BRANCH   1   4
ATOM      4  C   UNL     1      94.704 -62.897 102.306  1.00  0.00     0.050 C 
BRANCH   4   5
ATOM      5  C   UNL     1      94.655 -62.548 103.804  1.00  0.00     0.204 C 
ATOM      6  C   UNL     1      95.121 -61.135 104.098  1.00  0.00    -0.015 C 
ATOM      7  O   UNL     1      95.610 -63.348 104.507  1.00  0.00    -0.454 OA
ATOM      8  C   UNL     1      96.222 -61.150 104.831  1.00  0.00     0.062 C 
ATOM      9  C   UNL     1      94.535 -59.844 103.592  1.00  0.00     0.040 C 
ATOM     10  C   UNL     1      96.550 -62.524 105.102  1.00  0.00     0.338 C 
ATOM     11  C   UNL     1      96.917 -59.927 105.252  1.00  0.00     0.011 C 
ATOM     12  C   UNL     1      94.909 -58.661 104.516  1.00  0.00     0.032 C 
ATOM     13  O   UNL     1      97.529 -62.934 105.778  1.00  0.00    -0.246 OA
ATOM     14  C   UNL     1      96.332 -58.743 105.033  1.00  0.00    -0.026 C 
ENDBRANCH   4   5
ENDBRANCH   1   4
TORSDOF 3
ENDMDL
MODEL 4
REMARK VINA RESULT:    -5.512      1.765      3.699
REMARK INTER + INTRA:          -6.878
REMARK INTER:                  -6.519
REMARK INTRA:                  -0.359
REMARK UNBOUND:                -0.400
REMARK SMILES CCCC[C@H]1OC(=O)C2=C1CCC=C2
REMARK SMILES IDX 3 1 2 2 1 3 4 4 5 5 10 6 6 7 9 8 11 9 7 10 14 11 12 12 8 13
REMARK SMILES IDX 13 14
REMARK H PARENT
REMARK Flexibility Score: inf
ROOT
ATOM      1  C   UNL     1      93.550 -63.858 104.391  1.00  0.00     0.004 C 
ENDROOT
BRANCH   1   2
ATOM      2  C   UNL     1      92.573 -64.914 103.861  1.00  0.00    -0.003 C 
ATOM      3  C   UNL     1      91.407 -64.265 103.121  1.00  0.00     0.004 C 
ENDBRANCH   1   2
BRANCH   1   4
ATOM      4  C   UNL     1      94.927 -64.002 103.727  1.00  0.00     0.050 C 
BRANCH   4   5
ATOM      5  C   UNL     1      95.279 -62.802 102.829  1.00  0.00     0.204 C 
ATOM      6  C   UNL     1      95.144 -61.471 103.542  1.00  0.00    -0.015 C 
ATOM      7  O   UNL     1      94.311 -62.697 101.781  1.00  0.00    -0.454 OA
ATOM      8  C   UNL     1      94.190 -60.739 102.990  1.00  0.00     0.062 C 
ATOM      9  C   UNL     1      95.878 -61.000 104.769  1.00  0.00     0.040 C 
ATOM     10  C   UNL     1      93.652 -61.484 101.883  1.00  0.00     0.338 C 
ATOM     11  C   UNL     1      93.817 -59.408 103.484  1.00  0.00     0.011 C 
ATOM     12  C   UNL     1      95.889 -59.455 104.857  1.00  0.00     0.032 C 
ATOM     13  O   UNL     1      92.732 -61.107 101.112  1.00  0.00    -0.246 OA
ATOM     14  C   UNL     1      94.576 -58.832 104.425  1.00  0.00    -0.026 C 
ENDBRANCH   4   5
ENDBRANCH   1   4
TORSDOF 3
ENDMDL
MODEL 5
REMARK VINA RESULT:    -5.502      1.860      4.782
REMARK INTER + INTRA:          -6.866
REMARK INTER:                  -6.386
REMARK INTRA:                  -0.480
REMARK UNBOUND:                -0.400
REMARK SMILES CCCC[C@H]1OC(=O)C2=C1CCC=C2
REMARK SMILES IDX 3 1 2 2 1 3 4 4 5 5 10 6 6 7 9 8 11 9 7 10 14 11 12 12 8 13
REMARK SMILES IDX 13 14
REMARK H PARENT
REMARK Flexibility Score: inf
ROOT
ATOM      1  C   UNL     1      98.066 -62.745 106.241  1.00  0.00     0.004 C 
ENDROOT
BRANCH   1   2
ATOM      2  C   UNL     1      99.022 -61.842 105.453  1.00  0.00    -0.003 C 
ATOM      3  C   UNL     1      99.236 -60.509 106.166  1.00  0.00     0.004 C 
ENDBRANCH   1   2
BRANCH   1   4
ATOM      4  C   UNL     1      96.776 -63.003 105.448  1.00  0.00     0.050 C 
BRANCH   4   5
ATOM      5  C   UNL     1      96.751 -62.255 104.103  1.00  0.00     0.204 C 
ATOM      6  C   UNL     1      95.691 -61.171 104.049  1.00  0.00    -0.015 C 
ATOM      7  O   UNL     1      96.335 -63.154 103.071  1.00  0.00    -0.454 OA
ATOM      8  C   UNL     1      94.777 -61.457 103.136  1.00  0.00     0.062 C 
ATOM      9  C   UNL     1      95.561 -59.959 104.932  1.00  0.00     0.040 C 
ATOM     10  C   UNL     1      95.157 -62.694 102.508  1.00  0.00     0.338 C 
ATOM     11  C   UNL     1      93.615 -60.600 102.875  1.00  0.00     0.011 C 
ATOM     12  C   UNL     1      94.731 -58.851 104.242  1.00  0.00     0.032 C 
ATOM     13  O   UNL     1      94.535 -63.279 101.583  1.00  0.00    -0.246 OA
ATOM     14  C   UNL     1      93.554 -59.397 103.460  1.00  0.00    -0.026 C 
ENDBRANCH   4   5
ENDBRANCH   1   4
TORSDOF 3
ENDMDL
MODEL 6
REMARK VINA RESULT:    -5.456      2.048      3.779
REMARK INTER + INTRA:          -6.813
REMARK INTER:                  -6.456
REMARK INTRA:                  -0.357
REMARK UNBOUND:                -0.400
REMARK SMILES CCCC[C@H]1OC(=O)C2=C1CCC=C2
REMARK SMILES IDX 3 1 2 2 1 3 4 4 5 5 10 6 6 7 9 8 11 9 7 10 14 11 12 12 8 13
REMARK SMILES IDX 13 14
REMARK H PARENT
REMARK Flexibility Score: inf
ROOT
ATOM      1  C   UNL     1      94.174 -64.440 103.175  1.00  0.00     0.004 C 
ENDROOT
BRANCH   1   2
ATOM      2  C   UNL     1      95.116 -64.460 101.965  1.00  0.00    -0.003 C 
ATOM      3  C   UNL     1      94.400 -64.968 100.717  1.00  0.00     0.004 C 
ENDBRANCH   1   2
BRANCH   1   4
ATOM      4  C   UNL     1      93.492 -63.071 103.317  1.00  0.00     0.050 C 
BRANCH   4   5
ATOM      5  C   UNL     1      94.295 -61.940 102.652  1.00  0.00     0.204 C 
ATOM      6  C   UNL     1      94.995 -61.043 103.656  1.00  0.00    -0.015 C 
ATOM      7  O   UNL     1      93.394 -61.040 102.001  1.00  0.00    -0.454 OA
ATOM      8  C   UNL     1      94.510 -59.813 103.601  1.00  0.00     0.062 C 
ATOM      9  C   UNL     1      96.035 -61.429 104.674  1.00  0.00     0.040 C 
ATOM     10  C   UNL     1      93.506 -59.784 102.572  1.00  0.00     0.338 C 
ATOM     11  C   UNL     1      94.979 -58.731 104.474  1.00  0.00     0.011 C 
ATOM     12  C   UNL     1      96.879 -60.205 105.103  1.00  0.00     0.032 C 
ATOM     13  O   UNL     1      92.829 -58.782 102.224  1.00  0.00    -0.246 OA
ATOM     14  C   UNL     1      96.054 -58.941 105.244  1.00  0.00    -0.026 C 
ENDBRANCH   4   5
ENDBRANCH   1   4
TORSDOF 3
ENDMDL
MODEL 7
REMARK VINA RESULT:    -5.440      2.209      5.184
REMARK INTER + INTRA:          -6.793
REMARK INTER:                  -6.533
REMARK INTRA:                  -0.260
REMARK UNBOUND:                -0.400
REMARK SMILES CCCC[C@H]1OC(=O)C2=C1CCC=C2
REMARK SMILES IDX 3 1 2 2 1 3 4 4 5 5 10 6 6 7 9 8 11 9 7 10 14 11 12 12 8 13
REMARK SMILES IDX 13 14
REMARK H PARENT
REMARK Flexibility Score: inf
ROOT
ATOM      1  C   UNL     1      97.839 -62.470 105.346  1.00  0.00     0.004 C 
ENDROOT
BRANCH   1   2
ATOM      2  C   UNL     1      99.088 -61.618 105.089  1.00  0.00    -0.003 C 
ATOM      3  C   UNL     1      99.163 -60.443 106.060  1.00  0.00     0.004 C 
ENDBRANCH   1   2
BRANCH   1   4
ATOM      4  C   UNL     1      96.860 -62.378 104.166  1.00  0.00     0.050 C 
BRANCH   4   5
ATOM      5  C   UNL     1      95.496 -61.795 104.574  1.00  0.00     0.204 C 
ATOM      6  C   UNL     1      94.588 -61.529 103.389  1.00  0.00    -0.015 C 
ATOM      7  O   UNL     1      95.686 -60.489 105.126  1.00  0.00    -0.454 OA
ATOM      8  C   UNL     1      94.345 -60.233 103.269  1.00  0.00     0.062 C 
ATOM      9  C   UNL     1      94.067 -62.518 102.382  1.00  0.00     0.040 C 
ATOM     10  C   UNL     1      95.021 -59.560 104.346  1.00  0.00     0.338 C 
ATOM     11  C   UNL     1      93.514 -59.673 102.197  1.00  0.00     0.011 C 
ATOM     12  C   UNL     1      92.783 -61.995 101.696  1.00  0.00     0.032 C 
ATOM     13  O   UNL     1      95.014 -58.320 104.566  1.00  0.00    -0.246 OA
ATOM     14  C   UNL     1      92.835 -60.509 101.401  1.00  0.00    -0.026 C 
ENDBRANCH   4   5
ENDBRANCH   1   4
TORSDOF 3
ENDMDL
MODEL 8
REMARK VINA RESULT:    -5.436      1.761      2.783
REMARK INTER + INTRA:          -6.789
REMARK INTER:                  -6.590
REMARK INTRA:                  -0.199
REMARK UNBOUND:                -0.400
REMARK SMILES CCCC[C@H]1OC(=O)C2=C1CCC=C2
REMARK SMILES IDX 3 1 2 2 1 3 4 4 5 5 10 6 6 7 9 8 11 9 7 10 14 11 12 12 8 13
REMARK SMILES IDX 13 14
REMARK H PARENT
REMARK Flexibility Score: inf
ROOT
ATOM      1  C   UNL     1      93.889 -60.254 102.913  1.00  0.00     0.004 C 
ENDROOT
BRANCH   1   2
ATOM      2  C   UNL     1      92.826 -59.220 102.524  1.00  0.00    -0.003 C 
ATOM      3  C   UNL     1      92.905 -58.880 101.038  1.00  0.00     0.004 C 
ENDBRANCH   1   2
BRANCH   1   4
ATOM      4  C   UNL     1      94.834 -59.692 103.986  1.00  0.00     0.050 C 
BRANCH   4   5
ATOM      5  C   UNL     1      95.313 -60.770 104.974  1.00  0.00     0.204 C 
ATOM      6  C   UNL     1      96.824 -60.845 105.081  1.00  0.00    -0.015 C 
ATOM      7  O   UNL     1      94.968 -62.062 104.467  1.00  0.00    -0.454 OA
ATOM      8  C   UNL     1      97.266 -62.013 104.643  1.00  0.00     0.062 C 
ATOM      9  C   UNL     1      97.775 -59.763 105.518  1.00  0.00     0.040 C 
ATOM     10  C   UNL     1      96.123 -62.795 104.254  1.00  0.00     0.338 C 
ATOM     11  C   UNL     1      98.690 -62.363 104.605  1.00  0.00     0.011 C 
ATOM     12  C   UNL     1      99.112 -60.361 106.016  1.00  0.00     0.032 C 
ATOM     13  O   UNL     1      96.148 -63.967 103.795  1.00  0.00    -0.246 OA
ATOM     14  C   UNL     1      99.574 -61.543 105.186  1.00  0.00    -0.026 C 
ENDBRANCH   4   5
ENDBRANCH   1   4
TORSDOF 3
ENDMDL
MODEL 9
REMARK VINA RESULT:    -5.379      2.307      5.229
REMARK INTER + INTRA:          -6.722
REMARK INTER:                  -6.399
REMARK INTRA:                  -0.323
REMARK UNBOUND:                -0.400
REMARK SMILES CCCC[C@H]1OC(=O)C2=C1CCC=C2
REMARK SMILES IDX 3 1 2 2 1 3 4 4 5 5 10 6 6 7 9 8 11 9 7 10 14 11 12 12 8 13
REMARK SMILES IDX 13 14
REMARK H PARENT
REMARK Flexibility Score: inf
ROOT
ATOM      1  C   UNL     1      94.659 -59.120 104.175  1.00  0.00     0.004 C 
ENDROOT
BRANCH   1   2
ATOM      2  C   UNL     1      95.855 -59.537 105.040  1.00  0.00    -0.003 C 
ATOM      3  C   UNL     1      96.199 -61.009 104.833  1.00  0.00     0.004 C 
ENDBRANCH   1   2
BRANCH   1   4
ATOM      4  C   UNL     1      94.420 -60.133 103.046  1.00  0.00     0.050 C 
BRANCH   4   5
ATOM      5  C   UNL     1      92.924 -60.373 102.775  1.00  0.00     0.204 C 
ATOM      6  C   UNL     1      92.594 -61.834 102.532  1.00  0.00    -0.015 C 
ATOM      7  O   UNL     1      92.564 -59.758 101.535  1.00  0.00    -0.454 OA
ATOM      8  C   UNL     1      92.153 -62.014 101.298  1.00  0.00     0.062 C 
ATOM      9  C   UNL     1      92.798 -62.996 103.467  1.00  0.00     0.040 C 
ATOM     10  C   UNL     1      92.123 -60.729 100.652  1.00  0.00     0.338 C 
ATOM     11  C   UNL     1      91.777 -63.330 100.769  1.00  0.00     0.011 C 
ATOM     12  C   UNL     1      91.865 -64.175 103.105  1.00  0.00     0.032 C 
ATOM     13  O   UNL     1      91.750 -60.500  99.472  1.00  0.00    -0.246 OA
ATOM     14  C   UNL     1      91.716 -64.371 101.609  1.00  0.00    -0.026 C 
ENDBRANCH   4   5
ENDBRANCH   1   4
TORSDOF 3
ENDMDL
