MODEL 1
REMARK VINA RESULT:    -2.680      0.000      0.000
REMARK INTER + INTRA:          -2.941
REMARK INTER:                  -2.915
REMARK INTRA:                  -0.025
REMARK UNBOUND:                -0.025
REMARK SMILES COc1ccccc1O
REMARK SMILES IDX 3 1 4 2 5 3 6 4 7 5 8 6 2 7 1 8 9 9
REMARK H PARENT 9 10
REMARK Flexibility Score: inf
ROOT
ATOM      1  C   UNL     1      -1.592  -6.723   9.411  1.00  0.00     0.160 A 
ATOM      2  C   UNL     1      -2.054  -7.927   8.844  1.00  0.00     0.050 A 
ATOM      3  C   UNL     1      -1.148  -8.868   8.348  1.00  0.00     0.004 A 
ATOM      4  C   UNL     1       0.224  -8.619   8.411  1.00  0.00     0.004 A 
ATOM      5  C   UNL     1       0.693  -7.429   8.971  1.00  0.00     0.050 A 
ATOM      6  C   UNL     1      -0.206  -6.480   9.472  1.00  0.00     0.157 A 
ENDROOT
BRANCH   1   7
ATOM      7  O   UNL     1      -2.472  -5.755   9.920  1.00  0.00    -0.493 OA
ATOM      8  C   UNL     1      -3.866  -5.960  10.125  1.00  0.00     0.278 C 
ENDBRANCH   1   7
BRANCH   6   9
ATOM      9  O   UNL     1       0.296  -5.302  10.024  1.00  0.00    -0.504 OA
ATOM     10  H   UNL     1      -0.276  -4.475  10.142  1.00  0.00     0.293 HD
ENDBRANCH   6   9
TORSDOF 2
ENDMDL
MODEL 2
REMARK VINA RESULT:    -2.670      1.638      2.729
REMARK INTER + INTRA:          -2.929
REMARK INTER:                  -2.886
REMARK INTRA:                  -0.044
REMARK UNBOUND:                -0.025
REMARK SMILES COc1ccccc1O
REMARK SMILES IDX 3 1 4 2 5 3 6 4 7 5 8 6 2 7 1 8 9 9
REMARK H PARENT 9 10
REMARK Flexibility Score: inf
ROOT
ATOM      1  C   UNL     1      -1.331  -7.756   8.775  1.00  0.00     0.160 A 
ATOM      2  C   UNL     1       0.058  -7.586   8.940  1.00  0.00     0.050 A 
ATOM      3  C   UNL     1       0.924  -8.676   8.813  1.00  0.00     0.004 A 
ATOM      4  C   UNL     1       0.416  -9.943   8.522  1.00  0.00     0.004 A 
ATOM      5  C   UNL     1      -0.959 -10.123   8.357  1.00  0.00     0.050 A 
ATOM      6  C   UNL     1      -1.835  -9.039   8.481  1.00  0.00     0.157 A 
ENDROOT
BRANCH   1   7
ATOM      7  O   UNL     1      -2.231  -6.685   8.894  1.00  0.00    -0.493 OA
ATOM      8  C   UNL     1      -2.785  -6.231  10.125  1.00  0.00     0.278 C 
ENDBRANCH   1   7
BRANCH   6   9
ATOM      9  O   UNL     1      -3.202  -9.254   8.311  1.00  0.00    -0.504 OA
ATOM     10  H   UNL     1      -3.744  -8.754   7.617  1.00  0.00     0.293 HD
ENDBRANCH   6   9
TORSDOF 2
ENDMDL
MODEL 3
REMARK VINA RESULT:    -2.584     20.313     21.171
REMARK INTER + INTRA:          -2.836
REMARK INTER:                  -2.790
REMARK INTRA:                  -0.046
REMARK UNBOUND:                -0.025
REMARK SMILES COc1ccccc1O
REMARK SMILES IDX 3 1 4 2 5 3 6 4 7 5 8 6 2 7 1 8 9 9
REMARK H PARENT 9 10
REMARK Flexibility Score: inf
ROOT
ATOM      1  C   UNL     1      -8.015   8.629  -2.595  1.00  0.00     0.160 A 
ATOM      2  C   UNL     1      -7.401   8.960  -1.371  1.00  0.00     0.050 A 
ATOM      3  C   UNL     1      -8.145   8.974  -0.188  1.00  0.00     0.004 A 
ATOM      4  C   UNL     1      -9.505   8.659  -0.212  1.00  0.00     0.004 A 
ATOM      5  C   UNL     1     -10.124   8.329  -1.420  1.00  0.00     0.050 A 
ATOM      6  C   UNL     1      -9.388   8.311  -2.611  1.00  0.00     0.157 A 
ENDROOT
BRANCH   1   7
ATOM      7  O   UNL     1      -7.300   8.604  -3.803  1.00  0.00    -0.493 OA
ATOM      8  C   UNL     1      -6.972   9.758  -4.570  1.00  0.00     0.278 C 
ENDBRANCH   1   7
BRANCH   6   9
ATOM      9  O   UNL     1     -10.037   7.978  -3.799  1.00  0.00    -0.504 OA
ATOM     10  H   UNL     1      -9.793   8.403  -4.685  1.00  0.00     0.293 HD
ENDBRANCH   6   9
TORSDOF 2
ENDMDL
MODEL 4
REMARK VINA RESULT:    -2.577     10.050     11.112
REMARK INTER + INTRA:          -2.828
REMARK INTER:                  -2.783
REMARK INTRA:                  -0.045
REMARK UNBOUND:                -0.025
REMARK SMILES COc1ccccc1O
REMARK SMILES IDX 3 1 4 2 5 3 6 4 7 5 8 6 2 7 1 8 9 9
REMARK H PARENT 9 10
REMARK Flexibility Score: inf
ROOT
ATOM      1  C   UNL     1      -7.848  -8.937   1.955  1.00  0.00     0.160 A 
ATOM      2  C   UNL     1      -6.907  -9.251   0.953  1.00  0.00     0.050 A 
ATOM      3  C   UNL     1      -7.275  -9.223  -0.394  1.00  0.00     0.004 A 
ATOM      4  C   UNL     1      -8.579  -8.884  -0.758  1.00  0.00     0.004 A 
ATOM      5  C   UNL     1      -9.519  -8.571   0.227  1.00  0.00     0.050 A 
ATOM      6  C   UNL     1      -9.162  -8.595   1.580  1.00  0.00     0.157 A 
ENDROOT
BRANCH   1   7
ATOM      7  O   UNL     1      -7.515  -8.954   3.319  1.00  0.00    -0.493 OA
ATOM      8  C   UNL     1      -7.514 -10.121   4.134  1.00  0.00     0.278 C 
ENDBRANCH   1   7
BRANCH   6   9
ATOM      9  O   UNL     1     -10.125  -8.278   2.537  1.00  0.00    -0.504 OA
ATOM     10  H   UNL     1     -10.732  -8.978   2.944  1.00  0.00     0.293 HD
ENDBRANCH   6   9
TORSDOF 2
ENDMDL
MODEL 5
REMARK VINA RESULT:    -2.497      7.956      8.382
REMARK INTER + INTRA:          -2.741
REMARK INTER:                  -2.696
REMARK INTRA:                  -0.045
REMARK UNBOUND:                -0.025
REMARK SMILES COc1ccccc1O
REMARK SMILES IDX 3 1 4 2 5 3 6 4 7 5 8 6 2 7 1 8 9 9
REMARK H PARENT 9 10
REMARK Flexibility Score: inf
ROOT
ATOM      1  C   UNL     1      -9.388  -8.135   7.893  1.00  0.00     0.160 A 
ATOM      2  C   UNL     1      -8.658  -9.107   7.181  1.00  0.00     0.050 A 
ATOM      3  C   UNL     1      -7.944 -10.095   7.864  1.00  0.00     0.004 A 
ATOM      4  C   UNL     1      -7.949 -10.125   9.259  1.00  0.00     0.004 A 
ATOM      5  C   UNL     1      -8.669  -9.166   9.975  1.00  0.00     0.050 A 
ATOM      6  C   UNL     1      -9.388  -8.172   9.302  1.00  0.00     0.157 A 
ENDROOT
BRANCH   1   7
ATOM      7  O   UNL     1     -10.117  -7.127   7.242  1.00  0.00    -0.493 OA
ATOM      8  C   UNL     1      -9.562  -5.898   6.784  1.00  0.00     0.278 C 
ENDBRANCH   1   7
BRANCH   6   9
ATOM      9  O   UNL     1     -10.096  -7.230  10.047  1.00  0.00    -0.504 OA
ATOM     10  H   UNL     1     -10.799  -7.497  10.726  1.00  0.00     0.293 HD
ENDBRANCH   6   9
TORSDOF 2
ENDMDL
MODEL 6
REMARK VINA RESULT:    -2.463      2.367      4.208
REMARK INTER + INTRA:          -2.704
REMARK INTER:                  -2.677
REMARK INTRA:                  -0.028
REMARK UNBOUND:                -0.025
REMARK SMILES COc1ccccc1O
REMARK SMILES IDX 3 1 4 2 5 3 6 4 7 5 8 6 2 7 1 8 9 9
REMARK H PARENT 9 10
REMARK Flexibility Score: inf
ROOT
ATOM      1  C   UNL     1      -0.215  -8.693   8.618  1.00  0.00     0.160 A 
ATOM      2  C   UNL     1       0.376  -7.465   8.975  1.00  0.00     0.050 A 
ATOM      3  C   UNL     1      -0.421  -6.379   9.347  1.00  0.00     0.004 A 
ATOM      4  C   UNL     1      -1.811  -6.505   9.366  1.00  0.00     0.004 A 
ATOM      5  C   UNL     1      -2.408  -7.718   9.013  1.00  0.00     0.050 A 
ATOM      6  C   UNL     1      -1.619  -8.812   8.640  1.00  0.00     0.157 A 
ENDROOT
BRANCH   1   7
ATOM      7  O   UNL     1       0.553  -9.806   8.240  1.00  0.00    -0.493 OA
ATOM      8  C   UNL     1       1.853 -10.097   8.743  1.00  0.00     0.278 C 
ENDBRANCH   1   7
BRANCH   6   9
ATOM      9  O   UNL     1      -2.246 -10.008   8.293  1.00  0.00    -0.504 OA
ATOM     10  H   UNL     1      -1.970 -10.547   7.482  1.00  0.00     0.293 HD
ENDBRANCH   6   9
TORSDOF 2
ENDMDL
MODEL 7
REMARK VINA RESULT:    -0.882     13.049     14.450
REMARK INTER + INTRA:          -0.985
REMARK INTER:                  -0.959
REMARK INTRA:                  -0.026
REMARK UNBOUND:                -0.025
REMARK SMILES COc1ccccc1O
REMARK SMILES IDX 3 1 4 2 5 3 6 4 7 5 8 6 2 7 1 8 9 9
REMARK H PARENT 9 10
REMARK Flexibility Score: inf
ROOT
ATOM      1  C   UNL     1       7.646  -9.560  -1.821  1.00  0.00     0.160 A 
ATOM      2  C   UNL     1       8.870  -9.005  -2.244  1.00  0.00     0.050 A 
ATOM      3  C   UNL     1       9.754  -8.452  -1.313  1.00  0.00     0.004 A 
ATOM      4  C   UNL     1       9.428  -8.446   0.044  1.00  0.00     0.004 A 
ATOM      5  C   UNL     1       8.218  -8.994   0.474  1.00  0.00     0.050 A 
ATOM      6  C   UNL     1       7.325  -9.551  -0.449  1.00  0.00     0.157 A 
ENDROOT
BRANCH   1   7
ATOM      7  O   UNL     1       6.733 -10.125  -2.726  1.00  0.00    -0.493 OA
ATOM      8  C   UNL     1       6.775  -9.937  -4.137  1.00  0.00     0.278 C 
ENDBRANCH   1   7
BRANCH   6   9
ATOM      9  O   UNL     1       6.125 -10.089   0.014  1.00  0.00    -0.504 OA
ATOM     10  H   UNL     1       5.518  -9.586   0.650  1.00  0.00     0.293 HD
ENDBRANCH   6   9
TORSDOF 2
ENDMDL
MODEL 8
REMARK VINA RESULT:    -0.798     10.348     11.497
REMARK INTER + INTRA:          -0.893
REMARK INTER:                  -0.865
REMARK INTRA:                  -0.028
REMARK UNBOUND:                -0.025
REMARK SMILES COc1ccccc1O
REMARK SMILES IDX 3 1 4 2 5 3 6 4 7 5 8 6 2 7 1 8 9 9
REMARK H PARENT 9 10
REMARK Flexibility Score: inf
ROOT
ATOM      1  C   UNL     1      -7.741  -8.930   1.257  1.00  0.00     0.160 A 
ATOM      2  C   UNL     1      -7.749  -9.002  -0.150  1.00  0.00     0.050 A 
ATOM      3  C   UNL     1      -8.935  -8.799  -0.861  1.00  0.00     0.004 A 
ATOM      4  C   UNL     1     -10.122  -8.523  -0.179  1.00  0.00     0.004 A 
ATOM      5  C   UNL     1     -10.125  -8.450   1.215  1.00  0.00     0.050 A 
ATOM      6  C   UNL     1      -8.943  -8.651   1.937  1.00  0.00     0.157 A 
ENDROOT
BRANCH   1   7
ATOM      7  O   UNL     1      -6.569  -9.127   2.005  1.00  0.00    -0.493 OA
ATOM      8  C   UNL     1      -5.528 -10.031   1.649  1.00  0.00     0.278 C 
ENDBRANCH   1   7
BRANCH   6   9
ATOM      9  O   UNL     1      -8.981  -8.570   3.329  1.00  0.00    -0.504 OA
ATOM     10  H   UNL     1      -8.896  -7.690   3.821  1.00  0.00     0.293 HD
ENDBRANCH   6   9
TORSDOF 2
ENDMDL
