MODEL 1
REMARK VINA RESULT:    -2.550      0.000      0.000
REMARK INTER + INTRA:          -2.859
REMARK INTER:                  -2.848
REMARK INTRA:                  -0.012
REMARK UNBOUND:                -0.012
REMARK SMILES CCCC(=O)[O-]
REMARK SMILES IDX 3 1 4 2 5 3 6 4 2 5 1 6
REMARK H PARENT
REMARK Flexibility Score: inf
ROOT
ATOM      1  C   UNL     1     -26.736   7.841  -5.520  1.00  0.00     0.052 C 
ENDROOT
BRANCH   1   2
ATOM      2  C   UNL     1     -26.129   8.651  -6.624  1.00  0.00     0.041 C 
ATOM      3  O   UNL     1     -26.764   9.617  -7.125  1.00  0.00    -0.550 OA
ATOM      4  O   UNL     1     -24.875   8.320  -7.123  1.00  0.00    -0.550 OA
ENDBRANCH   1   2
BRANCH   1   5
ATOM      5  C   UNL     1     -27.873   8.597  -4.819  1.00  0.00     0.003 C 
ATOM      6  C   UNL     1     -28.005   8.212  -3.346  1.00  0.00     0.004 C 
ENDBRANCH   1   5
TORSDOF 2
ENDMDL
MODEL 2
REMARK VINA RESULT:    -2.147      2.873      3.918
REMARK INTER + INTRA:          -2.410
REMARK INTER:                  -2.400
REMARK INTRA:                  -0.009
REMARK UNBOUND:                -0.012
REMARK SMILES CCCC(=O)[O-]
REMARK SMILES IDX 3 1 4 2 5 3 6 4 2 5 1 6
REMARK H PARENT
REMARK Flexibility Score: inf
ROOT
ATOM      1  C   UNL     1     -28.022   8.623  -4.895  1.00  0.00     0.052 C 
ENDROOT
BRANCH   1   2
ATOM      2  C   UNL     1     -28.067   8.019  -3.526  1.00  0.00     0.041 C 
ATOM      3  O   UNL     1     -27.022   7.961  -2.825  1.00  0.00    -0.550 OA
ATOM      4  O   UNL     1     -29.254   7.490  -3.035  1.00  0.00    -0.550 OA
ENDBRANCH   1   2
BRANCH   1   5
ATOM      5  C   UNL     1     -26.718   8.279  -5.627  1.00  0.00     0.003 C 
ATOM      6  C   UNL     1     -26.598   8.997  -6.971  1.00  0.00     0.004 C 
ENDBRANCH   1   5
TORSDOF 2
ENDMDL
MODEL 3
REMARK VINA RESULT:    -2.015      5.096      6.198
REMARK INTER + INTRA:          -2.262
REMARK INTER:                  -2.229
REMARK INTRA:                  -0.033
REMARK UNBOUND:                -0.012
REMARK SMILES CCCC(=O)[O-]
REMARK SMILES IDX 3 1 4 2 5 3 6 4 2 5 1 6
REMARK H PARENT
REMARK Flexibility Score: inf
ROOT
ATOM      1  C   UNL     1     -30.189   6.830  -1.131  1.00  0.00     0.052 C 
ENDROOT
BRANCH   1   2
ATOM      2  C   UNL     1     -28.855   7.510  -1.103  1.00  0.00     0.041 C 
ATOM      3  O   UNL     1     -28.291   7.753  -0.004  1.00  0.00    -0.550 OA
ATOM      4  O   UNL     1     -28.249   7.906  -2.289  1.00  0.00    -0.550 OA
ENDBRANCH   1   2
BRANCH   1   5
ATOM      5  C   UNL     1     -30.870   6.857   0.243  1.00  0.00     0.003 C 
ATOM      6  C   UNL     1     -32.101   7.763   0.265  1.00  0.00     0.004 C 
ENDBRANCH   1   5
TORSDOF 2
ENDMDL
MODEL 4
REMARK VINA RESULT:    -1.992      6.416      7.536
REMARK INTER + INTRA:          -2.237
REMARK INTER:                  -2.231
REMARK INTRA:                  -0.006
REMARK UNBOUND:                -0.012
REMARK SMILES CCCC(=O)[O-]
REMARK SMILES IDX 3 1 4 2 5 3 6 4 2 5 1 6
REMARK H PARENT
REMARK Flexibility Score: inf
ROOT
ATOM      1  C   UNL     1     -30.188   6.876  -0.732  1.00  0.00     0.052 C 
ENDROOT
BRANCH   1   2
ATOM      2  C   UNL     1     -31.155   7.257   0.346  1.00  0.00     0.041 C 
ATOM      3  O   UNL     1     -30.902   6.983   1.549  1.00  0.00    -0.550 OA
ATOM      4  O   UNL     1     -32.351   7.884   0.020  1.00  0.00    -0.550 OA
ENDBRANCH   1   2
BRANCH   1   5
ATOM      5  C   UNL     1     -28.819   7.536  -0.528  1.00  0.00     0.003 C 
ATOM      6  C   UNL     1     -28.159   7.926  -1.851  1.00  0.00     0.004 C 
ENDBRANCH   1   5
TORSDOF 2
ENDMDL
MODEL 5
REMARK VINA RESULT:    -1.893      4.009      4.910
REMARK INTER + INTRA:          -2.126
REMARK INTER:                  -2.116
REMARK INTRA:                  -0.011
REMARK UNBOUND:                -0.012
REMARK SMILES CCCC(=O)[O-]
REMARK SMILES IDX 3 1 4 2 5 3 6 4 2 5 1 6
REMARK H PARENT
REMARK Flexibility Score: inf
ROOT
ATOM      1  C   UNL     1     -27.545   8.160  -2.743  1.00  0.00     0.052 C 
ENDROOT
BRANCH   1   2
ATOM      2  C   UNL     1     -28.484   7.674  -1.682  1.00  0.00     0.041 C 
ATOM      3  O   UNL     1     -28.178   7.787  -0.465  1.00  0.00    -0.550 OA
ATOM      4  O   UNL     1     -29.682   7.066  -2.036  1.00  0.00    -0.550 OA
ENDBRANCH   1   2
BRANCH   1   5
ATOM      5  C   UNL     1     -28.236   8.269  -4.108  1.00  0.00     0.003 C 
ATOM      6  C   UNL     1     -27.236   8.360  -5.260  1.00  0.00     0.004 C 
ENDBRANCH   1   5
TORSDOF 2
ENDMDL
MODEL 6
REMARK VINA RESULT:    -1.747      5.804      6.714
REMARK INTER + INTRA:          -1.963
REMARK INTER:                  -1.958
REMARK INTRA:                  -0.005
REMARK UNBOUND:                -0.012
REMARK SMILES CCCC(=O)[O-]
REMARK SMILES IDX 3 1 4 2 5 3 6 4 2 5 1 6
REMARK H PARENT
REMARK Flexibility Score: inf
ROOT
ATOM      1  C   UNL     1     -29.884   7.315   0.709  1.00  0.00     0.052 C 
ENDROOT
BRANCH   1   2
ATOM      2  C   UNL     1     -29.244   7.367  -0.644  1.00  0.00     0.041 C 
ATOM      3  O   UNL     1     -29.847   6.904  -1.649  1.00  0.00    -0.550 OA
ATOM      4  O   UNL     1     -27.968   7.895  -0.792  1.00  0.00    -0.550 OA
ENDBRANCH   1   2
BRANCH   1   5
ATOM      5  C   UNL     1     -31.344   6.849   0.630  1.00  0.00     0.003 C 
ATOM      6  C   UNL     1     -32.315   8.013   0.430  1.00  0.00     0.004 C 
ENDBRANCH   1   5
TORSDOF 2
ENDMDL
MODEL 7
REMARK VINA RESULT:    -0.864     18.202     18.666
REMARK INTER + INTRA:          -0.976
REMARK INTER:                  -0.950
REMARK INTRA:                  -0.027
REMARK UNBOUND:                -0.012
REMARK SMILES CCCC(=O)[O-]
REMARK SMILES IDX 3 1 4 2 5 3 6 4 2 5 1 6
REMARK H PARENT
REMARK Flexibility Score: inf
ROOT
ATOM      1  C   UNL     1     -29.415  11.624  13.003  1.00  0.00     0.052 C 
ENDROOT
BRANCH   1   2
ATOM      2  C   UNL     1     -29.759  12.672  11.990  1.00  0.00     0.041 C 
ATOM      3  O   UNL     1     -30.933  13.125  11.921  1.00  0.00    -0.550 OA
ATOM      4  O   UNL     1     -28.794  13.125  11.099  1.00  0.00    -0.550 OA
ENDBRANCH   1   2
BRANCH   1   5
ATOM      5  C   UNL     1     -30.515  10.562  13.120  1.00  0.00     0.003 C 
ATOM      6  C   UNL     1     -30.135   9.252  12.430  1.00  0.00     0.004 C 
ENDBRANCH   1   5
TORSDOF 2
ENDMDL
MODEL 8
REMARK VINA RESULT:    -0.330      2.035      2.962
REMARK INTER + INTRA:          -0.380
REMARK INTER:                  -0.371
REMARK INTRA:                  -0.009
REMARK UNBOUND:                -0.012
REMARK SMILES CCCC(=O)[O-]
REMARK SMILES IDX 3 1 4 2 5 3 6 4 2 5 1 6
REMARK H PARENT
REMARK Flexibility Score: inf
ROOT
ATOM      1  C   UNL     1     -27.156   7.989  -3.051  1.00  0.00     0.052 C 
ENDROOT
BRANCH   1   2
ATOM      2  C   UNL     1     -27.441   8.242  -4.499  1.00  0.00     0.041 C 
ATOM      3  O   UNL     1     -26.633   7.848  -5.382  1.00  0.00    -0.550 OA
ATOM      4  O   UNL     1     -28.581   8.942  -4.874  1.00  0.00    -0.550 OA
ENDBRANCH   1   2
BRANCH   1   5
ATOM      5  C   UNL     1     -28.446   7.855  -2.232  1.00  0.00     0.003 C 
ATOM      6  C   UNL     1     -28.184   7.886  -0.726  1.00  0.00     0.004 C 
ENDBRANCH   1   5
TORSDOF 2
ENDMDL
MODEL 9
REMARK VINA RESULT:    -0.309     11.462     12.114
REMARK INTER + INTRA:          -0.357
REMARK INTER:                  -0.374
REMARK INTRA:                   0.017
REMARK UNBOUND:                -0.012
REMARK SMILES CCCC(=O)[O-]
REMARK SMILES IDX 3 1 4 2 5 3 6 4 2 5 1 6
REMARK H PARENT
REMARK Flexibility Score: inf
ROOT
ATOM      1  C   UNL     1     -25.785  -3.695  -5.764  1.00  0.00     0.052 C 
ENDROOT
BRANCH   1   2
ATOM      2  C   UNL     1     -26.722  -3.387  -4.637  1.00  0.00     0.041 C 
ATOM      3  O   UNL     1     -26.361  -2.619  -3.706  1.00  0.00    -0.550 OA
ATOM      4  O   UNL     1     -27.981  -3.973  -4.596  1.00  0.00    -0.550 OA
ENDBRANCH   1   2
BRANCH   1   5
ATOM      5  C   UNL     1     -26.392  -3.330  -7.125  1.00  0.00     0.003 C 
ATOM      6  C   UNL     1     -27.120  -1.986  -7.095  1.00  0.00     0.004 C 
ENDBRANCH   1   5
TORSDOF 2
ENDMDL
