MODEL 1
REMARK VINA RESULT:    -6.734      0.000      0.000
REMARK INTER + INTRA:          -8.208
REMARK INTER:                  -7.915
REMARK INTRA:                  -0.293
REMARK UNBOUND:                -0.293
REMARK SMILES O=c1cc(-c2ccc(O)c(O)c2)oc2cc(O)cc(O)c12
REMARK SMILES IDX 4 1 3 2 2 3 1 4 21 5 19 6 18 7 16 8 15 9 14 10 13 11 5 12
REMARK SMILES IDX 6 13 7 14 8 15 12 16 10 17 9 18 11 20 20 22 17 24
REMARK H PARENT 9 19 11 21 20 23 17 25
REMARK Flexibility Score: inf
ROOT
ATOM      1  C   UNL     1      -8.175 -25.728  -1.901  1.00  0.00     0.138 A 
ATOM      2  C   UNL     1      -6.848 -25.548  -2.326  1.00  0.00     0.100 A 
ATOM      3  C   UNL     1      -6.154 -26.624  -2.882  1.00  0.00     0.197 A 
ATOM      4  O   UNL     1      -4.963 -26.453  -3.260  1.00  0.00    -0.289 OA
ATOM      5  C   UNL     1      -6.792 -27.873  -3.007  1.00  0.00     0.107 A 
ATOM      6  C   UNL     1      -6.162 -29.014  -3.560  1.00  0.00     0.134 A 
ATOM      7  C   UNL     1      -6.866 -30.224  -3.645  1.00  0.00     0.093 A 
ATOM      8  C   UNL     1      -8.185 -30.315  -3.185  1.00  0.00     0.123 A 
ATOM      9  C   UNL     1      -8.810 -29.193  -2.638  1.00  0.00     0.094 A 
ATOM     10  C   UNL     1      -8.127 -27.977  -2.547  1.00  0.00     0.146 A 
ATOM     11  O   UNL     1      -8.745 -26.923  -2.023  1.00  0.00    -0.456 OA
ENDROOT
BRANCH   1  12
ATOM     12  C   UNL     1      -8.961 -24.620  -1.300  1.00  0.00     0.021 A 
ATOM     13  C   UNL     1     -10.156 -24.859  -0.595  1.00  0.00     0.016 A 
ATOM     14  C   UNL     1     -10.869 -23.799  -0.030  1.00  0.00     0.051 A 
ATOM     15  C   UNL     1     -10.400 -22.485  -0.151  1.00  0.00     0.157 A 
ATOM     16  C   UNL     1      -8.489 -23.299  -1.405  1.00  0.00     0.062 A 
ATOM     17  C   UNL     1      -9.202 -22.236  -0.841  1.00  0.00     0.158 A 
BRANCH  15  18
ATOM     18  O   UNL     1     -11.115 -21.430   0.413  1.00  0.00    -0.504 OA
ATOM     19  H   UNL     1     -10.662 -20.729   0.988  1.00  0.00     0.293 HD
ENDBRANCH  15  18
BRANCH  17  20
ATOM     20  O   UNL     1      -8.705 -20.940  -0.976  1.00  0.00    -0.504 OA
ATOM     21  H   UNL     1      -7.957 -20.715  -1.620  1.00  0.00     0.293 HD
ENDBRANCH  17  20
ENDBRANCH   1  12
BRANCH   6  22
ATOM     22  O   UNL     1      -4.849 -28.952  -4.026  1.00  0.00    -0.507 OA
ATOM     23  H   UNL     1      -4.076 -28.715  -3.414  1.00  0.00     0.293 HD
ENDBRANCH   6  22
BRANCH   8  24
ATOM     24  O   UNL     1      -8.884 -31.518  -3.267  1.00  0.00    -0.508 OA
ATOM     25  H   UNL     1      -8.829 -32.107  -4.090  1.00  0.00     0.293 HD
ENDBRANCH   8  24
TORSDOF 5
ENDMDL
MODEL 2
REMARK VINA RESULT:    -6.537      0.954      1.697
REMARK INTER + INTRA:          -7.976
REMARK INTER:                  -7.658
REMARK INTRA:                  -0.318
REMARK UNBOUND:                -0.293
REMARK SMILES O=c1cc(-c2ccc(O)c(O)c2)oc2cc(O)cc(O)c12
REMARK SMILES IDX 4 1 3 2 2 3 1 4 21 5 19 6 18 7 16 8 15 9 14 10 13 11 5 12
REMARK SMILES IDX 6 13 7 14 8 15 12 16 10 17 9 18 11 20 20 22 17 24
REMARK H PARENT 9 19 11 21 20 23 17 25
REMARK Flexibility Score: inf
ROOT
ATOM      1  C   UNL     1      -7.859 -25.616  -2.090  1.00  0.00     0.138 A 
ATOM      2  C   UNL     1      -6.620 -25.876  -2.697  1.00  0.00     0.100 A 
ATOM      3  C   UNL     1      -6.332 -27.165  -3.148  1.00  0.00     0.197 A 
ATOM      4  O   UNL     1      -5.217 -27.389  -3.691  1.00  0.00    -0.289 OA
ATOM      5  C   UNL     1      -7.287 -28.188  -2.984  1.00  0.00     0.107 A 
ATOM      6  C   UNL     1      -7.078 -29.520  -3.413  1.00  0.00     0.134 A 
ATOM      7  C   UNL     1      -8.078 -30.482  -3.208  1.00  0.00     0.093 A 
ATOM      8  C   UNL     1      -9.282 -30.136  -2.583  1.00  0.00     0.123 A 
ATOM      9  C   UNL     1      -9.493 -28.823  -2.158  1.00  0.00     0.094 A 
ATOM     10  C   UNL     1      -8.509 -27.850  -2.354  1.00  0.00     0.146 A 
ATOM     11  O   UNL     1      -8.735 -26.606  -1.941  1.00  0.00    -0.456 OA
ENDROOT
BRANCH   1  12
ATOM     12  C   UNL     1      -8.218 -24.265  -1.590  1.00  0.00     0.021 A 
ATOM     13  C   UNL     1      -7.376 -23.154  -1.789  1.00  0.00     0.016 A 
ATOM     14  C   UNL     1      -7.744 -21.892  -1.318  1.00  0.00     0.051 A 
ATOM     15  C   UNL     1      -8.960 -21.714  -0.647  1.00  0.00     0.157 A 
ATOM     16  C   UNL     1      -9.444 -24.074  -0.928  1.00  0.00     0.062 A 
ATOM     17  C   UNL     1      -9.815 -22.811  -0.453  1.00  0.00     0.158 A 
BRANCH  15  18
ATOM     18  O   UNL     1      -9.323 -20.453  -0.176  1.00  0.00    -0.504 OA
ATOM     19  H   UNL     1     -10.261 -20.088  -0.304  1.00  0.00     0.293 HD
ENDBRANCH  15  18
BRANCH  17  20
ATOM     20  O   UNL     1     -11.034 -22.667   0.207  1.00  0.00    -0.504 OA
ATOM     21  H   UNL     1     -11.613 -21.844   0.095  1.00  0.00     0.293 HD
ENDBRANCH  17  20
ENDBRANCH   1  12
BRANCH   6  22
ATOM     22  O   UNL     1      -5.888 -29.893  -4.039  1.00  0.00    -0.507 OA
ATOM     23  H   UNL     1      -5.780 -30.798  -4.483  1.00  0.00     0.293 HD
ENDBRANCH   6  22
BRANCH   8  24
ATOM     24  O   UNL     1     -10.276 -31.092  -2.378  1.00  0.00    -0.508 OA
ATOM     25  H   UNL     1     -10.873 -31.067  -1.559  1.00  0.00     0.293 HD
ENDBRANCH   8  24
TORSDOF 5
ENDMDL
MODEL 3
REMARK VINA RESULT:    -6.385     11.366     14.445
REMARK INTER + INTRA:          -7.798
REMARK INTER:                  -7.525
REMARK INTRA:                  -0.273
REMARK UNBOUND:                -0.293
REMARK SMILES O=c1cc(-c2ccc(O)c(O)c2)oc2cc(O)cc(O)c12
REMARK SMILES IDX 4 1 3 2 2 3 1 4 21 5 19 6 18 7 16 8 15 9 14 10 13 11 5 12
REMARK SMILES IDX 6 13 7 14 8 15 12 16 10 17 9 18 11 20 20 22 17 24
REMARK H PARENT 9 19 11 21 20 23 17 25
REMARK Flexibility Score: inf
ROOT
ATOM      1  C   UNL     1       1.968 -18.849  -3.685  1.00  0.00     0.138 A 
ATOM      2  C   UNL     1       3.192 -18.779  -3.000  1.00  0.00     0.100 A 
ATOM      3  C   UNL     1       3.432 -17.714  -2.130  1.00  0.00     0.197 A 
ATOM      4  O   UNL     1       4.534 -17.659  -1.520  1.00  0.00    -0.289 OA
ATOM      5  C   UNL     1       2.444 -16.725  -1.953  1.00  0.00     0.107 A 
ATOM      6  C   UNL     1       2.605 -15.615  -1.090  1.00  0.00     0.134 A 
ATOM      7  C   UNL     1       1.574 -14.670  -0.973  1.00  0.00     0.093 A 
ATOM      8  C   UNL     1       0.389 -14.815  -1.704  1.00  0.00     0.123 A 
ATOM      9  C   UNL     1       0.227 -15.908  -2.557  1.00  0.00     0.094 A 
ATOM     10  C   UNL     1       1.241 -16.861  -2.686  1.00  0.00     0.146 A 
ATOM     11  O   UNL     1       1.060 -17.894  -3.504  1.00  0.00    -0.456 OA
ENDROOT
BRANCH   1  12
ATOM     12  C   UNL     1       1.660 -19.957  -4.625  1.00  0.00     0.021 A 
ATOM     13  C   UNL     1       0.441 -20.661  -4.565  1.00  0.00     0.016 A 
ATOM     14  C   UNL     1       0.173 -21.691  -5.469  1.00  0.00     0.051 A 
ATOM     15  C   UNL     1       1.110 -22.033  -6.452  1.00  0.00     0.157 A 
ATOM     16  C   UNL     1       2.589 -20.297  -5.624  1.00  0.00     0.062 A 
ATOM     17  C   UNL     1       2.324 -21.330  -6.529  1.00  0.00     0.158 A 
BRANCH  15  18
ATOM     18  O   UNL     1       0.840 -23.063  -7.351  1.00  0.00    -0.504 OA
ATOM     19  H   UNL     1       0.951 -24.037  -7.092  1.00  0.00     0.293 HD
ENDBRANCH  15  18
BRANCH  17  20
ATOM     20  O   UNL     1       3.276 -21.643  -7.499  1.00  0.00    -0.504 OA
ATOM     21  H   UNL     1       3.663 -22.574  -7.592  1.00  0.00     0.293 HD
ENDBRANCH  17  20
ENDBRANCH   1  12
BRANCH   6  22
ATOM     22  O   UNL     1       3.775 -15.446  -0.350  1.00  0.00    -0.507 OA
ATOM     23  H   UNL     1       4.184 -16.205   0.183  1.00  0.00     0.293 HD
ENDBRANCH   6  22
BRANCH   8  24
ATOM     24  O   UNL     1      -0.634 -13.875  -1.590  1.00  0.00    -0.508 OA
ATOM     25  H   UNL     1      -0.493 -12.905  -1.848  1.00  0.00     0.293 HD
ENDBRANCH   8  24
TORSDOF 5
ENDMDL
MODEL 4
REMARK VINA RESULT:    -6.262      7.468     10.256
REMARK INTER + INTRA:          -7.654
REMARK INTER:                  -7.336
REMARK INTRA:                  -0.318
REMARK UNBOUND:                -0.293
REMARK SMILES O=c1cc(-c2ccc(O)c(O)c2)oc2cc(O)cc(O)c12
REMARK SMILES IDX 4 1 3 2 2 3 1 4 21 5 19 6 18 7 16 8 15 9 14 10 13 11 5 12
REMARK SMILES IDX 6 13 7 14 8 15 12 16 10 17 9 18 11 20 20 22 17 24
REMARK H PARENT 9 19 11 21 20 23 17 25
REMARK Flexibility Score: inf
ROOT
ATOM      1  C   UNL     1      -9.018 -19.430   2.992  1.00  0.00     0.138 A 
ATOM      2  C   UNL     1      -9.253 -20.506   2.121  1.00  0.00     0.100 A 
ATOM      3  C   UNL     1      -9.697 -20.254   0.822  1.00  0.00     0.197 A 
ATOM      4  O   UNL     1      -9.905 -21.226   0.047  1.00  0.00    -0.289 OA
ATOM      5  C   UNL     1      -9.904 -18.925   0.404  1.00  0.00     0.107 A 
ATOM      6  C   UNL     1     -10.351 -18.581  -0.894  1.00  0.00     0.134 A 
ATOM      7  C   UNL     1     -10.538 -17.232  -1.231  1.00  0.00     0.093 A 
ATOM      8  C   UNL     1     -10.289 -16.222  -0.294  1.00  0.00     0.123 A 
ATOM      9  C   UNL     1      -9.850 -16.557   0.989  1.00  0.00     0.094 A 
ATOM     10  C   UNL     1      -9.655 -17.895   1.343  1.00  0.00     0.146 A 
ATOM     11  O   UNL     1      -9.235 -18.187   2.570  1.00  0.00    -0.456 OA
ENDROOT
BRANCH   1  12
ATOM     12  C   UNL     1      -8.549 -19.638   4.386  1.00  0.00     0.021 A 
ATOM     13  C   UNL     1      -8.111 -20.898   4.838  1.00  0.00     0.016 A 
ATOM     14  C   UNL     1      -7.664 -21.062   6.151  1.00  0.00     0.051 A 
ATOM     15  C   UNL     1      -7.639 -19.975   7.033  1.00  0.00     0.157 A 
ATOM     16  C   UNL     1      -8.508 -18.548   5.273  1.00  0.00     0.062 A 
ATOM     17  C   UNL     1      -8.062 -18.711   6.590  1.00  0.00     0.158 A 
BRANCH  15  18
ATOM     18  O   UNL     1      -7.194 -20.144   8.343  1.00  0.00    -0.504 OA
ATOM     19  H   UNL     1      -6.599 -19.459   8.794  1.00  0.00     0.293 HD
ENDBRANCH  15  18
BRANCH  17  20
ATOM     20  O   UNL     1      -8.047 -17.607   7.441  1.00  0.00    -0.504 OA
ATOM     21  H   UNL     1      -7.282 -16.944   7.449  1.00  0.00     0.293 HD
ENDBRANCH  17  20
ENDBRANCH   1  12
BRANCH   6  22
ATOM     22  O   UNL     1     -10.606 -19.566  -1.849  1.00  0.00    -0.507 OA
ATOM     23  H   UNL     1     -11.413 -19.519  -2.461  1.00  0.00     0.293 HD
ENDBRANCH   6  22
BRANCH   8  24
ATOM     24  O   UNL     1     -10.477 -14.882  -0.627  1.00  0.00    -0.508 OA
ATOM     25  H   UNL     1     -10.320 -14.142   0.047  1.00  0.00     0.293 HD
ENDBRANCH   8  24
TORSDOF 5
ENDMDL
MODEL 5
REMARK VINA RESULT:    -6.238     15.505     16.141
REMARK INTER + INTRA:          -7.625
REMARK INTER:                  -7.310
REMARK INTRA:                  -0.315
REMARK UNBOUND:                -0.293
REMARK SMILES O=c1cc(-c2ccc(O)c(O)c2)oc2cc(O)cc(O)c12
REMARK SMILES IDX 4 1 3 2 2 3 1 4 21 5 19 6 18 7 16 8 15 9 14 10 13 11 5 12
REMARK SMILES IDX 6 13 7 14 8 15 12 16 10 17 9 18 11 20 20 22 17 24
REMARK H PARENT 9 19 11 21 20 23 17 25
REMARK Flexibility Score: inf
ROOT
ATOM      1  C   UNL     1       6.280 -25.167   4.711  1.00  0.00     0.138 A 
ATOM      2  C   UNL     1       6.758 -24.200   3.813  1.00  0.00     0.100 A 
ATOM      3  C   UNL     1       7.057 -24.569   2.500  1.00  0.00     0.197 A 
ATOM      4  O   UNL     1       7.487 -23.694   1.701  1.00  0.00    -0.289 OA
ATOM      5  C   UNL     1       6.876 -25.906   2.096  1.00  0.00     0.107 A 
ATOM      6  C   UNL     1       7.152 -26.365   0.786  1.00  0.00     0.134 A 
ATOM      7  C   UNL     1       6.949 -27.716   0.465  1.00  0.00     0.093 A 
ATOM      8  C   UNL     1       6.478 -28.614   1.429  1.00  0.00     0.123 A 
ATOM      9  C   UNL     1       6.205 -28.167   2.723  1.00  0.00     0.094 A 
ATOM     10  C   UNL     1       6.399 -26.825   3.063  1.00  0.00     0.146 A 
ATOM     11  O   UNL     1       6.130 -26.424   4.302  1.00  0.00    -0.456 OA
ENDROOT
BRANCH   1  12
ATOM     12  C   UNL     1       5.949 -24.831   6.119  1.00  0.00     0.021 A 
ATOM     13  C   UNL     1       5.736 -23.502   6.533  1.00  0.00     0.016 A 
ATOM     14  C   UNL     1       5.415 -23.217   7.863  1.00  0.00     0.051 A 
ATOM     15  C   UNL     1       5.294 -24.251   8.799  1.00  0.00     0.157 A 
ATOM     16  C   UNL     1       5.812 -25.865   7.064  1.00  0.00     0.062 A 
ATOM     17  C   UNL     1       5.492 -25.581   8.396  1.00  0.00     0.158 A 
BRANCH  15  18
ATOM     18  O   UNL     1       4.975 -23.962  10.125  1.00  0.00    -0.504 OA
ATOM     19  H   UNL     1       5.633 -23.495  10.740  1.00  0.00     0.293 HD
ENDBRANCH  15  18
BRANCH  17  20
ATOM     20  O   UNL     1       5.375 -26.634   9.303  1.00  0.00    -0.504 OA
ATOM     21  H   UNL     1       5.007 -26.501  10.237  1.00  0.00     0.293 HD
ENDBRANCH  17  20
ENDBRANCH   1  12
BRANCH   6  22
ATOM     22  O   UNL     1       7.622 -25.491  -0.195  1.00  0.00    -0.507 OA
ATOM     23  H   UNL     1       7.037 -25.191  -0.967  1.00  0.00     0.293 HD
ENDBRANCH   6  22
BRANCH   8  24
ATOM     24  O   UNL     1       6.279 -29.957   1.111  1.00  0.00    -0.508 OA
ATOM     25  H   UNL     1       6.479 -30.316   0.185  1.00  0.00     0.293 HD
ENDBRANCH   8  24
TORSDOF 5
ENDMDL
MODEL 6
REMARK VINA RESULT:    -6.202     11.579     13.150
REMARK INTER + INTRA:          -7.583
REMARK INTER:                  -7.317
REMARK INTRA:                  -0.266
REMARK UNBOUND:                -0.293
REMARK SMILES O=c1cc(-c2ccc(O)c(O)c2)oc2cc(O)cc(O)c12
REMARK SMILES IDX 4 1 3 2 2 3 1 4 21 5 19 6 18 7 16 8 15 9 14 10 13 11 5 12
REMARK SMILES IDX 6 13 7 14 8 15 12 16 10 17 9 18 11 20 20 22 17 24
REMARK H PARENT 9 19 11 21 20 23 17 25
REMARK Flexibility Score: inf
ROOT
ATOM      1  C   UNL     1       1.998 -17.758  -4.206  1.00  0.00     0.138 A 
ATOM      2  C   UNL     1       3.097 -17.541  -5.053  1.00  0.00     0.100 A 
ATOM      3  C   UNL     1       3.358 -18.445  -6.084  1.00  0.00     0.197 A 
ATOM      4  O   UNL     1       4.347 -18.243  -6.839  1.00  0.00    -0.289 OA
ATOM      5  C   UNL     1       2.518 -19.562  -6.258  1.00  0.00     0.107 A 
ATOM      6  C   UNL     1       2.709 -20.525  -7.278  1.00  0.00     0.134 A 
ATOM      7  C   UNL     1       1.829 -21.613  -7.381  1.00  0.00     0.093 A 
ATOM      8  C   UNL     1       0.764 -21.756  -6.484  1.00  0.00     0.123 A 
ATOM      9  C   UNL     1       0.572 -20.809  -5.477  1.00  0.00     0.094 A 
ATOM     10  C   UNL     1       1.436 -19.717  -5.358  1.00  0.00     0.146 A 
ATOM     11  O   UNL     1       1.230 -18.828  -4.390  1.00  0.00    -0.456 OA
ENDROOT
BRANCH   1  12
ATOM     12  C   UNL     1       1.674 -16.831  -3.091  1.00  0.00     0.021 A 
ATOM     13  C   UNL     1       0.472 -16.099  -3.064  1.00  0.00     0.016 A 
ATOM     14  C   UNL     1       0.188 -15.243  -1.996  1.00  0.00     0.051 A 
ATOM     15  C   UNL     1       1.094 -15.108  -0.937  1.00  0.00     0.157 A 
ATOM     16  C   UNL     1       2.572 -16.700  -2.016  1.00  0.00     0.062 A 
ATOM     17  C   UNL     1       2.291 -15.842  -0.948  1.00  0.00     0.158 A 
BRANCH  15  18
ATOM     18  O   UNL     1       0.808 -14.251   0.125  1.00  0.00    -0.504 OA
ATOM     19  H   UNL     1       0.443 -14.599   1.004  1.00  0.00     0.293 HD
ENDBRANCH  15  18
BRANCH  17  20
ATOM     20  O   UNL     1       3.212 -15.733   0.094  1.00  0.00    -0.504 OA
ATOM     21  H   UNL     1       3.553 -16.542   0.597  1.00  0.00     0.293 HD
ENDBRANCH  17  20
ENDBRANCH   1  12
BRANCH   6  22
ATOM     22  O   UNL     1       3.762 -20.408  -8.186  1.00  0.00    -0.507 OA
ATOM     23  H   UNL     1       3.654 -20.654  -9.163  1.00  0.00     0.293 HD
ENDBRANCH   6  22
BRANCH   8  24
ATOM     24  O   UNL     1      -0.109 -22.837  -6.585  1.00  0.00    -0.508 OA
ATOM     25  H   UNL     1      -0.705 -22.962  -7.396  1.00  0.00     0.293 HD
ENDBRANCH   8  24
TORSDOF 5
ENDMDL
MODEL 7
REMARK VINA RESULT:    -6.199     15.390     16.898
REMARK INTER + INTRA:          -7.579
REMARK INTER:                  -7.260
REMARK INTRA:                  -0.319
REMARK UNBOUND:                -0.293
REMARK SMILES O=c1cc(-c2ccc(O)c(O)c2)oc2cc(O)cc(O)c12
REMARK SMILES IDX 4 1 3 2 2 3 1 4 21 5 19 6 18 7 16 8 15 9 14 10 13 11 5 12
REMARK SMILES IDX 6 13 7 14 8 15 12 16 10 17 9 18 11 20 20 22 17 24
REMARK H PARENT 9 19 11 21 20 23 17 25
REMARK Flexibility Score: inf
ROOT
ATOM      1  C   UNL     1       6.047 -26.362   3.577  1.00  0.00     0.138 A 
ATOM      2  C   UNL     1       5.538 -26.931   4.756  1.00  0.00     0.100 A 
ATOM      3  C   UNL     1       5.248 -26.109   5.846  1.00  0.00     0.197 A 
ATOM      4  O   UNL     1       4.793 -26.629   6.900  1.00  0.00    -0.289 OA
ATOM      5  C   UNL     1       5.471 -24.721   5.749  1.00  0.00     0.107 A 
ATOM      6  C   UNL     1       5.203 -23.817   6.804  1.00  0.00     0.134 A 
ATOM      7  C   UNL     1       5.458 -22.449   6.629  1.00  0.00     0.093 A 
ATOM      8  C   UNL     1       5.977 -21.969   5.420  1.00  0.00     0.123 A 
ATOM      9  C   UNL     1       6.244 -22.857   4.377  1.00  0.00     0.094 A 
ATOM     10  C   UNL     1       5.995 -24.224   4.530  1.00  0.00     0.146 A 
ATOM     11  O   UNL     1       6.256 -25.049   3.521  1.00  0.00    -0.456 OA
ENDROOT
BRANCH   1  12
ATOM     12  C   UNL     1       6.376 -27.188   2.387  1.00  0.00     0.021 A 
ATOM     13  C   UNL     1       6.187 -28.583   2.380  1.00  0.00     0.016 A 
ATOM     14  C   UNL     1       6.495 -29.334   1.243  1.00  0.00     0.051 A 
ATOM     15  C   UNL     1       6.988 -28.707   0.093  1.00  0.00     0.157 A 
ATOM     16  C   UNL     1       6.859 -26.564   1.223  1.00  0.00     0.062 A 
ATOM     17  C   UNL     1       7.170 -27.314   0.083  1.00  0.00     0.158 A 
BRANCH  15  18
ATOM     18  O   UNL     1       7.296 -29.459  -1.039  1.00  0.00    -0.504 OA
ATOM     19  H   UNL     1       6.657 -30.157  -1.403  1.00  0.00     0.293 HD
ENDBRANCH  15  18
BRANCH  17  20
ATOM     20  O   UNL     1       7.656 -26.658  -1.047  1.00  0.00    -0.504 OA
ATOM     21  H   UNL     1       8.613 -26.337  -1.113  1.00  0.00     0.293 HD
ENDBRANCH  17  20
ENDBRANCH   1  12
BRANCH   6  22
ATOM     22  O   UNL     1       4.686 -24.267   8.019  1.00  0.00    -0.507 OA
ATOM     23  H   UNL     1       5.170 -24.957   8.583  1.00  0.00     0.293 HD
ENDBRANCH   6  22
BRANCH   8  24
ATOM     24  O   UNL     1       6.232 -20.610   5.247  1.00  0.00    -0.508 OA
ATOM     25  H   UNL     1       5.600 -20.016   4.723  1.00  0.00     0.293 HD
ENDBRANCH   8  24
TORSDOF 5
ENDMDL
MODEL 8
REMARK VINA RESULT:    -6.119     12.177     15.083
REMARK INTER + INTRA:          -7.486
REMARK INTER:                  -7.188
REMARK INTRA:                  -0.297
REMARK UNBOUND:                -0.293
REMARK SMILES O=c1cc(-c2ccc(O)c(O)c2)oc2cc(O)cc(O)c12
REMARK SMILES IDX 4 1 3 2 2 3 1 4 21 5 19 6 18 7 16 8 15 9 14 10 13 11 5 12
REMARK SMILES IDX 6 13 7 14 8 15 12 16 10 17 9 18 11 20 20 22 17 24
REMARK H PARENT 9 19 11 21 20 23 17 25
REMARK Flexibility Score: inf
ROOT
ATOM      1  C   UNL     1       2.181 -18.531  -3.632  1.00  0.00     0.138 A 
ATOM      2  C   UNL     1       1.241 -17.547  -3.285  1.00  0.00     0.100 A 
ATOM      3  C   UNL     1       1.625 -16.491  -2.457  1.00  0.00     0.197 A 
ATOM      4  O   UNL     1       0.774 -15.613  -2.151  1.00  0.00    -0.289 OA
ATOM      5  C   UNL     1       2.949 -16.428  -1.980  1.00  0.00     0.107 A 
ATOM      6  C   UNL     1       3.422 -15.393  -1.139  1.00  0.00     0.134 A 
ATOM      7  C   UNL     1       4.755 -15.405  -0.703  1.00  0.00     0.093 A 
ATOM      8  C   UNL     1       5.622 -16.434  -1.090  1.00  0.00     0.123 A 
ATOM      9  C   UNL     1       5.160 -17.458  -1.919  1.00  0.00     0.094 A 
ATOM     10  C   UNL     1       3.836 -17.463  -2.366  1.00  0.00     0.146 A 
ATOM     11  O   UNL     1       3.421 -18.449  -3.156  1.00  0.00    -0.456 OA
ENDROOT
BRANCH   1  12
ATOM     12  C   UNL     1       1.827 -19.678  -4.506  1.00  0.00     0.021 A 
ATOM     13  C   UNL     1       0.588 -20.338  -4.396  1.00  0.00     0.016 A 
ATOM     14  C   UNL     1       0.278 -21.407  -5.240  1.00  0.00     0.051 A 
ATOM     15  C   UNL     1       1.193 -21.832  -6.211  1.00  0.00     0.157 A 
ATOM     16  C   UNL     1       2.735 -20.102  -5.494  1.00  0.00     0.062 A 
ATOM     17  C   UNL     1       2.427 -21.174  -6.339  1.00  0.00     0.158 A 
BRANCH  15  18
ATOM     18  O   UNL     1       0.880 -22.900  -7.050  1.00  0.00    -0.504 OA
ATOM     19  H   UNL     1       0.339 -22.770  -7.897  1.00  0.00     0.293 HD
ENDBRANCH  15  18
BRANCH  17  20
ATOM     20  O   UNL     1       3.358 -21.569  -7.298  1.00  0.00    -0.504 OA
ATOM     21  H   UNL     1       3.105 -21.712  -8.268  1.00  0.00     0.293 HD
ENDBRANCH  17  20
ENDBRANCH   1  12
BRANCH   6  22
ATOM     22  O   UNL     1       2.580 -14.355  -0.737  1.00  0.00    -0.507 OA
ATOM     23  H   UNL     1       2.553 -14.031   0.223  1.00  0.00     0.293 HD
ENDBRANCH   6  22
BRANCH   8  24
ATOM     24  O   UNL     1       6.946 -16.448  -0.655  1.00  0.00    -0.508 OA
ATOM     25  H   UNL     1       7.325 -17.234  -0.139  1.00  0.00     0.293 HD
ENDBRANCH   8  24
TORSDOF 5
ENDMDL
MODEL 9
REMARK VINA RESULT:    -5.453     11.708     13.531
REMARK INTER + INTRA:          -6.703
REMARK INTER:                  -6.432
REMARK INTRA:                  -0.271
REMARK UNBOUND:                -0.293
REMARK SMILES O=c1cc(-c2ccc(O)c(O)c2)oc2cc(O)cc(O)c12
REMARK SMILES IDX 4 1 3 2 2 3 1 4 21 5 19 6 18 7 16 8 15 9 14 10 13 11 5 12
REMARK SMILES IDX 6 13 7 14 8 15 12 16 10 17 9 18 11 20 20 22 17 24
REMARK H PARENT 9 19 11 21 20 23 17 25
REMARK Flexibility Score: inf
ROOT
ATOM      1  C   UNL     1       1.636 -18.088  -3.902  1.00  0.00     0.138 A 
ATOM      2  C   UNL     1       0.791 -19.208  -3.927  1.00  0.00     0.100 A 
ATOM      3  C   UNL     1       1.020 -20.222  -4.858  1.00  0.00     0.197 A 
ATOM      4  O   UNL     1       0.255 -21.224  -4.873  1.00  0.00    -0.289 OA
ATOM      5  C   UNL     1       2.095 -20.105  -5.761  1.00  0.00     0.107 A 
ATOM      6  C   UNL     1       2.399 -21.086  -6.735  1.00  0.00     0.134 A 
ATOM      7  C   UNL     1       3.485 -20.893  -7.602  1.00  0.00     0.093 A 
ATOM      8  C   UNL     1       4.270 -19.737  -7.513  1.00  0.00     0.123 A 
ATOM      9  C   UNL     1       3.974 -18.766  -6.555  1.00  0.00     0.094 A 
ATOM     10  C   UNL     1       2.897 -18.941  -5.680  1.00  0.00     0.146 A 
ATOM     11  O   UNL     1       2.636 -18.003  -4.776  1.00  0.00    -0.456 OA
ENDROOT
BRANCH   1  12
ATOM     12  C   UNL     1       1.438 -16.978  -2.935  1.00  0.00     0.021 A 
ATOM     13  C   UNL     1       0.311 -16.136  -2.996  1.00  0.00     0.016 A 
ATOM     14  C   UNL     1       0.145 -15.107  -2.066  1.00  0.00     0.051 A 
ATOM     15  C   UNL     1       1.093 -14.904  -1.057  1.00  0.00     0.157 A 
ATOM     16  C   UNL     1       2.379 -16.776  -1.910  1.00  0.00     0.062 A 
ATOM     17  C   UNL     1       2.215 -15.745  -0.978  1.00  0.00     0.158 A 
BRANCH  15  18
ATOM     18  O   UNL     1       0.924 -13.875  -0.132  1.00  0.00    -0.504 OA
ATOM     19  H   UNL     1       0.101 -13.820   0.457  1.00  0.00     0.293 HD
ENDBRANCH  15  18
BRANCH  17  20
ATOM     20  O   UNL     1       3.176 -15.572   0.017  1.00  0.00    -0.504 OA
ATOM     21  H   UNL     1       3.484 -14.655   0.315  1.00  0.00     0.293 HD
ENDBRANCH  17  20
ENDBRANCH   1  12
BRANCH   6  22
ATOM     22  O   UNL     1       1.634 -22.248  -6.846  1.00  0.00    -0.507 OA
ATOM     23  H   UNL     1       2.057 -23.169  -6.829  1.00  0.00     0.293 HD
ENDBRANCH   6  22
BRANCH   8  24
ATOM     24  O   UNL     1       5.348 -19.543  -8.375  1.00  0.00    -0.508 OA
ATOM     25  H   UNL     1       6.231 -20.021  -8.234  1.00  0.00     0.293 HD
ENDBRANCH   8  24
TORSDOF 5
ENDMDL
