MODEL 1
REMARK VINA RESULT:    -4.014      0.000      0.000
REMARK INTER + INTRA:          -7.206
REMARK INTER:                  -6.125
REMARK INTRA:                  -1.080
REMARK UNBOUND:                -1.080
REMARK SMILES CCCCCCCCCCC(=O)[O-]
REMARK SMILES IDX 7 1 8 2 9 3 10 4 11 5 12 6 13 7 6 8 5 9 4 10 3 11 2 12 1 13
REMARK H PARENT
REMARK Flexibility Score: inf
ROOT
ATOM      1  C   UNL     1       6.843  34.040  70.913  1.00  0.00     0.000 C 
ENDROOT
BRANCH   1   2
ATOM      2  C   UNL     1       5.310  34.087  70.931  1.00  0.00     0.000 C 
BRANCH   2   3
ATOM      3  C   UNL     1       4.799  35.497  70.610  1.00  0.00     0.006 C 
BRANCH   3   4
ATOM      4  C   UNL     1       3.456  35.764  71.298  1.00  0.00     0.053 C 
BRANCH   4   5
ATOM      5  C   UNL     1       2.332  35.630  70.321  1.00  0.00     0.041 C 
ATOM      6  O   UNL     1       2.068  36.569  69.525  1.00  0.00    -0.550 OA
ATOM      7  O   UNL     1       1.604  34.448  70.255  1.00  0.00    -0.550 OA
ENDBRANCH   4   5
ENDBRANCH   3   4
ENDBRANCH   2   3
ENDBRANCH   1   2
BRANCH   1   8
ATOM      8  C   UNL     1       7.347  32.675  70.432  1.00  0.00     0.000 C 
BRANCH   8   9
ATOM      9  C   UNL     1       7.558  32.673  68.910  1.00  0.00    -0.000 C 
BRANCH   9  10
ATOM     10  C   UNL     1       7.815  34.078  68.344  1.00  0.00    -0.000 C 
BRANCH  10  11
ATOM     11  C   UNL     1       6.841  34.448  67.213  1.00  0.00    -0.000 C 
BRANCH  11  12
ATOM     12  C   UNL     1       5.783  33.360  66.968  1.00  0.00    -0.003 C 
ATOM     13  C   UNL     1       4.369  33.815  67.329  1.00  0.00     0.004 C 
ENDBRANCH  11  12
ENDBRANCH  10  11
ENDBRANCH   9  10
ENDBRANCH   8   9
ENDBRANCH   1   8
TORSDOF 9
ENDMDL
MODEL 2
REMARK VINA RESULT:    -3.978      2.678      4.734
REMARK INTER + INTRA:          -7.152
REMARK INTER:                  -6.210
REMARK INTRA:                  -0.942
REMARK UNBOUND:                -1.080
REMARK SMILES CCCCCCCCCCC(=O)[O-]
REMARK SMILES IDX 7 1 8 2 9 3 10 4 11 5 12 6 13 7 6 8 5 9 4 10 3 11 2 12 1 13
REMARK H PARENT
REMARK Flexibility Score: inf
ROOT
ATOM      1  C   UNL     1       6.724  31.534  70.018  1.00  0.00     0.000 C 
ENDROOT
BRANCH   1   2
ATOM      2  C   UNL     1       7.772  30.917  69.084  1.00  0.00     0.000 C 
BRANCH   2   3
ATOM      3  C   UNL     1       8.290  31.953  68.078  1.00  0.00     0.006 C 
BRANCH   3   4
ATOM      4  C   UNL     1       7.131  32.643  67.355  1.00  0.00     0.053 C 
BRANCH   4   5
ATOM      5  C   UNL     1       7.308  34.128  67.379  1.00  0.00     0.041 C 
ATOM      6  O   UNL     1       6.707  34.853  66.543  1.00  0.00    -0.550 OA
ATOM      7  O   UNL     1       8.100  34.718  68.358  1.00  0.00    -0.550 OA
ENDBRANCH   4   5
ENDBRANCH   3   4
ENDBRANCH   2   3
ENDBRANCH   1   2
BRANCH   1   8
ATOM      8  C   UNL     1       7.384  32.142  71.261  1.00  0.00     0.000 C 
BRANCH   8   9
ATOM      9  C   UNL     1       6.887  33.577  71.500  1.00  0.00    -0.000 C 
BRANCH   9  10
ATOM     10  C   UNL     1       5.576  33.883  70.760  1.00  0.00    -0.000 C 
BRANCH  10  11
ATOM     11  C   UNL     1       5.435  35.371  70.397  1.00  0.00    -0.000 C 
BRANCH  11  12
ATOM     12  C   UNL     1       3.989  35.876  70.529  1.00  0.00    -0.003 C 
ATOM     13  C   UNL     1       3.377  35.568  71.895  1.00  0.00     0.004 C 
ENDBRANCH  11  12
ENDBRANCH  10  11
ENDBRANCH   9  10
ENDBRANCH   8   9
ENDBRANCH   1   8
TORSDOF 9
ENDMDL
MODEL 3
REMARK VINA RESULT:    -3.920      1.010      1.603
REMARK INTER + INTRA:          -7.063
REMARK INTER:                  -5.677
REMARK INTRA:                  -1.387
REMARK UNBOUND:                -1.080
REMARK SMILES CCCCCCCCCCC(=O)[O-]
REMARK SMILES IDX 7 1 8 2 9 3 10 4 11 5 12 6 13 7 6 8 5 9 4 10 3 11 2 12 1 13
REMARK H PARENT
REMARK Flexibility Score: inf
ROOT
ATOM      1  C   UNL     1       7.294  33.629  69.981  1.00  0.00     0.000 C 
ENDROOT
BRANCH   1   2
ATOM      2  C   UNL     1       6.178  34.051  70.945  1.00  0.00     0.000 C 
BRANCH   2   3
ATOM      3  C   UNL     1       5.360  35.213  70.366  1.00  0.00     0.006 C 
BRANCH   3   4
ATOM      4  C   UNL     1       4.159  35.538  71.259  1.00  0.00     0.053 C 
BRANCH   4   5
ATOM      5  C   UNL     1       2.881  35.189  70.565  1.00  0.00     0.041 C 
ATOM      6  O   UNL     1       2.486  35.871  69.583  1.00  0.00    -0.550 OA
ATOM      7  O   UNL     1       2.149  34.080  70.971  1.00  0.00    -0.550 OA
ENDBRANCH   4   5
ENDBRANCH   3   4
ENDBRANCH   2   3
ENDBRANCH   1   2
BRANCH   1   8
ATOM      8  C   UNL     1       7.399  34.603  68.802  1.00  0.00     0.000 C 
BRANCH   8   9
ATOM      9  C   UNL     1       7.500  33.842  67.470  1.00  0.00    -0.000 C 
BRANCH   9  10
ATOM     10  C   UNL     1       6.297  32.921  67.219  1.00  0.00    -0.000 C 
BRANCH  10  11
ATOM     11  C   UNL     1       5.006  33.702  66.918  1.00  0.00    -0.000 C 
BRANCH  11  12
ATOM     12  C   UNL     1       3.783  33.124  67.649  1.00  0.00    -0.003 C 
ATOM     13  C   UNL     1       4.151  32.016  68.635  1.00  0.00     0.004 C 
ENDBRANCH  11  12
ENDBRANCH  10  11
ENDBRANCH   9  10
ENDBRANCH   8   9
ENDBRANCH   1   8
TORSDOF 9
ENDMDL
MODEL 4
REMARK VINA RESULT:    -3.892      1.474      2.667
REMARK INTER + INTRA:          -7.020
REMARK INTER:                  -6.293
REMARK INTRA:                  -0.727
REMARK UNBOUND:                -1.080
REMARK SMILES CCCCCCCCCCC(=O)[O-]
REMARK SMILES IDX 7 1 8 2 9 3 10 4 11 5 12 6 13 7 6 8 5 9 4 10 3 11 2 12 1 13
REMARK H PARENT
REMARK Flexibility Score: inf
ROOT
ATOM      1  C   UNL     1       7.180  33.811  69.834  1.00  0.00     0.000 C 
ENDROOT
BRANCH   1   2
ATOM      2  C   UNL     1       6.226  34.399  70.881  1.00  0.00     0.000 C 
BRANCH   2   3
ATOM      3  C   UNL     1       5.371  35.521  70.277  1.00  0.00     0.006 C 
BRANCH   3   4
ATOM      4  C   UNL     1       4.049  35.672  71.034  1.00  0.00     0.053 C 
BRANCH   4   5
ATOM      5  C   UNL     1       2.891  35.428  70.119  1.00  0.00     0.041 C 
ATOM      6  O   UNL     1       2.526  34.252  69.857  1.00  0.00    -0.550 OA
ATOM      7  O   UNL     1       2.182  36.502  69.594  1.00  0.00    -0.550 OA
ENDBRANCH   4   5
ENDBRANCH   3   4
ENDBRANCH   2   3
ENDBRANCH   1   2
BRANCH   1   8
ATOM      8  C   UNL     1       7.437  34.809  68.700  1.00  0.00     0.000 C 
BRANCH   8   9
ATOM      9  C   UNL     1       7.262  34.138  67.328  1.00  0.00    -0.000 C 
BRANCH   9  10
ATOM     10  C   UNL     1       6.783  32.682  67.436  1.00  0.00    -0.000 C 
BRANCH  10  11
ATOM     11  C   UNL     1       7.793  31.682  66.847  1.00  0.00    -0.000 C 
BRANCH  11  12
ATOM     12  C   UNL     1       9.005  31.459  67.766  1.00  0.00    -0.003 C 
ATOM     13  C   UNL     1      10.312  31.965  67.156  1.00  0.00     0.004 C 
ENDBRANCH  11  12
ENDBRANCH  10  11
ENDBRANCH   9  10
ENDBRANCH   8   9
ENDBRANCH   1   8
TORSDOF 9
ENDMDL
MODEL 5
REMARK VINA RESULT:    -3.876     10.522     11.841
REMARK INTER + INTRA:          -6.995
REMARK INTER:                  -6.357
REMARK INTRA:                  -0.638
REMARK UNBOUND:                -1.080
REMARK SMILES CCCCCCCCCCC(=O)[O-]
REMARK SMILES IDX 7 1 8 2 9 3 10 4 11 5 12 6 13 7 6 8 5 9 4 10 3 11 2 12 1 13
REMARK H PARENT
REMARK Flexibility Score: inf
ROOT
ATOM      1  C   UNL     1       3.245  44.849  67.084  1.00  0.00     0.000 C 
ENDROOT
BRANCH   1   2
ATOM      2  C   UNL     1       2.923  43.473  67.678  1.00  0.00     0.000 C 
BRANCH   2   3
ATOM      3  C   UNL     1       2.494  43.593  69.147  1.00  0.00     0.006 C 
BRANCH   3   4
ATOM      4  C   UNL     1       3.570  43.031  70.080  1.00  0.00     0.053 C 
BRANCH   4   5
ATOM      5  C   UNL     1       4.104  44.106  70.972  1.00  0.00     0.041 C 
ATOM      6  O   UNL     1       3.611  44.284  72.117  1.00  0.00    -0.550 OA
ATOM      7  O   UNL     1       5.180  44.883  70.558  1.00  0.00    -0.550 OA
ENDBRANCH   4   5
ENDBRANCH   3   4
ENDBRANCH   2   3
ENDBRANCH   1   2
BRANCH   1   8
ATOM      8  C   UNL     1       3.539  44.745  65.583  1.00  0.00     0.000 C 
BRANCH   8   9
ATOM      9  C   UNL     1       3.179  46.054  64.861  1.00  0.00    -0.000 C 
BRANCH   9  10
ATOM     10  C   UNL     1       4.351  46.627  64.051  1.00  0.00    -0.000 C 
BRANCH  10  11
ATOM     11  C   UNL     1       4.935  47.905  64.679  1.00  0.00    -0.000 C 
BRANCH  11  12
ATOM     12  C   UNL     1       5.983  47.603  65.763  1.00  0.00    -0.003 C 
ATOM     13  C   UNL     1       5.469  47.875  67.176  1.00  0.00     0.004 C 
ENDBRANCH  11  12
ENDBRANCH  10  11
ENDBRANCH   9  10
ENDBRANCH   8   9
ENDBRANCH   1   8
TORSDOF 9
ENDMDL
MODEL 6
REMARK VINA RESULT:    -3.847     10.482     12.289
REMARK INTER + INTRA:          -6.951
REMARK INTER:                  -6.410
REMARK INTRA:                  -0.540
REMARK UNBOUND:                -1.080
REMARK SMILES CCCCCCCCCCC(=O)[O-]
REMARK SMILES IDX 7 1 8 2 9 3 10 4 11 5 12 6 13 7 6 8 5 9 4 10 3 11 2 12 1 13
REMARK H PARENT
REMARK Flexibility Score: inf
ROOT
ATOM      1  C   UNL     1       3.355  43.664  65.861  1.00  0.00     0.000 C 
ENDROOT
BRANCH   1   2
ATOM      2  C   UNL     1       3.410  44.443  64.540  1.00  0.00     0.000 C 
BRANCH   2   3
ATOM      3  C   UNL     1       3.336  45.955  64.789  1.00  0.00     0.006 C 
BRANCH   3   4
ATOM      4  C   UNL     1       4.439  46.692  64.024  1.00  0.00     0.053 C 
BRANCH   4   5
ATOM      5  C   UNL     1       5.121  47.682  64.913  1.00  0.00     0.041 C 
ATOM      6  O   UNL     1       5.439  48.817  64.472  1.00  0.00    -0.550 OA
ATOM      7  O   UNL     1       5.365  47.368  66.246  1.00  0.00    -0.550 OA
ENDBRANCH   4   5
ENDBRANCH   3   4
ENDBRANCH   2   3
ENDBRANCH   1   2
BRANCH   1   8
ATOM      8  C   UNL     1       3.261  44.618  67.058  1.00  0.00     0.000 C 
BRANCH   8   9
ATOM      9  C   UNL     1       2.316  44.058  68.133  1.00  0.00    -0.000 C 
BRANCH   9  10
ATOM     10  C   UNL     1       3.022  43.095  69.101  1.00  0.00    -0.000 C 
BRANCH  10  11
ATOM     11  C   UNL     1       2.447  43.163  70.526  1.00  0.00    -0.000 C 
BRANCH  11  12
ATOM     12  C   UNL     1       3.465  43.698  71.547  1.00  0.00    -0.003 C 
ATOM     13  C   UNL     1       4.683  44.344  70.886  1.00  0.00     0.004 C 
ENDBRANCH  11  12
ENDBRANCH  10  11
ENDBRANCH   9  10
ENDBRANCH   8   9
ENDBRANCH   1   8
TORSDOF 9
ENDMDL
MODEL 7
REMARK VINA RESULT:    -3.822      2.706      4.690
REMARK INTER + INTRA:          -6.914
REMARK INTER:                  -5.765
REMARK INTRA:                  -1.149
REMARK UNBOUND:                -1.080
REMARK SMILES CCCCCCCCCCC(=O)[O-]
REMARK SMILES IDX 7 1 8 2 9 3 10 4 11 5 12 6 13 7 6 8 5 9 4 10 3 11 2 12 1 13
REMARK H PARENT
REMARK Flexibility Score: inf
ROOT
ATOM      1  C   UNL     1       4.710  34.876  71.073  1.00  0.00     0.000 C 
ENDROOT
BRANCH   1   2
ATOM      2  C   UNL     1       5.870  35.456  70.255  1.00  0.00     0.000 C 
BRANCH   2   3
ATOM      3  C   UNL     1       6.870  34.360  69.865  1.00  0.00     0.006 C 
BRANCH   3   4
ATOM      4  C   UNL     1       7.711  34.787  68.659  1.00  0.00     0.053 C 
BRANCH   4   5
ATOM      5  C   UNL     1       7.222  34.116  67.415  1.00  0.00     0.041 C 
ATOM      6  O   UNL     1       6.684  34.791  66.499  1.00  0.00    -0.550 OA
ATOM      7  O   UNL     1       7.405  32.748  67.245  1.00  0.00    -0.550 OA
ENDBRANCH   4   5
ENDBRANCH   3   4
ENDBRANCH   2   3
ENDBRANCH   1   2
BRANCH   1   8
ATOM      8  C   UNL     1       3.525  35.848  71.114  1.00  0.00     0.000 C 
BRANCH   8   9
ATOM      9  C   UNL     1       2.258  35.194  70.541  1.00  0.00    -0.000 C 
BRANCH   9  10
ATOM     10  C   UNL     1       1.988  35.598  69.083  1.00  0.00    -0.000 C 
BRANCH  10  11
ATOM     11  C   UNL     1       2.025  34.399  68.120  1.00  0.00    -0.000 C 
BRANCH  11  12
ATOM     12  C   UNL     1       3.458  34.003  67.728  1.00  0.00    -0.003 C 
ATOM     13  C   UNL     1       3.847  32.612  68.229  1.00  0.00     0.004 C 
ENDBRANCH  11  12
ENDBRANCH  10  11
ENDBRANCH   9  10
ENDBRANCH   8   9
ENDBRANCH   1   8
TORSDOF 9
ENDMDL
MODEL 8
REMARK VINA RESULT:    -3.806      3.833      4.782
REMARK INTER + INTRA:          -6.888
REMARK INTER:                  -5.737
REMARK INTRA:                  -1.152
REMARK UNBOUND:                -1.080
REMARK SMILES CCCCCCCCCCC(=O)[O-]
REMARK SMILES IDX 7 1 8 2 9 3 10 4 11 5 12 6 13 7 6 8 5 9 4 10 3 11 2 12 1 13
REMARK H PARENT
REMARK Flexibility Score: inf
ROOT
ATOM      1  C   UNL     1       5.343  33.141  70.568  1.00  0.00     0.000 C 
ENDROOT
BRANCH   1   2
ATOM      2  C   UNL     1       6.064  31.794  70.447  1.00  0.00     0.000 C 
BRANCH   2   3
ATOM      3  C   UNL     1       7.358  31.786  71.272  1.00  0.00     0.006 C 
BRANCH   3   4
ATOM      4  C   UNL     1       7.345  32.898  72.324  1.00  0.00     0.053 C 
BRANCH   4   5
ATOM      5  C   UNL     1       8.072  32.461  73.556  1.00  0.00     0.041 C 
ATOM      6  O   UNL     1       8.085  31.247  73.889  1.00  0.00    -0.550 OA
ATOM      7  O   UNL     1       8.777  33.390  74.314  1.00  0.00    -0.550 OA
ENDBRANCH   4   5
ENDBRANCH   3   4
ENDBRANCH   2   3
ENDBRANCH   1   2
BRANCH   1   8
ATOM      8  C   UNL     1       5.481  33.957  69.277  1.00  0.00     0.000 C 
BRANCH   8   9
ATOM      9  C   UNL     1       6.598  35.006  69.407  1.00  0.00    -0.000 C 
BRANCH   9  10
ATOM     10  C   UNL     1       7.759  34.760  68.431  1.00  0.00    -0.000 C 
BRANCH  10  11
ATOM     11  C   UNL     1       7.369  33.829  67.270  1.00  0.00    -0.000 C 
BRANCH  11  12
ATOM     12  C   UNL     1       8.247  32.569  67.205  1.00  0.00    -0.003 C 
ATOM     13  C   UNL     1       7.438  31.295  66.966  1.00  0.00     0.004 C 
ENDBRANCH  11  12
ENDBRANCH  10  11
ENDBRANCH   9  10
ENDBRANCH   8   9
ENDBRANCH   1   8
TORSDOF 9
ENDMDL
MODEL 9
REMARK VINA RESULT:    -3.764      1.332      2.990
REMARK INTER + INTRA:          -6.824
REMARK INTER:                  -5.522
REMARK INTRA:                  -1.302
REMARK UNBOUND:                -1.080
REMARK SMILES CCCCCCCCCCC(=O)[O-]
REMARK SMILES IDX 7 1 8 2 9 3 10 4 11 5 12 6 13 7 6 8 5 9 4 10 3 11 2 12 1 13
REMARK H PARENT
REMARK Flexibility Score: inf
ROOT
ATOM      1  C   UNL     1       4.413  33.414  67.602  1.00  0.00     0.000 C 
ENDROOT
BRANCH   1   2
ATOM      2  C   UNL     1       4.067  32.500  68.783  1.00  0.00     0.000 C 
BRANCH   2   3
ATOM      3  C   UNL     1       3.561  33.315  69.980  1.00  0.00     0.006 C 
BRANCH   3   4
ATOM      4  C   UNL     1       3.860  34.805  69.795  1.00  0.00     0.053 C 
BRANCH   4   5
ATOM      5  C   UNL     1       3.057  35.624  70.756  1.00  0.00     0.041 C 
ATOM      6  O   UNL     1       3.450  35.776  71.942  1.00  0.00    -0.550 OA
ATOM      7  O   UNL     1       1.897  36.259  70.328  1.00  0.00    -0.550 OA
ENDBRANCH   4   5
ENDBRANCH   3   4
ENDBRANCH   2   3
ENDBRANCH   1   2
BRANCH   1   8
ATOM      8  C   UNL     1       5.832  33.140  67.091  1.00  0.00     0.000 C 
BRANCH   8   9
ATOM      9  C   UNL     1       6.651  34.439  67.022  1.00  0.00    -0.000 C 
BRANCH   9  10
ATOM     10  C   UNL     1       7.365  34.762  68.343  1.00  0.00    -0.000 C 
BRANCH  10  11
ATOM     11  C   UNL     1       7.701  33.500  69.158  1.00  0.00    -0.000 C 
BRANCH  11  12
ATOM     12  C   UNL     1       7.285  33.623  70.632  1.00  0.00    -0.003 C 
ATOM     13  C   UNL     1       6.980  32.271  71.276  1.00  0.00     0.004 C 
ENDBRANCH  11  12
ENDBRANCH  10  11
ENDBRANCH   9  10
ENDBRANCH   8   9
ENDBRANCH   1   8
TORSDOF 9
ENDMDL
