MODEL 1
REMARK VINA RESULT:    -4.551      0.000      0.000
REMARK INTER + INTRA:         -10.467
REMARK INTER:                  -8.541
REMARK INTRA:                  -1.925
REMARK UNBOUND:                -1.925
REMARK SMILES O=C([O-])CCCCCCCCCCCCCCC(=O)[O-]
REMARK SMILES IDX 10 1 9 2 8 3 7 4 6 5 5 6 4 7 2 8 1 9 3 10 11 11 12 12 13 13
REMARK SMILES IDX 14 14 15 15 16 16 17 17 18 18 19 19 20 20
REMARK H PARENT
REMARK Flexibility Score: inf
ROOT
ATOM      1  C   UNL     1      32.128   9.065  49.929  1.00  0.00     0.000 C 
ENDROOT
BRANCH   1   2
ATOM      2  C   UNL     1      33.122  10.128  49.434  1.00  0.00     0.000 C 
BRANCH   2   3
ATOM      3  C   UNL     1      34.578   9.631  49.453  1.00  0.00     0.000 C 
BRANCH   3   4
ATOM      4  C   UNL     1      35.570  10.705  48.959  1.00  0.00     0.000 C 
BRANCH   4   5
ATOM      5  C   UNL     1      35.007  11.600  47.838  1.00  0.00     0.000 C 
BRANCH   5   6
ATOM      6  C   UNL     1      35.583  11.325  46.436  1.00  0.00     0.006 C 
BRANCH   6   7
ATOM      7  C   UNL     1      34.769  10.321  45.604  1.00  0.00     0.053 C 
BRANCH   7   8
ATOM      8  C   UNL     1      34.377  10.884  44.273  1.00  0.00     0.041 C 
ATOM      9  O   UNL     1      34.028  10.116  43.338  1.00  0.00    -0.550 OA
ATOM     10  O   UNL     1      34.430  12.255  44.054  1.00  0.00    -0.550 OA
ENDBRANCH   7   8
ENDBRANCH   6   7
ENDBRANCH   5   6
ENDBRANCH   4   5
ENDBRANCH   3   4
ENDBRANCH   2   3
ENDBRANCH   1   2
BRANCH   1  11
ATOM     11  C   UNL     1      30.986   8.815  48.931  1.00  0.00     0.000 C 
BRANCH  11  12
ATOM     12  C   UNL     1      29.904   7.872  49.486  1.00  0.00     0.000 C 
BRANCH  12  13
ATOM     13  C   UNL     1      29.733   6.579  48.661  1.00  0.00     0.000 C 
BRANCH  13  14
ATOM     14  C   UNL     1      30.849   6.402  47.616  1.00  0.00     0.000 C 
BRANCH  14  15
ATOM     15  C   UNL     1      31.956   5.439  48.078  1.00  0.00     0.000 C 
BRANCH  15  16
ATOM     16  C   UNL     1      33.383   6.014  48.018  1.00  0.00     0.006 C 
BRANCH  16  17
ATOM     17  C   UNL     1      33.552   7.076  46.925  1.00  0.00     0.053 C 
BRANCH  17  18
ATOM     18  C   UNL     1      34.073   6.454  45.668  1.00  0.00     0.041 C 
ATOM     19  O   UNL     1      33.864   7.005  44.555  1.00  0.00    -0.550 OA
ATOM     20  O   UNL     1      34.832   5.292  45.730  1.00  0.00    -0.550 OA
ENDBRANCH  17  18
ENDBRANCH  16  17
ENDBRANCH  15  16
ENDBRANCH  14  15
ENDBRANCH  13  14
ENDBRANCH  12  13
ENDBRANCH  11  12
ENDBRANCH   1  11
TORSDOF 15
ENDMDL
MODEL 2
REMARK VINA RESULT:    -4.267      1.058      5.245
REMARK INTER + INTRA:          -9.933
REMARK INTER:                  -8.304
REMARK INTRA:                  -1.630
REMARK UNBOUND:                -1.925
REMARK SMILES O=C([O-])CCCCCCCCCCCCCCC(=O)[O-]
REMARK SMILES IDX 10 1 9 2 8 3 7 4 6 5 5 6 4 7 2 8 1 9 3 10 11 11 12 12 13 13
REMARK SMILES IDX 14 14 15 15 16 16 17 17 18 18 19 19 20 20
REMARK H PARENT
REMARK Flexibility Score: inf
ROOT
ATOM      1  C   UNL     1      31.254   8.865  48.579  1.00  0.00     0.000 C 
ENDROOT
BRANCH   1   2
ATOM      2  C   UNL     1      30.255   7.873  49.196  1.00  0.00     0.000 C 
BRANCH   2   3
ATOM      3  C   UNL     1      30.068   6.610  48.337  1.00  0.00     0.000 C 
BRANCH   3   4
ATOM      4  C   UNL     1      31.294   6.325  47.443  1.00  0.00     0.000 C 
BRANCH   4   5
ATOM      5  C   UNL     1      32.360   5.440  48.116  1.00  0.00     0.000 C 
BRANCH   5   6
ATOM      6  C   UNL     1      33.799   5.986  48.042  1.00  0.00     0.006 C 
BRANCH   6   7
ATOM      7  C   UNL     1      34.829   4.980  47.501  1.00  0.00     0.053 C 
BRANCH   7   8
ATOM      8  C   UNL     1      34.909   5.011  46.005  1.00  0.00     0.041 C 
ATOM      9  O   UNL     1      35.422   4.047  45.379  1.00  0.00    -0.550 OA
ATOM     10  O   UNL     1      34.447   6.119  45.306  1.00  0.00    -0.550 OA
ENDBRANCH   7   8
ENDBRANCH   6   7
ENDBRANCH   5   6
ENDBRANCH   4   5
ENDBRANCH   3   4
ENDBRANCH   2   3
ENDBRANCH   1   2
BRANCH   1  11
ATOM     11  C   UNL     1      32.094   9.593  49.640  1.00  0.00     0.000 C 
BRANCH  11  12
ATOM     12  C   UNL     1      32.123  11.118  49.438  1.00  0.00     0.000 C 
BRANCH  12  13
ATOM     13  C   UNL     1      33.543  11.719  49.489  1.00  0.00     0.000 C 
BRANCH  13  14
ATOM     14  C   UNL     1      34.628  10.639  49.644  1.00  0.00     0.000 C 
BRANCH  14  15
ATOM     15  C   UNL     1      35.500  10.479  48.386  1.00  0.00     0.000 C 
BRANCH  15  16
ATOM     16  C   UNL     1      34.865  11.003  47.086  1.00  0.00     0.006 C 
BRANCH  16  17
ATOM     17  C   UNL     1      34.324   9.880  46.192  1.00  0.00     0.053 C 
BRANCH  17  18
ATOM     18  C   UNL     1      34.639  10.157  44.756  1.00  0.00     0.041 C 
ATOM     19  O   UNL     1      35.012   9.224  43.997  1.00  0.00    -0.550 OA
ATOM     20  O   UNL     1      34.473  11.437  44.242  1.00  0.00    -0.550 OA
ENDBRANCH  17  18
ENDBRANCH  16  17
ENDBRANCH  15  16
ENDBRANCH  14  15
ENDBRANCH  13  14
ENDBRANCH  12  13
ENDBRANCH  11  12
ENDBRANCH   1  11
TORSDOF 15
ENDMDL
MODEL 3
REMARK VINA RESULT:    -4.258      2.659      5.672
REMARK INTER + INTRA:          -9.918
REMARK INTER:                  -8.415
REMARK INTRA:                  -1.502
REMARK UNBOUND:                -1.925
REMARK SMILES O=C([O-])CCCCCCCCCCCCCCC(=O)[O-]
REMARK SMILES IDX 10 1 9 2 8 3 7 4 6 5 5 6 4 7 2 8 1 9 3 10 11 11 12 12 13 13
REMARK SMILES IDX 14 14 15 15 16 16 17 17 18 18 19 19 20 20
REMARK H PARENT
REMARK Flexibility Score: inf
ROOT
ATOM      1  C   UNL     1      34.963  10.727  47.355  1.00  0.00     0.000 C 
ENDROOT
BRANCH   1   2
ATOM      2  C   UNL     1      33.487  10.301  47.402  1.00  0.00     0.000 C 
BRANCH   2   3
ATOM      3  C   UNL     1      33.127   9.560  48.702  1.00  0.00     0.000 C 
BRANCH   3   4
ATOM      4  C   UNL     1      31.601   9.404  48.882  1.00  0.00     0.000 C 
BRANCH   4   5
ATOM      5  C   UNL     1      31.206   8.458  50.032  1.00  0.00     0.000 C 
BRANCH   5   6
ATOM      6  C   UNL     1      29.740   7.986  50.011  1.00  0.00     0.006 C 
BRANCH   6   7
ATOM      7  C   UNL     1      29.568   6.462  49.901  1.00  0.00     0.053 C 
BRANCH   7   8
ATOM      8  C   UNL     1      29.372   6.023  48.482  1.00  0.00     0.041 C 
ATOM      9  O   UNL     1      30.280   6.211  47.630  1.00  0.00    -0.550 OA
ATOM     10  O   UNL     1      28.175   5.435  48.094  1.00  0.00    -0.550 OA
ENDBRANCH   7   8
ENDBRANCH   6   7
ENDBRANCH   5   6
ENDBRANCH   4   5
ENDBRANCH   3   4
ENDBRANCH   2   3
ENDBRANCH   1   2
BRANCH   1  11
ATOM     11  C   UNL     1      35.444  11.031  45.928  1.00  0.00     0.000 C 
BRANCH  11  12
ATOM     12  C   UNL     1      34.286  11.221  44.934  1.00  0.00     0.000 C 
BRANCH  12  13
ATOM     13  C   UNL     1      34.327  10.238  43.745  1.00  0.00     0.000 C 
BRANCH  13  14
ATOM     14  C   UNL     1      34.867   8.855  44.151  1.00  0.00     0.000 C 
BRANCH  14  15
ATOM     15  C   UNL     1      33.767   7.781  44.231  1.00  0.00     0.000 C 
BRANCH  15  16
ATOM     16  C   UNL     1      34.069   6.614  45.187  1.00  0.00     0.006 C 
BRANCH  16  17
ATOM     17  C   UNL     1      33.395   6.774  46.555  1.00  0.00     0.053 C 
BRANCH  17  18
ATOM     18  C   UNL     1      33.931   5.767  47.523  1.00  0.00     0.041 C 
ATOM     19  O   UNL     1      34.519   4.735  47.105  1.00  0.00    -0.550 OA
ATOM     20  O   UNL     1      33.825   5.992  48.890  1.00  0.00    -0.550 OA
ENDBRANCH  17  18
ENDBRANCH  16  17
ENDBRANCH  15  16
ENDBRANCH  14  15
ENDBRANCH  13  14
ENDBRANCH  12  13
ENDBRANCH  11  12
ENDBRANCH   1  11
TORSDOF 15
ENDMDL
MODEL 4
REMARK VINA RESULT:    -4.230      2.450      4.526
REMARK INTER + INTRA:          -9.865
REMARK INTER:                  -8.247
REMARK INTRA:                  -1.619
REMARK UNBOUND:                -1.925
REMARK SMILES O=C([O-])CCCCCCCCCCCCCCC(=O)[O-]
REMARK SMILES IDX 10 1 9 2 8 3 7 4 6 5 5 6 4 7 2 8 1 9 3 10 11 11 12 12 13 13
REMARK SMILES IDX 14 14 15 15 16 16 17 17 18 18 19 19 20 20
REMARK H PARENT
REMARK Flexibility Score: inf
ROOT
ATOM      1  C   UNL     1      34.213   6.758  45.386  1.00  0.00     0.000 C 
ENDROOT
BRANCH   1   2
ATOM      2  C   UNL     1      33.798   7.765  44.301  1.00  0.00     0.000 C 
BRANCH   2   3
ATOM      3  C   UNL     1      34.856   8.858  44.072  1.00  0.00     0.000 C 
BRANCH   3   4
ATOM      4  C   UNL     1      34.224  10.212  43.684  1.00  0.00     0.000 C 
BRANCH   4   5
ATOM      5  C   UNL     1      34.312  11.278  44.792  1.00  0.00     0.000 C 
BRANCH   5   6
ATOM      6  C   UNL     1      35.483  11.097  45.777  1.00  0.00     0.006 C 
BRANCH   6   7
ATOM      7  C   UNL     1      35.664  12.262  46.764  1.00  0.00     0.053 C 
BRANCH   7   8
ATOM      8  C   UNL     1      36.442  13.391  46.160  1.00  0.00     0.041 C 
ATOM      9  O   UNL     1      37.700  13.392  46.213  1.00  0.00    -0.550 OA
ATOM     10  O   UNL     1      35.776  14.457  45.569  1.00  0.00    -0.550 OA
ENDBRANCH   7   8
ENDBRANCH   6   7
ENDBRANCH   5   6
ENDBRANCH   4   5
ENDBRANCH   3   4
ENDBRANCH   2   3
ENDBRANCH   1   2
BRANCH   1  11
ATOM     11  C   UNL     1      33.126   6.559  46.453  1.00  0.00     0.000 C 
BRANCH  11  12
ATOM     12  C   UNL     1      33.520   7.138  47.823  1.00  0.00     0.000 C 
BRANCH  12  13
ATOM     13  C   UNL     1      33.538   8.680  47.857  1.00  0.00     0.000 C 
BRANCH  13  14
ATOM     14  C   UNL     1      32.127   9.277  47.998  1.00  0.00     0.000 C 
BRANCH  14  15
ATOM     15  C   UNL     1      31.468   8.950  49.350  1.00  0.00     0.000 C 
BRANCH  15  16
ATOM     16  C   UNL     1      30.076   8.301  49.253  1.00  0.00     0.006 C 
BRANCH  16  17
ATOM     17  C   UNL     1      30.044   6.872  49.808  1.00  0.00     0.053 C 
BRANCH  17  18
ATOM     18  C   UNL     1      29.801   5.889  48.707  1.00  0.00     0.041 C 
ATOM     19  O   UNL     1      30.697   5.066  48.382  1.00  0.00    -0.550 OA
ATOM     20  O   UNL     1      28.566   5.848  48.072  1.00  0.00    -0.550 OA
ENDBRANCH  17  18
ENDBRANCH  16  17
ENDBRANCH  15  16
ENDBRANCH  14  15
ENDBRANCH  13  14
ENDBRANCH  12  13
ENDBRANCH  11  12
ENDBRANCH   1  11
TORSDOF 15
ENDMDL
MODEL 5
REMARK VINA RESULT:    -4.049      2.161      6.637
REMARK INTER + INTRA:          -9.524
REMARK INTER:                  -8.241
REMARK INTRA:                  -1.283
REMARK UNBOUND:                -1.925
REMARK SMILES O=C([O-])CCCCCCCCCCCCCCC(=O)[O-]
REMARK SMILES IDX 10 1 9 2 8 3 7 4 6 5 5 6 4 7 2 8 1 9 3 10 11 11 12 12 13 13
REMARK SMILES IDX 14 14 15 15 16 16 17 17 18 18 19 19 20 20
REMARK H PARENT
REMARK Flexibility Score: inf
ROOT
ATOM      1  C   UNL     1      31.684   9.393  48.255  1.00  0.00     0.000 C 
ENDROOT
BRANCH   1   2
ATOM      2  C   UNL     1      30.989   8.550  49.336  1.00  0.00     0.000 C 
BRANCH   2   3
ATOM      3  C   UNL     1      30.186   7.377  48.745  1.00  0.00     0.000 C 
BRANCH   3   4
ATOM      4  C   UNL     1      30.958   6.643  47.627  1.00  0.00     0.000 C 
BRANCH   4   5
ATOM      5  C   UNL     1      31.679   5.368  48.105  1.00  0.00     0.000 C 
BRANCH   5   6
ATOM      6  C   UNL     1      33.216   5.466  48.143  1.00  0.00     0.006 C 
BRANCH   6   7
ATOM      7  C   UNL     1      33.798   6.596  47.279  1.00  0.00     0.053 C 
BRANCH   7   8
ATOM      8  C   UNL     1      34.203   6.109  45.921  1.00  0.00     0.041 C 
ATOM      9  O   UNL     1      33.807   6.710  44.888  1.00  0.00    -0.550 OA
ATOM     10  O   UNL     1      34.991   4.972  45.796  1.00  0.00    -0.550 OA
ENDBRANCH   7   8
ENDBRANCH   6   7
ENDBRANCH   5   6
ENDBRANCH   4   5
ENDBRANCH   3   4
ENDBRANCH   2   3
ENDBRANCH   1   2
BRANCH   1  11
ATOM     11  C   UNL     1      32.648  10.433  48.848  1.00  0.00     0.000 C 
BRANCH  11  12
ATOM     12  C   UNL     1      34.049  10.379  48.215  1.00  0.00     0.000 C 
BRANCH  12  13
ATOM     13  C   UNL     1      34.034  10.018  46.715  1.00  0.00     0.000 C 
BRANCH  13  14
ATOM     14  C   UNL     1      35.020  10.873  45.900  1.00  0.00     0.000 C 
BRANCH  14  15
ATOM     15  C   UNL     1      35.521  12.108  46.668  1.00  0.00     0.000 C 
BRANCH  15  16
ATOM     16  C   UNL     1      35.832  13.335  45.792  1.00  0.00     0.006 C 
BRANCH  16  17
ATOM     17  C   UNL     1      35.934  14.634  46.600  1.00  0.00     0.053 C 
BRANCH  17  18
ATOM     18  C   UNL     1      36.350  15.768  45.718  1.00  0.00     0.041 C 
ATOM     19  O   UNL     1      35.695  16.844  45.717  1.00  0.00    -0.550 OA
ATOM     20  O   UNL     1      37.489  15.655  44.932  1.00  0.00    -0.550 OA
ENDBRANCH  17  18
ENDBRANCH  16  17
ENDBRANCH  15  16
ENDBRANCH  14  15
ENDBRANCH  13  14
ENDBRANCH  12  13
ENDBRANCH  11  12
ENDBRANCH   1  11
TORSDOF 15
ENDMDL
MODEL 6
REMARK VINA RESULT:    -3.953      2.208      2.810
REMARK INTER + INTRA:          -9.346
REMARK INTER:                  -8.102
REMARK INTRA:                  -1.244
REMARK UNBOUND:                -1.925
REMARK SMILES O=C([O-])CCCCCCCCCCCCCCC(=O)[O-]
REMARK SMILES IDX 10 1 9 2 8 3 7 4 6 5 5 6 4 7 2 8 1 9 3 10 11 11 12 12 13 13
REMARK SMILES IDX 14 14 15 15 16 16 17 17 18 18 19 19 20 20
REMARK H PARENT
REMARK Flexibility Score: inf
ROOT
ATOM      1  C   UNL     1      31.918   9.827  49.360  1.00  0.00     0.000 C 
ENDROOT
BRANCH   1   2
ATOM      2  C   UNL     1      32.450   9.998  47.928  1.00  0.00     0.000 C 
BRANCH   2   3
ATOM      3  C   UNL     1      33.970  10.235  47.887  1.00  0.00     0.000 C 
BRANCH   3   4
ATOM      4  C   UNL     1      34.500  10.383  46.444  1.00  0.00     0.000 C 
BRANCH   4   5
ATOM      5  C   UNL     1      35.785  11.225  46.339  1.00  0.00     0.000 C 
BRANCH   5   6
ATOM      6  C   UNL     1      35.563  12.714  46.009  1.00  0.00     0.006 C 
BRANCH   6   7
ATOM      7  C   UNL     1      36.848  13.558  46.002  1.00  0.00     0.053 C 
BRANCH   7   8
ATOM      8  C   UNL     1      36.554  15.024  46.093  1.00  0.00     0.041 C 
ATOM      9  O   UNL     1      37.400  15.865  45.689  1.00  0.00    -0.550 OA
ATOM     10  O   UNL     1      35.361  15.461  46.654  1.00  0.00    -0.550 OA
ENDBRANCH   7   8
ENDBRANCH   6   7
ENDBRANCH   5   6
ENDBRANCH   4   5
ENDBRANCH   3   4
ENDBRANCH   2   3
ENDBRANCH   1   2
BRANCH   1  11
ATOM     11  C   UNL     1      31.487   8.383  49.661  1.00  0.00     0.000 C 
BRANCH  11  12
ATOM     12  C   UNL     1      30.156   8.003  48.990  1.00  0.00     0.000 C 
BRANCH  12  13
ATOM     13  C   UNL     1      30.089   6.526  48.550  1.00  0.00     0.000 C 
BRANCH  13  14
ATOM     14  C   UNL     1      31.482   5.939  48.263  1.00  0.00     0.000 C 
BRANCH  14  15
ATOM     15  C   UNL     1      32.014   6.310  46.867  1.00  0.00     0.000 C 
BRANCH  15  16
ATOM     16  C   UNL     1      33.491   6.741  46.830  1.00  0.00     0.006 C 
BRANCH  16  17
ATOM     17  C   UNL     1      34.264   6.120  45.660  1.00  0.00     0.053 C 
BRANCH  17  18
ATOM     18  C   UNL     1      35.031   4.921  46.118  1.00  0.00     0.041 C 
ATOM     19  O   UNL     1      35.344   4.794  47.331  1.00  0.00    -0.550 OA
ATOM     20  O   UNL     1      35.358   3.918  45.214  1.00  0.00    -0.550 OA
ENDBRANCH  17  18
ENDBRANCH  16  17
ENDBRANCH  15  16
ENDBRANCH  14  15
ENDBRANCH  13  14
ENDBRANCH  12  13
ENDBRANCH  11  12
ENDBRANCH   1  11
TORSDOF 15
ENDMDL
MODEL 7
REMARK VINA RESULT:    -3.913     17.086     18.830
REMARK INTER + INTRA:          -9.269
REMARK INTER:                  -7.333
REMARK INTRA:                  -1.937
REMARK UNBOUND:                -1.925
REMARK SMILES O=C([O-])CCCCCCCCCCCCCCC(=O)[O-]
REMARK SMILES IDX 10 1 9 2 8 3 7 4 6 5 5 6 4 7 2 8 1 9 3 10 11 11 12 12 13 13
REMARK SMILES IDX 14 14 15 15 16 16 17 17 18 18 19 19 20 20
REMARK H PARENT
REMARK Flexibility Score: inf
ROOT
ATOM      1  C   UNL     1      20.967  14.190  33.984  1.00  0.00     0.000 C 
ENDROOT
BRANCH   1   2
ATOM      2  C   UNL     1      20.111  14.386  32.723  1.00  0.00     0.000 C 
BRANCH   2   3
ATOM      3  C   UNL     1      20.430  13.357  31.625  1.00  0.00     0.000 C 
BRANCH   3   4
ATOM      4  C   UNL     1      21.948  13.134  31.455  1.00  0.00     0.000 C 
BRANCH   4   5
ATOM      5  C   UNL     1      22.568  13.940  30.298  1.00  0.00     0.000 C 
BRANCH   5   6
ATOM      6  C   UNL     1      23.328  15.211  30.725  1.00  0.00     0.006 C 
BRANCH   6   7
ATOM      7  C   UNL     1      22.435  16.450  30.903  1.00  0.00     0.053 C 
BRANCH   7   8
ATOM      8  C   UNL     1      23.242  17.698  31.094  1.00  0.00     0.041 C 
ATOM      9  O   UNL     1      22.667  18.797  31.314  1.00  0.00    -0.550 OA
ATOM     10  O   UNL     1      24.627  17.653  30.995  1.00  0.00    -0.550 OA
ENDBRANCH   7   8
ENDBRANCH   6   7
ENDBRANCH   5   6
ENDBRANCH   4   5
ENDBRANCH   3   4
ENDBRANCH   2   3
ENDBRANCH   1   2
BRANCH   1  11
ATOM     11  C   UNL     1      20.129  14.191  35.272  1.00  0.00     0.000 C 
BRANCH  11  12
ATOM     12  C   UNL     1      19.127  13.026  35.335  1.00  0.00     0.000 C 
BRANCH  12  13
ATOM     13  C   UNL     1      19.446  11.998  36.440  1.00  0.00     0.000 C 
BRANCH  13  14
ATOM     14  C   UNL     1      19.528  10.561  35.895  1.00  0.00     0.000 C 
BRANCH  14  15
ATOM     15  C   UNL     1      19.935  10.504  34.412  1.00  0.00     0.000 C 
BRANCH  15  16
ATOM     16  C   UNL     1      21.452  10.538  34.154  1.00  0.00     0.006 C 
BRANCH  16  17
ATOM     17  C   UNL     1      22.273  10.089  35.368  1.00  0.00     0.053 C 
BRANCH  17  18
ATOM     18  C   UNL     1      23.319  11.106  35.698  1.00  0.00     0.041 C 
ATOM     19  O   UNL     1      22.984  12.258  36.083  1.00  0.00    -0.550 OA
ATOM     20  O   UNL     1      24.664  10.768  35.628  1.00  0.00    -0.550 OA
ENDBRANCH  17  18
ENDBRANCH  16  17
ENDBRANCH  15  16
ENDBRANCH  14  15
ENDBRANCH  13  14
ENDBRANCH  12  13
ENDBRANCH  11  12
ENDBRANCH   1  11
TORSDOF 15
ENDMDL
MODEL 8
REMARK VINA RESULT:    -3.847     17.597     19.766
REMARK INTER + INTRA:          -9.145
REMARK INTER:                  -6.990
REMARK INTRA:                  -2.155
REMARK UNBOUND:                -1.925
REMARK SMILES O=C([O-])CCCCCCCCCCCCCCC(=O)[O-]
REMARK SMILES IDX 10 1 9 2 8 3 7 4 6 5 5 6 4 7 2 8 1 9 3 10 11 11 12 12 13 13
REMARK SMILES IDX 14 14 15 15 16 16 17 17 18 18 19 19 20 20
REMARK H PARENT
REMARK Flexibility Score: inf
ROOT
ATOM      1  C   UNL     1      22.130  11.924  35.568  1.00  0.00     0.000 C 
ENDROOT
BRANCH   1   2
ATOM      2  C   UNL     1      21.886  10.420  35.765  1.00  0.00     0.000 C 
BRANCH   2   3
ATOM      3  C   UNL     1      20.400  10.085  35.984  1.00  0.00     0.000 C 
BRANCH   3   4
ATOM      4  C   UNL     1      19.812   9.247  34.828  1.00  0.00     0.000 C 
BRANCH   4   5
ATOM      5  C   UNL     1      19.339  10.090  33.629  1.00  0.00     0.000 C 
BRANCH   5   6
ATOM      6  C   UNL     1      20.070   9.802  32.303  1.00  0.00     0.006 C 
BRANCH   6   7
ATOM      7  C   UNL     1      21.275  10.719  32.035  1.00  0.00     0.053 C 
BRANCH   7   8
ATOM      8  C   UNL     1      21.372  11.107  30.592  1.00  0.00     0.041 C 
ATOM      9  O   UNL     1      22.310  10.662  29.879  1.00  0.00    -0.550 OA
ATOM     10  O   UNL     1      20.446  11.985  30.043  1.00  0.00    -0.550 OA
ENDBRANCH   7   8
ENDBRANCH   6   7
ENDBRANCH   5   6
ENDBRANCH   4   5
ENDBRANCH   3   4
ENDBRANCH   2   3
ENDBRANCH   1   2
BRANCH   1  11
ATOM     11  C   UNL     1      20.869  12.765  35.826  1.00  0.00     0.000 C 
BRANCH  11  12
ATOM     12  C   UNL     1      20.726  13.944  34.848  1.00  0.00     0.000 C 
BRANCH  12  13
ATOM     13  C   UNL     1      19.682  13.700  33.739  1.00  0.00     0.000 C 
BRANCH  13  14
ATOM     14  C   UNL     1      19.983  14.510  32.465  1.00  0.00     0.000 C 
BRANCH  14  15
ATOM     15  C   UNL     1      21.470  14.883  32.329  1.00  0.00     0.000 C 
BRANCH  15  16
ATOM     16  C   UNL     1      21.908  15.298  30.913  1.00  0.00     0.006 C 
BRANCH  16  17
ATOM     17  C   UNL     1      23.077  14.460  30.381  1.00  0.00     0.053 C 
BRANCH  17  18
ATOM     18  C   UNL     1      24.329  15.277  30.339  1.00  0.00     0.041 C 
ATOM     19  O   UNL     1      25.432  14.733  30.069  1.00  0.00    -0.550 OA
ATOM     20  O   UNL     1      24.272  16.649  30.550  1.00  0.00    -0.550 OA
ENDBRANCH  17  18
ENDBRANCH  16  17
ENDBRANCH  15  16
ENDBRANCH  14  15
ENDBRANCH  13  14
ENDBRANCH  12  13
ENDBRANCH  11  12
ENDBRANCH   1  11
TORSDOF 15
ENDMDL
