MODEL 1
REMARK VINA RESULT:    -4.258      0.000      0.000
REMARK INTER + INTRA:          -7.204
REMARK INTER:                  -5.253
REMARK INTRA:                  -1.951
REMARK UNBOUND:                -1.951
REMARK SMILES CC(C)=CCC[C@@H](C)[C@@H]1C=CC(C)=CC1
REMARK SMILES IDX 6 1 7 2 8 3 9 4 13 5 12 6 14 7 11 8 15 9 10 10 5 11 4 12
REMARK SMILES IDX 2 13 1 14 3 15
REMARK H PARENT
REMARK Flexibility Score: inf
ROOT
ATOM      1  C   UNL     1      32.301   9.451  32.955  1.00  0.00     0.008 C 
ENDROOT
BRANCH   1   2
ATOM      2  C   UNL     1      30.963   8.799  32.518  1.00  0.00    -0.007 C 
ATOM      3  C   UNL     1      30.562   9.343  31.134  1.00  0.00     0.008 C 
BRANCH   2   4
ATOM      4  C   UNL     1      30.994   7.237  32.571  1.00  0.00     0.018 C 
ATOM      5  C   UNL     1      30.120   5.949  36.667  1.00  0.00     0.044 C 
ATOM      6  C   UNL     1      30.469   6.251  35.239  1.00  0.00    -0.055 C 
ATOM      7  C   UNL     1      31.740   6.502  34.896  1.00  0.00    -0.023 C 
ATOM      8  C   UNL     1      29.415   6.219  34.205  1.00  0.00    -0.001 C 
ATOM      9  C   UNL     1      32.140   6.679  33.455  1.00  0.00     0.035 C 
ATOM     10  C   UNL     1      29.657   6.642  32.960  1.00  0.00    -0.023 C 
ENDBRANCH   2   4
ENDBRANCH   1   2
BRANCH   1  11
ATOM     11  C   UNL     1      32.146  10.420  34.138  1.00  0.00     0.027 C 
BRANCH  11  12
ATOM     12  C   UNL     1      30.828  10.203  34.839  1.00  0.00    -0.028 C 
ATOM     13  C   UNL     1      30.704   9.809  36.126  1.00  0.00    -0.080 C 
ATOM     14  C   UNL     1      31.906   9.597  37.017  1.00  0.00     0.039 C 
ATOM     15  C   UNL     1      29.321   9.592  36.682  1.00  0.00     0.039 C 
ENDBRANCH  11  12
ENDBRANCH   1  11
TORSDOF 4
ENDMDL
MODEL 2
REMARK VINA RESULT:    -4.014      1.610      4.437
REMARK INTER + INTRA:          -6.904
REMARK INTER:                  -6.025
REMARK INTRA:                  -0.878
REMARK UNBOUND:                -1.951
REMARK SMILES CC(C)=CCC[C@@H](C)[C@@H]1C=CC(C)=CC1
REMARK SMILES IDX 6 1 7 2 8 3 9 4 13 5 12 6 14 7 11 8 15 9 10 10 5 11 4 12
REMARK SMILES IDX 2 13 1 14 3 15
REMARK H PARENT
REMARK Flexibility Score: inf
ROOT
ATOM      1  C   UNL     1      31.017  10.928  31.983  1.00  0.00     0.008 C 
ENDROOT
BRANCH   1   2
ATOM      2  C   UNL     1      31.639  10.094  33.134  1.00  0.00    -0.007 C 
ATOM      3  C   UNL     1      33.048  10.631  33.446  1.00  0.00     0.008 C 
BRANCH   2   4
ATOM      4  C   UNL     1      30.725  10.016  34.400  1.00  0.00     0.018 C 
ATOM      5  C   UNL     1      31.530   6.247  36.486  1.00  0.00     0.044 C 
ATOM      6  C   UNL     1      31.130   7.548  35.854  1.00  0.00    -0.055 C 
ATOM      7  C   UNL     1      30.199   7.569  34.890  1.00  0.00    -0.023 C 
ATOM      8  C   UNL     1      31.728   8.811  36.335  1.00  0.00    -0.001 C 
ATOM      9  C   UNL     1      29.683   8.868  34.330  1.00  0.00     0.035 C 
ATOM     10  C   UNL     1      31.520   9.962  35.688  1.00  0.00    -0.023 C 
ENDBRANCH   2   4
ENDBRANCH   1   2
BRANCH   1  11
ATOM     11  C   UNL     1      30.372  10.065  30.888  1.00  0.00     0.027 C 
BRANCH  11  12
ATOM     12  C   UNL     1      30.874   8.644  30.961  1.00  0.00    -0.028 C 
ATOM     13  C   UNL     1      30.732   7.733  29.972  1.00  0.00    -0.080 C 
ATOM     14  C   UNL     1      30.089   8.082  28.650  1.00  0.00     0.039 C 
ATOM     15  C   UNL     1      31.248   6.337  30.201  1.00  0.00     0.039 C 
ENDBRANCH  11  12
ENDBRANCH   1  11
TORSDOF 4
ENDMDL
MODEL 3
REMARK VINA RESULT:    -3.990      1.318      3.922
REMARK INTER + INTRA:          -6.873
REMARK INTER:                  -5.949
REMARK INTRA:                  -0.925
REMARK UNBOUND:                -1.951
REMARK SMILES CC(C)=CCC[C@@H](C)[C@@H]1C=CC(C)=CC1
REMARK SMILES IDX 6 1 7 2 8 3 9 4 13 5 12 6 14 7 11 8 15 9 10 10 5 11 4 12
REMARK SMILES IDX 2 13 1 14 3 15
REMARK H PARENT
REMARK Flexibility Score: inf
ROOT
ATOM      1  C   UNL     1      30.471   6.169  35.006  1.00  0.00     0.008 C 
ENDROOT
BRANCH   1   2
ATOM      2  C   UNL     1      30.078   7.070  33.806  1.00  0.00    -0.007 C 
ATOM      3  C   UNL     1      29.233   8.253  34.315  1.00  0.00     0.008 C 
BRANCH   2   4
ATOM      4  C   UNL     1      31.305   7.525  32.951  1.00  0.00     0.018 C 
ATOM      5  C   UNL     1      29.881  10.097  29.702  1.00  0.00     0.044 C 
ATOM      6  C   UNL     1      30.497   9.205  30.739  1.00  0.00    -0.055 C 
ATOM      7  C   UNL     1      30.548   7.879  30.541  1.00  0.00    -0.023 C 
ATOM      8  C   UNL     1      31.095   9.796  31.953  1.00  0.00    -0.001 C 
ATOM      9  C   UNL     1      31.275   6.974  31.500  1.00  0.00     0.035 C 
ATOM     10  C   UNL     1      31.501   9.026  32.967  1.00  0.00    -0.023 C 
ENDBRANCH   2   4
ENDBRANCH   1   2
BRANCH   1  11
ATOM     11  C   UNL     1      31.608   6.754  35.858  1.00  0.00     0.027 C 
BRANCH  11  12
ATOM     12  C   UNL     1      31.078   7.276  37.171  1.00  0.00    -0.028 C 
ATOM     13  C   UNL     1      31.196   8.558  37.585  1.00  0.00    -0.080 C 
ATOM     14  C   UNL     1      31.837   9.621  36.725  1.00  0.00     0.039 C 
ATOM     15  C   UNL     1      30.654   8.927  38.942  1.00  0.00     0.039 C 
ENDBRANCH  11  12
ENDBRANCH   1  11
TORSDOF 4
ENDMDL
MODEL 4
REMARK VINA RESULT:    -3.957      1.846      5.382
REMARK INTER + INTRA:          -6.833
REMARK INTER:                  -5.712
REMARK INTRA:                  -1.122
REMARK UNBOUND:                -1.951
REMARK SMILES CC(C)=CCC[C@@H](C)[C@@H]1C=CC(C)=CC1
REMARK SMILES IDX 6 1 7 2 8 3 9 4 13 5 12 6 14 7 11 8 15 9 10 10 5 11 4 12
REMARK SMILES IDX 2 13 1 14 3 15
REMARK H PARENT
REMARK Flexibility Score: inf
ROOT
ATOM      1  C   UNL     1      31.932   7.563  32.987  1.00  0.00     0.008 C 
ENDROOT
BRANCH   1   2
ATOM      2  C   UNL     1      30.934   7.831  34.143  1.00  0.00    -0.007 C 
ATOM      3  C   UNL     1      31.258   6.896  35.322  1.00  0.00     0.008 C 
BRANCH   2   4
ATOM      4  C   UNL     1      30.869   9.336  34.563  1.00  0.00     0.018 C 
ATOM      5  C   UNL     1      31.179  11.817  30.963  1.00  0.00     0.044 C 
ATOM      6  C   UNL     1      31.103  11.091  32.274  1.00  0.00    -0.055 C 
ATOM      7  C   UNL     1      32.227  10.717  32.903  1.00  0.00    -0.023 C 
ATOM      8  C   UNL     1      29.787  10.836  32.896  1.00  0.00    -0.001 C 
ATOM      9  C   UNL     1      32.186  10.106  34.279  1.00  0.00     0.035 C 
ATOM     10  C   UNL     1      29.673  10.053  33.973  1.00  0.00    -0.023 C 
ENDBRANCH   2   4
ENDBRANCH   1   2
BRANCH   1  11
ATOM     11  C   UNL     1      31.285   6.879  31.773  1.00  0.00     0.027 C 
BRANCH  11  12
ATOM     12  C   UNL     1      30.548   7.883  30.922  1.00  0.00    -0.028 C 
ATOM     13  C   UNL     1      30.589   7.915  29.571  1.00  0.00    -0.080 C 
ATOM     14  C   UNL     1      31.353   6.886  28.770  1.00  0.00     0.039 C 
ATOM     15  C   UNL     1      29.834   9.003  28.854  1.00  0.00     0.039 C 
ENDBRANCH  11  12
ENDBRANCH   1  11
TORSDOF 4
ENDMDL
MODEL 5
REMARK VINA RESULT:    -3.884      1.723      4.194
REMARK INTER + INTRA:          -6.743
REMARK INTER:                  -5.904
REMARK INTRA:                  -0.839
REMARK UNBOUND:                -1.951
REMARK SMILES CC(C)=CCC[C@@H](C)[C@@H]1C=CC(C)=CC1
REMARK SMILES IDX 6 1 7 2 8 3 9 4 13 5 12 6 14 7 11 8 15 9 10 10 5 11 4 12
REMARK SMILES IDX 2 13 1 14 3 15
REMARK H PARENT
REMARK Flexibility Score: inf
ROOT
ATOM      1  C   UNL     1      31.097   6.723  34.119  1.00  0.00     0.008 C 
ENDROOT
BRANCH   1   2
ATOM      2  C   UNL     1      31.622   7.938  33.311  1.00  0.00    -0.007 C 
ATOM      3  C   UNL     1      31.226   7.774  31.832  1.00  0.00     0.008 C 
BRANCH   2   4
ATOM      4  C   UNL     1      31.179   9.313  33.909  1.00  0.00     0.018 C 
ATOM      5  C   UNL     1      32.261  12.489  31.091  1.00  0.00     0.044 C 
ATOM      6  C   UNL     1      31.872  11.509  32.158  1.00  0.00    -0.055 C 
ATOM      7  C   UNL     1      32.768  11.127  33.080  1.00  0.00    -0.023 C 
ATOM      8  C   UNL     1      30.484  11.007  32.221  1.00  0.00    -0.001 C 
ATOM      9  C   UNL     1      32.372  10.249  34.237  1.00  0.00     0.035 C 
ATOM     10  C   UNL     1      30.147  10.014  33.051  1.00  0.00    -0.023 C 
ENDBRANCH   2   4
ENDBRANCH   1   2
BRANCH   1  11
ATOM     11  C   UNL     1      31.719   6.612  35.520  1.00  0.00     0.027 C 
BRANCH  11  12
ATOM     12  C   UNL     1      30.659   6.728  36.587  1.00  0.00    -0.028 C 
ATOM     13  C   UNL     1      30.600   7.725  37.499  1.00  0.00    -0.080 C 
ATOM     14  C   UNL     1      31.586   8.870  37.497  1.00  0.00     0.039 C 
ATOM     15  C   UNL     1      29.506   7.689  38.534  1.00  0.00     0.039 C 
ENDBRANCH  11  12
ENDBRANCH   1  11
TORSDOF 4
ENDMDL
MODEL 6
REMARK VINA RESULT:    -3.825      1.147      4.025
REMARK INTER + INTRA:          -6.671
REMARK INTER:                  -5.470
REMARK INTRA:                  -1.201
REMARK UNBOUND:                -1.951
REMARK SMILES CC(C)=CCC[C@@H](C)[C@@H]1C=CC(C)=CC1
REMARK SMILES IDX 6 1 7 2 8 3 9 4 13 5 12 6 14 7 11 8 15 9 10 10 5 11 4 12
REMARK SMILES IDX 2 13 1 14 3 15
REMARK H PARENT
REMARK Flexibility Score: inf
ROOT
ATOM      1  C   UNL     1      30.997   9.819  35.271  1.00  0.00     0.008 C 
ENDROOT
BRANCH   1   2
ATOM      2  C   UNL     1      31.638   9.238  36.558  1.00  0.00    -0.007 C 
ATOM      3  C   UNL     1      31.640  10.317  37.657  1.00  0.00     0.008 C 
BRANCH   2   4
ATOM      4  C   UNL     1      30.977   7.899  37.024  1.00  0.00     0.018 C 
ATOM      5  C   UNL     1      29.163   5.940  33.549  1.00  0.00     0.044 C 
ATOM      6  C   UNL     1      29.703   6.519  34.823  1.00  0.00    -0.055 C 
ATOM      7  C   UNL     1      28.975   7.400  35.525  1.00  0.00    -0.023 C 
ATOM      8  C   UNL     1      31.018   6.074  35.331  1.00  0.00    -0.001 C 
ATOM      9  C   UNL     1      29.433   7.896  36.871  1.00  0.00     0.035 C 
ATOM     10  C   UNL     1      31.599   6.685  36.368  1.00  0.00    -0.023 C 
ENDBRANCH   2   4
ENDBRANCH   1   2
BRANCH   1  11
ATOM     11  C   UNL     1      32.009  10.043  34.137  1.00  0.00     0.027 C 
BRANCH  11  12
ATOM     12  C   UNL     1      31.947   8.918  33.133  1.00  0.00    -0.028 C 
ATOM     13  C   UNL     1      31.202   8.943  32.005  1.00  0.00    -0.080 C 
ATOM     14  C   UNL     1      30.387  10.153  31.612  1.00  0.00     0.039 C 
ATOM     15  C   UNL     1      31.206   7.728  31.115  1.00  0.00     0.039 C 
ENDBRANCH  11  12
ENDBRANCH   1  11
TORSDOF 4
ENDMDL
MODEL 7
REMARK VINA RESULT:    -3.822      1.206      3.894
REMARK INTER + INTRA:          -6.667
REMARK INTER:                  -4.890
REMARK INTRA:                  -1.777
REMARK UNBOUND:                -1.951
REMARK SMILES CC(C)=CCC[C@@H](C)[C@@H]1C=CC(C)=CC1
REMARK SMILES IDX 6 1 7 2 8 3 9 4 13 5 12 6 14 7 11 8 15 9 10 10 5 11 4 12
REMARK SMILES IDX 2 13 1 14 3 15
REMARK H PARENT
REMARK Flexibility Score: inf
ROOT
ATOM      1  C   UNL     1      31.450   8.750  37.527  1.00  0.00     0.008 C 
ENDROOT
BRANCH   1   2
ATOM      2  C   UNL     1      30.189   7.879  37.768  1.00  0.00    -0.007 C 
ATOM      3  C   UNL     1      28.944   8.639  37.274  1.00  0.00     0.008 C 
BRANCH   2   4
ATOM      4  C   UNL     1      30.306   6.445  37.157  1.00  0.00     0.018 C 
ATOM      5  C   UNL     1      30.465   6.783  32.791  1.00  0.00     0.044 C 
ATOM      6  C   UNL     1      30.381   6.522  34.266  1.00  0.00    -0.055 C 
ATOM      7  C   UNL     1      29.186   6.428  34.866  1.00  0.00    -0.023 C 
ATOM      8  C   UNL     1      31.619   6.316  35.045  1.00  0.00    -0.001 C 
ATOM      9  C   UNL     1      29.068   6.037  36.316  1.00  0.00     0.035 C 
ATOM     10  C   UNL     1      31.590   6.247  36.380  1.00  0.00    -0.023 C 
ENDBRANCH   2   4
ENDBRANCH   1   2
BRANCH   1  11
ATOM     11  C   UNL     1      31.170  10.001  36.680  1.00  0.00     0.027 C 
BRANCH  11  12
ATOM     12  C   UNL     1      31.986   9.982  35.411  1.00  0.00    -0.028 C 
ATOM     13  C   UNL     1      31.464  10.068  34.167  1.00  0.00    -0.080 C 
ATOM     14  C   UNL     1      29.983  10.248  33.932  1.00  0.00     0.039 C 
ATOM     15  C   UNL     1      32.400   9.994  32.988  1.00  0.00     0.039 C 
ENDBRANCH  11  12
ENDBRANCH   1  11
TORSDOF 4
ENDMDL
MODEL 8
REMARK VINA RESULT:    -3.794      6.372      9.275
REMARK INTER + INTRA:          -6.632
REMARK INTER:                  -4.888
REMARK INTRA:                  -1.744
REMARK UNBOUND:                -1.951
REMARK SMILES CC(C)=CCC[C@@H](C)[C@@H]1C=CC(C)=CC1
REMARK SMILES IDX 6 1 7 2 8 3 9 4 13 5 12 6 14 7 11 8 15 9 10 10 5 11 4 12
REMARK SMILES IDX 2 13 1 14 3 15
REMARK H PARENT
REMARK Flexibility Score: inf
ROOT
ATOM      1  C   UNL     1      29.489  10.362  28.168  1.00  0.00     0.008 C 
ENDROOT
BRANCH   1   2
ATOM      2  C   UNL     1      28.409  10.427  27.057  1.00  0.00    -0.007 C 
ATOM      3  C   UNL     1      27.144  11.105  27.616  1.00  0.00     0.008 C 
BRANCH   2   4
ATOM      4  C   UNL     1      28.921  11.093  25.738  1.00  0.00     0.018 C 
ATOM      5  C   UNL     1      30.874   8.034  23.283  1.00  0.00     0.044 C 
ATOM      6  C   UNL     1      30.272   9.183  24.036  1.00  0.00    -0.055 C 
ATOM      7  C   UNL     1      31.002   9.852  24.940  1.00  0.00    -0.023 C 
ATOM      8  C   UNL     1      28.888   9.607  23.740  1.00  0.00    -0.001 C 
ATOM      9  C   UNL     1      30.468  11.088  25.614  1.00  0.00     0.035 C 
ATOM     10  C   UNL     1      28.267  10.513  24.502  1.00  0.00    -0.023 C 
ENDBRANCH   2   4
ENDBRANCH   1   2
BRANCH   1  11
ATOM     11  C   UNL     1      29.747   8.937  28.681  1.00  0.00     0.027 C 
BRANCH  11  12
ATOM     12  C   UNL     1      29.380   7.916  27.633  1.00  0.00    -0.028 C 
ATOM     13  C   UNL     1      30.214   6.951  27.183  1.00  0.00    -0.080 C 
ATOM     14  C   UNL     1      31.606   6.772  27.743  1.00  0.00     0.039 C 
ATOM     15  C   UNL     1      29.724   6.024  26.101  1.00  0.00     0.039 C 
ENDBRANCH  11  12
ENDBRANCH   1  11
TORSDOF 4
ENDMDL
MODEL 9
REMARK VINA RESULT:    -3.748      1.670      4.075
REMARK INTER + INTRA:          -6.575
REMARK INTER:                  -5.427
REMARK INTRA:                  -1.148
REMARK UNBOUND:                -1.951
REMARK SMILES CC(C)=CCC[C@@H](C)[C@@H]1C=CC(C)=CC1
REMARK SMILES IDX 6 1 7 2 8 3 9 4 13 5 12 6 14 7 11 8 15 9 10 10 5 11 4 12
REMARK SMILES IDX 2 13 1 14 3 15
REMARK H PARENT
REMARK Flexibility Score: inf
ROOT
ATOM      1  C   UNL     1      30.795  10.676  34.062  1.00  0.00     0.008 C 
ENDROOT
BRANCH   1   2
ATOM      2  C   UNL     1      30.210   9.816  35.212  1.00  0.00    -0.007 C 
ATOM      3  C   UNL     1      29.023   8.993  34.678  1.00  0.00     0.008 C 
BRANCH   2   4
ATOM      4  C   UNL     1      31.284   8.936  35.930  1.00  0.00     0.018 C 
ATOM      5  C   UNL     1      29.929   8.112  40.015  1.00  0.00     0.044 C 
ATOM      6  C   UNL     1      30.528   8.349  38.660  1.00  0.00    -0.055 C 
ATOM      7  C   UNL     1      31.247   9.457  38.427  1.00  0.00    -0.023 C 
ATOM      8  C   UNL     1      30.369   7.332  37.601  1.00  0.00    -0.001 C 
ATOM      9  C   UNL     1      31.969   9.658  37.121  1.00  0.00     0.035 C 
ATOM     10  C   UNL     1      30.746   7.582  36.343  1.00  0.00    -0.023 C 
ENDBRANCH   2   4
ENDBRANCH   1   2
BRANCH   1  11
ATOM     11  C   UNL     1      31.905   9.961  33.274  1.00  0.00     0.027 C 
BRANCH  11  12
ATOM     12  C   UNL     1      31.363   9.385  31.989  1.00  0.00    -0.028 C 
ATOM     13  C   UNL     1      31.247   8.062  31.737  1.00  0.00    -0.080 C 
ATOM     14  C   UNL     1      31.609   7.016  32.766  1.00  0.00     0.039 C 
ATOM     15  C   UNL     1      30.727   7.630  30.391  1.00  0.00     0.039 C 
ENDBRANCH  11  12
ENDBRANCH   1  11
TORSDOF 4
ENDMDL
