MODEL 1
REMARK VINA RESULT:    -3.603      0.000      0.000
REMARK INTER + INTRA:          -4.927
REMARK INTER:                  -4.867
REMARK INTRA:                  -0.060
REMARK UNBOUND:                -0.060
REMARK SMILES C=C1CCC=C(C)CC[C@@H]2[C@@H]1CC2(C)C
REMARK SMILES IDX 11 1 12 2 13 3 10 4 14 5 15 6 9 7 8 8 6 9 7 10 5 11 2 13
REMARK SMILES IDX 1 14 3 15 4 16
REMARK H PARENT
REMARK Flexibility Score: 70.00
ROOT
ATOM      1  C   UNL     1     133.765 133.363 136.526  1.00  0.00     0.018 C 
ATOM      2  C   UNL     1     133.235 132.827 135.190  1.00  0.00     0.015 C 
ATOM      3  C   UNL     1     134.598 133.088 134.530  1.00  0.00    -0.031 C 
ATOM      4  C   UNL     1     135.110 133.700 135.856  1.00  0.00     0.002 C 
ATOM      5  C   UNL     1     135.284 131.791 134.056  1.00  0.00     0.011 C 
ATOM      6  C   UNL     1     134.513 134.122 133.392  1.00  0.00     0.011 C 
ENDROOT
BRANCH   4   7
ATOM      7  C   UNL     1     136.319 133.029 136.541  1.00  0.00     0.009 C 
BRANCH   7   8
ATOM      8  C   UNL     1     137.049 133.988 137.496  1.00  0.00     0.030 C 
BRANCH   8   9
ATOM      9  C   UNL     1     136.543 133.877 138.923  1.00  0.00    -0.077 C 
ATOM     10  C   UNL     1     137.278 132.960 139.867  1.00  0.00     0.039 C 
ATOM     11  C   UNL     1     135.503 134.594 139.413  1.00  0.00    -0.028 CG0
ATOM     12  G   UNL     1     134.665 135.595 138.648  1.00  0.00     0.000 G0
ENDBRANCH   8   9
ENDBRANCH   7   8
ENDBRANCH   4   7
BRANCH   1  13
ATOM     13  C   UNL     1     132.947 134.518 137.093  1.00  0.00    -0.074 C 
ATOM     14  C   UNL     1     131.878 134.932 136.393  1.00  0.00     0.008 C 
BRANCH  13  15
ATOM     15  C   UNL     1     133.197 135.108 138.471  1.00  0.00     0.035 C 
BRANCH  15  16
ATOM     16  C   UNL     1     134.653 135.588 138.648  1.00  0.00     0.032 CG0
ATOM     17  G   UNL     1     135.500 134.590 139.407  1.00  0.00     0.000 G0
ENDBRANCH  15  16
ENDBRANCH  13  15
ENDBRANCH   1  13
TORSDOF 0
ENDMDL
MODEL 2
REMARK VINA RESULT:    -3.596      4.935      6.566
REMARK INTER + INTRA:          -4.917
REMARK INTER:                  -4.842
REMARK INTRA:                  -0.075
REMARK UNBOUND:                -0.060
REMARK SMILES C=C1CCC=C(C)CC[C@@H]2[C@@H]1CC2(C)C
REMARK SMILES IDX 11 1 12 2 13 3 10 4 14 5 15 6 9 7 8 8 6 9 7 10 5 11 2 13
REMARK SMILES IDX 1 14 3 15 4 16
REMARK H PARENT
REMARK Flexibility Score: 70.00
ROOT
ATOM      1  C   UNL     1     138.990 139.148 136.531  1.00  0.00     0.018 C 
ATOM      2  C   UNL     1     139.447 139.752 135.196  1.00  0.00     0.015 C 
ATOM      3  C   UNL     1     138.057 139.497 134.592  1.00  0.00    -0.031 C 
ATOM      4  C   UNL     1     137.619 138.819 135.913  1.00  0.00     0.002 C 
ATOM      5  C   UNL     1     137.330 140.802 134.210  1.00  0.00     0.011 C 
ATOM      6  C   UNL     1     138.100 138.515 133.407  1.00  0.00     0.011 C 
ENDROOT
BRANCH   4   7
ATOM      7  C   UNL     1     136.436 139.439 136.685  1.00  0.00     0.009 C 
BRANCH   7   8
ATOM      8  C   UNL     1     135.796 138.441 137.664  1.00  0.00     0.030 C 
BRANCH   8   9
ATOM      9  C   UNL     1     136.381 138.548 139.060  1.00  0.00    -0.077 C 
ATOM     10  C   UNL     1     135.683 139.440 140.055  1.00  0.00     0.039 C 
ATOM     11  C   UNL     1     137.462 137.848 139.482  1.00  0.00    -0.028 CG0
ATOM     12  G   UNL     1     138.274 136.872 138.660  1.00  0.00     0.000 G0
ENDBRANCH   8   9
ENDBRANCH   7   8
ENDBRANCH   4   7
BRANCH   1  13
ATOM     13  C   UNL     1     139.852 137.984 137.006  1.00  0.00    -0.074 C 
ATOM     14  C   UNL     1     140.859 137.584 136.211  1.00  0.00     0.008 C 
BRANCH  13  15
ATOM     15  C   UNL     1     139.718 137.368 138.389  1.00  0.00     0.035 C 
BRANCH  15  16
ATOM     16  C   UNL     1     138.285 136.867 138.670  1.00  0.00     0.032 CG0
ATOM     17  G   UNL     1     137.477 137.858 139.479  1.00  0.00     0.000 G0
ENDBRANCH  15  16
ENDBRANCH  13  15
ENDBRANCH   1  13
TORSDOF 0
ENDMDL
MODEL 3
REMARK VINA RESULT:    -3.579      3.227      4.615
REMARK INTER + INTRA:          -4.895
REMARK INTER:                  -4.812
REMARK INTRA:                  -0.083
REMARK UNBOUND:                -0.060
REMARK SMILES C=C1CCC=C(C)CC[C@@H]2[C@@H]1CC2(C)C
REMARK SMILES IDX 11 1 12 2 13 3 10 4 14 5 15 6 9 7 8 8 6 9 7 10 5 11 2 13
REMARK SMILES IDX 1 14 3 15 4 16
REMARK H PARENT
REMARK Flexibility Score: 70.00
ROOT
ATOM      1  C   UNL     1     139.204 133.823 136.617  1.00  0.00     0.018 C 
ATOM      2  C   UNL     1     139.841 133.292 135.326  1.00  0.00     0.015 C 
ATOM      3  C   UNL     1     139.564 134.632 134.624  1.00  0.00    -0.031 C 
ATOM      4  C   UNL     1     138.852 135.140 135.902  1.00  0.00     0.002 C 
ATOM      5  C   UNL     1     140.857 135.364 134.214  1.00  0.00     0.011 C 
ATOM      6  C   UNL     1     138.604 134.483 133.429  1.00  0.00     0.011 C 
ENDROOT
BRANCH   4   7
ATOM      7  C   UNL     1     139.429 136.388 136.601  1.00  0.00     0.009 C 
BRANCH   7   8
ATOM      8  C   UNL     1     138.402 137.063 137.524  1.00  0.00     0.030 C 
BRANCH   8   9
ATOM      9  C   UNL     1     138.511 136.579 138.959  1.00  0.00    -0.077 C 
ATOM     10  C   UNL     1     139.381 137.363 139.907  1.00  0.00     0.039 C 
ATOM     11  C   UNL     1     137.831 135.515 139.451  1.00  0.00    -0.028 CG0
ATOM     12  G   UNL     1     136.878 134.627 138.683  1.00  0.00     0.000 G0
ENDBRANCH   8   9
ENDBRANCH   7   8
ENDBRANCH   4   7
BRANCH   1  13
ATOM     13  C   UNL     1     138.053 132.966 137.130  1.00  0.00    -0.074 C 
ATOM     14  C   UNL     1     137.689 131.900 136.398  1.00  0.00     0.008 C 
BRANCH  13  15
ATOM     15  C   UNL     1     137.413 133.174 138.493  1.00  0.00     0.035 C 
BRANCH  15  16
ATOM     16  C   UNL     1     136.876 134.610 138.674  1.00  0.00     0.032 CG0
ATOM     17  G   UNL     1     137.839 135.493 139.437  1.00  0.00     0.000 G0
ENDBRANCH  15  16
ENDBRANCH  13  15
ENDBRANCH   1  13
TORSDOF 0
ENDMDL
MODEL 4
REMARK VINA RESULT:    -3.575      3.368      4.659
REMARK INTER + INTRA:          -4.890
REMARK INTER:                  -4.825
REMARK INTRA:                  -0.064
REMARK UNBOUND:                -0.060
REMARK SMILES C=C1CCC=C(C)CC[C@@H]2[C@@H]1CC2(C)C
REMARK SMILES IDX 11 1 12 2 13 3 10 4 14 5 15 6 9 7 8 8 6 9 7 10 5 11 2 13
REMARK SMILES IDX 1 14 3 15 4 16
REMARK H PARENT
REMARK Flexibility Score: 70.00
ROOT
ATOM      1  C   UNL     1     133.473 138.875 136.613  1.00  0.00     0.018 C 
ATOM      2  C   UNL     1     132.791 139.371 135.331  1.00  0.00     0.015 C 
ATOM      3  C   UNL     1     133.128 138.047 134.625  1.00  0.00    -0.031 C 
ATOM      4  C   UNL     1     133.882 137.577 135.893  1.00  0.00     0.002 C 
ATOM      5  C   UNL     1     131.868 137.249 134.233  1.00  0.00     0.011 C 
ATOM      6  C   UNL     1     134.063 138.245 133.418  1.00  0.00     0.011 C 
ENDROOT
BRANCH   4   7
ATOM      7  C   UNL     1     133.379 136.301 136.600  1.00  0.00     0.009 C 
BRANCH   7   8
ATOM      8  C   UNL     1     134.426 135.722 137.565  1.00  0.00     0.030 C 
BRANCH   8   9
ATOM      9  C   UNL     1     134.244 136.228 138.984  1.00  0.00    -0.077 C 
ATOM     10  C   UNL     1     133.369 135.428 139.916  1.00  0.00     0.039 C 
ATOM     11  C   UNL     1     134.863 137.327 139.480  1.00  0.00    -0.028 CG0
ATOM     12  G   UNL     1     135.809 138.238 138.730  1.00  0.00     0.000 G0
ENDBRANCH   8   9
ENDBRANCH   7   8
ENDBRANCH   4   7
BRANCH   1  13
ATOM     13  C   UNL     1     134.585 139.790 137.111  1.00  0.00    -0.074 C 
ATOM     14  C   UNL     1     134.924 140.840 136.344  1.00  0.00     0.008 C 
BRANCH  13  15
ATOM     15  C   UNL     1     135.210 139.655 138.490  1.00  0.00     0.035 C 
BRANCH  15  16
ATOM     16  C   UNL     1     135.810 138.252 138.726  1.00  0.00     0.032 CG0
ATOM     17  G   UNL     1     134.871 137.346 139.492  1.00  0.00     0.000 G0
ENDBRANCH  15  16
ENDBRANCH  13  15
ENDBRANCH   1  13
TORSDOF 0
ENDMDL
MODEL 5
REMARK VINA RESULT:    -3.553      5.242      7.571
REMARK INTER + INTRA:          -4.859
REMARK INTER:                  -4.974
REMARK INTRA:                   0.115
REMARK UNBOUND:                -0.060
REMARK SMILES C=C1CCC=C(C)CC[C@@H]2[C@@H]1CC2(C)C
REMARK SMILES IDX 11 1 12 2 13 3 10 4 14 5 15 6 9 7 8 8 6 9 7 10 5 11 2 13
REMARK SMILES IDX 1 14 3 15 4 16
REMARK H PARENT
REMARK Flexibility Score: 70.00
ROOT
ATOM      1  C   UNL     1     138.766 137.755 137.529  1.00  0.00     0.018 C 
ATOM      2  C   UNL     1     139.398 137.355 138.869  1.00  0.00     0.015 C 
ATOM      3  C   UNL     1     138.337 138.169 139.626  1.00  0.00    -0.031 C 
ATOM      4  C   UNL     1     137.745 138.634 138.274  1.00  0.00     0.002 C 
ATOM      5  C   UNL     1     137.434 137.285 140.510  1.00  0.00     0.011 C 
ATOM      6  C   UNL     1     138.949 139.326 140.436  1.00  0.00     0.011 C 
ENDROOT
BRANCH   4   7
ATOM      7  C   UNL     1     136.279 138.266 137.963  1.00  0.00     0.009 C 
BRANCH   7   8
ATOM      8  C   UNL     1     135.975 138.320 136.457  1.00  0.00     0.030 C 
BRANCH   8   9
ATOM      9  C   UNL     1     135.982 139.738 135.917  1.00  0.00    -0.077 C 
ATOM     10  C   UNL     1     134.804 140.624 136.235  1.00  0.00     0.039 C 
ATOM     11  C   UNL     1     137.008 140.273 135.212  1.00  0.00    -0.028 CG0
ATOM     12  G   UNL     1     138.292 139.573 134.827  1.00  0.00     0.000 G0
ENDBRANCH   8   9
ENDBRANCH   7   8
ENDBRANCH   4   7
BRANCH   1  13
ATOM     13  C   UNL     1     139.733 138.446 136.575  1.00  0.00    -0.074 C 
ATOM     14  C   UNL     1     140.861 137.794 136.244  1.00  0.00     0.008 C 
BRANCH  13  15
ATOM     15  C   UNL     1     139.407 139.753 135.872  1.00  0.00     0.035 C 
BRANCH  15  16
ATOM     16  C   UNL     1     138.302 139.585 134.807  1.00  0.00     0.032 CG0
ATOM     17  G   UNL     1     137.006 140.253 135.211  1.00  0.00     0.000 G0
ENDBRANCH  15  16
ENDBRANCH  13  15
ENDBRANCH   1  13
TORSDOF 0
ENDMDL
MODEL 6
REMARK VINA RESULT:    -3.519      4.161      6.228
REMARK INTER + INTRA:          -4.814
REMARK INTER:                  -4.999
REMARK INTRA:                   0.186
REMARK UNBOUND:                -0.060
REMARK SMILES C=C1CCC=C(C)CC[C@@H]2[C@@H]1CC2(C)C
REMARK SMILES IDX 11 1 12 2 13 3 10 4 14 5 15 6 9 7 8 8 6 9 7 10 5 11 2 13
REMARK SMILES IDX 1 14 3 15 4 16
REMARK H PARENT
REMARK Flexibility Score: 70.00
ROOT
ATOM      1  C   UNL     1     137.897 134.035 137.613  1.00  0.00     0.018 C 
ATOM      2  C   UNL     1     137.454 133.442 138.957  1.00  0.00     0.015 C 
ATOM      3  C   UNL     1     138.324 134.463 139.708  1.00  0.00    -0.031 C 
ATOM      4  C   UNL     1     138.830 135.012 138.352  1.00  0.00     0.002 C 
ATOM      5  C   UNL     1     137.488 135.425 140.576  1.00  0.00     0.011 C 
ATOM      6  C   UNL     1     139.439 133.794 140.531  1.00  0.00     0.011 C 
ENDROOT
BRANCH   4   7
ATOM      7  C   UNL     1     138.549 136.493 138.023  1.00  0.00     0.009 C 
BRANCH   7   8
ATOM      8  C   UNL     1     138.507 136.752 136.508  1.00  0.00     0.030 C 
BRANCH   8   9
ATOM      9  C   UNL     1     139.888 136.714 135.878  1.00  0.00    -0.077 C 
ATOM     10  C   UNL     1     140.818 137.872 136.137  1.00  0.00     0.039 C 
ATOM     11  C   UNL     1     140.353 135.676 135.141  1.00  0.00    -0.028 CG0
ATOM     12  G   UNL     1     139.601 134.408 134.804  1.00  0.00     0.000 G0
ENDBRANCH   8   9
ENDBRANCH   7   8
ENDBRANCH   4   7
BRANCH   1  13
ATOM     13  C   UNL     1     138.536 133.019 136.673  1.00  0.00    -0.074 C 
ATOM     14  C   UNL     1     137.870 131.875 136.440  1.00  0.00     0.008 C 
BRANCH  13  15
ATOM     15  C   UNL     1     139.800 133.308 135.880  1.00  0.00     0.035 C 
BRANCH  15  16
ATOM     16  C   UNL     1     139.587 134.411 134.821  1.00  0.00     0.032 CG0
ATOM     17  G   UNL     1     140.345 135.678 135.149  1.00  0.00     0.000 G0
ENDBRANCH  15  16
ENDBRANCH  13  15
ENDBRANCH   1  13
TORSDOF 0
ENDMDL
MODEL 7
REMARK VINA RESULT:    -3.477      3.422      5.163
REMARK INTER + INTRA:          -4.757
REMARK INTER:                  -4.690
REMARK INTRA:                  -0.067
REMARK UNBOUND:                -0.060
REMARK SMILES C=C1CCC=C(C)CC[C@@H]2[C@@H]1CC2(C)C
REMARK SMILES IDX 11 1 12 2 13 3 10 4 14 5 15 6 9 7 8 8 6 9 7 10 5 11 2 13
REMARK SMILES IDX 1 14 3 15 4 16
REMARK H PARENT
REMARK Flexibility Score: 70.00
ROOT
ATOM      1  C   UNL     1     132.552 136.211 135.458  1.00  0.00     0.018 C 
ATOM      2  C   UNL     1     131.883 134.975 136.073  1.00  0.00     0.015 C 
ATOM      3  C   UNL     1     133.103 134.752 136.982  1.00  0.00    -0.031 C 
ATOM      4  C   UNL     1     133.809 135.953 136.308  1.00  0.00     0.002 C 
ATOM      5  C   UNL     1     132.760 134.902 138.478  1.00  0.00     0.011 C 
ATOM      6  C   UNL     1     133.810 133.414 136.702  1.00  0.00     0.011 C 
ENDROOT
BRANCH   4   7
ATOM      7  C   UNL     1     134.202 137.151 137.197  1.00  0.00     0.009 C 
BRANCH   7   8
ATOM      8  C   UNL     1     135.304 138.012 136.556  1.00  0.00     0.030 C 
BRANCH   8   9
ATOM      9  C   UNL     1     134.738 139.165 135.749  1.00  0.00    -0.077 C 
ATOM     10  C   UNL     1     134.572 140.498 136.435  1.00  0.00     0.039 C 
ATOM     11  C   UNL     1     134.422 139.084 134.434  1.00  0.00    -0.028 CG0
ATOM     12  G   UNL     1     134.554 137.860 133.555  1.00  0.00     0.000 G0
ENDBRANCH   8   9
ENDBRANCH   7   8
ENDBRANCH   4   7
BRANCH   1  13
ATOM     13  C   UNL     1     132.695 136.142 133.942  1.00  0.00    -0.074 C 
ATOM     14  C   UNL     1     132.263 135.030 133.321  1.00  0.00     0.008 C 
BRANCH  13  15
ATOM     15  C   UNL     1     133.155 137.321 133.101  1.00  0.00     0.035 C 
BRANCH  15  16
ATOM     16  C   UNL     1     134.529 137.861 133.552  1.00  0.00     0.032 CG0
ATOM     17  G   UNL     1     134.406 139.086 134.431  1.00  0.00     0.000 G0
ENDBRANCH  15  16
ENDBRANCH  13  15
ENDBRANCH   1  13
TORSDOF 0
ENDMDL
MODEL 8
REMARK VINA RESULT:    -3.450      3.028      4.562
REMARK INTER + INTRA:          -4.720
REMARK INTER:                  -4.650
REMARK INTRA:                  -0.070
REMARK UNBOUND:                -0.060
REMARK SMILES C=C1CCC=C(C)CC[C@@H]2[C@@H]1CC2(C)C
REMARK SMILES IDX 11 1 12 2 13 3 10 4 14 5 15 6 9 7 8 8 6 9 7 10 5 11 2 13
REMARK SMILES IDX 1 14 3 15 4 16
REMARK H PARENT
REMARK Flexibility Score: 70.00
ROOT
ATOM      1  C   UNL     1     138.559 133.583 137.139  1.00  0.00     0.018 C 
ATOM      2  C   UNL     1     138.138 132.229 136.552  1.00  0.00     0.015 C 
ATOM      3  C   UNL     1     137.427 132.941 135.390  1.00  0.00    -0.031 C 
ATOM      4  C   UNL     1     137.785 134.308 136.022  1.00  0.00     0.002 C 
ATOM      5  C   UNL     1     138.064 132.621 134.023  1.00  0.00     0.011 C 
ATOM      6  C   UNL     1     135.911 132.673 135.375  1.00  0.00     0.011 C 
ENDROOT
BRANCH   4   7
ATOM      7  C   UNL     1     138.662 135.275 135.199  1.00  0.00     0.009 C 
BRANCH   7   8
ATOM      8  C   UNL     1     138.488 136.736 135.646  1.00  0.00     0.030 C 
BRANCH   8   9
ATOM      9  C   UNL     1     139.518 137.149 136.680  1.00  0.00    -0.077 C 
ATOM     10  C   UNL     1     140.764 137.850 136.200  1.00  0.00     0.039 C 
ATOM     11  C   UNL     1     139.362 136.974 138.014  1.00  0.00    -0.028 CG0
ATOM     12  G   UNL     1     138.174 136.337 138.701  1.00  0.00     0.000 G0
ENDBRANCH   8   9
ENDBRANCH   7   8
ENDBRANCH   4   7
BRANCH   1  13
ATOM     13  C   UNL     1     138.099 133.800 138.575  1.00  0.00    -0.074 C 
ATOM     14  C   UNL     1     137.406 132.813 139.168  1.00  0.00     0.008 C 
BRANCH  13  15
ATOM     15  C   UNL     1     138.517 135.004 139.404  1.00  0.00     0.035 C 
BRANCH  15  16
ATOM     16  C   UNL     1     138.171 136.340 138.712  1.00  0.00     0.032 CG0
ATOM     17  G   UNL     1     139.367 136.957 138.021  1.00  0.00     0.000 G0
ENDBRANCH  15  16
ENDBRANCH  13  15
ENDBRANCH   1  13
TORSDOF 0
ENDMDL
MODEL 9
REMARK VINA RESULT:    -3.403      3.496      5.252
REMARK INTER + INTRA:          -4.657
REMARK INTER:                  -4.617
REMARK INTRA:                  -0.040
REMARK UNBOUND:                -0.060
REMARK SMILES C=C1CCC=C(C)CC[C@@H]2[C@@H]1CC2(C)C
REMARK SMILES IDX 11 1 12 2 13 3 10 4 14 5 15 6 9 7 8 8 6 9 7 10 5 11 2 13
REMARK SMILES IDX 1 14 3 15 4 16
REMARK H PARENT
REMARK Flexibility Score: 70.00
ROOT
ATOM      1  C   UNL     1     134.064 139.023 137.138  1.00  0.00     0.018 C 
ATOM      2  C   UNL     1     134.506 140.380 136.575  1.00  0.00     0.015 C 
ATOM      3  C   UNL     1     135.206 139.679 135.400  1.00  0.00    -0.031 C 
ATOM      4  C   UNL     1     134.826 138.307 136.008  1.00  0.00     0.002 C 
ATOM      5  C   UNL     1     134.574 140.032 134.039  1.00  0.00     0.011 C 
ATOM      6  C   UNL     1     136.726 139.923 135.389  1.00  0.00     0.011 C 
ENDROOT
BRANCH   4   7
ATOM      7  C   UNL     1     133.935 137.368 135.168  1.00  0.00     0.009 C 
BRANCH   7   8
ATOM      8  C   UNL     1     134.101 135.895 135.574  1.00  0.00     0.030 C 
BRANCH   8   9
ATOM      9  C   UNL     1     133.081 135.464 136.613  1.00  0.00    -0.077 C 
ATOM     10  C   UNL     1     131.822 134.789 136.133  1.00  0.00     0.039 C 
ATOM     11  C   UNL     1     133.259 135.603 137.949  1.00  0.00    -0.028 CG0
ATOM     12  G   UNL     1     134.463 136.210 138.634  1.00  0.00     0.000 G0
ENDBRANCH   8   9
ENDBRANCH   7   8
ENDBRANCH   4   7
BRANCH   1  13
ATOM     13  C   UNL     1     134.521 138.773 138.570  1.00  0.00    -0.074 C 
ATOM     14  C   UNL     1     135.200 139.752 139.192  1.00  0.00     0.008 C 
BRANCH  13  15
ATOM     15  C   UNL     1     134.113 137.543 139.364  1.00  0.00     0.035 C 
BRANCH  15  16
ATOM     16  C   UNL     1     134.464 136.230 138.632  1.00  0.00     0.032 CG0
ATOM     17  G   UNL     1     133.263 135.610 137.954  1.00  0.00     0.000 G0
ENDBRANCH  15  16
ENDBRANCH  13  15
ENDBRANCH   1  13
TORSDOF 0
ENDMDL
