MODEL 1
REMARK VINA RESULT:    -4.546      0.000      0.000
REMARK INTER + INTRA:          -9.822
REMARK INTER:                  -8.001
REMARK INTRA:                  -1.821
REMARK UNBOUND:                -1.821
REMARK SMILES CCCCCCCCCCCCCCC(=O)[O-]
REMARK SMILES IDX 9 1 10 2 11 3 12 4 13 5 14 6 15 7 16 8 17 9 8 10 7 11 6 12
REMARK SMILES IDX 5 13 4 14 3 15 2 16 1 17
REMARK H PARENT
REMARK Flexibility Score: inf
ROOT
ATOM      1  C   UNL     1      10.103  28.649 -13.115  1.00  0.00     0.000 C 
ENDROOT
BRANCH   1   2
ATOM      2  C   UNL     1       8.724  29.323 -13.000  1.00  0.00     0.000 C 
BRANCH   2   3
ATOM      3  C   UNL     1       7.579  28.306 -12.861  1.00  0.00     0.000 C 
BRANCH   3   4
ATOM      4  C   UNL     1       6.925  27.960 -14.211  1.00  0.00     0.000 C 
BRANCH   4   5
ATOM      5  C   UNL     1       7.016  29.111 -15.225  1.00  0.00     0.006 C 
BRANCH   5   6
ATOM      6  C   UNL     1       5.817  30.064 -15.143  1.00  0.00     0.053 C 
BRANCH   6   7
ATOM      7  C   UNL     1       6.205  31.431 -15.608  1.00  0.00     0.041 C 
ATOM      8  O   UNL     1       5.509  32.030 -16.469  1.00  0.00    -0.550 OA
ATOM      9  O   UNL     1       7.366  32.025 -15.129  1.00  0.00    -0.550 OA
ENDBRANCH   6   7
ENDBRANCH   5   6
ENDBRANCH   4   5
ENDBRANCH   3   4
ENDBRANCH   2   3
ENDBRANCH   1   2
BRANCH   1  10
ATOM     10  C   UNL     1      10.674  28.716 -14.541  1.00  0.00     0.000 C 
BRANCH  10  11
ATOM     11  C   UNL     1      10.567  27.372 -15.283  1.00  0.00    -0.000 C 
BRANCH  11  12
ATOM     12  C   UNL     1      11.030  26.186 -14.421  1.00  0.00    -0.000 C 
BRANCH  12  13
ATOM     13  C   UNL     1      10.124  24.951 -14.575  1.00  0.00    -0.000 C 
BRANCH  13  14
ATOM     14  C   UNL     1       9.072  24.843 -13.457  1.00  0.00    -0.000 C 
BRANCH  14  15
ATOM     15  C   UNL     1       9.581  25.199 -12.046  1.00  0.00    -0.000 C 
BRANCH  15  16
ATOM     16  C   UNL     1       8.992  24.345 -10.908  1.00  0.00    -0.003 C 
ATOM     17  C   UNL     1       7.564  23.881 -11.190  1.00  0.00     0.004 C 
ENDBRANCH  15  16
ENDBRANCH  14  15
ENDBRANCH  13  14
ENDBRANCH  12  13
ENDBRANCH  11  12
ENDBRANCH  10  11
ENDBRANCH   1  10
TORSDOF 13
ENDMDL
MODEL 2
REMARK VINA RESULT:    -4.254      3.658      6.887
REMARK INTER + INTRA:          -9.309
REMARK INTER:                  -8.009
REMARK INTRA:                  -1.300
REMARK UNBOUND:                -1.821
REMARK SMILES CCCCCCCCCCCCCCC(=O)[O-]
REMARK SMILES IDX 9 1 10 2 11 3 12 4 13 5 14 6 15 7 16 8 17 9 8 10 7 11 6 12
REMARK SMILES IDX 5 13 4 14 3 15 2 16 1 17
REMARK H PARENT
REMARK Flexibility Score: inf
ROOT
ATOM      1  C   UNL     1       9.126  28.893 -13.085  1.00  0.00     0.000 C 
ENDROOT
BRANCH   1   2
ATOM      2  C   UNL     1       7.648  28.510 -12.899  1.00  0.00     0.000 C 
BRANCH   2   3
ATOM      3  C   UNL     1       7.414  26.993 -12.993  1.00  0.00     0.000 C 
BRANCH   3   4
ATOM      4  C   UNL     1       8.716  26.182 -12.862  1.00  0.00     0.000 C 
BRANCH   4   5
ATOM      5  C   UNL     1       8.467  24.666 -12.827  1.00  0.00     0.006 C 
BRANCH   5   6
ATOM      6  C   UNL     1       8.832  24.039 -11.476  1.00  0.00     0.053 C 
BRANCH   6   7
ATOM      7  C   UNL     1       7.598  23.584 -10.762  1.00  0.00     0.041 C 
ATOM      8  O   UNL     1       6.460  23.874 -11.215  1.00  0.00    -0.550 OA
ATOM      9  O   UNL     1       7.706  22.884  -9.568  1.00  0.00    -0.550 OA
ENDBRANCH   6   7
ENDBRANCH   5   6
ENDBRANCH   4   5
ENDBRANCH   3   4
ENDBRANCH   2   3
ENDBRANCH   1   2
BRANCH   1  10
ATOM     10  C   UNL     1       9.377  30.395 -12.876  1.00  0.00     0.000 C 
BRANCH  10  11
ATOM     11  C   UNL     1       8.078  31.181 -12.629  1.00  0.00    -0.000 C 
BRANCH  11  12
ATOM     12  C   UNL     1       8.114  32.588 -13.247  1.00  0.00    -0.000 C 
BRANCH  12  13
ATOM     13  C   UNL     1       7.865  32.576 -14.766  1.00  0.00    -0.000 C 
BRANCH  13  14
ATOM     14  C   UNL     1       6.377  32.738 -15.126  1.00  0.00    -0.000 C 
BRANCH  14  15
ATOM     15  C   UNL     1       5.794  31.615 -16.007  1.00  0.00    -0.000 C 
BRANCH  15  16
ATOM     16  C   UNL     1       5.692  30.240 -15.322  1.00  0.00    -0.003 C 
ATOM     17  C   UNL     1       6.466  29.148 -16.059  1.00  0.00     0.004 C 
ENDBRANCH  15  16
ENDBRANCH  14  15
ENDBRANCH  13  14
ENDBRANCH  12  13
ENDBRANCH  11  12
ENDBRANCH  10  11
ENDBRANCH   1  10
TORSDOF 13
ENDMDL
MODEL 3
REMARK VINA RESULT:    -4.218      3.919      6.675
REMARK INTER + INTRA:          -9.245
REMARK INTER:                  -7.990
REMARK INTRA:                  -1.256
REMARK UNBOUND:                -1.821
REMARK SMILES CCCCCCCCCCCCCCC(=O)[O-]
REMARK SMILES IDX 9 1 10 2 11 3 12 4 13 5 14 6 15 7 16 8 17 9 8 10 7 11 6 12
REMARK SMILES IDX 5 13 4 14 3 15 2 16 1 17
REMARK H PARENT
REMARK Flexibility Score: inf
ROOT
ATOM      1  C   UNL     1      10.321  27.502 -15.073  1.00  0.00     0.000 C 
ENDROOT
BRANCH   1   2
ATOM      2  C   UNL     1      10.957  26.317 -14.325  1.00  0.00     0.000 C 
BRANCH   2   3
ATOM      3  C   UNL     1       9.917  25.282 -13.865  1.00  0.00     0.000 C 
BRANCH   3   4
ATOM      4  C   UNL     1       8.885  25.871 -12.886  1.00  0.00     0.000 C 
BRANCH   4   5
ATOM      5  C   UNL     1       8.097  24.787 -12.134  1.00  0.00     0.006 C 
BRANCH   5   6
ATOM      6  C   UNL     1       8.800  24.332 -10.849  1.00  0.00     0.053 C 
BRANCH   6   7
ATOM      7  C   UNL     1       8.243  23.023 -10.386  1.00  0.00     0.041 C 
ATOM      8  O   UNL     1       8.244  22.026 -11.155  1.00  0.00    -0.550 OA
ATOM      9  O   UNL     1       7.676  22.917  -9.123  1.00  0.00    -0.550 OA
ENDBRANCH   6   7
ENDBRANCH   5   6
ENDBRANCH   4   5
ENDBRANCH   3   4
ENDBRANCH   2   3
ENDBRANCH   1   2
BRANCH   1  10
ATOM     10  C   UNL     1      10.751  28.861 -14.498  1.00  0.00     0.000 C 
BRANCH  10  11
ATOM     11  C   UNL     1      10.078  29.171 -13.149  1.00  0.00    -0.000 C 
BRANCH  11  12
ATOM     12  C   UNL     1       8.855  30.089 -13.299  1.00  0.00    -0.000 C 
BRANCH  12  13
ATOM     13  C   UNL     1       7.535  29.387 -12.931  1.00  0.00    -0.000 C 
BRANCH  13  14
ATOM     14  C   UNL     1       6.998  28.498 -14.067  1.00  0.00    -0.000 C 
BRANCH  14  15
ATOM     15  C   UNL     1       6.457  29.263 -15.292  1.00  0.00    -0.000 C 
BRANCH  15  16
ATOM     16  C   UNL     1       5.566  30.473 -14.960  1.00  0.00    -0.003 C 
ATOM     17  C   UNL     1       5.870  31.693 -15.828  1.00  0.00     0.004 C 
ENDBRANCH  15  16
ENDBRANCH  14  15
ENDBRANCH  13  14
ENDBRANCH  12  13
ENDBRANCH  11  12
ENDBRANCH  10  11
ENDBRANCH   1  10
TORSDOF 13
ENDMDL
MODEL 4
REMARK VINA RESULT:    -4.193      1.198      1.792
REMARK INTER + INTRA:          -9.201
REMARK INTER:                  -8.091
REMARK INTRA:                  -1.110
REMARK UNBOUND:                -1.821
REMARK SMILES CCCCCCCCCCCCCCC(=O)[O-]
REMARK SMILES IDX 9 1 10 2 11 3 12 4 13 5 14 6 15 7 16 8 17 9 8 10 7 11 6 12
REMARK SMILES IDX 5 13 4 14 3 15 2 16 1 17
REMARK H PARENT
REMARK Flexibility Score: inf
ROOT
ATOM      1  C   UNL     1       9.020  28.372 -14.815  1.00  0.00     0.000 C 
ENDROOT
BRANCH   1   2
ATOM      2  C   UNL     1       9.022  28.574 -13.290  1.00  0.00     0.000 C 
BRANCH   2   3
ATOM      3  C   UNL     1       7.866  29.468 -12.812  1.00  0.00     0.000 C 
BRANCH   3   4
ATOM      4  C   UNL     1       8.237  30.962 -12.798  1.00  0.00     0.000 C 
BRANCH   4   5
ATOM      5  C   UNL     1       7.923  31.662 -14.130  1.00  0.00     0.006 C 
BRANCH   5   6
ATOM      6  C   UNL     1       6.419  31.730 -14.420  1.00  0.00     0.053 C 
BRANCH   6   7
ATOM      7  C   UNL     1       6.101  31.025 -15.700  1.00  0.00     0.041 C 
ATOM      8  O   UNL     1       5.904  31.683 -16.755  1.00  0.00    -0.550 OA
ATOM      9  O   UNL     1       5.972  29.642 -15.718  1.00  0.00    -0.550 OA
ENDBRANCH   6   7
ENDBRANCH   5   6
ENDBRANCH   4   5
ENDBRANCH   3   4
ENDBRANCH   2   3
ENDBRANCH   1   2
BRANCH   1  10
ATOM     10  C   UNL     1      10.309  27.705 -15.323  1.00  0.00     0.000 C 
BRANCH  10  11
ATOM     11  C   UNL     1      10.855  26.654 -14.341  1.00  0.00    -0.000 C 
BRANCH  11  12
ATOM     12  C   UNL     1      10.327  25.241 -14.638  1.00  0.00    -0.000 C 
BRANCH  12  13
ATOM     13  C   UNL     1       9.410  24.703 -13.524  1.00  0.00    -0.000 C 
BRANCH  13  14
ATOM     14  C   UNL     1       9.803  25.220 -12.128  1.00  0.00    -0.000 C 
BRANCH  14  15
ATOM     15  C   UNL     1       9.058  24.553 -10.954  1.00  0.00    -0.000 C 
BRANCH  15  16
ATOM     16  C   UNL     1       7.860  23.676 -11.360  1.00  0.00    -0.003 C 
ATOM     17  C   UNL     1       7.422  22.717 -10.254  1.00  0.00     0.004 C 
ENDBRANCH  15  16
ENDBRANCH  14  15
ENDBRANCH  13  14
ENDBRANCH  12  13
ENDBRANCH  11  12
ENDBRANCH  10  11
ENDBRANCH   1  10
TORSDOF 13
ENDMDL
MODEL 5
REMARK VINA RESULT:    -4.191      9.419     11.658
REMARK INTER + INTRA:          -9.197
REMARK INTER:                  -8.515
REMARK INTRA:                  -0.682
REMARK UNBOUND:                -1.821
REMARK SMILES CCCCCCCCCCCCCCC(=O)[O-]
REMARK SMILES IDX 9 1 10 2 11 3 12 4 13 5 14 6 15 7 16 8 17 9 8 10 7 11 6 12
REMARK SMILES IDX 5 13 4 14 3 15 2 16 1 17
REMARK H PARENT
REMARK Flexibility Score: inf
ROOT
ATOM      1  C   UNL     1       2.358  21.093 -13.658  1.00  0.00     0.000 C 
ENDROOT
BRANCH   1   2
ATOM      2  C   UNL     1       2.091  19.732 -12.993  1.00  0.00     0.000 C 
BRANCH   2   3
ATOM      3  C   UNL     1       2.152  19.803 -11.458  1.00  0.00     0.000 C 
BRANCH   3   4
ATOM      4  C   UNL     1       1.473  21.064 -10.894  1.00  0.00     0.000 C 
BRANCH   4   5
ATOM      5  C   UNL     1       2.165  21.591  -9.627  1.00  0.00     0.006 C 
BRANCH   5   6
ATOM      6  C   UNL     1       1.296  21.438  -8.373  1.00  0.00     0.053 C 
BRANCH   6   7
ATOM      7  C   UNL     1       1.382  20.041  -7.846  1.00  0.00     0.041 C 
ATOM      8  O   UNL     1       0.423  19.241  -8.008  1.00  0.00    -0.550 OA
ATOM      9  O   UNL     1       2.501  19.637  -7.129  1.00  0.00    -0.550 OA
ENDBRANCH   6   7
ENDBRANCH   5   6
ENDBRANCH   4   5
ENDBRANCH   3   4
ENDBRANCH   2   3
ENDBRANCH   1   2
BRANCH   1  10
ATOM     10  C   UNL     1       2.556  20.978 -15.179  1.00  0.00     0.000 C 
BRANCH  10  11
ATOM     11  C   UNL     1       3.489  22.067 -15.736  1.00  0.00    -0.000 C 
BRANCH  11  12
ATOM     12  C   UNL     1       3.050  22.565 -17.122  1.00  0.00    -0.000 C 
BRANCH  12  13
ATOM     13  C   UNL     1       1.588  22.210 -17.446  1.00  0.00    -0.000 C 
BRANCH  13  14
ATOM     14  C   UNL     1       1.297  22.202 -18.957  1.00  0.00    -0.000 C 
BRANCH  14  15
ATOM     15  C   UNL     1       2.299  21.395 -19.808  1.00  0.00    -0.000 C 
BRANCH  15  16
ATOM     16  C   UNL     1       1.823  19.987 -20.209  1.00  0.00    -0.003 C 
ATOM     17  C   UNL     1       2.917  19.155 -20.876  1.00  0.00     0.004 C 
ENDBRANCH  15  16
ENDBRANCH  14  15
ENDBRANCH  13  14
ENDBRANCH  12  13
ENDBRANCH  11  12
ENDBRANCH  10  11
ENDBRANCH   1  10
TORSDOF 13
ENDMDL
MODEL 6
REMARK VINA RESULT:    -4.174      8.864     10.653
REMARK INTER + INTRA:          -9.168
REMARK INTER:                  -8.519
REMARK INTRA:                  -0.649
REMARK UNBOUND:                -1.821
REMARK SMILES CCCCCCCCCCCCCCC(=O)[O-]
REMARK SMILES IDX 9 1 10 2 11 3 12 4 13 5 14 6 15 7 16 8 17 9 8 10 7 11 6 12
REMARK SMILES IDX 5 13 4 14 3 15 2 16 1 17
REMARK H PARENT
REMARK Flexibility Score: inf
ROOT
ATOM      1  C   UNL     1       2.520  20.855 -14.902  1.00  0.00     0.000 C 
ENDROOT
BRANCH   1   2
ATOM      2  C   UNL     1       3.104  22.201 -15.364  1.00  0.00     0.000 C 
BRANCH   2   3
ATOM      3  C   UNL     1       2.812  22.494 -16.845  1.00  0.00     0.000 C 
BRANCH   3   4
ATOM      4  C   UNL     1       1.970  21.393 -17.514  1.00  0.00     0.000 C 
BRANCH   4   5
ATOM      5  C   UNL     1       1.415  21.821 -18.881  1.00  0.00     0.006 C 
BRANCH   5   6
ATOM      6  C   UNL     1       1.173  20.631 -19.818  1.00  0.00     0.053 C 
BRANCH   6   7
ATOM      7  C   UNL     1       2.435  20.265 -20.533  1.00  0.00     0.041 C 
ATOM      8  O   UNL     1       2.758  19.056 -20.671  1.00  0.00    -0.550 OA
ATOM      9  O   UNL     1       3.281  21.261 -21.002  1.00  0.00    -0.550 OA
ENDBRANCH   6   7
ENDBRANCH   5   6
ENDBRANCH   4   5
ENDBRANCH   3   4
ENDBRANCH   2   3
ENDBRANCH   1   2
BRANCH   1  10
ATOM     10  C   UNL     1       2.179  20.844 -13.403  1.00  0.00     0.000 C 
BRANCH  10  11
ATOM     11  C   UNL     1       2.217  19.429 -12.799  1.00  0.00    -0.000 C 
BRANCH  11  12
ATOM     12  C   UNL     1       2.198  19.444 -11.262  1.00  0.00    -0.000 C 
BRANCH  12  13
ATOM     13  C   UNL     1       1.819  20.820 -10.686  1.00  0.00    -0.000 C 
BRANCH  13  14
ATOM     14  C   UNL     1       2.883  21.376  -9.724  1.00  0.00    -0.000 C 
BRANCH  14  15
ATOM     15  C   UNL     1       2.461  21.420  -8.241  1.00  0.00    -0.000 C 
BRANCH  15  16
ATOM     16  C   UNL     1       1.031  20.925  -7.958  1.00  0.00    -0.003 C 
ATOM     17  C   UNL     1       0.680  20.934  -6.471  1.00  0.00     0.004 C 
ENDBRANCH  15  16
ENDBRANCH  14  15
ENDBRANCH  13  14
ENDBRANCH  12  13
ENDBRANCH  11  12
ENDBRANCH  10  11
ENDBRANCH   1  10
TORSDOF 13
ENDMDL
MODEL 7
REMARK VINA RESULT:    -4.098      8.911     10.668
REMARK INTER + INTRA:          -9.034
REMARK INTER:                  -8.481
REMARK INTRA:                  -0.554
REMARK UNBOUND:                -1.821
REMARK SMILES CCCCCCCCCCCCCCC(=O)[O-]
REMARK SMILES IDX 9 1 10 2 11 3 12 4 13 5 14 6 15 7 16 8 17 9 8 10 7 11 6 12
REMARK SMILES IDX 5 13 4 14 3 15 2 16 1 17
REMARK H PARENT
REMARK Flexibility Score: inf
ROOT
ATOM      1  C   UNL     1       2.381  20.922 -13.349  1.00  0.00     0.000 C 
ENDROOT
BRANCH   1   2
ATOM      2  C   UNL     1       2.511  20.848 -14.880  1.00  0.00     0.000 C 
BRANCH   2   3
ATOM      3  C   UNL     1       3.137  22.117 -15.482  1.00  0.00     0.000 C 
BRANCH   3   4
ATOM      4  C   UNL     1       2.980  22.188 -17.012  1.00  0.00     0.000 C 
BRANCH   4   5
ATOM      5  C   UNL     1       1.625  21.646 -17.494  1.00  0.00     0.006 C 
BRANCH   5   6
ATOM      6  C   UNL     1       1.345  21.981 -18.964  1.00  0.00     0.053 C 
BRANCH   6   7
ATOM      7  C   UNL     1       2.084  21.041 -19.863  1.00  0.00     0.041 C 
ATOM      8  O   UNL     1       1.795  19.816 -19.876  1.00  0.00    -0.550 OA
ATOM      9  O   UNL     1       3.129  21.510 -20.650  1.00  0.00    -0.550 OA
ENDBRANCH   6   7
ENDBRANCH   5   6
ENDBRANCH   4   5
ENDBRANCH   3   4
ENDBRANCH   2   3
ENDBRANCH   1   2
BRANCH   1  10
ATOM     10  C   UNL     1       1.870  19.608 -12.736  1.00  0.00     0.000 C 
BRANCH  10  11
ATOM     11  C   UNL     1       2.781  19.089 -11.610  1.00  0.00    -0.000 C 
BRANCH  11  12
ATOM     12  C   UNL     1       2.845  20.053 -10.414  1.00  0.00    -0.000 C 
BRANCH  12  13
ATOM     13  C   UNL     1       2.927  19.319  -9.064  1.00  0.00    -0.000 C 
BRANCH  13  14
ATOM     14  C   UNL     1       2.780  20.268  -7.861  1.00  0.00    -0.000 C 
BRANCH  14  15
ATOM     15  C   UNL     1       1.643  21.303  -7.982  1.00  0.00    -0.000 C 
BRANCH  15  16
ATOM     16  C   UNL     1       0.419  21.030  -7.091  1.00  0.00    -0.003 C 
ATOM     17  C   UNL     1       0.791  20.761  -5.633  1.00  0.00     0.004 C 
ENDBRANCH  15  16
ENDBRANCH  14  15
ENDBRANCH  13  14
ENDBRANCH  12  13
ENDBRANCH  11  12
ENDBRANCH  10  11
ENDBRANCH   1  10
TORSDOF 13
ENDMDL
MODEL 8
REMARK VINA RESULT:    -4.074      3.707      6.893
REMARK INTER + INTRA:          -8.992
REMARK INTER:                  -7.820
REMARK INTRA:                  -1.172
REMARK UNBOUND:                -1.821
REMARK SMILES CCCCCCCCCCCCCCC(=O)[O-]
REMARK SMILES IDX 9 1 10 2 11 3 12 4 13 5 14 6 15 7 16 8 17 9 8 10 7 11 6 12
REMARK SMILES IDX 5 13 4 14 3 15 2 16 1 17
REMARK H PARENT
REMARK Flexibility Score: inf
ROOT
ATOM      1  C   UNL     1       8.690  28.996 -13.098  1.00  0.00     0.000 C 
ENDROOT
BRANCH   1   2
ATOM      2  C   UNL     1      10.044  28.349 -12.758  1.00  0.00     0.000 C 
BRANCH   2   3
ATOM      3  C   UNL     1      10.138  26.890 -13.235  1.00  0.00     0.000 C 
BRANCH   3   4
ATOM      4  C   UNL     1      10.324  25.896 -12.074  1.00  0.00     0.000 C 
BRANCH   4   5
ATOM      5  C   UNL     1       9.264  24.784 -12.073  1.00  0.00     0.006 C 
BRANCH   5   6
ATOM      6  C   UNL     1       8.852  24.364 -10.657  1.00  0.00     0.053 C 
BRANCH   6   7
ATOM      7  C   UNL     1       7.544  23.637 -10.688  1.00  0.00     0.041 C 
ATOM      8  O   UNL     1       7.352  22.646  -9.936  1.00  0.00    -0.550 OA
ATOM      9  O   UNL     1       6.556  24.022 -11.586  1.00  0.00    -0.550 OA
ENDBRANCH   6   7
ENDBRANCH   5   6
ENDBRANCH   4   5
ENDBRANCH   3   4
ENDBRANCH   2   3
ENDBRANCH   1   2
BRANCH   1  10
ATOM     10  C   UNL     1       7.537  27.980 -13.105  1.00  0.00     0.000 C 
BRANCH  10  11
ATOM     11  C   UNL     1       6.641  28.114 -14.350  1.00  0.00    -0.000 C 
BRANCH  11  12
ATOM     12  C   UNL     1       7.016  29.327 -15.216  1.00  0.00    -0.000 C 
BRANCH  12  13
ATOM     13  C   UNL     1       5.889  30.372 -15.293  1.00  0.00    -0.000 C 
BRANCH  13  14
ATOM     14  C   UNL     1       6.376  31.797 -14.973  1.00  0.00    -0.000 C 
BRANCH  14  15
ATOM     15  C   UNL     1       5.858  32.378 -13.642  1.00  0.00    -0.000 C 
BRANCH  15  16
ATOM     16  C   UNL     1       6.641  31.936 -12.392  1.00  0.00    -0.003 C 
ATOM     17  C   UNL     1       6.885  33.077 -11.406  1.00  0.00     0.004 C 
ENDBRANCH  15  16
ENDBRANCH  14  15
ENDBRANCH  13  14
ENDBRANCH  12  13
ENDBRANCH  11  12
ENDBRANCH  10  11
ENDBRANCH   1  10
TORSDOF 13
ENDMDL
MODEL 9
REMARK VINA RESULT:    -4.064      1.394      2.712
REMARK INTER + INTRA:          -8.974
REMARK INTER:                  -7.625
REMARK INTRA:                  -1.349
REMARK UNBOUND:                -1.821
REMARK SMILES CCCCCCCCCCCCCCC(=O)[O-]
REMARK SMILES IDX 9 1 10 2 11 3 12 4 13 5 14 6 15 7 16 8 17 9 8 10 7 11 6 12
REMARK SMILES IDX 5 13 4 14 3 15 2 16 1 17
REMARK H PARENT
REMARK Flexibility Score: inf
ROOT
ATOM      1  C   UNL     1       6.986  28.172 -14.026  1.00  0.00     0.000 C 
ENDROOT
BRANCH   1   2
ATOM      2  C   UNL     1       7.159  29.195 -15.162  1.00  0.00     0.000 C 
BRANCH   2   3
ATOM      3  C   UNL     1       5.873  29.989 -15.443  1.00  0.00     0.000 C 
BRANCH   3   4
ATOM      4  C   UNL     1       5.653  31.138 -14.443  1.00  0.00     0.000 C 
BRANCH   4   5
ATOM      5  C   UNL     1       4.882  32.317 -15.057  1.00  0.00     0.006 C 
BRANCH   5   6
ATOM      6  C   UNL     1       5.767  33.205 -15.940  1.00  0.00     0.053 C 
BRANCH   6   7
ATOM      7  C   UNL     1       5.249  33.228 -17.343  1.00  0.00     0.041 C 
ATOM      8  O   UNL     1       4.489  34.157 -17.724  1.00  0.00    -0.550 OA
ATOM      9  O   UNL     1       5.562  32.195 -18.217  1.00  0.00    -0.550 OA
ENDBRANCH   6   7
ENDBRANCH   5   6
ENDBRANCH   4   5
ENDBRANCH   3   4
ENDBRANCH   2   3
ENDBRANCH   1   2
BRANCH   1  10
ATOM     10  C   UNL     1       7.870  28.487 -12.809  1.00  0.00     0.000 C 
BRANCH  10  11
ATOM     11  C   UNL     1       9.361  28.594 -13.174  1.00  0.00    -0.000 C 
BRANCH  11  12
ATOM     12  C   UNL     1      10.154  27.335 -12.785  1.00  0.00    -0.000 C 
BRANCH  12  13
ATOM     13  C   UNL     1      10.195  26.288 -13.912  1.00  0.00    -0.000 C 
BRANCH  13  14
ATOM     14  C   UNL     1       9.434  24.998 -13.554  1.00  0.00    -0.000 C 
BRANCH  14  15
ATOM     15  C   UNL     1       9.329  24.702 -12.044  1.00  0.00    -0.000 C 
BRANCH  15  16
ATOM     16  C   UNL     1       7.922  24.315 -11.555  1.00  0.00    -0.003 C 
ATOM     17  C   UNL     1       6.814  24.786 -12.495  1.00  0.00     0.004 C 
ENDBRANCH  15  16
ENDBRANCH  14  15
ENDBRANCH  13  14
ENDBRANCH  12  13
ENDBRANCH  11  12
ENDBRANCH  10  11
ENDBRANCH   1  10
TORSDOF 13
ENDMDL
