MODEL 1
REMARK VINA RESULT:    -4.015      0.000      0.000
REMARK INTER + INTRA:         -10.273
REMARK INTER:                  -7.770
REMARK INTRA:                  -2.503
REMARK UNBOUND:                -2.503
REMARK SMILES CCCCCCCCCCCCCCCCCC(=O)[O-]
REMARK SMILES IDX 10 1 11 2 12 3 13 4 14 5 15 6 16 7 17 8 18 9 19 10 20 11
REMARK SMILES IDX 9 12 8 13 7 14 6 15 5 16 4 17 3 18 2 19 1 20
REMARK H PARENT
REMARK Flexibility Score: inf
ROOT
ATOM      1  C   UNL     1     164.526 177.275 186.829  1.00  0.00     0.000 C 
ENDROOT
BRANCH   1   2
ATOM      2  C   UNL     1     163.429 178.308 187.138  1.00  0.00     0.000 C 
BRANCH   2   3
ATOM      3  C   UNL     1     162.443 177.819 188.214  1.00  0.00     0.000 C 
BRANCH   3   4
ATOM      4  C   UNL     1     160.993 177.767 187.698  1.00  0.00     0.000 C 
BRANCH   4   5
ATOM      5  C   UNL     1     160.838 178.239 186.235  1.00  0.00     0.000 C 
BRANCH   5   6
ATOM      6  C   UNL     1     160.518 177.103 185.244  1.00  0.00     0.000 C 
BRANCH   6   7
ATOM      7  C   UNL     1     160.468 177.529 183.768  1.00  0.00     0.006 C 
BRANCH   7   8
ATOM      8  C   UNL     1     161.515 176.810 182.905  1.00  0.00     0.053 C 
BRANCH   8   9
ATOM      9  C   UNL     1     162.386 177.798 182.194  1.00  0.00     0.041 C 
ATOM     10  O   UNL     1     163.637 177.663 182.207  1.00  0.00    -0.550 OA
ATOM     11  O   UNL     1     161.815 178.877 181.530  1.00  0.00    -0.550 OA
ENDBRANCH   8   9
ENDBRANCH   7   8
ENDBRANCH   6   7
ENDBRANCH   5   6
ENDBRANCH   4   5
ENDBRANCH   3   4
ENDBRANCH   2   3
ENDBRANCH   1   2
BRANCH   1  12
ATOM     12  C   UNL     1     164.289 176.545 185.497  1.00  0.00     0.000 C 
BRANCH  12  13
ATOM     13  C   UNL     1     163.560 175.203 185.677  1.00  0.00    -0.000 C 
BRANCH  13  14
ATOM     14  C   UNL     1     163.986 174.460 186.950  1.00  0.00    -0.000 C 
BRANCH  14  15
ATOM     15  C   UNL     1     162.779 174.184 187.860  1.00  0.00    -0.000 C 
BRANCH  15  16
ATOM     16  C   UNL     1     161.436 174.296 187.104  1.00  0.00    -0.000 C 
BRANCH  16  17
ATOM     17  C   UNL     1     160.428 173.187 187.460  1.00  0.00    -0.000 C 
BRANCH  17  18
ATOM     18  C   UNL     1     160.986 171.757 187.388  1.00  0.00    -0.000 C 
BRANCH  18  19
ATOM     19  C   UNL     1     161.030 171.064 188.757  1.00  0.00    -0.003 C 
ATOM     20  C   UNL     1     162.457 171.012 189.295  1.00  0.00     0.004 C 
ENDBRANCH  18  19
ENDBRANCH  17  18
ENDBRANCH  16  17
ENDBRANCH  15  16
ENDBRANCH  14  15
ENDBRANCH  13  14
ENDBRANCH  12  13
ENDBRANCH   1  12
TORSDOF 16
ENDMDL
MODEL 2
REMARK VINA RESULT:    -3.826      3.389      6.280
REMARK INTER + INTRA:          -9.909
REMARK INTER:                  -7.128
REMARK INTRA:                  -2.781
REMARK UNBOUND:                -2.503
REMARK SMILES CCCCCCCCCCCCCCCCCC(=O)[O-]
REMARK SMILES IDX 10 1 11 2 12 3 13 4 14 5 15 6 16 7 17 8 18 9 19 10 20 11
REMARK SMILES IDX 9 12 8 13 7 14 6 15 5 16 4 17 3 18 2 19 1 20
REMARK H PARENT
REMARK Flexibility Score: inf
ROOT
ATOM      1  C   UNL     1     164.539 176.286 185.660  1.00  0.00     0.000 C 
ENDROOT
BRANCH   1   2
ATOM      2  C   UNL     1     163.592 175.077 185.739  1.00  0.00     0.000 C 
BRANCH   2   3
ATOM      3  C   UNL     1     163.750 174.287 187.050  1.00  0.00     0.000 C 
BRANCH   3   4
ATOM      4  C   UNL     1     162.420 174.147 187.813  1.00  0.00     0.000 C 
BRANCH   4   5
ATOM      5  C   UNL     1     161.215 173.817 186.903  1.00  0.00     0.000 C 
BRANCH   5   6
ATOM      6  C   UNL     1     160.752 172.349 186.990  1.00  0.00     0.000 C 
BRANCH   6   7
ATOM      7  C   UNL     1     161.235 171.594 188.239  1.00  0.00     0.006 C 
BRANCH   7   8
ATOM      8  C   UNL     1     162.321 170.555 187.923  1.00  0.00     0.053 C 
BRANCH   8   9
ATOM      9  C   UNL     1     163.431 170.629 188.923  1.00  0.00     0.041 C 
ATOM     10  O   UNL     1     163.441 171.540 189.791  1.00  0.00    -0.550 OA
ATOM     11  O   UNL     1     164.463 169.698 188.888  1.00  0.00    -0.550 OA
ENDBRANCH   8   9
ENDBRANCH   7   8
ENDBRANCH   6   7
ENDBRANCH   5   6
ENDBRANCH   4   5
ENDBRANCH   3   4
ENDBRANCH   2   3
ENDBRANCH   1   2
BRANCH   1  12
ATOM     12  C   UNL     1     164.538 177.120 186.950  1.00  0.00     0.000 C 
BRANCH  12  13
ATOM     13  C   UNL     1     163.351 178.095 187.025  1.00  0.00    -0.000 C 
BRANCH  13  14
ATOM     14  C   UNL     1     162.395 177.783 188.184  1.00  0.00    -0.000 C 
BRANCH  14  15
ATOM     15  C   UNL     1     160.974 177.506 187.671  1.00  0.00    -0.000 C 
BRANCH  15  16
ATOM     16  C   UNL     1     160.719 178.133 186.282  1.00  0.00    -0.000 C 
BRANCH  16  17
ATOM     17  C   UNL     1     160.494 177.097 185.164  1.00  0.00    -0.000 C 
BRANCH  17  18
ATOM     18  C   UNL     1     161.312 177.336 183.885  1.00  0.00    -0.000 C 
BRANCH  18  19
ATOM     19  C   UNL     1     161.043 176.286 182.798  1.00  0.00    -0.003 C 
ATOM     20  C   UNL     1     160.604 174.963 183.416  1.00  0.00     0.004 C 
ENDBRANCH  18  19
ENDBRANCH  17  18
ENDBRANCH  16  17
ENDBRANCH  15  16
ENDBRANCH  14  15
ENDBRANCH  13  14
ENDBRANCH  12  13
ENDBRANCH   1  12
TORSDOF 16
ENDMDL
MODEL 3
REMARK VINA RESULT:    -3.783      2.971      6.117
REMARK INTER + INTRA:          -9.825
REMARK INTER:                  -7.176
REMARK INTRA:                  -2.649
REMARK UNBOUND:                -2.503
REMARK SMILES CCCCCCCCCCCCCCCCCC(=O)[O-]
REMARK SMILES IDX 10 1 11 2 12 3 13 4 14 5 15 6 16 7 17 8 18 9 19 10 20 11
REMARK SMILES IDX 9 12 8 13 7 14 6 15 5 16 4 17 3 18 2 19 1 20
REMARK H PARENT
REMARK Flexibility Score: inf
ROOT
ATOM      1  C   UNL     1     164.222 177.111 186.748  1.00  0.00     0.000 C 
ENDROOT
BRANCH   1   2
ATOM      2  C   UNL     1     163.838 175.673 187.134  1.00  0.00     0.000 C 
BRANCH   2   3
ATOM      3  C   UNL     1     163.735 174.741 185.913  1.00  0.00     0.000 C 
BRANCH   3   4
ATOM      4  C   UNL     1     162.476 173.855 185.958  1.00  0.00     0.000 C 
BRANCH   4   5
ATOM      5  C   UNL     1     161.579 174.115 187.190  1.00  0.00     0.000 C 
BRANCH   5   6
ATOM      6  C   UNL     1     160.714 172.906 187.596  1.00  0.00     0.000 C 
BRANCH   6   7
ATOM      7  C   UNL     1     161.501 171.707 188.151  1.00  0.00     0.006 C 
BRANCH   7   8
ATOM      8  C   UNL     1     160.852 170.358 187.808  1.00  0.00     0.053 C 
BRANCH   8   9
ATOM      9  C   UNL     1     160.975 170.068 186.345  1.00  0.00     0.041 C 
ATOM     10  O   UNL     1     159.990 169.619 185.704  1.00  0.00    -0.550 OA
ATOM     11  O   UNL     1     162.184 170.279 185.693  1.00  0.00    -0.550 OA
ENDBRANCH   8   9
ENDBRANCH   7   8
ENDBRANCH   6   7
ENDBRANCH   5   6
ENDBRANCH   4   5
ENDBRANCH   3   4
ENDBRANCH   2   3
ENDBRANCH   1   2
BRANCH   1  12
ATOM     12  C   UNL     1     163.298 178.159 187.389  1.00  0.00     0.000 C 
BRANCH  12  13
ATOM     13  C   UNL     1     162.243 177.532 188.316  1.00  0.00    -0.000 C 
BRANCH  13  14
ATOM     14  C   UNL     1     160.811 177.949 187.956  1.00  0.00    -0.000 C 
BRANCH  14  15
ATOM     15  C   UNL     1     160.695 178.303 186.466  1.00  0.00    -0.000 C 
BRANCH  15  16
ATOM     16  C   UNL     1     160.488 177.054 185.581  1.00  0.00    -0.000 C 
BRANCH  16  17
ATOM     17  C   UNL     1     160.712 177.313 184.078  1.00  0.00    -0.000 C 
BRANCH  17  18
ATOM     18  C   UNL     1     162.162 177.142 183.600  1.00  0.00    -0.000 C 
BRANCH  18  19
ATOM     19  C   UNL     1     162.295 176.153 182.434  1.00  0.00    -0.003 C 
ATOM     20  C   UNL     1     161.312 174.997 182.585  1.00  0.00     0.004 C 
ENDBRANCH  18  19
ENDBRANCH  17  18
ENDBRANCH  16  17
ENDBRANCH  15  16
ENDBRANCH  14  15
ENDBRANCH  13  14
ENDBRANCH  12  13
ENDBRANCH   1  12
TORSDOF 16
ENDMDL
MODEL 4
REMARK VINA RESULT:    -3.782      2.981      5.732
REMARK INTER + INTRA:          -9.823
REMARK INTER:                  -7.180
REMARK INTRA:                  -2.642
REMARK UNBOUND:                -2.503
REMARK SMILES CCCCCCCCCCCCCCCCCC(=O)[O-]
REMARK SMILES IDX 10 1 11 2 12 3 13 4 14 5 15 6 16 7 17 8 18 9 19 10 20 11
REMARK SMILES IDX 9 12 8 13 7 14 6 15 5 16 4 17 3 18 2 19 1 20
REMARK H PARENT
REMARK Flexibility Score: inf
ROOT
ATOM      1  C   UNL     1     161.125 178.240 186.023  1.00  0.00     0.000 C 
ENDROOT
BRANCH   1   2
ATOM      2  C   UNL     1     160.666 178.313 187.489  1.00  0.00     0.000 C 
BRANCH   2   3
ATOM      3  C   UNL     1     161.182 177.131 188.329  1.00  0.00     0.000 C 
BRANCH   3   4
ATOM      4  C   UNL     1     162.231 176.292 187.575  1.00  0.00     0.000 C 
BRANCH   4   5
ATOM      5  C   UNL     1     161.817 174.815 187.379  1.00  0.00     0.000 C 
BRANCH   5   6
ATOM      6  C   UNL     1     160.298 174.610 187.217  1.00  0.00     0.000 C 
BRANCH   6   7
ATOM      7  C   UNL     1     159.876 173.178 186.849  1.00  0.00     0.006 C 
BRANCH   7   8
ATOM      8  C   UNL     1     160.104 172.853 185.366  1.00  0.00     0.053 C 
BRANCH   8   9
ATOM      9  C   UNL     1     160.551 171.435 185.197  1.00  0.00     0.041 C 
ATOM     10  O   UNL     1     160.389 170.606 186.129  1.00  0.00    -0.550 OA
ATOM     11  O   UNL     1     161.160 171.034 184.014  1.00  0.00    -0.550 OA
ENDBRANCH   8   9
ENDBRANCH   7   8
ENDBRANCH   6   7
ENDBRANCH   5   6
ENDBRANCH   4   5
ENDBRANCH   3   4
ENDBRANCH   2   3
ENDBRANCH   1   2
BRANCH   1  12
ATOM     12  C   UNL     1     159.946 178.196 185.038  1.00  0.00     0.000 C 
BRANCH  12  13
ATOM     13  C   UNL     1     160.309 177.511 183.710  1.00  0.00    -0.000 C 
BRANCH  13  14
ATOM     14  C   UNL     1     160.820 176.076 183.899  1.00  0.00    -0.000 C 
BRANCH  14  15
ATOM     15  C   UNL     1     162.215 175.899 183.280  1.00  0.00    -0.000 C 
BRANCH  15  16
ATOM     16  C   UNL     1     162.798 177.230 182.757  1.00  0.00    -0.000 C 
BRANCH  16  17
ATOM     17  C   UNL     1     164.229 177.520 183.251  1.00  0.00    -0.000 C 
BRANCH  17  18
ATOM     18  C   UNL     1     164.490 177.164 184.723  1.00  0.00    -0.000 C 
BRANCH  18  19
ATOM     19  C   UNL     1     164.628 178.401 185.621  1.00  0.00    -0.003 C 
ATOM     20  C   UNL     1     165.375 178.060 186.907  1.00  0.00     0.004 C 
ENDBRANCH  18  19
ENDBRANCH  17  18
ENDBRANCH  16  17
ENDBRANCH  15  16
ENDBRANCH  14  15
ENDBRANCH  13  14
ENDBRANCH  12  13
ENDBRANCH   1  12
TORSDOF 16
ENDMDL
MODEL 5
REMARK VINA RESULT:    -3.743      3.295      6.626
REMARK INTER + INTRA:          -9.747
REMARK INTER:                  -7.319
REMARK INTRA:                  -2.428
REMARK UNBOUND:                -2.503
REMARK SMILES CCCCCCCCCCCCCCCCCC(=O)[O-]
REMARK SMILES IDX 10 1 11 2 12 3 13 4 14 5 15 6 16 7 17 8 18 9 19 10 20 11
REMARK SMILES IDX 9 12 8 13 7 14 6 15 5 16 4 17 3 18 2 19 1 20
REMARK H PARENT
REMARK Flexibility Score: inf
ROOT
ATOM      1  C   UNL     1     163.271 177.814 187.443  1.00  0.00     0.000 C 
ENDROOT
BRANCH   1   2
ATOM      2  C   UNL     1     163.917 176.548 186.855  1.00  0.00     0.000 C 
BRANCH   2   3
ATOM      3  C   UNL     1     163.749 175.320 187.769  1.00  0.00     0.000 C 
BRANCH   3   4
ATOM      4  C   UNL     1     163.227 174.089 187.004  1.00  0.00     0.000 C 
BRANCH   4   5
ATOM      5  C   UNL     1     161.960 173.462 187.630  1.00  0.00     0.000 C 
BRANCH   5   6
ATOM      6  C   UNL     1     161.847 171.940 187.413  1.00  0.00     0.000 C 
BRANCH   6   7
ATOM      7  C   UNL     1     161.685 171.116 188.700  1.00  0.00     0.006 C 
BRANCH   7   8
ATOM      8  C   UNL     1     162.927 171.172 189.603  1.00  0.00     0.053 C 
BRANCH   8   9
ATOM      9  C   UNL     1     164.133 170.668 188.876  1.00  0.00     0.041 C 
ATOM     10  O   UNL     1     165.103 171.438 188.651  1.00  0.00    -0.550 OA
ATOM     11  O   UNL     1     164.181 169.352 188.434  1.00  0.00    -0.550 OA
ENDBRANCH   8   9
ENDBRANCH   7   8
ENDBRANCH   6   7
ENDBRANCH   5   6
ENDBRANCH   4   5
ENDBRANCH   3   4
ENDBRANCH   2   3
ENDBRANCH   1   2
BRANCH   1  12
ATOM     12  C   UNL     1     162.058 177.498 188.332  1.00  0.00     0.000 C 
BRANCH  12  13
ATOM     13  C   UNL     1     160.782 177.223 187.519  1.00  0.00    -0.000 C 
BRANCH  13  14
ATOM     14  C   UNL     1     160.555 178.249 186.401  1.00  0.00    -0.000 C 
BRANCH  14  15
ATOM     15  C   UNL     1     160.453 177.562 185.031  1.00  0.00    -0.000 C 
BRANCH  15  16
ATOM     16  C   UNL     1     160.796 176.057 185.102  1.00  0.00    -0.000 C 
BRANCH  16  17
ATOM     17  C   UNL     1     161.525 175.526 183.853  1.00  0.00    -0.000 C 
BRANCH  17  18
ATOM     18  C   UNL     1     161.763 176.568 182.749  1.00  0.00    -0.000 C 
BRANCH  18  19
ATOM     19  C   UNL     1     163.251 176.792 182.448  1.00  0.00    -0.003 C 
ATOM     20  C   UNL     1     163.820 177.908 183.318  1.00  0.00     0.004 C 
ENDBRANCH  18  19
ENDBRANCH  17  18
ENDBRANCH  16  17
ENDBRANCH  15  16
ENDBRANCH  14  15
ENDBRANCH  13  14
ENDBRANCH  12  13
ENDBRANCH   1  12
TORSDOF 16
ENDMDL
MODEL 6
REMARK VINA RESULT:    -3.729      3.101      5.878
REMARK INTER + INTRA:          -9.720
REMARK INTER:                  -6.849
REMARK INTRA:                  -2.870
REMARK UNBOUND:                -2.503
REMARK SMILES CCCCCCCCCCCCCCCCCC(=O)[O-]
REMARK SMILES IDX 10 1 11 2 12 3 13 4 14 5 15 6 16 7 17 8 18 9 19 10 20 11
REMARK SMILES IDX 9 12 8 13 7 14 6 15 5 16 4 17 3 18 2 19 1 20
REMARK H PARENT
REMARK Flexibility Score: inf
ROOT
ATOM      1  C   UNL     1     164.146 178.082 186.122  1.00  0.00     0.000 C 
ENDROOT
BRANCH   1   2
ATOM      2  C   UNL     1     164.913 176.834 186.590  1.00  0.00     0.000 C 
BRANCH   2   3
ATOM      3  C   UNL     1     164.928 175.717 185.530  1.00  0.00     0.000 C 
BRANCH   3   4
ATOM      4  C   UNL     1     164.420 174.374 186.089  1.00  0.00     0.000 C 
BRANCH   4   5
ATOM      5  C   UNL     1     163.849 174.475 187.522  1.00  0.00     0.000 C 
BRANCH   5   6
ATOM      6  C   UNL     1     162.970 173.275 187.928  1.00  0.00     0.000 C 
BRANCH   6   7
ATOM      7  C   UNL     1     161.490 173.398 187.532  1.00  0.00     0.006 C 
BRANCH   7   8
ATOM      8  C   UNL     1     161.141 172.588 186.275  1.00  0.00     0.053 C 
BRANCH   8   9
ATOM      9  C   UNL     1     160.677 171.214 186.641  1.00  0.00     0.041 C 
ATOM     10  O   UNL     1     160.318 170.407 185.745  1.00  0.00    -0.550 OA
ATOM     11  O   UNL     1     160.628 170.828 187.976  1.00  0.00    -0.550 OA
ENDBRANCH   8   9
ENDBRANCH   7   8
ENDBRANCH   6   7
ENDBRANCH   5   6
ENDBRANCH   4   5
ENDBRANCH   3   4
ENDBRANCH   2   3
ENDBRANCH   1   2
BRANCH   1  12
ATOM     12  C   UNL     1     163.223 178.649 187.211  1.00  0.00     0.000 C 
BRANCH  12  13
ATOM     13  C   UNL     1     162.565 177.550 188.063  1.00  0.00    -0.000 C 
BRANCH  13  14
ATOM     14  C   UNL     1     161.106 177.285 187.669  1.00  0.00    -0.000 C 
BRANCH  14  15
ATOM     15  C   UNL     1     160.628 178.287 186.607  1.00  0.00    -0.000 C 
BRANCH  15  16
ATOM     16  C   UNL     1     160.450 177.632 185.220  1.00  0.00    -0.000 C 
BRANCH  16  17
ATOM     17  C   UNL     1     161.049 176.216 185.119  1.00  0.00    -0.000 C 
BRANCH  17  18
ATOM     18  C   UNL     1     161.745 175.900 183.786  1.00  0.00    -0.000 C 
BRANCH  18  19
ATOM     19  C   UNL     1     162.288 177.153 183.084  1.00  0.00    -0.003 C 
ATOM     20  C   UNL     1     163.541 176.825 182.278  1.00  0.00     0.004 C 
ENDBRANCH  18  19
ENDBRANCH  17  18
ENDBRANCH  16  17
ENDBRANCH  15  16
ENDBRANCH  14  15
ENDBRANCH  13  14
ENDBRANCH  12  13
ENDBRANCH   1  12
TORSDOF 16
ENDMDL
MODEL 7
REMARK VINA RESULT:    -3.697      2.441      4.763
REMARK INTER + INTRA:          -9.658
REMARK INTER:                  -7.170
REMARK INTRA:                  -2.488
REMARK UNBOUND:                -2.503
REMARK SMILES CCCCCCCCCCCCCCCCCC(=O)[O-]
REMARK SMILES IDX 10 1 11 2 12 3 13 4 14 5 15 6 16 7 17 8 18 9 19 10 20 11
REMARK SMILES IDX 9 12 8 13 7 14 6 15 5 16 4 17 3 18 2 19 1 20
REMARK H PARENT
REMARK Flexibility Score: inf
ROOT
ATOM      1  C   UNL     1     164.087 176.304 187.088  1.00  0.00     0.000 C 
ENDROOT
BRANCH   1   2
ATOM      2  C   UNL     1     162.794 176.063 187.884  1.00  0.00     0.000 C 
BRANCH   2   3
ATOM      3  C   UNL     1     162.109 177.375 188.310  1.00  0.00     0.000 C 
BRANCH   3   4
ATOM      4  C   UNL     1     160.728 177.553 187.652  1.00  0.00     0.000 C 
BRANCH   4   5
ATOM      5  C   UNL     1     160.766 178.370 186.341  1.00  0.00     0.000 C 
BRANCH   5   6
ATOM      6  C   UNL     1     160.456 177.540 185.080  1.00  0.00     0.000 C 
BRANCH   6   7
ATOM      7  C   UNL     1     161.678 177.209 184.208  1.00  0.00     0.006 C 
BRANCH   7   8
ATOM      8  C   UNL     1     161.352 177.189 182.708  1.00  0.00     0.053 C 
BRANCH   8   9
ATOM      9  C   UNL     1     162.536 177.626 181.903  1.00  0.00     0.041 C 
ATOM     10  O   UNL     1     162.839 177.019 180.843  1.00  0.00    -0.550 OA
ATOM     11  O   UNL     1     163.314 178.694 182.332  1.00  0.00    -0.550 OA
ENDBRANCH   8   9
ENDBRANCH   7   8
ENDBRANCH   6   7
ENDBRANCH   5   6
ENDBRANCH   4   5
ENDBRANCH   3   4
ENDBRANCH   2   3
ENDBRANCH   1   2
BRANCH   1  12
ATOM     12  C   UNL     1     164.475 177.790 187.029  1.00  0.00     0.000 C 
BRANCH  12  13
ATOM     13  C   UNL     1     165.009 178.209 185.649  1.00  0.00    -0.000 C 
BRANCH  13  14
ATOM     14  C   UNL     1     165.420 177.013 184.781  1.00  0.00    -0.000 C 
BRANCH  14  15
ATOM     15  C   UNL     1     166.948 176.857 184.741  1.00  0.00    -0.000 C 
BRANCH  15  16
ATOM     16  C   UNL     1     167.681 178.124 185.235  1.00  0.00    -0.000 C 
BRANCH  16  17
ATOM     17  C   UNL     1     168.710 177.853 186.350  1.00  0.00    -0.000 C 
BRANCH  17  18
ATOM     18  C   UNL     1     168.146 177.904 187.779  1.00  0.00    -0.000 C 
BRANCH  18  19
ATOM     19  C   UNL     1     168.481 176.650 188.598  1.00  0.00    -0.003 C 
ATOM     20  C   UNL     1     167.893 175.402 187.949  1.00  0.00     0.004 C 
ENDBRANCH  18  19
ENDBRANCH  17  18
ENDBRANCH  16  17
ENDBRANCH  15  16
ENDBRANCH  14  15
ENDBRANCH  13  14
ENDBRANCH  12  13
ENDBRANCH   1  12
TORSDOF 16
ENDMDL
MODEL 8
REMARK VINA RESULT:    -3.690      1.776      2.265
REMARK INTER + INTRA:          -9.645
REMARK INTER:                  -6.914
REMARK INTRA:                  -2.731
REMARK UNBOUND:                -2.503
REMARK SMILES CCCCCCCCCCCCCCCCCC(=O)[O-]
REMARK SMILES IDX 10 1 11 2 12 3 13 4 14 5 15 6 16 7 17 8 18 9 19 10 20 11
REMARK SMILES IDX 9 12 8 13 7 14 6 15 5 16 4 17 3 18 2 19 1 20
REMARK H PARENT
REMARK Flexibility Score: inf
ROOT
ATOM      1  C   UNL     1     164.463 175.869 187.006  1.00  0.00     0.000 C 
ENDROOT
BRANCH   1   2
ATOM      2  C   UNL     1     165.037 177.281 186.800  1.00  0.00     0.000 C 
BRANCH   2   3
ATOM      3  C   UNL     1     163.973 178.381 186.967  1.00  0.00     0.000 C 
BRANCH   3   4
ATOM      4  C   UNL     1     162.802 177.932 187.860  1.00  0.00     0.000 C 
BRANCH   4   5
ATOM      5  C   UNL     1     161.423 178.021 187.167  1.00  0.00     0.000 C 
BRANCH   5   6
ATOM      6  C   UNL     1     161.495 177.961 185.628  1.00  0.00     0.000 C 
BRANCH   6   7
ATOM      7  C   UNL     1     160.429 177.073 184.967  1.00  0.00     0.006 C 
BRANCH   7   8
ATOM      8  C   UNL     1     160.552 177.033 183.437  1.00  0.00     0.053 C 
BRANCH   8   9
ATOM      9  C   UNL     1     160.373 175.637 182.927  1.00  0.00     0.041 C 
ATOM     10  O   UNL     1     160.566 175.378 181.711  1.00  0.00    -0.550 OA
ATOM     11  O   UNL     1     159.977 174.625 183.793  1.00  0.00    -0.550 OA
ENDBRANCH   8   9
ENDBRANCH   7   8
ENDBRANCH   6   7
ENDBRANCH   5   6
ENDBRANCH   4   5
ENDBRANCH   3   4
ENDBRANCH   2   3
ENDBRANCH   1   2
BRANCH   1  12
ATOM     12  C   UNL     1     163.998 175.224 185.690  1.00  0.00     0.000 C 
BRANCH  12  13
ATOM     13  C   UNL     1     162.808 174.269 185.886  1.00  0.00    -0.000 C 
BRANCH  13  14
ATOM     14  C   UNL     1     162.333 174.201 187.344  1.00  0.00    -0.000 C 
BRANCH  14  15
ATOM     15  C   UNL     1     160.815 174.422 187.441  1.00  0.00    -0.000 C 
BRANCH  15  16
ATOM     16  C   UNL     1     160.022 173.101 187.329  1.00  0.00    -0.000 C 
BRANCH  16  17
ATOM     17  C   UNL     1     160.630 171.940 188.140  1.00  0.00    -0.000 C 
BRANCH  17  18
ATOM     18  C   UNL     1     160.964 170.683 187.321  1.00  0.00    -0.000 C 
BRANCH  18  19
ATOM     19  C   UNL     1     162.444 170.288 187.410  1.00  0.00    -0.003 C 
ATOM     20  C   UNL     1     163.154 170.533 186.083  1.00  0.00     0.004 C 
ENDBRANCH  18  19
ENDBRANCH  17  18
ENDBRANCH  16  17
ENDBRANCH  15  16
ENDBRANCH  14  15
ENDBRANCH  13  14
ENDBRANCH  12  13
ENDBRANCH   1  12
TORSDOF 16
ENDMDL
MODEL 9
REMARK VINA RESULT:    -3.678      2.500      6.271
REMARK INTER + INTRA:          -9.621
REMARK INTER:                  -7.227
REMARK INTRA:                  -2.394
REMARK UNBOUND:                -2.503
REMARK SMILES CCCCCCCCCCCCCCCCCC(=O)[O-]
REMARK SMILES IDX 10 1 11 2 12 3 13 4 14 5 15 6 16 7 17 8 18 9 19 10 20 11
REMARK SMILES IDX 9 12 8 13 7 14 6 15 5 16 4 17 3 18 2 19 1 20
REMARK H PARENT
REMARK Flexibility Score: inf
ROOT
ATOM      1  C   UNL     1     160.587 177.406 185.327  1.00  0.00     0.000 C 
ENDROOT
BRANCH   1   2
ATOM      2  C   UNL     1     161.008 178.032 186.667  1.00  0.00     0.000 C 
BRANCH   2   3
ATOM      3  C   UNL     1     161.033 177.007 187.815  1.00  0.00     0.000 C 
BRANCH   3   4
ATOM      4  C   UNL     1     160.904 175.558 187.309  1.00  0.00     0.000 C 
BRANCH   4   5
ATOM      5  C   UNL     1     162.169 174.703 187.549  1.00  0.00     0.000 C 
BRANCH   5   6
ATOM      6  C   UNL     1     163.305 174.975 186.543  1.00  0.00     0.000 C 
BRANCH   6   7
ATOM      7  C   UNL     1     164.518 175.718 187.125  1.00  0.00     0.006 C 
BRANCH   7   8
ATOM      8  C   UNL     1     164.602 177.178 186.658  1.00  0.00     0.053 C 
BRANCH   8   9
ATOM      9  C   UNL     1     166.027 177.630 186.585  1.00  0.00     0.041 C 
ATOM     10  O   UNL     1     166.394 178.420 185.677  1.00  0.00    -0.550 OA
ATOM     11  O   UNL     1     166.953 177.167 187.512  1.00  0.00    -0.550 OA
ENDBRANCH   8   9
ENDBRANCH   7   8
ENDBRANCH   6   7
ENDBRANCH   5   6
ENDBRANCH   4   5
ENDBRANCH   3   4
ENDBRANCH   2   3
ENDBRANCH   1   2
BRANCH   1  12
ATOM     12  C   UNL     1     161.685 177.511 184.256  1.00  0.00     0.000 C 
BRANCH  12  13
ATOM     13  C   UNL     1     161.927 176.180 183.524  1.00  0.00    -0.000 C 
BRANCH  13  14
ATOM     14  C   UNL     1     160.695 175.265 183.529  1.00  0.00    -0.000 C 
BRANCH  14  15
ATOM     15  C   UNL     1     159.886 175.419 182.232  1.00  0.00    -0.000 C 
BRANCH  15  16
ATOM     16  C   UNL     1     160.694 175.005 180.982  1.00  0.00    -0.000 C 
BRANCH  16  17
ATOM     17  C   UNL     1     160.403 175.869 179.739  1.00  0.00    -0.000 C 
BRANCH  17  18
ATOM     18  C   UNL     1     161.574 176.747 179.273  1.00  0.00    -0.000 C 
BRANCH  18  19
ATOM     19  C   UNL     1     161.274 178.249 179.379  1.00  0.00    -0.003 C 
ATOM     20  C   UNL     1     161.620 178.776 180.768  1.00  0.00     0.004 C 
ENDBRANCH  18  19
ENDBRANCH  17  18
ENDBRANCH  16  17
ENDBRANCH  15  16
ENDBRANCH  14  15
ENDBRANCH  13  14
ENDBRANCH  12  13
ENDBRANCH   1  12
TORSDOF 16
ENDMDL
