MODEL 1
REMARK VINA RESULT:    -1.361      0.000      0.000
REMARK INTER + INTRA:          -1.720
REMARK INTER:                  -1.600
REMARK INTRA:                  -0.120
REMARK UNBOUND:                -0.120
REMARK SMILES O=C([O-])CCC(=O)[O-]
REMARK SMILES IDX 4 1 2 2 1 3 3 4 5 5 6 6 7 7 8 8
REMARK H PARENT
REMARK Flexibility Score: inf
ROOT
ATOM      1  C   UNL     1      13.904 -33.913  -1.364  1.00  0.00     0.059 C 
ENDROOT
BRANCH   1   2
ATOM      2  C   UNL     1      12.691 -33.074  -1.097  1.00  0.00     0.042 C 
ATOM      3  O   UNL     1      12.073 -33.184  -0.005  1.00  0.00    -0.550 OA
ATOM      4  O   UNL     1      12.267 -32.144  -2.037  1.00  0.00    -0.550 OA
ENDBRANCH   1   2
BRANCH   1   5
ATOM      5  C   UNL     1      14.277 -34.769  -0.148  1.00  0.00     0.059 C 
BRANCH   5   6
ATOM      6  C   UNL     1      15.436 -34.186   0.602  1.00  0.00     0.042 C 
ATOM      7  O   UNL     1      15.239 -33.329   1.503  1.00  0.00    -0.550 OA
ATOM      8  O   UNL     1      16.728 -34.618   0.334  1.00  0.00    -0.550 OA
ENDBRANCH   5   6
ENDBRANCH   1   5
TORSDOF 3
ENDMDL
MODEL 2
REMARK VINA RESULT:    -1.296      8.314      9.123
REMARK INTER + INTRA:          -1.643
REMARK INTER:                  -1.506
REMARK INTRA:                  -0.137
REMARK UNBOUND:                -0.120
REMARK SMILES O=C([O-])CCC(=O)[O-]
REMARK SMILES IDX 4 1 2 2 1 3 3 4 5 5 6 6 7 7 8 8
REMARK H PARENT
REMARK Flexibility Score: inf
ROOT
ATOM      1  C   UNL     1      19.953 -28.998  -0.379  1.00  0.00     0.059 C 
ENDROOT
BRANCH   1   2
ATOM      2  C   UNL     1      20.527 -28.119   0.690  1.00  0.00     0.042 C 
ATOM      3  O   UNL     1      20.510 -26.867   0.557  1.00  0.00    -0.550 OA
ATOM      4  O   UNL     1      21.043 -28.680   1.851  1.00  0.00    -0.550 OA
ENDBRANCH   1   2
BRANCH   1   5
ATOM      5  C   UNL     1      20.566 -28.693  -1.751  1.00  0.00     0.059 C 
BRANCH   5   6
ATOM      6  C   UNL     1      21.915 -29.326  -1.906  1.00  0.00     0.042 C 
ATOM      7  O   UNL     1      22.012 -30.563  -2.125  1.00  0.00    -0.550 OA
ATOM      8  O   UNL     1      23.062 -28.546  -1.848  1.00  0.00    -0.550 OA
ENDBRANCH   5   6
ENDBRANCH   1   5
TORSDOF 3
ENDMDL
MODEL 3
REMARK VINA RESULT:    -1.288      1.120      3.774
REMARK INTER + INTRA:          -1.634
REMARK INTER:                  -1.518
REMARK INTRA:                  -0.116
REMARK UNBOUND:                -0.120
REMARK SMILES O=C([O-])CCC(=O)[O-]
REMARK SMILES IDX 4 1 2 2 1 3 3 4 5 5 6 6 7 7 8 8
REMARK H PARENT
REMARK Flexibility Score: inf
ROOT
ATOM      1  C   UNL     1      14.381 -34.273  -1.407  1.00  0.00     0.059 C 
ENDROOT
BRANCH   1   2
ATOM      2  C   UNL     1      14.898 -34.794  -0.101  1.00  0.00     0.042 C 
ATOM      3  O   UNL     1      14.799 -36.018   0.177  1.00  0.00    -0.550 OA
ATOM      4  O   UNL     1      15.525 -33.934   0.792  1.00  0.00    -0.550 OA
ENDBRANCH   1   2
BRANCH   1   5
ATOM      5  C   UNL     1      12.855 -34.123  -1.391  1.00  0.00     0.059 C 
BRANCH   5   6
ATOM      6  C   UNL     1      12.444 -32.702  -1.155  1.00  0.00     0.042 C 
ATOM      7  O   UNL     1      12.033 -31.994  -2.112  1.00  0.00    -0.550 OA
ATOM      8  O   UNL     1      12.476 -32.171   0.128  1.00  0.00    -0.550 OA
ENDBRANCH   5   6
ENDBRANCH   1   5
TORSDOF 3
ENDMDL
MODEL 4
REMARK VINA RESULT:    -1.288      7.981      9.203
REMARK INTER + INTRA:          -1.634
REMARK INTER:                  -1.519
REMARK INTRA:                  -0.115
REMARK UNBOUND:                -0.120
REMARK SMILES O=C([O-])CCC(=O)[O-]
REMARK SMILES IDX 4 1 2 2 1 3 3 4 5 5 6 6 7 7 8 8
REMARK H PARENT
REMARK Flexibility Score: inf
ROOT
ATOM      1  C   UNL     1      19.933 -28.846  -0.378  1.00  0.00     0.059 C 
ENDROOT
BRANCH   1   2
ATOM      2  C   UNL     1      20.687 -30.063   0.064  1.00  0.00     0.042 C 
ATOM      3  O   UNL     1      20.391 -30.632   1.148  1.00  0.00    -0.550 OA
ATOM      4  O   UNL     1      21.688 -30.592  -0.740  1.00  0.00    -0.550 OA
ENDBRANCH   1   2
BRANCH   1   5
ATOM      5  C   UNL     1      20.504 -28.269  -1.678  1.00  0.00     0.059 C 
BRANCH   5   6
ATOM      6  C   UNL     1      21.399 -27.096  -1.416  1.00  0.00     0.042 C 
ATOM      7  O   UNL     1      22.647 -27.213  -1.539  1.00  0.00    -0.550 OA
ATOM      8  O   UNL     1      20.853 -25.866  -1.072  1.00  0.00    -0.550 OA
ENDBRANCH   5   6
ENDBRANCH   1   5
TORSDOF 3
ENDMDL
MODEL 5
REMARK VINA RESULT:    -1.276      8.091      9.058
REMARK INTER + INTRA:          -1.620
REMARK INTER:                  -1.482
REMARK INTRA:                  -0.137
REMARK UNBOUND:                -0.120
REMARK SMILES O=C([O-])CCC(=O)[O-]
REMARK SMILES IDX 4 1 2 2 1 3 3 4 5 5 6 6 7 7 8 8
REMARK H PARENT
REMARK Flexibility Score: inf
ROOT
ATOM      1  C   UNL     1      20.487 -28.186  -1.750  1.00  0.00     0.059 C 
ENDROOT
BRANCH   1   2
ATOM      2  C   UNL     1      21.374 -27.049  -1.343  1.00  0.00     0.042 C 
ATOM      3  O   UNL     1      20.875 -26.001  -0.856  1.00  0.00    -0.550 OA
ATOM      4  O   UNL     1      22.752 -27.164  -1.464  1.00  0.00    -0.550 OA
ENDBRANCH   1   2
BRANCH   1   5
ATOM      5  C   UNL     1      20.021 -29.002  -0.538  1.00  0.00     0.059 C 
BRANCH   5   6
ATOM      6  C   UNL     1      21.040 -30.026  -0.139  1.00  0.00     0.042 C 
ATOM      7  O   UNL     1      21.208 -30.310   1.077  1.00  0.00    -0.550 OA
ATOM      8  O   UNL     1      21.776 -30.693  -1.109  1.00  0.00    -0.550 OA
ENDBRANCH   5   6
ENDBRANCH   1   5
TORSDOF 3
ENDMDL
MODEL 6
REMARK VINA RESULT:    -1.268      8.203      9.180
REMARK INTER + INTRA:          -1.610
REMARK INTER:                  -1.440
REMARK INTRA:                  -0.171
REMARK UNBOUND:                -0.120
REMARK SMILES O=C([O-])CCC(=O)[O-]
REMARK SMILES IDX 4 1 2 2 1 3 3 4 5 5 6 6 7 7 8 8
REMARK H PARENT
REMARK Flexibility Score: inf
ROOT
ATOM      1  C   UNL     1      20.502 -28.981   1.090  1.00  0.00     0.059 C 
ENDROOT
BRANCH   1   2
ATOM      2  C   UNL     1      21.164 -27.653   1.297  1.00  0.00     0.042 C 
ATOM      3  O   UNL     1      22.409 -27.586   1.475  1.00  0.00    -0.550 OA
ATOM      4  O   UNL     1      20.412 -26.486   1.253  1.00  0.00    -0.550 OA
ENDBRANCH   1   2
BRANCH   1   5
ATOM      5  C   UNL     1      19.745 -29.034  -0.242  1.00  0.00     0.059 C 
BRANCH   5   6
ATOM      6  C   UNL     1      20.675 -28.919  -1.411  1.00  0.00     0.042 C 
ATOM      7  O   UNL     1      20.669 -27.882  -2.125  1.00  0.00    -0.550 OA
ATOM      8  O   UNL     1      21.575 -29.940  -1.688  1.00  0.00    -0.550 OA
ENDBRANCH   5   6
ENDBRANCH   1   5
TORSDOF 3
ENDMDL
MODEL 7
REMARK VINA RESULT:    -1.268      7.915      9.176
REMARK INTER + INTRA:          -1.610
REMARK INTER:                  -1.448
REMARK INTRA:                  -0.162
REMARK UNBOUND:                -0.120
REMARK SMILES O=C([O-])CCC(=O)[O-]
REMARK SMILES IDX 4 1 2 2 1 3 3 4 5 5 6 6 7 7 8 8
REMARK H PARENT
REMARK Flexibility Score: inf
ROOT
ATOM      1  C   UNL     1      19.955 -29.027  -0.417  1.00  0.00     0.059 C 
ENDROOT
BRANCH   1   2
ATOM      2  C   UNL     1      20.906 -29.739   0.496  1.00  0.00     0.042 C 
ATOM      3  O   UNL     1      21.194 -30.947   0.293  1.00  0.00    -0.550 OA
ATOM      4  O   UNL     1      21.505 -29.056   1.547  1.00  0.00    -0.550 OA
ENDBRANCH   1   2
BRANCH   1   5
ATOM      5  C   UNL     1      20.499 -28.947  -1.849  1.00  0.00     0.059 C 
BRANCH   5   6
ATOM      6  C   UNL     1      21.616 -27.954  -1.960  1.00  0.00     0.042 C 
ATOM      7  O   UNL     1      21.377 -26.721  -1.870  1.00  0.00    -0.550 OA
ATOM      8  O   UNL     1      22.924 -28.391  -2.123  1.00  0.00    -0.550 OA
ENDBRANCH   5   6
ENDBRANCH   1   5
TORSDOF 3
ENDMDL
MODEL 8
REMARK VINA RESULT:    -1.249      8.389      9.279
REMARK INTER + INTRA:          -1.588
REMARK INTER:                  -1.405
REMARK INTRA:                  -0.183
REMARK UNBOUND:                -0.120
REMARK SMILES O=C([O-])CCC(=O)[O-]
REMARK SMILES IDX 4 1 2 2 1 3 3 4 5 5 6 6 7 7 8 8
REMARK H PARENT
REMARK Flexibility Score: inf
ROOT
ATOM      1  C   UNL     1      20.961 -29.037  -1.798  1.00  0.00     0.059 C 
ENDROOT
BRANCH   1   2
ATOM      2  C   UNL     1      21.850 -27.844  -1.981  1.00  0.00     0.042 C 
ATOM      3  O   UNL     1      23.099 -27.989  -2.040  1.00  0.00    -0.550 OA
ATOM      4  O   UNL     1      21.296 -26.578  -2.125  1.00  0.00    -0.550 OA
ENDBRANCH   1   2
BRANCH   1   5
ATOM      5  C   UNL     1      19.994 -28.846  -0.624  1.00  0.00     0.059 C 
BRANCH   5   6
ATOM      6  C   UNL     1      20.726 -28.619   0.663  1.00  0.00     0.042 C 
ATOM      7  O   UNL     1      20.503 -27.584   1.345  1.00  0.00    -0.550 OA
ATOM      8  O   UNL     1      21.627 -29.568   1.129  1.00  0.00    -0.550 OA
ENDBRANCH   5   6
ENDBRANCH   1   5
TORSDOF 3
ENDMDL
MODEL 9
REMARK VINA RESULT:    -1.202      6.853      7.960
REMARK INTER + INTRA:          -1.533
REMARK INTER:                  -1.499
REMARK INTRA:                  -0.034
REMARK UNBOUND:                -0.120
REMARK SMILES O=C([O-])CCC(=O)[O-]
REMARK SMILES IDX 4 1 2 2 1 3 3 4 5 5 6 6 7 7 8 8
REMARK H PARENT
REMARK Flexibility Score: inf
ROOT
ATOM      1  C   UNL     1      20.079 -28.666  -0.187  1.00  0.00     0.059 C 
ENDROOT
BRANCH   1   2
ATOM      2  C   UNL     1      20.731 -28.603  -1.535  1.00  0.00     0.042 C 
ATOM      3  O   UNL     1      20.866 -27.498  -2.122  1.00  0.00    -0.550 OA
ATOM      4  O   UNL     1      21.224 -29.760  -2.125  1.00  0.00    -0.550 OA
ENDBRANCH   1   2
BRANCH   1   5
ATOM      5  C   UNL     1      20.250 -30.046   0.459  1.00  0.00     0.059 C 
BRANCH   5   6
ATOM      6  C   UNL     1      19.671 -30.084   1.840  1.00  0.00     0.042 C 
ATOM      7  O   UNL     1      19.803 -29.095   2.609  1.00  0.00    -0.550 OA
ATOM      8  O   UNL     1      18.953 -31.194   2.265  1.00  0.00    -0.550 OA
ENDBRANCH   5   6
ENDBRANCH   1   5
TORSDOF 3
ENDMDL
