MODEL 1
REMARK VINA RESULT:    -5.130      0.000      0.000
REMARK INTER + INTRA:          -6.498
REMARK INTER:                  -6.180
REMARK INTRA:                  -0.318
REMARK UNBOUND:                -0.318
REMARK SMILES O=c1c(O)c(-c2ccc(O)c(O)c2)oc2cc(O)cc(O)c12
REMARK SMILES IDX 5 1 3 2 2 3 1 4 22 5 20 6 19 7 17 8 16 9 15 10 14 11 6 12
REMARK SMILES IDX 7 13 8 14 9 15 13 16 11 17 10 18 12 20 4 22 21 24 18 26
REMARK H PARENT 10 19 12 21 4 23 21 25 18 27
REMARK Flexibility Score: inf
ROOT
ATOM      1  C   UNL     1       5.002  -2.888  32.632  1.00  0.00     0.180 A 
ATOM      2  C   UNL     1       5.139  -3.900  31.665  1.00  0.00     0.208 A 
ATOM      3  C   UNL     1       4.510  -5.138  31.882  1.00  0.00     0.238 A 
ATOM      4  O   UNL     1       4.590  -6.020  30.988  1.00  0.00    -0.285 OA
ATOM      5  C   UNL     1       3.767  -5.352  33.068  1.00  0.00     0.111 A 
ATOM      6  C   UNL     1       3.122  -6.579  33.408  1.00  0.00     0.134 A 
ATOM      7  C   UNL     1       2.306  -6.637  34.545  1.00  0.00     0.093 A 
ATOM      8  C   UNL     1       2.163  -5.535  35.387  1.00  0.00     0.123 A 
ATOM      9  C   UNL     1       2.837  -4.349  35.095  1.00  0.00     0.094 A 
ATOM     10  C   UNL     1       3.629  -4.248  33.949  1.00  0.00     0.146 A 
ATOM     11  O   UNL     1       4.245  -3.098  33.701  1.00  0.00    -0.452 OA
ENDROOT
BRANCH   1  12
ATOM     12  C   UNL     1       5.656  -1.568  32.486  1.00  0.00     0.025 A 
ATOM     13  C   UNL     1       4.989  -0.481  31.896  1.00  0.00     0.016 A 
ATOM     14  C   UNL     1       5.635   0.749  31.748  1.00  0.00     0.051 A 
ATOM     15  C   UNL     1       6.960   0.908  32.173  1.00  0.00     0.157 A 
ATOM     16  C   UNL     1       6.991  -1.410  32.892  1.00  0.00     0.062 A 
ATOM     17  C   UNL     1       7.642  -0.180  32.745  1.00  0.00     0.158 A 
BRANCH  15  18
ATOM     18  O   UNL     1       7.602   2.136  32.025  1.00  0.00    -0.504 OA
ATOM     19  H   UNL     1       8.577   2.197  31.755  1.00  0.00     0.293 HD
ENDBRANCH  15  18
BRANCH  17  20
ATOM     20  O   UNL     1       8.964  -0.056  33.172  1.00  0.00    -0.504 OA
ATOM     21  H   UNL     1       9.282   0.737  33.715  1.00  0.00     0.293 HD
ENDBRANCH  17  20
ENDBRANCH   1  12
BRANCH   2  22
ATOM     22  O   UNL     1       5.858  -3.660  30.492  1.00  0.00    -0.502 OA
ATOM     23  H   UNL     1       6.854  -3.828  30.420  1.00  0.00     0.293 HD
ENDBRANCH   2  22
BRANCH   6  24
ATOM     24  O   UNL     1       3.272  -7.766  32.686  1.00  0.00    -0.507 OA
ATOM     25  H   UNL     1       3.634  -7.826  31.747  1.00  0.00     0.293 HD
ENDBRANCH   6  24
BRANCH   8  26
ATOM     26  O   UNL     1       1.356  -5.634  36.517  1.00  0.00    -0.508 OA
ATOM     27  H   UNL     1       0.897  -6.503  36.768  1.00  0.00     0.293 HD
ENDBRANCH   8  26
TORSDOF 6
ENDMDL
MODEL 2
REMARK VINA RESULT:    -5.112      2.222      2.848
REMARK INTER + INTRA:          -6.476
REMARK INTER:                  -6.226
REMARK INTRA:                  -0.249
REMARK UNBOUND:                -0.318
REMARK SMILES O=c1c(O)c(-c2ccc(O)c(O)c2)oc2cc(O)cc(O)c12
REMARK SMILES IDX 5 1 3 2 2 3 1 4 22 5 20 6 19 7 17 8 16 9 15 10 14 11 6 12
REMARK SMILES IDX 7 13 8 14 9 15 13 16 11 17 10 18 12 20 4 22 21 24 18 26
REMARK H PARENT 10 19 12 21 4 23 21 25 18 27
REMARK Flexibility Score: inf
ROOT
ATOM      1  C   UNL     1       4.401  -3.289  33.712  1.00  0.00     0.180 A 
ATOM      2  C   UNL     1       5.218  -3.806  34.733  1.00  0.00     0.208 A 
ATOM      3  C   UNL     1       4.703  -4.805  35.576  1.00  0.00     0.238 A 
ATOM      4  O   UNL     1       5.458  -5.303  36.453  1.00  0.00    -0.285 OA
ATOM      5  C   UNL     1       3.375  -5.262  35.398  1.00  0.00     0.111 A 
ATOM      6  C   UNL     1       2.739  -6.241  36.220  1.00  0.00     0.134 A 
ATOM      7  C   UNL     1       1.467  -6.711  35.872  1.00  0.00     0.093 A 
ATOM      8  C   UNL     1       0.782  -6.194  34.774  1.00  0.00     0.123 A 
ATOM      9  C   UNL     1       1.371  -5.193  33.999  1.00  0.00     0.094 A 
ATOM     10  C   UNL     1       2.654  -4.730  34.298  1.00  0.00     0.146 A 
ATOM     11  O   UNL     1       3.183  -3.785  33.530  1.00  0.00    -0.452 OA
ENDROOT
BRANCH   1  12
ATOM     12  C   UNL     1       4.863  -2.218  32.801  1.00  0.00     0.025 A 
ATOM     13  C   UNL     1       4.376  -0.904  32.908  1.00  0.00     0.016 A 
ATOM     14  C   UNL     1       4.809   0.085  32.021  1.00  0.00     0.051 A 
ATOM     15  C   UNL     1       5.723  -0.226  31.006  1.00  0.00     0.157 A 
ATOM     16  C   UNL     1       5.764  -2.530  31.769  1.00  0.00     0.062 A 
ATOM     17  C   UNL     1       6.200  -1.542  30.879  1.00  0.00     0.158 A 
BRANCH  15  18
ATOM     18  O   UNL     1       6.156   0.763  30.124  1.00  0.00    -0.504 OA
ATOM     19  H   UNL     1       6.924   0.602  29.482  1.00  0.00     0.293 HD
ENDBRANCH  15  18
BRANCH  17  20
ATOM     20  O   UNL     1       7.105  -1.885  29.875  1.00  0.00    -0.504 OA
ATOM     21  H   UNL     1       7.996  -2.322  30.079  1.00  0.00     0.293 HD
ENDBRANCH  17  20
ENDBRANCH   1  12
BRANCH   2  22
ATOM     22  O   UNL     1       6.533  -3.356  34.877  1.00  0.00    -0.502 OA
ATOM     23  H   UNL     1       7.143  -3.686  35.615  1.00  0.00     0.293 HD
ENDBRANCH   2  22
BRANCH   6  24
ATOM     24  O   UNL     1       3.297  -6.757  37.393  1.00  0.00    -0.507 OA
ATOM     25  H   UNL     1       4.281  -6.755  37.610  1.00  0.00     0.293 HD
ENDBRANCH   6  24
BRANCH   8  26
ATOM     26  O   UNL     1      -0.488  -6.675  34.466  1.00  0.00    -0.508 OA
ATOM     27  H   UNL     1      -1.111  -7.025  35.185  1.00  0.00     0.293 HD
ENDBRANCH   8  26
TORSDOF 6
ENDMDL
MODEL 3
REMARK VINA RESULT:    -5.100      2.775      3.559
REMARK INTER + INTRA:          -6.462
REMARK INTER:                  -6.330
REMARK INTRA:                  -0.131
REMARK UNBOUND:                -0.318
REMARK SMILES O=c1c(O)c(-c2ccc(O)c(O)c2)oc2cc(O)cc(O)c12
REMARK SMILES IDX 5 1 3 2 2 3 1 4 22 5 20 6 19 7 17 8 16 9 15 10 14 11 6 12
REMARK SMILES IDX 7 13 8 14 9 15 13 16 11 17 10 18 12 20 4 22 21 24 18 26
REMARK H PARENT 10 19 12 21 4 23 21 25 18 27
REMARK Flexibility Score: inf
ROOT
ATOM      1  C   UNL     1       4.797  -2.981  34.150  1.00  0.00     0.180 A 
ATOM      2  C   UNL     1       3.635  -3.772  34.176  1.00  0.00     0.208 A 
ATOM      3  C   UNL     1       3.484  -4.728  35.195  1.00  0.00     0.238 A 
ATOM      4  O   UNL     1       2.417  -5.395  35.244  1.00  0.00    -0.285 OA
ATOM      5  C   UNL     1       4.502  -4.890  36.164  1.00  0.00     0.111 A 
ATOM      6  C   UNL     1       4.472  -5.855  37.216  1.00  0.00     0.134 A 
ATOM      7  C   UNL     1       5.474  -5.839  38.195  1.00  0.00     0.093 A 
ATOM      8  C   UNL     1       6.536  -4.940  38.125  1.00  0.00     0.123 A 
ATOM      9  C   UNL     1       6.607  -4.032  37.066  1.00  0.00     0.094 A 
ATOM     10  C   UNL     1       5.604  -3.999  36.095  1.00  0.00     0.146 A 
ATOM     11  O   UNL     1       5.703  -3.113  35.111  1.00  0.00    -0.452 OA
ENDROOT
BRANCH   1  12
ATOM     12  C   UNL     1       5.039  -1.972  33.094  1.00  0.00     0.025 A 
ATOM     13  C   UNL     1       4.183  -0.870  32.924  1.00  0.00     0.016 A 
ATOM     14  C   UNL     1       4.418   0.056  31.905  1.00  0.00     0.051 A 
ATOM     15  C   UNL     1       5.501  -0.112  31.032  1.00  0.00     0.157 A 
ATOM     16  C   UNL     1       6.111  -2.147  32.204  1.00  0.00     0.062 A 
ATOM     17  C   UNL     1       6.350  -1.222  31.182  1.00  0.00     0.158 A 
BRANCH  15  18
ATOM     18  O   UNL     1       5.735   0.815  30.018  1.00  0.00    -0.504 OA
ATOM     19  H   UNL     1       6.156   0.542  29.137  1.00  0.00     0.293 HD
ENDBRANCH  15  18
BRANCH  17  20
ATOM     20  O   UNL     1       7.432  -1.421  30.326  1.00  0.00    -0.504 OA
ATOM     21  H   UNL     1       8.043  -2.225  30.408  1.00  0.00     0.293 HD
ENDBRANCH  17  20
ENDBRANCH   1  12
BRANCH   2  22
ATOM     22  O   UNL     1       2.631  -3.580  33.222  1.00  0.00    -0.502 OA
ATOM     23  H   UNL     1       1.724  -4.024  33.290  1.00  0.00     0.293 HD
ENDBRANCH   2  22
BRANCH   6  24
ATOM     24  O   UNL     1       3.505  -6.858  37.328  1.00  0.00    -0.507 OA
ATOM     25  H   UNL     1       2.519  -6.693  37.462  1.00  0.00     0.293 HD
ENDBRANCH   6  24
BRANCH   8  26
ATOM     26  O   UNL     1       7.523  -4.963  39.107  1.00  0.00    -0.508 OA
ATOM     27  H   UNL     1       7.921  -5.835  39.439  1.00  0.00     0.293 HD
ENDBRANCH   8  26
TORSDOF 6
ENDMDL
MODEL 4
REMARK VINA RESULT:    -5.048      1.437      7.067
REMARK INTER + INTRA:          -6.398
REMARK INTER:                  -6.064
REMARK INTRA:                  -0.335
REMARK UNBOUND:                -0.318
REMARK SMILES O=c1c(O)c(-c2ccc(O)c(O)c2)oc2cc(O)cc(O)c12
REMARK SMILES IDX 5 1 3 2 2 3 1 4 22 5 20 6 19 7 17 8 16 9 15 10 14 11 6 12
REMARK SMILES IDX 7 13 8 14 9 15 13 16 11 17 10 18 12 20 4 22 21 24 18 26
REMARK H PARENT 10 19 12 21 4 23 21 25 18 27
REMARK Flexibility Score: inf
ROOT
ATOM      1  C   UNL     1       4.821  -2.909  33.452  1.00  0.00     0.180 A 
ATOM      2  C   UNL     1       4.178  -1.840  32.803  1.00  0.00     0.208 A 
ATOM      3  C   UNL     1       4.940  -0.730  32.400  1.00  0.00     0.238 A 
ATOM      4  O   UNL     1       4.368   0.198  31.771  1.00  0.00    -0.285 OA
ATOM      5  C   UNL     1       6.330  -0.697  32.666  1.00  0.00     0.111 A 
ATOM      6  C   UNL     1       7.191   0.394  32.338  1.00  0.00     0.134 A 
ATOM      7  C   UNL     1       8.572   0.264  32.530  1.00  0.00     0.093 A 
ATOM      8  C   UNL     1       9.116  -0.888  33.096  1.00  0.00     0.123 A 
ATOM      9  C   UNL     1       8.277  -1.936  33.475  1.00  0.00     0.094 A 
ATOM     10  C   UNL     1       6.899  -1.852  33.263  1.00  0.00     0.146 A 
ATOM     11  O   UNL     1       6.137  -2.876  33.627  1.00  0.00    -0.452 OA
ENDROOT
BRANCH   1  12
ATOM     12  C   UNL     1       4.082  -4.100  33.928  1.00  0.00     0.025 A 
ATOM     13  C   UNL     1       3.510  -4.143  35.211  1.00  0.00     0.016 A 
ATOM     14  C   UNL     1       2.838  -5.287  35.647  1.00  0.00     0.051 A 
ATOM     15  C   UNL     1       2.738  -6.409  34.815  1.00  0.00     0.157 A 
ATOM     16  C   UNL     1       3.997  -5.235  33.104  1.00  0.00     0.062 A 
ATOM     17  C   UNL     1       3.324  -6.383  33.538  1.00  0.00     0.158 A 
BRANCH  15  18
ATOM     18  O   UNL     1       2.064  -7.549  35.251  1.00  0.00    -0.504 OA
ATOM     19  H   UNL     1       1.104  -7.734  34.982  1.00  0.00     0.293 HD
ENDBRANCH  15  18
BRANCH  17  20
ATOM     20  O   UNL     1       3.248  -7.486  32.688  1.00  0.00    -0.504 OA
ATOM     21  H   UNL     1       2.544  -8.205  32.801  1.00  0.00     0.293 HD
ENDBRANCH  17  20
ENDBRANCH   1  12
BRANCH   2  22
ATOM     22  O   UNL     1       2.809  -1.904  32.531  1.00  0.00    -0.502 OA
ATOM     23  H   UNL     1       2.229  -2.676  32.834  1.00  0.00     0.293 HD
ENDBRANCH   2  22
BRANCH   6  24
ATOM     24  O   UNL     1       6.740   1.625  31.853  1.00  0.00    -0.507 OA
ATOM     25  H   UNL     1       5.929   1.750  31.268  1.00  0.00     0.293 HD
ENDBRANCH   6  24
BRANCH   8  26
ATOM     26  O   UNL     1      10.493  -0.976  33.286  1.00  0.00    -0.508 OA
ATOM     27  H   UNL     1      11.132  -1.068  32.504  1.00  0.00     0.293 HD
ENDBRANCH   8  26
TORSDOF 6
ENDMDL
MODEL 5
REMARK VINA RESULT:    -4.925      2.121      7.108
REMARK INTER + INTRA:          -6.251
REMARK INTER:                  -6.537
REMARK INTRA:                   0.286
REMARK UNBOUND:                -0.318
REMARK SMILES O=c1c(O)c(-c2ccc(O)c(O)c2)oc2cc(O)cc(O)c12
REMARK SMILES IDX 5 1 3 2 2 3 1 4 22 5 20 6 19 7 17 8 16 9 15 10 14 11 6 12
REMARK SMILES IDX 7 13 8 14 9 15 13 16 11 17 10 18 12 20 4 22 21 24 18 26
REMARK H PARENT 10 19 12 21 4 23 21 25 18 27
REMARK Flexibility Score: inf
ROOT
ATOM      1  C   UNL     1       3.846  -3.789  34.158  1.00  0.00     0.180 A 
ATOM      2  C   UNL     1       5.166  -3.864  34.636  1.00  0.00     0.208 A 
ATOM      3  C   UNL     1       6.136  -3.003  34.097  1.00  0.00     0.238 A 
ATOM      4  O   UNL     1       7.303  -3.038  34.568  1.00  0.00    -0.285 OA
ATOM      5  C   UNL     1       5.778  -2.089  33.077  1.00  0.00     0.111 A 
ATOM      6  C   UNL     1       6.688  -1.198  32.432  1.00  0.00     0.134 A 
ATOM      7  C   UNL     1       6.198  -0.247  31.528  1.00  0.00     0.093 A 
ATOM      8  C   UNL     1       4.845  -0.197  31.197  1.00  0.00     0.123 A 
ATOM      9  C   UNL     1       3.956  -1.103  31.777  1.00  0.00     0.094 A 
ATOM     10  C   UNL     1       4.408  -2.039  32.710  1.00  0.00     0.146 A 
ATOM     11  O   UNL     1       3.529  -2.877  33.247  1.00  0.00    -0.452 OA
ENDROOT
BRANCH   1  12
ATOM     12  C   UNL     1       2.776  -4.680  34.658  1.00  0.00     0.025 A 
ATOM     13  C   UNL     1       2.795  -5.185  35.969  1.00  0.00     0.016 A 
ATOM     14  C   UNL     1       1.786  -6.044  36.411  1.00  0.00     0.051 A 
ATOM     15  C   UNL     1       0.752  -6.424  35.547  1.00  0.00     0.157 A 
ATOM     16  C   UNL     1       1.747  -5.080  33.789  1.00  0.00     0.062 A 
ATOM     17  C   UNL     1       0.734  -5.940  34.228  1.00  0.00     0.158 A 
BRANCH  15  18
ATOM     18  O   UNL     1      -0.255  -7.279  35.991  1.00  0.00    -0.504 OA
ATOM     19  H   UNL     1      -0.063  -8.032  36.643  1.00  0.00     0.293 HD
ENDBRANCH  15  18
BRANCH  17  20
ATOM     20  O   UNL     1      -0.278  -6.305  33.341  1.00  0.00    -0.504 OA
ATOM     21  H   UNL     1      -1.219  -5.938  33.417  1.00  0.00     0.293 HD
ENDBRANCH  17  20
ENDBRANCH   1  12
BRANCH   2  22
ATOM     22  O   UNL     1       5.493  -4.759  35.659  1.00  0.00    -0.502 OA
ATOM     23  H   UNL     1       5.555  -4.476  36.630  1.00  0.00     0.293 HD
ENDBRANCH   2  22
BRANCH   6  24
ATOM     24  O   UNL     1       8.072  -1.224  32.621  1.00  0.00    -0.507 OA
ATOM     25  H   UNL     1       8.659  -2.028  32.459  1.00  0.00     0.293 HD
ENDBRANCH   6  24
BRANCH   8  26
ATOM     26  O   UNL     1       4.395   0.752  30.282  1.00  0.00    -0.508 OA
ATOM     27  H   UNL     1       3.420   0.805  30.010  1.00  0.00     0.293 HD
ENDBRANCH   8  26
TORSDOF 6
ENDMDL
MODEL 6
REMARK VINA RESULT:    -4.919      4.564      5.630
REMARK INTER + INTRA:          -6.243
REMARK INTER:                  -5.965
REMARK INTRA:                  -0.279
REMARK UNBOUND:                -0.318
REMARK SMILES O=c1c(O)c(-c2ccc(O)c(O)c2)oc2cc(O)cc(O)c12
REMARK SMILES IDX 5 1 3 2 2 3 1 4 22 5 20 6 19 7 17 8 16 9 15 10 14 11 6 12
REMARK SMILES IDX 7 13 8 14 9 15 13 16 11 17 10 18 12 20 4 22 21 24 18 26
REMARK H PARENT 10 19 12 21 4 23 21 25 18 27
REMARK Flexibility Score: inf
ROOT
ATOM      1  C   UNL     1       3.721  -5.512  36.413  1.00  0.00     0.180 A 
ATOM      2  C   UNL     1       3.246  -4.842  35.272  1.00  0.00     0.208 A 
ATOM      3  C   UNL     1       2.002  -5.212  34.733  1.00  0.00     0.238 A 
ATOM      4  O   UNL     1       1.557  -4.571  33.745  1.00  0.00    -0.285 OA
ATOM      5  C   UNL     1       1.259  -6.257  35.332  1.00  0.00     0.111 A 
ATOM      6  C   UNL     1       0.006  -6.741  34.846  1.00  0.00     0.134 A 
ATOM      7  C   UNL     1      -0.703  -7.690  35.593  1.00  0.00     0.093 A 
ATOM      8  C   UNL     1      -0.177  -8.220  36.769  1.00  0.00     0.123 A 
ATOM      9  C   UNL     1       1.074  -7.798  37.222  1.00  0.00     0.094 A 
ATOM     10  C   UNL     1       1.789  -6.826  36.519  1.00  0.00     0.146 A 
ATOM     11  O   UNL     1       2.970  -6.443  36.988  1.00  0.00    -0.452 OA
ENDROOT
BRANCH   1  12
ATOM     12  C   UNL     1       5.033  -5.196  37.022  1.00  0.00     0.025 A 
ATOM     13  C   UNL     1       6.148  -6.031  36.835  1.00  0.00     0.016 A 
ATOM     14  C   UNL     1       7.369  -5.725  37.440  1.00  0.00     0.051 A 
ATOM     15  C   UNL     1       7.492  -4.589  38.250  1.00  0.00     0.157 A 
ATOM     16  C   UNL     1       5.155  -4.070  37.852  1.00  0.00     0.062 A 
ATOM     17  C   UNL     1       6.378  -3.759  38.459  1.00  0.00     0.158 A 
BRANCH  15  18
ATOM     18  O   UNL     1       8.713  -4.284  38.851  1.00  0.00    -0.504 OA
ATOM     19  H   UNL     1       9.259  -3.479  38.564  1.00  0.00     0.293 HD
ENDBRANCH  15  18
BRANCH  17  20
ATOM     20  O   UNL     1       6.465  -2.626  39.266  1.00  0.00    -0.504 OA
ATOM     21  H   UNL     1       6.959  -1.792  38.972  1.00  0.00     0.293 HD
ENDBRANCH  17  20
ENDBRANCH   1  12
BRANCH   2  22
ATOM     22  O   UNL     1       3.986  -3.798  34.710  1.00  0.00    -0.502 OA
ATOM     23  H   UNL     1       3.719  -3.346  33.844  1.00  0.00     0.293 HD
ENDBRANCH   2  22
BRANCH   6  24
ATOM     24  O   UNL     1      -0.566  -6.345  33.634  1.00  0.00    -0.507 OA
ATOM     25  H   UNL     1      -0.213  -6.594  32.723  1.00  0.00     0.293 HD
ENDBRANCH   6  24
BRANCH   8  26
ATOM     26  O   UNL     1      -0.903  -9.175  37.478  1.00  0.00    -0.508 OA
ATOM     27  H   UNL     1      -1.811  -8.963  37.876  1.00  0.00     0.293 HD
ENDBRANCH   8  26
TORSDOF 6
ENDMDL
MODEL 7
REMARK VINA RESULT:    -4.883     14.574     16.602
REMARK INTER + INTRA:          -6.201
REMARK INTER:                  -5.964
REMARK INTRA:                  -0.237
REMARK UNBOUND:                -0.318
REMARK SMILES O=c1c(O)c(-c2ccc(O)c(O)c2)oc2cc(O)cc(O)c12
REMARK SMILES IDX 5 1 3 2 2 3 1 4 22 5 20 6 19 7 17 8 16 9 15 10 14 11 6 12
REMARK SMILES IDX 7 13 8 14 9 15 13 16 11 17 10 18 12 20 4 22 21 24 18 26
REMARK H PARENT 10 19 12 21 4 23 21 25 18 27
REMARK Flexibility Score: inf
ROOT
ATOM      1  C   UNL     1      -5.911  -5.256  44.890  1.00  0.00     0.180 A 
ATOM      2  C   UNL     1      -6.095  -6.582  44.462  1.00  0.00     0.208 A 
ATOM      3  C   UNL     1      -5.591  -7.629  45.252  1.00  0.00     0.238 A 
ATOM      4  O   UNL     1      -5.807  -8.816  44.892  1.00  0.00    -0.285 OA
ATOM      5  C   UNL     1      -4.898  -7.335  46.451  1.00  0.00     0.111 A 
ATOM      6  C   UNL     1      -4.312  -8.315  47.308  1.00  0.00     0.134 A 
ATOM      7  C   UNL     1      -3.763  -7.919  48.534  1.00  0.00     0.093 A 
ATOM      8  C   UNL     1      -3.720  -6.576  48.904  1.00  0.00     0.123 A 
ATOM      9  C   UNL     1      -4.237  -5.604  48.046  1.00  0.00     0.094 A 
ATOM     10  C   UNL     1      -4.824  -5.971  46.834  1.00  0.00     0.146 A 
ATOM     11  O   UNL     1      -5.313  -5.017  46.051  1.00  0.00    -0.452 OA
ENDROOT
BRANCH   1  12
ATOM     12  C   UNL     1      -6.390  -4.100  44.098  1.00  0.00     0.025 A 
ATOM     13  C   UNL     1      -7.758  -3.795  44.001  1.00  0.00     0.016 A 
ATOM     14  C   UNL     1      -8.188  -2.714  43.228  1.00  0.00     0.051 A 
ATOM     15  C   UNL     1      -7.261  -1.930  42.531  1.00  0.00     0.157 A 
ATOM     16  C   UNL     1      -5.465  -3.324  43.381  1.00  0.00     0.062 A 
ATOM     17  C   UNL     1      -5.892  -2.239  42.606  1.00  0.00     0.158 A 
BRANCH  15  18
ATOM     18  O   UNL     1      -7.692  -0.850  41.762  1.00  0.00    -0.504 OA
ATOM     19  H   UNL     1      -7.621  -0.856  40.751  1.00  0.00     0.293 HD
ENDBRANCH  15  18
BRANCH  17  20
ATOM     20  O   UNL     1      -4.944  -1.483  41.918  1.00  0.00    -0.504 OA
ATOM     21  H   UNL     1      -5.028  -0.479  41.815  1.00  0.00     0.293 HD
ENDBRANCH  17  20
ENDBRANCH   1  12
BRANCH   2  22
ATOM     22  O   UNL     1      -6.802  -6.851  43.286  1.00  0.00    -0.502 OA
ATOM     23  H   UNL     1      -7.814  -6.842  43.246  1.00  0.00     0.293 HD
ENDBRANCH   2  22
BRANCH   6  24
ATOM     24  O   UNL     1      -4.219  -9.673  46.992  1.00  0.00    -0.507 OA
ATOM     25  H   UNL     1      -4.688 -10.116  46.218  1.00  0.00     0.293 HD
ENDBRANCH   6  24
BRANCH   8  26
ATOM     26  O   UNL     1      -3.153  -6.217  50.125  1.00  0.00    -0.508 OA
ATOM     27  H   UNL     1      -3.500  -6.589  51.001  1.00  0.00     0.293 HD
ENDBRANCH   8  26
TORSDOF 6
ENDMDL
MODEL 8
REMARK VINA RESULT:    -4.844     15.750     16.882
REMARK INTER + INTRA:          -6.153
REMARK INTER:                  -5.819
REMARK INTRA:                  -0.335
REMARK UNBOUND:                -0.318
REMARK SMILES O=c1c(O)c(-c2ccc(O)c(O)c2)oc2cc(O)cc(O)c12
REMARK SMILES IDX 5 1 3 2 2 3 1 4 22 5 20 6 19 7 17 8 16 9 15 10 14 11 6 12
REMARK SMILES IDX 7 13 8 14 9 15 13 16 11 17 10 18 12 20 4 22 21 24 18 26
REMARK H PARENT 10 19 12 21 4 23 21 25 18 27
REMARK Flexibility Score: inf
ROOT
ATOM      1  C   UNL     1      -3.874  -3.654  46.936  1.00  0.00     0.180 A 
ATOM      2  C   UNL     1      -4.969  -3.988  46.118  1.00  0.00     0.208 A 
ATOM      3  C   UNL     1      -5.371  -5.331  46.034  1.00  0.00     0.238 A 
ATOM      4  O   UNL     1      -6.385  -5.615  45.345  1.00  0.00    -0.285 OA
ATOM      5  C   UNL     1      -4.665  -6.324  46.755  1.00  0.00     0.111 A 
ATOM      6  C   UNL     1      -4.961  -7.720  46.712  1.00  0.00     0.134 A 
ATOM      7  C   UNL     1      -4.281  -8.596  47.567  1.00  0.00     0.093 A 
ATOM      8  C   UNL     1      -3.272  -8.139  48.413  1.00  0.00     0.123 A 
ATOM      9  C   UNL     1      -2.934  -6.784  48.420  1.00  0.00     0.094 A 
ATOM     10  C   UNL     1      -3.619  -5.880  47.606  1.00  0.00     0.146 A 
ATOM     11  O   UNL     1      -3.275  -4.599  47.649  1.00  0.00    -0.452 OA
ENDROOT
BRANCH   1  12
ATOM     12  C   UNL     1      -3.376  -2.265  47.055  1.00  0.00     0.025 A 
ATOM     13  C   UNL     1      -2.409  -1.755  46.172  1.00  0.00     0.016 A 
ATOM     14  C   UNL     1      -1.936  -0.449  46.319  1.00  0.00     0.051 A 
ATOM     15  C   UNL     1      -2.410   0.362  47.357  1.00  0.00     0.157 A 
ATOM     16  C   UNL     1      -3.834  -1.455  48.107  1.00  0.00     0.062 A 
ATOM     17  C   UNL     1      -3.362  -0.146  48.257  1.00  0.00     0.158 A 
BRANCH  15  18
ATOM     18  O   UNL     1      -1.939   1.666  47.501  1.00  0.00    -0.504 OA
ATOM     19  H   UNL     1      -1.992   2.156  48.387  1.00  0.00     0.293 HD
ENDBRANCH  15  18
BRANCH  17  20
ATOM     20  O   UNL     1      -3.849   0.634  49.306  1.00  0.00    -0.504 OA
ATOM     21  H   UNL     1      -4.115   1.603  49.178  1.00  0.00     0.293 HD
ENDBRANCH  17  20
ENDBRANCH   1  12
BRANCH   2  22
ATOM     22  O   UNL     1      -5.665  -2.988  45.433  1.00  0.00    -0.502 OA
ATOM     23  H   UNL     1      -5.202  -2.312  44.838  1.00  0.00     0.293 HD
ENDBRANCH   2  22
BRANCH   6  24
ATOM     24  O   UNL     1      -5.887  -8.295  45.836  1.00  0.00    -0.507 OA
ATOM     25  H   UNL     1      -5.787  -9.202  45.409  1.00  0.00     0.293 HD
ENDBRANCH   6  24
BRANCH   8  26
ATOM     26  O   UNL     1      -2.605  -9.041  49.239  1.00  0.00    -0.508 OA
ATOM     27  H   UNL     1      -2.217  -9.904  48.876  1.00  0.00     0.293 HD
ENDBRANCH   8  26
TORSDOF 6
ENDMDL
MODEL 9
REMARK VINA RESULT:    -4.841      4.013      5.409
REMARK INTER + INTRA:          -6.150
REMARK INTER:                  -5.914
REMARK INTRA:                  -0.236
REMARK UNBOUND:                -0.318
REMARK SMILES O=c1c(O)c(-c2ccc(O)c(O)c2)oc2cc(O)cc(O)c12
REMARK SMILES IDX 5 1 3 2 2 3 1 4 22 5 20 6 19 7 17 8 16 9 15 10 14 11 6 12
REMARK SMILES IDX 7 13 8 14 9 15 13 16 11 17 10 18 12 20 4 22 21 24 18 26
REMARK H PARENT 10 19 12 21 4 23 21 25 18 27
REMARK Flexibility Score: inf
ROOT
ATOM      1  C   UNL     1       4.933  -4.882  36.547  1.00  0.00     0.180 A 
ATOM      2  C   UNL     1       4.701  -4.168  35.358  1.00  0.00     0.208 A 
ATOM      3  C   UNL     1       3.507  -4.391  34.652  1.00  0.00     0.238 A 
ATOM      4  O   UNL     1       3.280  -3.709  33.619  1.00  0.00    -0.285 OA
ATOM      5  C   UNL     1       2.570  -5.337  35.134  1.00  0.00     0.111 A 
ATOM      6  C   UNL     1       1.347  -5.671  34.478  1.00  0.00     0.134 A 
ATOM      7  C   UNL     1       0.435  -6.524  35.112  1.00  0.00     0.093 A 
ATOM      8  C   UNL     1       0.729  -7.105  36.345  1.00  0.00     0.123 A 
ATOM      9  C   UNL     1       1.948  -6.831  36.967  1.00  0.00     0.094 A 
ATOM     10  C   UNL     1       2.862  -5.956  36.377  1.00  0.00     0.146 A 
ATOM     11  O   UNL     1       4.006  -5.713  37.006  1.00  0.00    -0.452 OA
ENDROOT
BRANCH   1  12
ATOM     12  C   UNL     1       6.178  -4.720  37.332  1.00  0.00     0.025 A 
ATOM     13  C   UNL     1       7.152  -5.731  37.378  1.00  0.00     0.016 A 
ATOM     14  C   UNL     1       8.308  -5.565  38.145  1.00  0.00     0.051 A 
ATOM     15  C   UNL     1       8.501  -4.394  38.888  1.00  0.00     0.157 A 
ATOM     16  C   UNL     1       6.367  -3.555  38.094  1.00  0.00     0.062 A 
ATOM     17  C   UNL     1       7.523  -3.385  38.864  1.00  0.00     0.158 A 
BRANCH  15  18
ATOM     18  O   UNL     1       9.656  -4.229  39.651  1.00  0.00    -0.504 OA
ATOM     19  H   UNL     1       9.818  -3.389  40.195  1.00  0.00     0.293 HD
ENDBRANCH  15  18
BRANCH  17  20
ATOM     20  O   UNL     1       7.683  -2.210  39.598  1.00  0.00    -0.504 OA
ATOM     21  H   UNL     1       6.921  -1.793  40.119  1.00  0.00     0.293 HD
ENDBRANCH  17  20
ENDBRANCH   1  12
BRANCH   2  22
ATOM     22  O   UNL     1       5.630  -3.224  34.912  1.00  0.00    -0.502 OA
ATOM     23  H   UNL     1       5.361  -2.292  34.620  1.00  0.00     0.293 HD
ENDBRANCH   2  22
BRANCH   6  24
ATOM     24  O   UNL     1       0.997  -5.219  33.203  1.00  0.00    -0.507 OA
ATOM     25  H   UNL     1       0.508  -4.358  33.012  1.00  0.00     0.293 HD
ENDBRANCH   6  24
BRANCH   8  26
ATOM     26  O   UNL     1      -0.195  -7.961  36.939  1.00  0.00    -0.508 OA
ATOM     27  H   UNL     1      -1.156  -8.009  36.620  1.00  0.00     0.293 HD
ENDBRANCH   8  26
TORSDOF 6
ENDMDL
