MODEL 1
REMARK VINA RESULT:    -4.301      0.000      0.000
REMARK INTER + INTRA:          -6.962
REMARK INTER:                  -6.564
REMARK INTRA:                  -0.398
REMARK UNBOUND:                -0.398
REMARK SMILES CC1=CCC[C@H](C)C(=O)C[C@H](C(C)C)C(=O)C1
REMARK SMILES IDX 8 1 9 2 6 3 7 4 5 5 4 6 3 7 2 8 1 9 10 11 11 12 15 13 16 14
REMARK SMILES IDX 17 15 12 17 13 18 14 19
REMARK H PARENT
REMARK Flexibility Score: 70.00
ROOT
ATOM      1  C   UNL     1      14.246 -32.572  21.224  1.00  0.00     0.136 C 
ATOM      2  O   UNL     1      13.776 -32.666  20.099  1.00  0.00    -0.299 OA
ENDROOT
BRANCH   1   3
ATOM      3  C   UNL     1      13.798 -31.416  22.096  1.00  0.00     0.053 C 
ATOM      4  C   UNL     1      13.723 -31.870  23.558  1.00  0.00     0.016 C 
BRANCH   3   5
ATOM      5  C   UNL     1      14.684 -30.156  21.967  1.00  0.00     0.015 C 
BRANCH   5   6
ATOM      6  C   UNL     1      15.607 -29.919  23.180  1.00  0.00     0.028 C 
BRANCH   6   7
ATOM      7  C   UNL     1      17.068 -29.957  22.789  1.00  0.00    -0.028 C 
ATOM      8  C   UNL     1      17.940 -30.972  23.000  1.00  0.00    -0.070 CG0
ATOM      9  C   UNL     1      19.340 -30.807  22.463  1.00  0.00     0.039 C 
ATOM     10  G   UNL     1      17.565 -32.296  23.639  1.00  0.00     0.000 G0
ENDBRANCH   6   7
ENDBRANCH   5   6
ENDBRANCH   3   5
ENDBRANCH   1   3
BRANCH   1  11
ATOM     11  C   UNL     1      15.114 -33.688  21.770  1.00  0.00     0.087 C 
BRANCH  11  12
ATOM     12  C   UNL     1      16.626 -33.546  21.431  1.00  0.00     0.066 C 
BRANCH  12  13
ATOM     13  C   UNL     1      17.550 -33.464  22.653  1.00  0.00     0.140 C 
ATOM     14  O   UNL     1      18.375 -34.353  22.813  1.00  0.00    -0.299 OA
BRANCH  13  15
ATOM     15  C   UNL     1      17.571 -32.313  23.640  1.00  0.00     0.106 CG0
ATOM     16  G   UNL     1      17.944 -30.991  22.995  1.00  0.00     0.000 G0
ENDBRANCH  13  15
ENDBRANCH  12  13
BRANCH  12  17
ATOM     17  C   UNL     1      17.117 -34.651  20.434  1.00  0.00    -0.006 C 
ATOM     18  C   UNL     1      15.973 -35.484  19.837  1.00  0.00     0.008 C 
ATOM     19  C   UNL     1      18.009 -34.089  19.314  1.00  0.00     0.008 C 
ENDBRANCH  12  17
ENDBRANCH  11  12
ENDBRANCH   1  11
TORSDOF 1
ENDMDL
MODEL 2
REMARK VINA RESULT:    -4.090      2.170      4.314
REMARK INTER + INTRA:          -6.640
REMARK INTER:                  -6.314
REMARK INTRA:                  -0.327
REMARK UNBOUND:                -0.398
REMARK SMILES CC1=CCC[C@H](C)C(=O)C[C@H](C(C)C)C(=O)C1
REMARK SMILES IDX 8 1 9 2 6 3 7 4 5 5 4 6 3 7 2 8 1 9 10 11 11 12 15 13 16 14
REMARK SMILES IDX 17 15 12 17 13 18 14 19
REMARK H PARENT
REMARK Flexibility Score: 70.00
ROOT
ATOM      1  C   UNL     1      16.771 -29.811  21.875  1.00  0.00     0.136 C 
ATOM      2  O   UNL     1      16.216 -28.747  21.634  1.00  0.00    -0.299 OA
ENDROOT
BRANCH   1   3
ATOM      3  C   UNL     1      18.087 -30.107  21.185  1.00  0.00     0.053 C 
ATOM      4  C   UNL     1      18.774 -28.792  20.798  1.00  0.00     0.016 C 
BRANCH   3   5
ATOM      5  C   UNL     1      19.044 -30.991  22.016  1.00  0.00     0.015 C 
BRANCH   5   6
ATOM      6  C   UNL     1      19.003 -32.484  21.628  1.00  0.00     0.028 C 
BRANCH   6   7
ATOM      7  C   UNL     1      18.991 -33.380  22.846  1.00  0.00    -0.028 C 
ATOM      8  C   UNL     1      17.954 -34.126  23.297  1.00  0.00    -0.070 CG0
ATOM      9  C   UNL     1      18.197 -34.995  24.506  1.00  0.00     0.039 C 
ATOM     10  G   UNL     1      16.610 -34.223  22.599  1.00  0.00     0.000 G0
ENDBRANCH   6   7
ENDBRANCH   5   6
ENDBRANCH   3   5
ENDBRANCH   1   3
BRANCH   1  11
ATOM     11  C   UNL     1      16.227 -30.710  22.967  1.00  0.00     0.087 C 
BRANCH  11  12
ATOM     12  C   UNL     1      15.317 -31.863  22.453  1.00  0.00     0.066 C 
BRANCH  12  13
ATOM     13  C   UNL     1      15.591 -33.228  23.097  1.00  0.00     0.140 C 
ATOM     14  O   UNL     1      14.900 -33.566  24.049  1.00  0.00    -0.299 OA
BRANCH  13  15
ATOM     15  C   UNL     1      16.606 -34.232  22.588  1.00  0.00     0.106 CG0
ATOM     16  G   UNL     1      17.940 -34.137  23.307  1.00  0.00     0.000 G0
ENDBRANCH  13  15
ENDBRANCH  12  13
BRANCH  12  17
ATOM     17  C   UNL     1      13.796 -31.501  22.538  1.00  0.00    -0.006 C 
ATOM     18  C   UNL     1      13.497 -30.353  23.513  1.00  0.00     0.008 C 
ATOM     19  C   UNL     1      13.175 -31.207  21.162  1.00  0.00     0.008 C 
ENDBRANCH  12  17
ENDBRANCH  11  12
ENDBRANCH   1  11
TORSDOF 1
ENDMDL
MODEL 3
REMARK VINA RESULT:    -3.949      1.880      3.679
REMARK INTER + INTRA:          -6.425
REMARK INTER:                  -6.046
REMARK INTRA:                  -0.379
REMARK UNBOUND:                -0.398
REMARK SMILES CC1=CCC[C@H](C)C(=O)C[C@H](C(C)C)C(=O)C1
REMARK SMILES IDX 8 1 9 2 6 3 7 4 5 5 4 6 3 7 2 8 1 9 10 11 11 12 15 13 16 14
REMARK SMILES IDX 17 15 12 17 13 18 14 19
REMARK H PARENT
REMARK Flexibility Score: 70.00
ROOT
ATOM      1  C   UNL     1      15.646 -34.022  21.456  1.00  0.00     0.136 C 
ATOM      2  O   UNL     1      14.750 -33.581  20.750  1.00  0.00    -0.299 OA
ENDROOT
BRANCH   1   3
ATOM      3  C   UNL     1      16.906 -34.531  20.784  1.00  0.00     0.053 C 
ATOM      4  C   UNL     1      16.610 -35.853  20.065  1.00  0.00     0.016 C 
BRANCH   3   5
ATOM      5  C   UNL     1      17.546 -33.519  19.808  1.00  0.00     0.015 C 
BRANCH   5   6
ATOM      6  C   UNL     1      18.537 -32.548  20.483  1.00  0.00     0.028 C 
BRANCH   6   7
ATOM      7  C   UNL     1      17.980 -31.144  20.563  1.00  0.00    -0.028 C 
ATOM      8  C   UNL     1      17.715 -30.436  21.688  1.00  0.00    -0.070 CG0
ATOM      9  C   UNL     1      17.220 -29.022  21.518  1.00  0.00     0.039 C 
ATOM     10  G   UNL     1      17.992 -30.939  23.093  1.00  0.00     0.000 G0
ENDBRANCH   6   7
ENDBRANCH   5   6
ENDBRANCH   3   5
ENDBRANCH   1   3
BRANCH   1  11
ATOM     11  C   UNL     1      15.548 -33.890  22.962  1.00  0.00     0.087 C 
BRANCH  11  12
ATOM     12  C   UNL     1      16.818 -33.292  23.635  1.00  0.00     0.066 C 
BRANCH  12  13
ATOM     13  C   UNL     1      16.863 -31.758  23.664  1.00  0.00     0.140 C 
ATOM     14  O   UNL     1      15.961 -31.166  24.241  1.00  0.00    -0.299 OA
BRANCH  13  15
ATOM     15  C   UNL     1      17.992 -30.919  23.099  1.00  0.00     0.106 CG0
ATOM     16  G   UNL     1      17.707 -30.418  21.695  1.00  0.00     0.000 G0
ENDBRANCH  13  15
ENDBRANCH  12  13
BRANCH  12  17
ATOM     17  C   UNL     1      17.068 -33.885  25.063  1.00  0.00    -0.006 C 
ATOM     18  C   UNL     1      17.096 -35.421  25.088  1.00  0.00     0.008 C 
ATOM     19  C   UNL     1      18.332 -33.317  25.731  1.00  0.00     0.008 C 
ENDBRANCH  12  17
ENDBRANCH  11  12
ENDBRANCH   1  11
TORSDOF 1
ENDMDL
MODEL 4
REMARK VINA RESULT:    -3.935      1.669      4.290
REMARK INTER + INTRA:          -6.403
REMARK INTER:                  -6.098
REMARK INTRA:                  -0.305
REMARK UNBOUND:                -0.398
REMARK SMILES CC1=CCC[C@H](C)C(=O)C[C@H](C(C)C)C(=O)C1
REMARK SMILES IDX 8 1 9 2 6 3 7 4 5 5 4 6 3 7 2 8 1 9 10 11 11 12 15 13 16 14
REMARK SMILES IDX 17 15 12 17 13 18 14 19
REMARK H PARENT
REMARK Flexibility Score: 70.00
ROOT
ATOM      1  C   UNL     1      15.598 -33.417  20.628  1.00  0.00     0.136 C 
ATOM      2  O   UNL     1      14.384 -33.304  20.534  1.00  0.00    -0.299 OA
ENDROOT
BRANCH   1   3
ATOM      3  C   UNL     1      16.269 -34.578  19.922  1.00  0.00     0.053 C 
ATOM      4  C   UNL     1      17.347 -34.050  18.968  1.00  0.00     0.016 C 
BRANCH   3   5
ATOM      5  C   UNL     1      16.868 -35.631  20.882  1.00  0.00     0.015 C 
BRANCH   5   6
ATOM      6  C   UNL     1      18.296 -35.295  21.360  1.00  0.00     0.028 C 
BRANCH   6   7
ATOM      7  C   UNL     1      18.423 -35.400  22.864  1.00  0.00    -0.028 C 
ATOM      8  C   UNL     1      18.629 -34.384  23.736  1.00  0.00    -0.070 CG0
ATOM      9  C   UNL     1      18.660 -34.725  25.205  1.00  0.00     0.039 C 
ATOM     10  G   UNL     1      18.719 -32.924  23.333  1.00  0.00     0.000 G0
ENDBRANCH   6   7
ENDBRANCH   5   6
ENDBRANCH   3   5
ENDBRANCH   1   3
BRANCH   1  11
ATOM     11  C   UNL     1      16.404 -32.316  21.288  1.00  0.00     0.087 C 
BRANCH  11  12
ATOM     12  C   UNL     1      16.176 -32.189  22.822  1.00  0.00     0.066 C 
BRANCH  12  13
ATOM     13  C   UNL     1      17.462 -32.140  23.658  1.00  0.00     0.140 C 
ATOM     14  O   UNL     1      17.455 -31.483  24.690  1.00  0.00    -0.299 OA
BRANCH  13  15
ATOM     15  C   UNL     1      18.725 -32.916  23.341  1.00  0.00     0.106 CG0
ATOM     16  G   UNL     1      18.630 -34.380  23.730  1.00  0.00     0.000 G0
ENDBRANCH  13  15
ENDBRANCH  12  13
BRANCH  12  17
ATOM     17  C   UNL     1      15.230 -30.994  23.185  1.00  0.00    -0.006 C 
ATOM     18  C   UNL     1      15.262 -29.858  22.152  1.00  0.00     0.008 C 
ATOM     19  C   UNL     1      13.780 -31.439  23.444  1.00  0.00     0.008 C 
ENDBRANCH  12  17
ENDBRANCH  11  12
ENDBRANCH   1  11
TORSDOF 1
ENDMDL
MODEL 5
REMARK VINA RESULT:    -3.889      1.556      3.937
REMARK INTER + INTRA:          -6.334
REMARK INTER:                  -6.813
REMARK INTRA:                   0.479
REMARK UNBOUND:                -0.398
REMARK SMILES CC1=CCC[C@H](C)C(=O)C[C@H](C(C)C)C(=O)C1
REMARK SMILES IDX 8 1 9 2 6 3 7 4 5 5 4 6 3 7 2 8 1 9 10 11 11 12 15 13 16 14
REMARK SMILES IDX 17 15 12 17 13 18 14 19
REMARK H PARENT
REMARK Flexibility Score: 70.00
ROOT
ATOM      1  C   UNL     1      15.388 -33.933  20.769  1.00  0.00     0.136 C 
ATOM      2  O   UNL     1      15.014 -34.818  20.012  1.00  0.00    -0.299 OA
ENDROOT
BRANCH   1   3
ATOM      3  C   UNL     1      16.839 -33.927  21.207  1.00  0.00     0.053 C 
ATOM      4  C   UNL     1      17.324 -35.367  21.405  1.00  0.00     0.016 C 
BRANCH   3   5
ATOM      5  C   UNL     1      17.779 -33.168  20.244  1.00  0.00     0.015 C 
BRANCH   5   6
ATOM      6  C   UNL     1      18.370 -31.875  20.843  1.00  0.00     0.028 C 
BRANCH   6   7
ATOM      7  C   UNL     1      18.403 -31.921  22.355  1.00  0.00    -0.028 C 
ATOM      8  C   UNL     1      17.713 -31.127  23.208  1.00  0.00    -0.070 CG0
ATOM      9  C   UNL     1      17.859 -31.401  24.684  1.00  0.00     0.039 C 
ATOM     10  G   UNL     1      16.726 -30.061  22.768  1.00  0.00     0.000 G0
ENDBRANCH   6   7
ENDBRANCH   5   6
ENDBRANCH   3   5
ENDBRANCH   1   3
BRANCH   1  11
ATOM     11  C   UNL     1      14.453 -32.787  21.102  1.00  0.00     0.087 C 
BRANCH  11  12
ATOM     12  C   UNL     1      14.872 -31.964  22.355  1.00  0.00     0.066 C 
BRANCH  12  13
ATOM     13  C   UNL     1      15.522 -30.610  22.041  1.00  0.00     0.140 C 
ATOM     14  O   UNL     1      14.996 -29.901  21.193  1.00  0.00    -0.299 OA
BRANCH  13  15
ATOM     15  C   UNL     1      16.726 -30.044  22.766  1.00  0.00     0.106 CG0
ATOM     16  G   UNL     1      17.707 -31.116  23.204  1.00  0.00     0.000 G0
ENDBRANCH  13  15
ENDBRANCH  12  13
BRANCH  12  17
ATOM     17  C   UNL     1      13.696 -31.795  23.375  1.00  0.00    -0.006 C 
ATOM     18  C   UNL     1      13.879 -32.622  24.657  1.00  0.00     0.008 C 
ATOM     19  C   UNL     1      13.417 -30.324  23.725  1.00  0.00     0.008 C 
ENDBRANCH  12  17
ENDBRANCH  11  12
ENDBRANCH   1  11
TORSDOF 1
ENDMDL
MODEL 6
REMARK VINA RESULT:    -3.856      1.964      4.030
REMARK INTER + INTRA:          -6.284
REMARK INTER:                  -6.073
REMARK INTRA:                  -0.211
REMARK UNBOUND:                -0.398
REMARK SMILES CC1=CCC[C@H](C)C(=O)C[C@H](C(C)C)C(=O)C1
REMARK SMILES IDX 8 1 9 2 6 3 7 4 5 5 4 6 3 7 2 8 1 9 10 11 11 12 15 13 16 14
REMARK SMILES IDX 17 15 12 17 13 18 14 19
REMARK H PARENT
REMARK Flexibility Score: 70.00
ROOT
ATOM      1  C   UNL     1      15.825 -30.453  23.184  1.00  0.00     0.136 C 
ATOM      2  O   UNL     1      15.397 -29.326  22.982  1.00  0.00    -0.299 OA
ENDROOT
BRANCH   1   3
ATOM      3  C   UNL     1      14.836 -31.601  23.227  1.00  0.00     0.053 C 
ATOM      4  C   UNL     1      13.518 -31.124  23.849  1.00  0.00     0.016 C 
BRANCH   3   5
ATOM      5  C   UNL     1      14.577 -32.255  21.851  1.00  0.00     0.015 C 
BRANCH   5   6
ATOM      6  C   UNL     1      15.114 -33.697  21.739  1.00  0.00     0.028 C 
BRANCH   6   7
ATOM      7  C   UNL     1      15.946 -33.890  20.490  1.00  0.00    -0.028 C 
ATOM      8  C   UNL     1      17.287 -34.067  20.424  1.00  0.00    -0.070 CG0
ATOM      9  C   UNL     1      17.892 -34.303  19.063  1.00  0.00     0.039 C 
ATOM     10  G   UNL     1      18.193 -34.152  21.639  1.00  0.00     0.000 G0
ENDBRANCH   6   7
ENDBRANCH   5   6
ENDBRANCH   3   5
ENDBRANCH   1   3
BRANCH   1  11
ATOM     11  C   UNL     1      17.321 -30.694  23.210  1.00  0.00     0.087 C 
BRANCH  11  12
ATOM     12  C   UNL     1      17.726 -32.183  23.414  1.00  0.00     0.066 C 
BRANCH  12  13
ATOM     13  C   UNL     1      18.509 -32.798  22.247  1.00  0.00     0.140 C 
ATOM     14  O   UNL     1      19.482 -32.190  21.821  1.00  0.00    -0.299 OA
BRANCH  13  15
ATOM     15  C   UNL     1      18.214 -34.151  21.630  1.00  0.00     0.106 CG0
ATOM     16  G   UNL     1      17.282 -34.064  20.436  1.00  0.00     0.000 G0
ENDBRANCH  13  15
ENDBRANCH  12  13
BRANCH  12  17
ATOM     17  C   UNL     1      18.474 -32.414  24.771  1.00  0.00    -0.006 C 
ATOM     18  C   UNL     1      18.485 -31.174  25.678  1.00  0.00     0.008 C 
ATOM     19  C   UNL     1      17.947 -33.635  25.542  1.00  0.00     0.008 C 
ENDBRANCH  12  17
ENDBRANCH  11  12
ENDBRANCH   1  11
TORSDOF 1
ENDMDL
MODEL 7
REMARK VINA RESULT:    -3.827      1.919      4.444
REMARK INTER + INTRA:          -6.239
REMARK INTER:                  -6.360
REMARK INTRA:                   0.121
REMARK UNBOUND:                -0.398
REMARK SMILES CC1=CCC[C@H](C)C(=O)C[C@H](C(C)C)C(=O)C1
REMARK SMILES IDX 8 1 9 2 6 3 7 4 5 5 4 6 3 7 2 8 1 9 10 11 11 12 15 13 16 14
REMARK SMILES IDX 17 15 12 17 13 18 14 19
REMARK H PARENT
REMARK Flexibility Score: 70.00
ROOT
ATOM      1  C   UNL     1      17.708 -33.513  20.019  1.00  0.00     0.136 C 
ATOM      2  O   UNL     1      17.795 -33.633  18.805  1.00  0.00    -0.299 OA
ENDROOT
BRANCH   1   3
ATOM      3  C   UNL     1      16.919 -34.554  20.789  1.00  0.00     0.053 C 
ATOM      4  C   UNL     1      16.450 -35.657  19.833  1.00  0.00     0.016 C 
BRANCH   3   5
ATOM      5  C   UNL     1      17.687 -35.164  21.982  1.00  0.00     0.015 C 
BRANCH   5   6
ATOM      6  C   UNL     1      17.532 -34.367  23.294  1.00  0.00     0.028 C 
BRANCH   6   7
ATOM      7  C   UNL     1      16.096 -33.961  23.538  1.00  0.00    -0.028 C 
ATOM      8  C   UNL     1      15.591 -32.704  23.525  1.00  0.00    -0.070 CG0
ATOM      9  C   UNL     1      14.106 -32.549  23.735  1.00  0.00     0.039 C 
ATOM     10  G   UNL     1      16.407 -31.465  23.203  1.00  0.00     0.000 G0
ENDBRANCH   6   7
ENDBRANCH   5   6
ENDBRANCH   3   5
ENDBRANCH   1   3
BRANCH   1  11
ATOM     11  C   UNL     1      18.520 -32.449  20.728  1.00  0.00     0.087 C 
BRANCH  11  12
ATOM     12  C   UNL     1      17.784 -31.088  20.895  1.00  0.00     0.066 C 
BRANCH  12  13
ATOM     13  C   UNL     1      16.483 -31.161  21.705  1.00  0.00     0.140 C 
ATOM     14  O   UNL     1      15.423 -31.048  21.104  1.00  0.00    -0.299 OA
BRANCH  13  15
ATOM     15  C   UNL     1      16.409 -31.446  23.192  1.00  0.00     0.106 CG0
ATOM     16  G   UNL     1      15.603 -32.691  23.513  1.00  0.00     0.000 G0
ENDBRANCH  13  15
ENDBRANCH  12  13
BRANCH  12  17
ATOM     17  C   UNL     1      18.726 -29.967  21.453  1.00  0.00    -0.006 C 
ATOM     18  C   UNL     1      20.205 -30.381  21.495  1.00  0.00     0.008 C 
ATOM     19  C   UNL     1      18.568 -28.631  20.709  1.00  0.00     0.008 C 
ENDBRANCH  12  17
ENDBRANCH  11  12
ENDBRANCH   1  11
TORSDOF 1
ENDMDL
MODEL 8
REMARK VINA RESULT:    -3.761      2.059      3.528
REMARK INTER + INTRA:          -6.139
REMARK INTER:                  -5.793
REMARK INTRA:                  -0.346
REMARK UNBOUND:                -0.398
REMARK SMILES CC1=CCC[C@H](C)C(=O)C[C@H](C(C)C)C(=O)C1
REMARK SMILES IDX 8 1 9 2 6 3 7 4 5 5 4 6 3 7 2 8 1 9 10 11 11 12 15 13 16 14
REMARK SMILES IDX 17 15 12 17 13 18 14 19
REMARK H PARENT
REMARK Flexibility Score: 70.00
ROOT
ATOM      1  C   UNL     1      15.911 -30.581  21.811  1.00  0.00     0.136 C 
ATOM      2  O   UNL     1      16.032 -29.379  22.003  1.00  0.00    -0.299 OA
ENDROOT
BRANCH   1   3
ATOM      3  C   UNL     1      14.564 -31.220  22.089  1.00  0.00     0.053 C 
ATOM      4  C   UNL     1      14.363 -32.425  21.162  1.00  0.00     0.016 C 
BRANCH   3   5
ATOM      5  C   UNL     1      14.362 -31.635  23.564  1.00  0.00     0.015 C 
BRANCH   5   6
ATOM      6  C   UNL     1      14.459 -33.156  23.801  1.00  0.00     0.028 C 
BRANCH   6   7
ATOM      7  C   UNL     1      15.668 -33.518  24.634  1.00  0.00    -0.028 C 
ATOM      8  C   UNL     1      16.821 -34.077  24.196  1.00  0.00    -0.070 CG0
ATOM      9  C   UNL     1      17.919 -34.291  25.209  1.00  0.00     0.039 C 
ATOM     10  G   UNL     1      17.112 -34.395  22.741  1.00  0.00     0.000 G0
ENDBRANCH   6   7
ENDBRANCH   5   6
ENDBRANCH   3   5
ENDBRANCH   1   3
BRANCH   1  11
ATOM     11  C   UNL     1      17.034 -31.353  21.149  1.00  0.00     0.087 C 
BRANCH  11  12
ATOM     12  C   UNL     1      18.079 -31.940  22.142  1.00  0.00     0.066 C 
BRANCH  12  13
ATOM     13  C   UNL     1      18.169 -33.472  22.142  1.00  0.00     0.140 C 
ATOM     14  O   UNL     1      19.184 -33.989  21.695  1.00  0.00    -0.299 OA
BRANCH  13  15
ATOM     15  C   UNL     1      17.123 -34.396  22.734  1.00  0.00     0.106 CG0
ATOM     16  G   UNL     1      16.814 -34.082  24.186  1.00  0.00     0.000 G0
ENDBRANCH  13  15
ENDBRANCH  12  13
BRANCH  12  17
ATOM     17  C   UNL     1      19.496 -31.298  21.961  1.00  0.00    -0.006 C 
ATOM     18  C   UNL     1      19.467 -29.962  21.202  1.00  0.00     0.008 C 
ATOM     19  C   UNL     1      20.252 -31.139  23.291  1.00  0.00     0.008 C 
ENDBRANCH  12  17
ENDBRANCH  11  12
ENDBRANCH   1  11
TORSDOF 1
ENDMDL
MODEL 9
REMARK VINA RESULT:    -3.757      1.958      4.903
REMARK INTER + INTRA:          -6.132
REMARK INTER:                  -5.689
REMARK INTRA:                  -0.444
REMARK UNBOUND:                -0.398
REMARK SMILES CC1=CCC[C@H](C)C(=O)C[C@H](C(C)C)C(=O)C1
REMARK SMILES IDX 8 1 9 2 6 3 7 4 5 5 4 6 3 7 2 8 1 9 10 11 11 12 15 13 16 14
REMARK SMILES IDX 17 15 12 17 13 18 14 19
REMARK H PARENT
REMARK Flexibility Score: 70.00
ROOT
ATOM      1  C   UNL     1      17.133 -33.622  24.753  1.00  0.00     0.136 C 
ATOM      2  O   UNL     1      17.152 -34.704  25.323  1.00  0.00    -0.299 OA
ENDROOT
BRANCH   1   3
ATOM      3  C   UNL     1      18.456 -32.968  24.408  1.00  0.00     0.053 C 
ATOM      4  C   UNL     1      19.097 -32.398  25.679  1.00  0.00     0.016 C 
BRANCH   3   5
ATOM      5  C   UNL     1      19.444 -33.904  23.678  1.00  0.00     0.015 C 
BRANCH   5   6
ATOM      6  C   UNL     1      19.481 -33.699  22.149  1.00  0.00     0.028 C 
BRANCH   6   7
ATOM      7  C   UNL     1      18.729 -34.789  21.419  1.00  0.00    -0.028 C 
ATOM      8  C   UNL     1      17.552 -34.665  20.760  1.00  0.00    -0.070 CG0
ATOM      9  C   UNL     1      17.021 -35.885  20.049  1.00  0.00     0.039 C 
ATOM     10  G   UNL     1      16.800 -33.356  20.604  1.00  0.00     0.000 G0
ENDBRANCH   6   7
ENDBRANCH   5   6
ENDBRANCH   3   5
ENDBRANCH   1   3
BRANCH   1  11
ATOM     11  C   UNL     1      15.816 -33.058  24.259  1.00  0.00     0.087 C 
BRANCH  11  12
ATOM     12  C   UNL     1      15.918 -32.276  22.917  1.00  0.00     0.066 C 
BRANCH  12  13
ATOM     13  C   UNL     1      15.728 -33.137  21.661  1.00  0.00     0.140 C 
ATOM     14  O   UNL     1      14.626 -33.633  21.463  1.00  0.00    -0.299 OA
BRANCH  13  15
ATOM     15  C   UNL     1      16.785 -33.354  20.597  1.00  0.00     0.106 CG0
ATOM     16  G   UNL     1      17.535 -34.663  20.769  1.00  0.00     0.000 G0
ENDBRANCH  13  15
ENDBRANCH  12  13
BRANCH  12  17
ATOM     17  C   UNL     1      14.975 -31.026  22.884  1.00  0.00    -0.006 C 
ATOM     18  C   UNL     1      13.803 -31.122  23.873  1.00  0.00     0.008 C 
ATOM     19  C   UNL     1      15.732 -29.703  23.081  1.00  0.00     0.008 C 
ENDBRANCH  12  17
ENDBRANCH  11  12
ENDBRANCH   1  11
TORSDOF 1
ENDMDL
