MODEL 1
REMARK VINA RESULT:    -3.970      0.000      0.000
REMARK INTER + INTRA:         -11.500
REMARK INTER:                  -9.075
REMARK INTRA:                  -2.425
REMARK UNBOUND:                -2.425
REMARK SMILES CCCCCCCCCCCCCCCCCCCCCCCC(=O)[O-]
REMARK SMILES IDX 13 1 14 2 15 3 16 4 17 5 18 6 19 7 20 8 21 9 22 10 23 11
REMARK SMILES IDX 24 12 25 13 26 14 12 15 11 16 10 17 9 18 8 19 7 20 6 21 5 22
REMARK SMILES IDX 4 23 3 24 2 25 1 26
REMARK H PARENT
REMARK Flexibility Score: inf
ROOT
ATOM      1  C   UNL     1      61.576  23.518  50.706  1.00  0.00     0.000 C 
ENDROOT
BRANCH   1   2
ATOM      2  C   UNL     1      61.645  22.108  50.084  1.00  0.00     0.000 C 
BRANCH   2   3
ATOM      3  C   UNL     1      60.831  21.922  48.791  1.00  0.00     0.000 C 
BRANCH   3   4
ATOM      4  C   UNL     1      60.240  20.509  48.655  1.00  0.00     0.000 C 
BRANCH   4   5
ATOM      5  C   UNL     1      60.737  19.542  49.746  1.00  0.00     0.000 C 
BRANCH   5   6
ATOM      6  C   UNL     1      60.620  18.047  49.402  1.00  0.00     0.000 C 
BRANCH   6   7
ATOM      7  C   UNL     1      59.375  17.718  48.563  1.00  0.00     0.000 C 
BRANCH   7   8
ATOM      8  C   UNL     1      58.332  16.966  49.402  1.00  0.00     0.000 C 
BRANCH   8   9
ATOM      9  C   UNL     1      57.311  17.904  50.070  1.00  0.00     0.000 C 
BRANCH   9  10
ATOM     10  C   UNL     1      57.593  18.224  51.553  1.00  0.00     0.006 C 
BRANCH  10  11
ATOM     11  C   UNL     1      57.261  19.666  51.969  1.00  0.00     0.053 C 
BRANCH  11  12
ATOM     12  C   UNL     1      58.441  20.363  52.572  1.00  0.00     0.041 C 
ATOM     13  O   UNL     1      58.812  21.481  52.128  1.00  0.00    -0.550 OA
ATOM     14  O   UNL     1      59.152  19.764  53.605  1.00  0.00    -0.550 OA
ENDBRANCH  11  12
ENDBRANCH  10  11
ENDBRANCH   9  10
ENDBRANCH   8   9
ENDBRANCH   7   8
ENDBRANCH   6   7
ENDBRANCH   5   6
ENDBRANCH   4   5
ENDBRANCH   3   4
ENDBRANCH   2   3
ENDBRANCH   1   2
BRANCH   1  15
ATOM     15  C   UNL     1      60.629  24.503  49.994  1.00  0.00     0.000 C 
BRANCH  15  16
ATOM     16  C   UNL     1      59.316  24.800  50.744  1.00  0.00     0.000 C 
BRANCH  16  17
ATOM     17  C   UNL     1      58.471  25.947  50.151  1.00  0.00     0.000 C 
BRANCH  17  18
ATOM     18  C   UNL     1      59.265  26.991  49.345  1.00  0.00    -0.000 C 
BRANCH  18  19
ATOM     19  C   UNL     1      59.135  28.440  49.855  1.00  0.00    -0.000 C 
BRANCH  19  20
ATOM     20  C   UNL     1      57.675  28.898  50.061  1.00  0.00    -0.000 C 
BRANCH  20  21
ATOM     21  C   UNL     1      57.315  29.072  51.547  1.00  0.00    -0.000 C 
BRANCH  21  22
ATOM     22  C   UNL     1      55.793  28.996  51.789  1.00  0.00    -0.000 C 
BRANCH  22  23
ATOM     23  C   UNL     1      54.952  29.431  50.576  1.00  0.00    -0.000 C 
BRANCH  23  24
ATOM     24  C   UNL     1      53.894  28.388  50.182  1.00  0.00    -0.000 C 
BRANCH  24  25
ATOM     25  C   UNL     1      54.289  26.962  50.597  1.00  0.00    -0.003 C 
ATOM     26  C   UNL     1      54.820  26.131  49.429  1.00  0.00     0.004 C 
ENDBRANCH  24  25
ENDBRANCH  23  24
ENDBRANCH  22  23
ENDBRANCH  21  22
ENDBRANCH  20  21
ENDBRANCH  19  20
ENDBRANCH  18  19
ENDBRANCH  17  18
ENDBRANCH  16  17
ENDBRANCH  15  16
ENDBRANCH   1  15
TORSDOF 22
ENDMDL
MODEL 2
REMARK VINA RESULT:    -3.916      2.230      8.684
REMARK INTER + INTRA:         -11.377
REMARK INTER:                  -8.788
REMARK INTRA:                  -2.589
REMARK UNBOUND:                -2.425
REMARK SMILES CCCCCCCCCCCCCCCCCCCCCCCC(=O)[O-]
REMARK SMILES IDX 13 1 14 2 15 3 16 4 17 5 18 6 19 7 20 8 21 9 22 10 23 11
REMARK SMILES IDX 24 12 25 13 26 14 12 15 11 16 10 17 9 18 8 19 7 20 6 21 5 22
REMARK SMILES IDX 4 23 3 24 2 25 1 26
REMARK H PARENT
REMARK Flexibility Score: inf
ROOT
ATOM      1  C   UNL     1      60.630  23.703  51.384  1.00  0.00     0.000 C 
ENDROOT
BRANCH   1   2
ATOM      2  C   UNL     1      59.407  24.263  52.139  1.00  0.00     0.000 C 
BRANCH   2   3
ATOM      3  C   UNL     1      58.948  25.664  51.696  1.00  0.00     0.000 C 
BRANCH   3   4
ATOM      4  C   UNL     1      58.850  25.805  50.167  1.00  0.00     0.000 C 
BRANCH   4   5
ATOM      5  C   UNL     1      59.933  26.727  49.577  1.00  0.00     0.000 C 
BRANCH   5   6
ATOM      6  C   UNL     1      59.830  28.207  49.985  1.00  0.00     0.000 C 
BRANCH   6   7
ATOM      7  C   UNL     1      58.507  28.859  49.554  1.00  0.00     0.000 C 
BRANCH   7   8
ATOM      8  C   UNL     1      57.695  29.311  50.777  1.00  0.00     0.000 C 
BRANCH   8   9
ATOM      9  C   UNL     1      56.189  29.028  50.635  1.00  0.00     0.000 C 
BRANCH   9  10
ATOM     10  C   UNL     1      55.757  27.595  51.011  1.00  0.00     0.006 C 
BRANCH  10  11
ATOM     11  C   UNL     1      55.123  26.798  49.861  1.00  0.00     0.053 C 
BRANCH  11  12
ATOM     12  C   UNL     1      54.204  25.726  50.360  1.00  0.00     0.041 C 
ATOM     13  O   UNL     1      54.037  25.558  51.597  1.00  0.00    -0.550 OA
ATOM     14  O   UNL     1      53.556  24.888  49.460  1.00  0.00    -0.550 OA
ENDBRANCH  11  12
ENDBRANCH  10  11
ENDBRANCH   9  10
ENDBRANCH   8   9
ENDBRANCH   7   8
ENDBRANCH   6   7
ENDBRANCH   5   6
ENDBRANCH   4   5
ENDBRANCH   3   4
ENDBRANCH   2   3
ENDBRANCH   1   2
BRANCH   1  15
ATOM     15  C   UNL     1      60.380  22.396  50.608  1.00  0.00     0.000 C 
BRANCH  15  16
ATOM     16  C   UNL     1      60.866  22.405  49.145  1.00  0.00     0.000 C 
BRANCH  16  17
ATOM     17  C   UNL     1      60.973  21.015  48.485  1.00  0.00     0.000 C 
BRANCH  17  18
ATOM     18  C   UNL     1      59.813  20.053  48.800  1.00  0.00    -0.000 C 
BRANCH  18  19
ATOM     19  C   UNL     1      60.218  18.573  48.946  1.00  0.00    -0.000 C 
BRANCH  19  20
ATOM     20  C   UNL     1      59.214  17.587  48.310  1.00  0.00    -0.000 C 
BRANCH  20  21
ATOM     21  C   UNL     1      58.072  17.206  49.270  1.00  0.00    -0.000 C 
BRANCH  21  22
ATOM     22  C   UNL     1      58.576  16.968  50.708  1.00  0.00    -0.000 C 
BRANCH  22  23
ATOM     23  C   UNL     1      57.732  17.674  51.784  1.00  0.00    -0.000 C 
BRANCH  23  24
ATOM     24  C   UNL     1      57.295  19.086  51.365  1.00  0.00    -0.000 C 
BRANCH  24  25
ATOM     25  C   UNL     1      57.954  20.182  52.218  1.00  0.00    -0.003 C 
ATOM     26  C   UNL     1      57.980  19.839  53.707  1.00  0.00     0.004 C 
ENDBRANCH  24  25
ENDBRANCH  23  24
ENDBRANCH  22  23
ENDBRANCH  21  22
ENDBRANCH  20  21
ENDBRANCH  19  20
ENDBRANCH  18  19
ENDBRANCH  17  18
ENDBRANCH  16  17
ENDBRANCH  15  16
ENDBRANCH   1  15
TORSDOF 22
ENDMDL
MODEL 3
REMARK VINA RESULT:    -3.900      2.484      8.786
REMARK INTER + INTRA:         -11.342
REMARK INTER:                  -8.706
REMARK INTRA:                  -2.635
REMARK UNBOUND:                -2.425
REMARK SMILES CCCCCCCCCCCCCCCCCCCCCCCC(=O)[O-]
REMARK SMILES IDX 13 1 14 2 15 3 16 4 17 5 18 6 19 7 20 8 21 9 22 10 23 11
REMARK SMILES IDX 24 12 25 13 26 14 12 15 11 16 10 17 9 18 8 19 7 20 6 21 5 22
REMARK SMILES IDX 4 23 3 24 2 25 1 26
REMARK H PARENT
REMARK Flexibility Score: inf
ROOT
ATOM      1  C   UNL     1      60.984  26.331  51.118  1.00  0.00     0.000 C 
ENDROOT
BRANCH   1   2
ATOM      2  C   UNL     1      60.947  27.284  49.906  1.00  0.00     0.000 C 
BRANCH   2   3
ATOM      3  C   UNL     1      59.557  27.494  49.279  1.00  0.00     0.000 C 
BRANCH   3   4
ATOM      4  C   UNL     1      59.245  28.973  48.998  1.00  0.00     0.000 C 
BRANCH   4   5
ATOM      5  C   UNL     1      58.214  29.566  49.977  1.00  0.00     0.000 C 
BRANCH   5   6
ATOM      6  C   UNL     1      58.773  29.977  51.351  1.00  0.00     0.000 C 
BRANCH   6   7
ATOM      7  C   UNL     1      58.080  29.263  52.521  1.00  0.00     0.000 C 
BRANCH   7   8
ATOM      8  C   UNL     1      56.988  28.310  52.013  1.00  0.00     0.000 C 
BRANCH   8   9
ATOM      9  C   UNL     1      57.317  26.829  52.268  1.00  0.00     0.000 C 
BRANCH   9  10
ATOM     10  C   UNL     1      56.638  25.835  51.302  1.00  0.00     0.006 C 
BRANCH  10  11
ATOM     11  C   UNL     1      56.239  26.435  49.945  1.00  0.00     0.053 C 
BRANCH  11  12
ATOM     12  C   UNL     1      54.754  26.454  49.754  1.00  0.00     0.041 C 
ATOM     13  O   UNL     1      54.125  25.380  49.567  1.00  0.00    -0.550 OA
ATOM     14  O   UNL     1      54.067  27.662  49.749  1.00  0.00    -0.550 OA
ENDBRANCH  11  12
ENDBRANCH  10  11
ENDBRANCH   9  10
ENDBRANCH   8   9
ENDBRANCH   7   8
ENDBRANCH   6   7
ENDBRANCH   5   6
ENDBRANCH   4   5
ENDBRANCH   3   4
ENDBRANCH   2   3
ENDBRANCH   1   2
BRANCH   1  15
ATOM     15  C   UNL     1      61.413  24.886  50.803  1.00  0.00     0.000 C 
BRANCH  15  16
ATOM     16  C   UNL     1      60.396  24.071  49.978  1.00  0.00     0.000 C 
BRANCH  16  17
ATOM     17  C   UNL     1      60.788  22.600  49.729  1.00  0.00     0.000 C 
BRANCH  17  18
ATOM     18  C   UNL     1      60.296  21.605  50.797  1.00  0.00    -0.000 C 
BRANCH  18  19
ATOM     19  C   UNL     1      60.800  20.159  50.617  1.00  0.00    -0.000 C 
BRANCH  19  20
ATOM     20  C   UNL     1      60.935  19.726  49.141  1.00  0.00    -0.000 C 
BRANCH  20  21
ATOM     21  C   UNL     1      59.596  19.270  48.534  1.00  0.00    -0.000 C 
BRANCH  21  22
ATOM     22  C   UNL     1      59.461  17.734  48.511  1.00  0.00    -0.000 C 
BRANCH  22  23
ATOM     23  C   UNL     1      58.164  17.217  49.158  1.00  0.00    -0.000 C 
BRANCH  23  24
ATOM     24  C   UNL     1      58.156  17.380  50.686  1.00  0.00    -0.000 C 
BRANCH  24  25
ATOM     25  C   UNL     1      57.389  18.633  51.139  1.00  0.00    -0.003 C 
ATOM     26  C   UNL     1      55.920  18.613  50.717  1.00  0.00     0.004 C 
ENDBRANCH  24  25
ENDBRANCH  23  24
ENDBRANCH  22  23
ENDBRANCH  21  22
ENDBRANCH  20  21
ENDBRANCH  19  20
ENDBRANCH  18  19
ENDBRANCH  17  18
ENDBRANCH  16  17
ENDBRANCH  15  16
ENDBRANCH   1  15
TORSDOF 22
ENDMDL
MODEL 4
REMARK VINA RESULT:    -3.827      2.730      9.011
REMARK INTER + INTRA:         -11.175
REMARK INTER:                  -8.800
REMARK INTRA:                  -2.374
REMARK UNBOUND:                -2.425
REMARK SMILES CCCCCCCCCCCCCCCCCCCCCCCC(=O)[O-]
REMARK SMILES IDX 13 1 14 2 15 3 16 4 17 5 18 6 19 7 20 8 21 9 22 10 23 11
REMARK SMILES IDX 24 12 25 13 26 14 12 15 11 16 10 17 9 18 8 19 7 20 6 21 5 22
REMARK SMILES IDX 4 23 3 24 2 25 1 26
REMARK H PARENT
REMARK Flexibility Score: inf
ROOT
ATOM      1  C   UNL     1      62.058  25.463  50.489  1.00  0.00     0.000 C 
ENDROOT
BRANCH   1   2
ATOM      2  C   UNL     1      60.879  26.393  50.844  1.00  0.00     0.000 C 
BRANCH   2   3
ATOM      3  C   UNL     1      60.097  26.949  49.640  1.00  0.00     0.000 C 
BRANCH   3   4
ATOM      4  C   UNL     1      58.622  26.517  49.636  1.00  0.00     0.000 C 
BRANCH   4   5
ATOM      5  C   UNL     1      58.165  25.921  50.981  1.00  0.00     0.000 C 
BRANCH   5   6
ATOM      6  C   UNL     1      56.650  25.978  51.244  1.00  0.00     0.000 C 
BRANCH   6   7
ATOM      7  C   UNL     1      55.825  26.212  49.970  1.00  0.00     0.000 C 
BRANCH   7   8
ATOM      8  C   UNL     1      55.002  27.504  50.079  1.00  0.00     0.000 C 
BRANCH   8   9
ATOM      9  C   UNL     1      55.156  28.200  51.444  1.00  0.00     0.000 C 
BRANCH   9  10
ATOM     10  C   UNL     1      55.812  29.595  51.393  1.00  0.00     0.006 C 
BRANCH  10  11
ATOM     11  C   UNL     1      57.234  29.610  50.810  1.00  0.00     0.053 C 
BRANCH  11  12
ATOM     12  C   UNL     1      58.241  30.112  51.799  1.00  0.00     0.041 C 
ATOM     13  O   UNL     1      58.055  31.206  52.394  1.00  0.00    -0.550 OA
ATOM     14  O   UNL     1      59.402  29.388  52.039  1.00  0.00    -0.550 OA
ENDBRANCH  11  12
ENDBRANCH  10  11
ENDBRANCH   9  10
ENDBRANCH   8   9
ENDBRANCH   7   8
ENDBRANCH   6   7
ENDBRANCH   5   6
ENDBRANCH   4   5
ENDBRANCH   3   4
ENDBRANCH   2   3
ENDBRANCH   1   2
BRANCH   1  15
ATOM     15  C   UNL     1      61.806  23.963  50.733  1.00  0.00     0.000 C 
BRANCH  15  16
ATOM     16  C   UNL     1      60.735  23.326  49.824  1.00  0.00     0.000 C 
BRANCH  16  17
ATOM     17  C   UNL     1      60.572  21.800  49.979  1.00  0.00     0.000 C 
BRANCH  17  18
ATOM     18  C   UNL     1      60.914  20.978  48.724  1.00  0.00    -0.000 C 
BRANCH  18  19
ATOM     19  C   UNL     1      59.864  19.919  48.335  1.00  0.00    -0.000 C 
BRANCH  19  20
ATOM     20  C   UNL     1      60.115  18.532  48.966  1.00  0.00    -0.000 C 
BRANCH  20  21
ATOM     21  C   UNL     1      59.197  17.442  48.385  1.00  0.00    -0.000 C 
BRANCH  21  22
ATOM     22  C   UNL     1      58.227  16.875  49.441  1.00  0.00    -0.000 C 
BRANCH  22  23
ATOM     23  C   UNL     1      57.358  17.948  50.122  1.00  0.00    -0.000 C 
BRANCH  23  24
ATOM     24  C   UNL     1      57.544  17.983  51.647  1.00  0.00    -0.000 C 
BRANCH  24  25
ATOM     25  C   UNL     1      58.705  17.094  52.119  1.00  0.00    -0.003 C 
ATOM     26  C   UNL     1      59.874  17.899  52.688  1.00  0.00     0.004 C 
ENDBRANCH  24  25
ENDBRANCH  23  24
ENDBRANCH  22  23
ENDBRANCH  21  22
ENDBRANCH  20  21
ENDBRANCH  19  20
ENDBRANCH  18  19
ENDBRANCH  17  18
ENDBRANCH  16  17
ENDBRANCH  15  16
ENDBRANCH   1  15
TORSDOF 22
ENDMDL
MODEL 5
REMARK VINA RESULT:    -3.820      1.666      3.346
REMARK INTER + INTRA:         -11.159
REMARK INTER:                  -8.061
REMARK INTRA:                  -3.098
REMARK UNBOUND:                -2.425
REMARK SMILES CCCCCCCCCCCCCCCCCCCCCCCC(=O)[O-]
REMARK SMILES IDX 13 1 14 2 15 3 16 4 17 5 18 6 19 7 20 8 21 9 22 10 23 11
REMARK SMILES IDX 24 12 25 13 26 14 12 15 11 16 10 17 9 18 8 19 7 20 6 21 5 22
REMARK SMILES IDX 4 23 3 24 2 25 1 26
REMARK H PARENT
REMARK Flexibility Score: inf
ROOT
ATOM      1  C   UNL     1      58.349  25.525  51.107  1.00  0.00     0.000 C 
ENDROOT
BRANCH   1   2
ATOM      2  C   UNL     1      59.158  25.894  52.367  1.00  0.00     0.000 C 
BRANCH   2   3
ATOM      3  C   UNL     1      59.995  24.749  52.968  1.00  0.00     0.000 C 
BRANCH   3   4
ATOM      4  C   UNL     1      59.696  23.388  52.318  1.00  0.00     0.000 C 
BRANCH   4   5
ATOM      5  C   UNL     1      60.970  22.591  51.979  1.00  0.00     0.000 C 
BRANCH   5   6
ATOM      6  C   UNL     1      61.564  22.863  50.586  1.00  0.00     0.000 C 
BRANCH   6   7
ATOM      7  C   UNL     1      60.582  22.564  49.444  1.00  0.00     0.000 C 
BRANCH   7   8
ATOM      8  C   UNL     1      61.132  21.468  48.520  1.00  0.00     0.000 C 
BRANCH   8   9
ATOM      9  C   UNL     1      60.265  20.197  48.513  1.00  0.00     0.000 C 
BRANCH   9  10
ATOM     10  C   UNL     1      59.558  19.883  49.849  1.00  0.00     0.006 C 
BRANCH  10  11
ATOM     11  C   UNL     1      58.493  18.779  49.763  1.00  0.00     0.053 C 
BRANCH  11  12
ATOM     12  C   UNL     1      57.345  19.031  50.691  1.00  0.00     0.041 C 
ATOM     13  O   UNL     1      57.539  19.593  51.801  1.00  0.00    -0.550 OA
ATOM     14  O   UNL     1      56.065  18.617  50.345  1.00  0.00    -0.550 OA
ENDBRANCH  11  12
ENDBRANCH  10  11
ENDBRANCH   9  10
ENDBRANCH   8   9
ENDBRANCH   7   8
ENDBRANCH   6   7
ENDBRANCH   5   6
ENDBRANCH   4   5
ENDBRANCH   3   4
ENDBRANCH   2   3
ENDBRANCH   1   2
BRANCH   1  15
ATOM     15  C   UNL     1      58.960  25.999  49.774  1.00  0.00     0.000 C 
BRANCH  15  16
ATOM     16  C   UNL     1      60.452  26.384  49.842  1.00  0.00     0.000 C 
BRANCH  16  17
ATOM     17  C   UNL     1      60.749  27.882  49.624  1.00  0.00     0.000 C 
BRANCH  17  18
ATOM     18  C   UNL     1      61.220  28.643  50.877  1.00  0.00    -0.000 C 
BRANCH  18  19
ATOM     19  C   UNL     1      60.116  29.430  51.611  1.00  0.00    -0.000 C 
BRANCH  19  20
ATOM     20  C   UNL     1      58.961  29.885  50.692  1.00  0.00    -0.000 C 
BRANCH  20  21
ATOM     21  C   UNL     1      57.577  29.661  51.327  1.00  0.00    -0.000 C 
BRANCH  21  22
ATOM     22  C   UNL     1      56.677  28.759  50.457  1.00  0.00    -0.000 C 
BRANCH  22  23
ATOM     23  C   UNL     1      55.276  28.527  51.050  1.00  0.00    -0.000 C 
BRANCH  23  24
ATOM     24  C   UNL     1      54.246  28.103  49.991  1.00  0.00    -0.000 C 
BRANCH  24  25
ATOM     25  C   UNL     1      53.747  26.664  50.199  1.00  0.00    -0.003 C 
ATOM     26  C   UNL     1      54.027  25.761  48.998  1.00  0.00     0.004 C 
ENDBRANCH  24  25
ENDBRANCH  23  24
ENDBRANCH  22  23
ENDBRANCH  21  22
ENDBRANCH  20  21
ENDBRANCH  19  20
ENDBRANCH  18  19
ENDBRANCH  17  18
ENDBRANCH  16  17
ENDBRANCH  15  16
ENDBRANCH   1  15
TORSDOF 22
ENDMDL
MODEL 6
REMARK VINA RESULT:    -3.750      6.017      9.330
REMARK INTER + INTRA:         -10.998
REMARK INTER:                  -6.860
REMARK INTRA:                  -4.139
REMARK UNBOUND:                -2.425
REMARK SMILES CCCCCCCCCCCCCCCCCCCCCCCC(=O)[O-]
REMARK SMILES IDX 13 1 14 2 15 3 16 4 17 5 18 6 19 7 20 8 21 9 22 10 23 11
REMARK SMILES IDX 24 12 25 13 26 14 12 15 11 16 10 17 9 18 8 19 7 20 6 21 5 22
REMARK SMILES IDX 4 23 3 24 2 25 1 26
REMARK H PARENT
REMARK Flexibility Score: inf
ROOT
ATOM      1  C   UNL     1      58.982  26.140  50.024  1.00  0.00     0.000 C 
ENDROOT
BRANCH   1   2
ATOM      2  C   UNL     1      59.855  27.363  49.673  1.00  0.00     0.000 C 
BRANCH   2   3
ATOM      3  C   UNL     1      59.097  28.552  49.054  1.00  0.00     0.000 C 
BRANCH   3   4
ATOM      4  C   UNL     1      59.010  29.761  50.000  1.00  0.00     0.000 C 
BRANCH   4   5
ATOM      5  C   UNL     1      59.630  29.489  51.383  1.00  0.00     0.000 C 
BRANCH   5   6
ATOM      6  C   UNL     1      59.682  30.701  52.331  1.00  0.00     0.000 C 
BRANCH   6   7
ATOM      7  C   UNL     1      59.094  30.406  53.719  1.00  0.00     0.000 C 
BRANCH   7   8
ATOM      8  C   UNL     1      58.290  31.606  54.240  1.00  0.00     0.000 C 
BRANCH   8   9
ATOM      9  C   UNL     1      57.605  32.403  53.115  1.00  0.00     0.000 C 
BRANCH   9  10
ATOM     10  C   UNL     1      56.556  33.431  53.591  1.00  0.00     0.006 C 
BRANCH  10  11
ATOM     11  C   UNL     1      55.115  33.116  53.163  1.00  0.00     0.053 C 
BRANCH  11  12
ATOM     12  C   UNL     1      54.188  33.023  54.336  1.00  0.00     0.041 C 
ATOM     13  O   UNL     1      54.464  33.619  55.411  1.00  0.00    -0.550 OA
ATOM     14  O   UNL     1      53.036  32.251  54.255  1.00  0.00    -0.550 OA
ENDBRANCH  11  12
ENDBRANCH  10  11
ENDBRANCH   9  10
ENDBRANCH   8   9
ENDBRANCH   7   8
ENDBRANCH   6   7
ENDBRANCH   5   6
ENDBRANCH   4   5
ENDBRANCH   3   4
ENDBRANCH   2   3
ENDBRANCH   1   2
BRANCH   1  15
ATOM     15  C   UNL     1      57.463  26.361  49.897  1.00  0.00     0.000 C 
BRANCH  15  16
ATOM     16  C   UNL     1      56.647  26.005  51.156  1.00  0.00     0.000 C 
BRANCH  16  17
ATOM     17  C   UNL     1      55.127  25.863  50.929  1.00  0.00     0.000 C 
BRANCH  17  18
ATOM     18  C   UNL     1      54.678  25.946  49.459  1.00  0.00    -0.000 C 
BRANCH  18  19
ATOM     19  C   UNL     1      53.429  26.815  49.211  1.00  0.00    -0.000 C 
BRANCH  19  20
ATOM     20  C   UNL     1      53.039  27.701  50.414  1.00  0.00    -0.000 C 
BRANCH  20  21
ATOM     21  C   UNL     1      52.892  29.185  50.032  1.00  0.00    -0.000 C 
BRANCH  21  22
ATOM     22  C   UNL     1      53.934  30.074  50.743  1.00  0.00    -0.000 C 
BRANCH  22  23
ATOM     23  C   UNL     1      55.372  29.536  50.650  1.00  0.00    -0.000 C 
BRANCH  23  24
ATOM     24  C   UNL     1      56.023  29.338  52.029  1.00  0.00    -0.000 C 
BRANCH  24  25
ATOM     25  C   UNL     1      55.012  29.464  53.180  1.00  0.00    -0.003 C 
ATOM     26  C   UNL     1      54.780  28.142  53.911  1.00  0.00     0.004 C 
ENDBRANCH  24  25
ENDBRANCH  23  24
ENDBRANCH  22  23
ENDBRANCH  21  22
ENDBRANCH  20  21
ENDBRANCH  19  20
ENDBRANCH  18  19
ENDBRANCH  17  18
ENDBRANCH  16  17
ENDBRANCH  15  16
ENDBRANCH   1  15
TORSDOF 22
ENDMDL
MODEL 7
REMARK VINA RESULT:    -3.736      1.730      3.127
REMARK INTER + INTRA:         -10.965
REMARK INTER:                  -7.666
REMARK INTRA:                  -3.299
REMARK UNBOUND:                -2.425
REMARK SMILES CCCCCCCCCCCCCCCCCCCCCCCC(=O)[O-]
REMARK SMILES IDX 13 1 14 2 15 3 16 4 17 5 18 6 19 7 20 8 21 9 22 10 23 11
REMARK SMILES IDX 24 12 25 13 26 14 12 15 11 16 10 17 9 18 8 19 7 20 6 21 5 22
REMARK SMILES IDX 4 23 3 24 2 25 1 26
REMARK H PARENT
REMARK Flexibility Score: inf
ROOT
ATOM      1  C   UNL     1      60.685  26.374  51.389  1.00  0.00     0.000 C 
ENDROOT
BRANCH   1   2
ATOM      2  C   UNL     1      61.189  25.188  52.237  1.00  0.00     0.000 C 
BRANCH   2   3
ATOM      3  C   UNL     1      61.920  24.085  51.450  1.00  0.00     0.000 C 
BRANCH   3   4
ATOM      4  C   UNL     1      61.323  22.688  51.686  1.00  0.00     0.000 C 
BRANCH   4   5
ATOM      5  C   UNL     1      60.361  22.248  50.567  1.00  0.00     0.000 C 
BRANCH   5   6
ATOM      6  C   UNL     1      60.925  22.347  49.138  1.00  0.00     0.000 C 
BRANCH   6   7
ATOM      7  C   UNL     1      61.173  20.976  48.492  1.00  0.00     0.000 C 
BRANCH   7   8
ATOM      8  C   UNL     1      59.890  20.132  48.486  1.00  0.00     0.000 C 
BRANCH   8   9
ATOM      9  C   UNL     1      60.106  18.706  49.023  1.00  0.00     0.000 C 
BRANCH   9  10
ATOM     10  C   UNL     1      59.887  18.541  50.542  1.00  0.00     0.006 C 
BRANCH  10  11
ATOM     11  C   UNL     1      58.527  17.940  50.928  1.00  0.00     0.053 C 
BRANCH  11  12
ATOM     12  C   UNL     1      57.465  18.989  51.055  1.00  0.00     0.041 C 
ATOM     13  O   UNL     1      56.468  18.978  50.286  1.00  0.00    -0.550 OA
ATOM     14  O   UNL     1      57.591  19.998  52.003  1.00  0.00    -0.550 OA
ENDBRANCH  11  12
ENDBRANCH  10  11
ENDBRANCH   9  10
ENDBRANCH   8   9
ENDBRANCH   7   8
ENDBRANCH   6   7
ENDBRANCH   5   6
ENDBRANCH   4   5
ENDBRANCH   3   4
ENDBRANCH   2   3
ENDBRANCH   1   2
BRANCH   1  15
ATOM     15  C   UNL     1      60.053  25.992  50.037  1.00  0.00     0.000 C 
BRANCH  15  16
ATOM     16  C   UNL     1      58.896  26.904  49.579  1.00  0.00     0.000 C 
BRANCH  16  17
ATOM     17  C   UNL     1      59.321  28.314  49.119  1.00  0.00     0.000 C 
BRANCH  17  18
ATOM     18  C   UNL     1      58.686  29.475  49.907  1.00  0.00    -0.000 C 
BRANCH  18  19
ATOM     19  C   UNL     1      58.199  29.108  51.322  1.00  0.00    -0.000 C 
BRANCH  19  20
ATOM     20  C   UNL     1      56.700  29.396  51.558  1.00  0.00    -0.000 C 
BRANCH  20  21
ATOM     21  C   UNL     1      55.817  28.925  50.389  1.00  0.00    -0.000 C 
BRANCH  21  22
ATOM     22  C   UNL     1      55.294  27.488  50.597  1.00  0.00    -0.000 C 
BRANCH  22  23
ATOM     23  C   UNL     1      55.300  27.035  52.068  1.00  0.00    -0.000 C 
BRANCH  23  24
ATOM     24  C   UNL     1      55.711  25.564  52.235  1.00  0.00    -0.000 C 
BRANCH  24  25
ATOM     25  C   UNL     1      57.220  25.398  52.476  1.00  0.00    -0.003 C 
ATOM     26  C   UNL     1      57.731  26.251  53.638  1.00  0.00     0.004 C 
ENDBRANCH  24  25
ENDBRANCH  23  24
ENDBRANCH  22  23
ENDBRANCH  21  22
ENDBRANCH  20  21
ENDBRANCH  19  20
ENDBRANCH  18  19
ENDBRANCH  17  18
ENDBRANCH  16  17
ENDBRANCH  15  16
ENDBRANCH   1  15
TORSDOF 22
ENDMDL
MODEL 8
REMARK VINA RESULT:    -3.724      2.177      8.656
REMARK INTER + INTRA:         -10.938
REMARK INTER:                  -8.370
REMARK INTRA:                  -2.568
REMARK UNBOUND:                -2.425
REMARK SMILES CCCCCCCCCCCCCCCCCCCCCCCC(=O)[O-]
REMARK SMILES IDX 13 1 14 2 15 3 16 4 17 5 18 6 19 7 20 8 21 9 22 10 23 11
REMARK SMILES IDX 24 12 25 13 26 14 12 15 11 16 10 17 9 18 8 19 7 20 6 21 5 22
REMARK SMILES IDX 4 23 3 24 2 25 1 26
REMARK H PARENT
REMARK Flexibility Score: inf
ROOT
ATOM      1  C   UNL     1      58.591  24.414  51.892  1.00  0.00     0.000 C 
ENDROOT
BRANCH   1   2
ATOM      2  C   UNL     1      59.074  25.843  51.571  1.00  0.00     0.000 C 
BRANCH   2   3
ATOM      3  C   UNL     1      59.502  26.077  50.110  1.00  0.00     0.000 C 
BRANCH   3   4
ATOM      4  C   UNL     1      60.464  27.266  49.953  1.00  0.00     0.000 C 
BRANCH   4   5
ATOM      5  C   UNL     1      59.898  28.383  49.057  1.00  0.00     0.000 C 
BRANCH   5   6
ATOM      6  C   UNL     1      58.582  29.014  49.545  1.00  0.00     0.000 C 
BRANCH   6   7
ATOM      7  C   UNL     1      58.638  29.467  51.012  1.00  0.00     0.000 C 
BRANCH   7   8
ATOM      8  C   UNL     1      57.234  29.493  51.632  1.00  0.00     0.000 C 
BRANCH   8   9
ATOM      9  C   UNL     1      56.112  29.453  50.579  1.00  0.00     0.000 C 
BRANCH   9  10
ATOM     10  C   UNL     1      54.789  28.819  51.060  1.00  0.00     0.006 C 
BRANCH  10  11
ATOM     11  C   UNL     1      54.366  27.561  50.286  1.00  0.00     0.053 C 
BRANCH  11  12
ATOM     12  C   UNL     1      55.300  26.415  50.525  1.00  0.00     0.041 C 
ATOM     13  O   UNL     1      56.045  26.000  49.598  1.00  0.00    -0.550 OA
ATOM     14  O   UNL     1      55.324  25.781  51.761  1.00  0.00    -0.550 OA
ENDBRANCH  11  12
ENDBRANCH  10  11
ENDBRANCH   9  10
ENDBRANCH   8   9
ENDBRANCH   7   8
ENDBRANCH   6   7
ENDBRANCH   5   6
ENDBRANCH   4   5
ENDBRANCH   3   4
ENDBRANCH   2   3
ENDBRANCH   1   2
BRANCH   1  15
ATOM     15  C   UNL     1      59.631  23.510  52.583  1.00  0.00     0.000 C 
BRANCH  15  16
ATOM     16  C   UNL     1      60.110  22.310  51.742  1.00  0.00     0.000 C 
BRANCH  16  17
ATOM     17  C   UNL     1      61.224  22.631  50.723  1.00  0.00     0.000 C 
BRANCH  17  18
ATOM     18  C   UNL     1      60.777  22.634  49.250  1.00  0.00    -0.000 C 
BRANCH  18  19
ATOM     19  C   UNL     1      61.133  21.358  48.462  1.00  0.00    -0.000 C 
BRANCH  19  20
ATOM     20  C   UNL     1      60.067  20.245  48.565  1.00  0.00    -0.000 C 
BRANCH  20  21
ATOM     21  C   UNL     1      60.581  19.001  49.311  1.00  0.00    -0.000 C 
BRANCH  21  22
ATOM     22  C   UNL     1      59.800  18.742  50.616  1.00  0.00    -0.000 C 
BRANCH  22  23
ATOM     23  C   UNL     1      59.179  17.336  50.696  1.00  0.00    -0.000 C 
BRANCH  23  24
ATOM     24  C   UNL     1      57.645  17.368  50.784  1.00  0.00    -0.000 C 
BRANCH  24  25
ATOM     25  C   UNL     1      57.062  18.734  50.388  1.00  0.00    -0.003 C 
ATOM     26  C   UNL     1      55.558  18.833  50.648  1.00  0.00     0.004 C 
ENDBRANCH  24  25
ENDBRANCH  23  24
ENDBRANCH  22  23
ENDBRANCH  21  22
ENDBRANCH  20  21
ENDBRANCH  19  20
ENDBRANCH  18  19
ENDBRANCH  17  18
ENDBRANCH  16  17
ENDBRANCH  15  16
ENDBRANCH   1  15
TORSDOF 22
ENDMDL
MODEL 9
REMARK VINA RESULT:    -3.694      5.571      9.227
REMARK INTER + INTRA:         -10.870
REMARK INTER:                  -7.063
REMARK INTRA:                  -3.808
REMARK UNBOUND:                -2.425
REMARK SMILES CCCCCCCCCCCCCCCCCCCCCCCC(=O)[O-]
REMARK SMILES IDX 13 1 14 2 15 3 16 4 17 5 18 6 19 7 20 8 21 9 22 10 23 11
REMARK SMILES IDX 24 12 25 13 26 14 12 15 11 16 10 17 9 18 8 19 7 20 6 21 5 22
REMARK SMILES IDX 4 23 3 24 2 25 1 26
REMARK H PARENT
REMARK Flexibility Score: inf
ROOT
ATOM      1  C   UNL     1      54.404  30.006  50.738  1.00  0.00     0.000 C 
ENDROOT
BRANCH   1   2
ATOM      2  C   UNL     1      54.500  30.340  52.241  1.00  0.00     0.000 C 
BRANCH   2   3
ATOM      3  C   UNL     1      55.931  30.429  52.802  1.00  0.00     0.000 C 
BRANCH   3   4
ATOM      4  C   UNL     1      56.836  29.285  52.314  1.00  0.00     0.000 C 
BRANCH   4   5
ATOM      5  C   UNL     1      58.020  29.778  51.462  1.00  0.00     0.000 C 
BRANCH   5   6
ATOM      6  C   UNL     1      57.844  29.626  49.941  1.00  0.00     0.000 C 
BRANCH   6   7
ATOM      7  C   UNL     1      59.175  29.441  49.195  1.00  0.00     0.000 C 
BRANCH   7   8
ATOM      8  C   UNL     1      60.307  29.094  50.173  1.00  0.00     0.000 C 
BRANCH   8   9
ATOM      9  C   UNL     1      61.361  28.154  49.561  1.00  0.00     0.000 C 
BRANCH   9  10
ATOM     10  C   UNL     1      62.818  28.451  49.974  1.00  0.00     0.006 C 
BRANCH  10  11
ATOM     11  C   UNL     1      63.861  28.163  48.884  1.00  0.00     0.053 C 
BRANCH  11  12
ATOM     12  C   UNL     1      64.253  29.402  48.140  1.00  0.00     0.041 C 
ATOM     13  O   UNL     1      64.722  29.320  46.974  1.00  0.00    -0.550 OA
ATOM     14  O   UNL     1      64.132  30.647  48.745  1.00  0.00    -0.550 OA
ENDBRANCH  11  12
ENDBRANCH  10  11
ENDBRANCH   9  10
ENDBRANCH   8   9
ENDBRANCH   7   8
ENDBRANCH   6   7
ENDBRANCH   5   6
ENDBRANCH   4   5
ENDBRANCH   3   4
ENDBRANCH   2   3
ENDBRANCH   1   2
BRANCH   1  15
ATOM     15  C   UNL     1      53.110  29.289  50.308  1.00  0.00     0.000 C 
BRANCH  15  16
ATOM     16  C   UNL     1      53.317  27.902  49.667  1.00  0.00     0.000 C 
BRANCH  16  17
ATOM     17  C   UNL     1      54.153  26.914  50.507  1.00  0.00     0.000 C 
BRANCH  17  18
ATOM     18  C   UNL     1      55.406  26.361  49.806  1.00  0.00    -0.000 C 
BRANCH  18  19
ATOM     19  C   UNL     1      56.641  26.203  50.714  1.00  0.00    -0.000 C 
BRANCH  19  20
ATOM     20  C   UNL     1      57.959  25.979  49.940  1.00  0.00    -0.000 C 
BRANCH  20  21
ATOM     21  C   UNL     1      59.099  25.480  50.846  1.00  0.00    -0.000 C 
BRANCH  21  22
ATOM     22  C   UNL     1      59.169  26.261  52.175  1.00  0.00    -0.000 C 
BRANCH  22  23
ATOM     23  C   UNL     1      60.587  26.349  52.766  1.00  0.00    -0.000 C 
BRANCH  23  24
ATOM     24  C   UNL     1      60.808  27.626  53.593  1.00  0.00    -0.000 C 
BRANCH  24  25
ATOM     25  C   UNL     1      59.579  27.998  54.438  1.00  0.00    -0.003 C 
ATOM     26  C   UNL     1      59.438  27.135  55.692  1.00  0.00     0.004 C 
ENDBRANCH  24  25
ENDBRANCH  23  24
ENDBRANCH  22  23
ENDBRANCH  21  22
ENDBRANCH  20  21
ENDBRANCH  19  20
ENDBRANCH  18  19
ENDBRANCH  17  18
ENDBRANCH  16  17
ENDBRANCH  15  16
ENDBRANCH   1  15
TORSDOF 22
ENDMDL
