MODEL 1
REMARK VINA RESULT:    -6.534      0.000      0.000
REMARK INTER + INTRA:          -7.148
REMARK INTER:                  -7.107
REMARK INTRA:                  -0.041
REMARK UNBOUND:                -0.041
REMARK SMILES C[C@H]1[C@@H](C)CC[C@@]2(C(=O)[O-])CC[C@@]3(C)C(=CC[C@H]4[C@@]5(C)CC[C@@H](O)C(C)(C)[C@H]5CC[C@@]43C)[C@@H]12
REMARK SMILES IDX 7 1 6 2 11 3 33 4 5 5 12 6 15 7 2 8 3 9 13 10 16 11 1 12
REMARK SMILES IDX 4 13 14 14 31 15 17 16 18 17 30 18 32 19 19 20 29 21 28 22
REMARK SMILES IDX 21 23 20 24 25 25 22 26 23 27 26 28 27 29 8 30 9 31 10 32
REMARK SMILES IDX 24 33
REMARK H PARENT 24 34
REMARK Flexibility Score: inf
ROOT
ATOM      1  C   UNL     1      -1.423 -15.732  18.593  1.00  0.00     0.017 C 
ATOM      2  C   UNL     1      -2.418 -16.911  18.833  1.00  0.00     0.014 C 
ATOM      3  C   UNL     1      -1.345 -15.435  17.058  1.00  0.00     0.014 C 
ATOM      4  C   UNL     1      -1.897 -14.484  19.443  1.00  0.00     0.030 C 
ATOM      5  C   UNL     1      -2.564 -17.302  20.315  1.00  0.00     0.004 C 
ATOM      6  C   UNL     1      -1.629 -13.977  16.678  1.00  0.00     0.013 C 
ATOM      7  C   UNL     1      -3.037 -13.677  18.759  1.00  0.00    -0.063 C 
ATOM      8  C   UNL     1      -2.041 -14.911  20.956  1.00  0.00    -0.003 C 
ATOM      9  C   UNL     1      -2.997 -16.114  21.195  1.00  0.00    -0.011 C 
ATOM     10  C   UNL     1      -2.978 -13.425  17.242  1.00  0.00    -0.006 C 
ATOM     11  C   UNL     1      -3.938 -12.970  19.486  1.00  0.00    -0.027 C 
ATOM     12  C   UNL     1      -2.154 -13.769  21.993  1.00  0.00     0.008 C 
ATOM     13  C   UNL     1      -4.496 -15.818  21.017  1.00  0.00     0.008 C 
ATOM     14  C   UNL     1      -4.135 -14.260  16.597  1.00  0.00     0.017 C 
ATOM     15  C   UNL     1      -3.123 -11.844  16.946  1.00  0.00    -0.020 C 
ATOM     16  C   UNL     1      -4.525 -11.643  19.070  1.00  0.00     0.032 C 
ATOM     17  C   UNL     1      -4.466 -11.327  17.554  1.00  0.00     0.006 C 
ATOM     18  C   UNL     1      -3.191 -11.554  15.424  1.00  0.00     0.008 C 
ATOM     19  C   UNL     1      -1.910 -11.083  17.579  1.00  0.00     0.012 C 
ATOM     20  C   UNL     1      -4.996  -9.856  17.147  1.00  0.00    -0.025 C 
ATOM     21  C   UNL     1      -3.222 -10.065  15.131  1.00  0.00     0.005 C 
ATOM     22  C   UNL     1      -4.450  -9.320  15.731  1.00  0.00     0.003 C 
ATOM     23  C   UNL     1      -4.726  -8.798  18.263  1.00  0.00     0.010 C 
ATOM     24  C   UNL     1      -6.558 -10.003  17.061  1.00  0.00     0.012 C 
ATOM     25  C   UNL     1      -4.267  -7.736  15.603  1.00  0.00    -0.006 C 
ATOM     26  C   UNL     1      -5.233  -7.372  17.962  1.00  0.00     0.033 C 
ATOM     27  C   UNL     1      -5.327  -7.001  16.468  1.00  0.00     0.120 C 
ATOM     28  C   UNL     1      -4.494  -7.317  14.124  1.00  0.00     0.014 C 
ATOM     29  C   UNL     1      -2.846  -7.237  16.005  1.00  0.00     0.014 C 
ENDROOT
BRANCH   1  30
ATOM     30  C   UNL     1      -0.017 -16.165  19.013  1.00  0.00     0.048 C 
ATOM     31  O   UNL     1       0.754 -15.360  19.602  1.00  0.00    -0.550 OA
ATOM     32  O   UNL     1       0.484 -17.406  18.632  1.00  0.00    -0.550 OA
ENDBRANCH   1  30
BRANCH  27  33
ATOM     33  O   UNL     1      -5.204  -5.606  16.331  1.00  0.00    -0.393 OA
ATOM     34  H   UNL     1      -5.441  -5.383  15.392  1.00  0.00     0.210 HD
ENDBRANCH  27  33
TORSDOF 2
ENDMDL
MODEL 2
REMARK VINA RESULT:    -5.746      9.522     12.308
REMARK INTER + INTRA:          -6.291
REMARK INTER:                  -6.736
REMARK INTRA:                   0.446
REMARK UNBOUND:                -0.041
REMARK SMILES C[C@H]1[C@@H](C)CC[C@@]2(C(=O)[O-])CC[C@@]3(C)C(=CC[C@H]4[C@@]5(C)CC[C@@H](O)C(C)(C)[C@H]5CC[C@@]43C)[C@@H]12
REMARK SMILES IDX 7 1 6 2 11 3 33 4 5 5 12 6 15 7 2 8 3 9 13 10 16 11 1 12
REMARK SMILES IDX 4 13 14 14 31 15 17 16 18 17 30 18 32 19 19 20 29 21 28 22
REMARK SMILES IDX 21 23 20 24 25 25 22 26 23 27 26 28 27 29 8 30 9 31 10 32
REMARK SMILES IDX 24 33
REMARK H PARENT 24 34
REMARK Flexibility Score: inf
ROOT
ATOM      1  C   UNL     1     -11.205 -12.875  19.038  1.00  0.00     0.017 C 
ATOM      2  C   UNL     1     -11.375 -11.872  20.223  1.00  0.00     0.014 C 
ATOM      3  C   UNL     1     -12.087 -14.139  19.310  1.00  0.00     0.014 C 
ATOM      4  C   UNL     1     -11.578 -12.137  17.688  1.00  0.00     0.030 C 
ATOM      5  C   UNL     1     -10.537 -10.590  20.068  1.00  0.00     0.004 C 
ATOM      6  C   UNL     1     -13.060 -14.490  18.178  1.00  0.00     0.013 C 
ATOM      7  C   UNL     1     -13.111 -12.073  17.431  1.00  0.00    -0.063 C 
ATOM      8  C   UNL     1     -10.709 -10.826  17.556  1.00  0.00    -0.003 C 
ATOM      9  C   UNL     1     -10.840  -9.845  18.755  1.00  0.00    -0.011 C 
ATOM     10  C   UNL     1     -13.980 -13.305  17.741  1.00  0.00    -0.006 C 
ATOM     11  C   UNL     1     -13.665 -11.072  16.704  1.00  0.00    -0.027 C 
ATOM     12  C   UNL     1     -10.669 -10.156  16.162  1.00  0.00     0.008 C 
ATOM     13  C   UNL     1     -12.176  -9.087  18.850  1.00  0.00     0.008 C 
ATOM     14  C   UNL     1     -14.880 -12.930  18.967  1.00  0.00     0.017 C 
ATOM     15  C   UNL     1     -14.850 -13.700  16.439  1.00  0.00    -0.020 C 
ATOM     16  C   UNL     1     -14.836 -11.237  15.765  1.00  0.00     0.032 C 
ATOM     17  C   UNL     1     -15.729 -12.479  16.017  1.00  0.00     0.006 C 
ATOM     18  C   UNL     1     -15.833 -14.861  16.742  1.00  0.00     0.008 C 
ATOM     19  C   UNL     1     -13.888 -14.107  15.274  1.00  0.00     0.012 C 
ATOM     20  C   UNL     1     -16.907 -12.697  14.933  1.00  0.00    -0.025 C 
ATOM     21  C   UNL     1     -16.580 -15.310  15.500  1.00  0.00     0.005 C 
ATOM     22  C   UNL     1     -17.463 -14.205  14.851  1.00  0.00     0.003 C 
ATOM     23  C   UNL     1     -16.505 -12.194  13.511  1.00  0.00     0.010 C 
ATOM     24  C   UNL     1     -18.070 -11.757  15.411  1.00  0.00     0.012 C 
ATOM     25  C   UNL     1     -17.999 -14.680  13.419  1.00  0.00    -0.006 C 
ATOM     26  C   UNL     1     -17.591 -12.340  12.424  1.00  0.00     0.033 C 
ATOM     27  C   UNL     1     -18.608 -13.478  12.648  1.00  0.00     0.120 C 
ATOM     28  C   UNL     1     -19.125 -15.730  13.621  1.00  0.00     0.014 C 
ATOM     29  C   UNL     1     -16.904 -15.350  12.534  1.00  0.00     0.014 C 
ENDROOT
BRANCH   1  30
ATOM     30  C   UNL     1      -9.757 -13.368  18.997  1.00  0.00     0.048 C 
ATOM     31  O   UNL     1      -8.904 -12.794  18.268  1.00  0.00    -0.550 OA
ATOM     32  O   UNL     1      -9.390 -14.538  19.655  1.00  0.00    -0.550 OA
ENDBRANCH   1  30
BRANCH  27  33
ATOM     33  O   UNL     1     -19.121 -13.889  11.404  1.00  0.00    -0.393 OA
ATOM     34  H   UNL     1     -18.485 -13.573  10.709  1.00  0.00     0.210 HD
ENDBRANCH  27  33
TORSDOF 2
ENDMDL
MODEL 3
REMARK VINA RESULT:    -5.746      1.842      7.926
REMARK INTER + INTRA:          -6.290
REMARK INTER:                  -6.396
REMARK INTRA:                   0.106
REMARK UNBOUND:                -0.041
REMARK SMILES C[C@H]1[C@@H](C)CC[C@@]2(C(=O)[O-])CC[C@@]3(C)C(=CC[C@H]4[C@@]5(C)CC[C@@H](O)C(C)(C)[C@H]5CC[C@@]43C)[C@@H]12
REMARK SMILES IDX 7 1 6 2 11 3 33 4 5 5 12 6 15 7 2 8 3 9 13 10 16 11 1 12
REMARK SMILES IDX 4 13 14 14 31 15 17 16 18 17 30 18 32 19 19 20 29 21 28 22
REMARK SMILES IDX 21 23 20 24 25 25 22 26 23 27 26 28 27 29 8 30 9 31 10 32
REMARK SMILES IDX 24 33
REMARK H PARENT 24 34
REMARK Flexibility Score: inf
ROOT
ATOM      1  C   UNL     1      -3.604  -9.576  15.115  1.00  0.00     0.017 C 
ATOM      2  C   UNL     1      -3.134  -8.206  15.697  1.00  0.00     0.014 C 
ATOM      3  C   UNL     1      -2.353 -10.485  14.877  1.00  0.00     0.014 C 
ATOM      4  C   UNL     1      -4.657 -10.218  16.108  1.00  0.00     0.030 C 
ATOM      5  C   UNL     1      -4.288  -7.220  15.959  1.00  0.00     0.004 C 
ATOM      6  C   UNL     1      -2.429 -11.860  15.551  1.00  0.00     0.013 C 
ATOM      7  C   UNL     1      -3.995 -10.943  17.315  1.00  0.00    -0.063 C 
ATOM      8  C   UNL     1      -5.826  -9.187  16.362  1.00  0.00    -0.003 C 
ATOM      9  C   UNL     1      -5.358  -7.805  16.899  1.00  0.00    -0.011 C 
ATOM     10  C   UNL     1      -2.739 -11.800  17.082  1.00  0.00    -0.006 C 
ATOM     11  C   UNL     1      -4.631 -11.058  18.507  1.00  0.00    -0.027 C 
ATOM     12  C   UNL     1      -7.113  -9.743  17.016  1.00  0.00     0.008 C 
ATOM     13  C   UNL     1      -4.873  -7.789  18.359  1.00  0.00     0.008 C 
ATOM     14  C   UNL     1      -1.546 -11.058  17.776  1.00  0.00     0.017 C 
ATOM     15  C   UNL     1      -2.971 -13.282  17.681  1.00  0.00    -0.020 C 
ATOM     16  C   UNL     1      -4.544 -12.261  19.414  1.00  0.00     0.032 C 
ATOM     17  C   UNL     1      -3.310 -13.175  19.203  1.00  0.00     0.006 C 
ATOM     18  C   UNL     1      -1.687 -14.145  17.580  1.00  0.00     0.008 C 
ATOM     19  C   UNL     1      -4.143 -13.977  16.910  1.00  0.00     0.012 C 
ATOM     20  C   UNL     1      -3.297 -14.514  20.106  1.00  0.00    -0.025 C 
ATOM     21  C   UNL     1      -1.923 -15.571  18.043  1.00  0.00     0.005 C 
ATOM     22  C   UNL     1      -2.366 -15.694  19.531  1.00  0.00     0.003 C 
ATOM     23  C   UNL     1      -4.734 -15.053  20.390  1.00  0.00     0.010 C 
ATOM     24  C   UNL     1      -2.725 -14.054  21.495  1.00  0.00     0.012 C 
ATOM     25  C   UNL     1      -2.843 -17.187  19.855  1.00  0.00    -0.006 C 
ATOM     26  C   UNL     1      -4.806 -16.316  21.275  1.00  0.00     0.033 C 
ATOM     27  C   UNL     1      -3.567 -17.233  21.228  1.00  0.00     0.120 C 
ATOM     28  C   UNL     1      -1.596 -18.109  19.950  1.00  0.00     0.014 C 
ATOM     29  C   UNL     1      -3.777 -17.795  18.765  1.00  0.00     0.014 C 
ENDROOT
BRANCH   1  30
ATOM     30  C   UNL     1      -4.234  -9.351  13.738  1.00  0.00     0.048 C 
ATOM     31  O   UNL     1      -4.700 -10.319  13.080  1.00  0.00    -0.550 OA
ATOM     32  O   UNL     1      -4.178  -8.100  13.132  1.00  0.00    -0.550 OA
ENDBRANCH   1  30
BRANCH  27  33
ATOM     33  O   UNL     1      -3.955 -18.548  21.545  1.00  0.00    -0.393 OA
ATOM     34  H   UNL     1      -3.489 -19.151  20.908  1.00  0.00     0.210 HD
ENDBRANCH  27  33
TORSDOF 2
ENDMDL
MODEL 4
REMARK VINA RESULT:    -5.532     10.372     12.627
REMARK INTER + INTRA:          -6.058
REMARK INTER:                  -5.988
REMARK INTRA:                  -0.070
REMARK UNBOUND:                -0.041
REMARK SMILES C[C@H]1[C@@H](C)CC[C@@]2(C(=O)[O-])CC[C@@]3(C)C(=CC[C@H]4[C@@]5(C)CC[C@@H](O)C(C)(C)[C@H]5CC[C@@]43C)[C@@H]12
REMARK SMILES IDX 7 1 6 2 11 3 33 4 5 5 12 6 15 7 2 8 3 9 13 10 16 11 1 12
REMARK SMILES IDX 4 13 14 14 31 15 17 16 18 17 30 18 32 19 19 20 29 21 28 22
REMARK SMILES IDX 21 23 20 24 25 25 22 26 23 27 26 28 27 29 8 30 9 31 10 32
REMARK SMILES IDX 24 33
REMARK H PARENT 24 34
REMARK Flexibility Score: inf
ROOT
ATOM      1  C   UNL     1     -13.310 -12.333  22.484  1.00  0.00     0.017 C 
ATOM      2  C   UNL     1     -12.209 -13.392  22.807  1.00  0.00     0.014 C 
ATOM      3  C   UNL     1     -12.703 -11.236  21.547  1.00  0.00     0.014 C 
ATOM      4  C   UNL     1     -14.557 -13.071  21.847  1.00  0.00     0.030 C 
ATOM      5  C   UNL     1     -12.693 -14.518  23.738  1.00  0.00     0.004 C 
ATOM      6  C   UNL     1     -13.486 -11.003  20.250  1.00  0.00     0.013 C 
ATOM      7  C   UNL     1     -14.381 -13.370  20.331  1.00  0.00    -0.063 C 
ATOM      8  C   UNL     1     -15.030 -14.222  22.819  1.00  0.00    -0.003 C 
ATOM      9  C   UNL     1     -13.925 -15.254  23.179  1.00  0.00    -0.011 C 
ATOM     10  C   UNL     1     -13.743 -12.303  19.422  1.00  0.00    -0.006 C 
ATOM     11  C   UNL     1     -15.002 -14.419  19.739  1.00  0.00    -0.027 C 
ATOM     12  C   UNL     1     -16.429 -14.827  22.551  1.00  0.00     0.008 C 
ATOM     13  C   UNL     1     -13.522 -16.218  22.049  1.00  0.00     0.008 C 
ATOM     14  C   UNL     1     -12.349 -12.861  18.976  1.00  0.00     0.017 C 
ATOM     15  C   UNL     1     -14.715 -12.005  18.167  1.00  0.00    -0.020 C 
ATOM     16  C   UNL     1     -15.561 -14.408  18.337  1.00  0.00     0.032 C 
ATOM     17  C   UNL     1     -14.972 -13.335  17.386  1.00  0.00     0.006 C 
ATOM     18  C   UNL     1     -14.058 -11.027  17.158  1.00  0.00     0.008 C 
ATOM     19  C   UNL     1     -16.066 -11.408  18.685  1.00  0.00     0.012 C 
ATOM     20  C   UNL     1     -15.663 -13.268  15.928  1.00  0.00    -0.025 C 
ATOM     21  C   UNL     1     -15.002 -10.658  16.029  1.00  0.00     0.005 C 
ATOM     22  C   UNL     1     -15.466 -11.865  15.163  1.00  0.00     0.003 C 
ATOM     23  C   UNL     1     -17.176 -13.648  15.971  1.00  0.00     0.010 C 
ATOM     24  C   UNL     1     -14.957 -14.398  15.098  1.00  0.00     0.012 C 
ATOM     25  C   UNL     1     -16.649 -11.431  14.177  1.00  0.00    -0.006 C 
ATOM     26  C   UNL     1     -17.903 -13.638  14.609  1.00  0.00     0.033 C 
ATOM     27  C   UNL     1     -17.313 -12.686  13.548  1.00  0.00     0.120 C 
ATOM     28  C   UNL     1     -16.058 -10.581  13.019  1.00  0.00     0.014 C 
ATOM     29  C   UNL     1     -17.747 -10.563  14.863  1.00  0.00     0.014 C 
ENDROOT
BRANCH   1  30
ATOM     30  C   UNL     1     -13.713 -11.615  23.774  1.00  0.00     0.048 C 
ATOM     31  O   UNL     1     -14.882 -11.167  23.921  1.00  0.00    -0.550 OA
ATOM     32  O   UNL     1     -12.762 -11.322  24.746  1.00  0.00    -0.550 OA
ENDBRANCH   1  30
BRANCH  27  33
ATOM     33  O   UNL     1     -18.328 -12.316  12.646  1.00  0.00    -0.393 OA
ATOM     34  H   UNL     1     -18.901 -11.650  13.110  1.00  0.00     0.210 HD
ENDBRANCH  27  33
TORSDOF 2
ENDMDL
MODEL 5
REMARK VINA RESULT:    -5.519      9.366     13.550
REMARK INTER + INTRA:          -6.044
REMARK INTER:                  -6.174
REMARK INTRA:                   0.130
REMARK UNBOUND:                -0.041
REMARK SMILES C[C@H]1[C@@H](C)CC[C@@]2(C(=O)[O-])CC[C@@]3(C)C(=CC[C@H]4[C@@]5(C)CC[C@@H](O)C(C)(C)[C@H]5CC[C@@]43C)[C@@H]12
REMARK SMILES IDX 7 1 6 2 11 3 33 4 5 5 12 6 15 7 2 8 3 9 13 10 16 11 1 12
REMARK SMILES IDX 4 13 14 14 31 15 17 16 18 17 30 18 32 19 19 20 29 21 28 22
REMARK SMILES IDX 21 23 20 24 25 25 22 26 23 27 26 28 27 29 8 30 9 31 10 32
REMARK SMILES IDX 24 33
REMARK H PARENT 24 34
REMARK Flexibility Score: inf
ROOT
ATOM      1  C   UNL     1     -16.367 -11.218  15.018  1.00  0.00     0.017 C 
ATOM      2  C   UNL     1     -17.810 -11.212  15.614  1.00  0.00     0.014 C 
ATOM      3  C   UNL     1     -15.397 -10.514  16.026  1.00  0.00     0.014 C 
ATOM      4  C   UNL     1     -15.952 -12.711  14.699  1.00  0.00     0.030 C 
ATOM      5  C   UNL     1     -18.856 -11.870  14.696  1.00  0.00     0.004 C 
ATOM      6  C   UNL     1     -14.177 -11.352  16.424  1.00  0.00     0.013 C 
ATOM      7  C   UNL     1     -15.452 -13.487  15.951  1.00  0.00    -0.063 C 
ATOM      8  C   UNL     1     -17.042 -13.363  13.761  1.00  0.00    -0.003 C 
ATOM      9  C   UNL     1     -18.488 -13.320  14.330  1.00  0.00    -0.011 C 
ATOM     10  C   UNL     1     -14.533 -12.776  16.961  1.00  0.00    -0.006 C 
ATOM     11  C   UNL     1     -15.580 -14.833  16.048  1.00  0.00    -0.027 C 
ATOM     12  C   UNL     1     -16.653 -14.685  13.058  1.00  0.00     0.008 C 
ATOM     13  C   UNL     1     -18.768 -14.271  15.507  1.00  0.00     0.008 C 
ATOM     14  C   UNL     1     -15.363 -12.590  18.277  1.00  0.00     0.017 C 
ATOM     15  C   UNL     1     -13.199 -13.654  17.196  1.00  0.00    -0.020 C 
ATOM     16  C   UNL     1     -14.569 -15.749  16.693  1.00  0.00     0.032 C 
ATOM     17  C   UNL     1     -13.601 -15.078  17.701  1.00  0.00     0.006 C 
ATOM     18  C   UNL     1     -12.299 -13.038  18.300  1.00  0.00     0.008 C 
ATOM     19  C   UNL     1     -12.400 -13.757  15.854  1.00  0.00     0.012 C 
ATOM     20  C   UNL     1     -12.457 -16.053  18.292  1.00  0.00    -0.025 C 
ATOM     21  C   UNL     1     -10.993 -13.797  18.455  1.00  0.00     0.005 C 
ATOM     22  C   UNL     1     -11.165 -15.287  18.872  1.00  0.00     0.003 C 
ATOM     23  C   UNL     1     -12.019 -17.145  17.267  1.00  0.00     0.010 C 
ATOM     24  C   UNL     1     -13.156 -16.821  19.470  1.00  0.00     0.012 C 
ATOM     25  C   UNL     1      -9.774 -16.069  18.757  1.00  0.00    -0.006 C 
ATOM     26  C   UNL     1     -10.948 -18.137  17.770  1.00  0.00     0.033 C 
ATOM     27  C   UNL     1     -10.007 -17.600  18.868  1.00  0.00     0.120 C 
ATOM     28  C   UNL     1      -8.855 -15.646  19.935  1.00  0.00     0.014 C 
ATOM     29  C   UNL     1      -8.995 -15.766  17.440  1.00  0.00     0.014 C 
ENDROOT
BRANCH   1  30
ATOM     30  C   UNL     1     -16.343 -10.370  13.744  1.00  0.00     0.048 C 
ATOM     31  O   UNL     1     -15.972 -10.870  12.648  1.00  0.00    -0.550 OA
ATOM     32  O   UNL     1     -16.598  -9.003  13.800  1.00  0.00    -0.550 OA
ENDBRANCH   1  30
BRANCH  27  33
ATOM     33  O   UNL     1      -8.786 -18.297  18.810  1.00  0.00    -0.393 OA
ATOM     34  H   UNL     1      -8.446 -18.365  19.741  1.00  0.00     0.210 HD
ENDBRANCH  27  33
TORSDOF 2
ENDMDL
MODEL 6
REMARK VINA RESULT:    -5.443     10.540     14.211
REMARK INTER + INTRA:          -5.960
REMARK INTER:                  -6.544
REMARK INTRA:                   0.583
REMARK UNBOUND:                -0.041
REMARK SMILES C[C@H]1[C@@H](C)CC[C@@]2(C(=O)[O-])CC[C@@]3(C)C(=CC[C@H]4[C@@]5(C)CC[C@@H](O)C(C)(C)[C@H]5CC[C@@]43C)[C@@H]12
REMARK SMILES IDX 7 1 6 2 11 3 33 4 5 5 12 6 15 7 2 8 3 9 13 10 16 11 1 12
REMARK SMILES IDX 4 13 14 14 31 15 17 16 18 17 30 18 32 19 19 20 29 21 28 22
REMARK SMILES IDX 21 23 20 24 25 25 22 26 23 27 26 28 27 29 8 30 9 31 10 32
REMARK SMILES IDX 24 33
REMARK H PARENT 24 34
REMARK Flexibility Score: inf
ROOT
ATOM      1  C   UNL     1     -17.173 -12.110  12.766  1.00  0.00     0.017 C 
ATOM      2  C   UNL     1     -18.712 -12.371  12.781  1.00  0.00     0.014 C 
ATOM      3  C   UNL     1     -16.876 -10.771  13.521  1.00  0.00     0.014 C 
ATOM      4  C   UNL     1     -16.437 -13.358  13.404  1.00  0.00     0.030 C 
ATOM      5  C   UNL     1     -19.124 -13.662  12.051  1.00  0.00     0.004 C 
ATOM      6  C   UNL     1     -15.851 -10.895  14.654  1.00  0.00     0.013 C 
ATOM      7  C   UNL     1     -16.438 -13.338  14.959  1.00  0.00    -0.063 C 
ATOM      8  C   UNL     1     -16.879 -14.667  12.640  1.00  0.00    -0.003 C 
ATOM      9  C   UNL     1     -18.415 -14.908  12.614  1.00  0.00    -0.011 C 
ATOM     10  C   UNL     1     -16.188 -12.010  15.696  1.00  0.00    -0.006 C 
ATOM     11  C   UNL     1     -16.390 -14.484  15.682  1.00  0.00    -0.027 C 
ATOM     12  C   UNL     1     -16.021 -15.932  12.876  1.00  0.00     0.008 C 
ATOM     13  C   UNL     1     -19.043 -15.339  13.951  1.00  0.00     0.008 C 
ATOM     14  C   UNL     1     -17.536 -11.614  16.390  1.00  0.00     0.017 C 
ATOM     15  C   UNL     1     -14.983 -12.192  16.756  1.00  0.00    -0.020 C 
ATOM     16  C   UNL     1     -15.647 -14.647  16.986  1.00  0.00     0.032 C 
ATOM     17  C   UNL     1     -15.346 -13.336  17.757  1.00  0.00     0.006 C 
ATOM     18  C   UNL     1     -14.777 -10.914  17.609  1.00  0.00     0.008 C 
ATOM     19  C   UNL     1     -13.664 -12.539  15.988  1.00  0.00     0.012 C 
ATOM     20  C   UNL     1     -14.454 -13.524  19.090  1.00  0.00    -0.025 C 
ATOM     21  C   UNL     1     -13.580 -11.037  18.535  1.00  0.00     0.005 C 
ATOM     22  C   UNL     1     -13.691 -12.192  19.573  1.00  0.00     0.003 C 
ATOM     23  C   UNL     1     -13.443 -14.707  18.966  1.00  0.00     0.010 C 
ATOM     24  C   UNL     1     -15.480 -13.947  20.202  1.00  0.00     0.012 C 
ATOM     25  C   UNL     1     -12.294 -12.414  20.321  1.00  0.00    -0.006 C 
ATOM     26  C   UNL     1     -12.574 -14.971  20.214  1.00  0.00     0.033 C 
ATOM     27  C   UNL     1     -12.316 -13.747  21.116  1.00  0.00     0.120 C 
ATOM     28  C   UNL     1     -12.075 -11.262  21.340  1.00  0.00     0.014 C 
ATOM     29  C   UNL     1     -11.065 -12.413  19.362  1.00  0.00     0.014 C 
ENDROOT
BRANCH   1  30
ATOM     30  C   UNL     1     -16.712 -11.895  11.323  1.00  0.00     0.048 C 
ATOM     31  O   UNL     1     -15.904 -10.971  11.038  1.00  0.00    -0.550 OA
ATOM     32  O   UNL     1     -17.280 -12.625  10.283  1.00  0.00    -0.550 OA
ENDBRANCH   1  30
BRANCH  27  33
ATOM     33  O   UNL     1     -11.108 -13.934  21.813  1.00  0.00    -0.393 OA
ATOM     34  H   UNL     1     -11.286 -14.599  22.530  1.00  0.00     0.210 HD
ENDBRANCH  27  33
TORSDOF 2
ENDMDL
MODEL 7
REMARK VINA RESULT:    -5.382      2.956      4.067
REMARK INTER + INTRA:          -5.895
REMARK INTER:                  -5.824
REMARK INTRA:                  -0.071
REMARK UNBOUND:                -0.041
REMARK SMILES C[C@H]1[C@@H](C)CC[C@@]2(C(=O)[O-])CC[C@@]3(C)C(=CC[C@H]4[C@@]5(C)CC[C@@H](O)C(C)(C)[C@H]5CC[C@@]43C)[C@@H]12
REMARK SMILES IDX 7 1 6 2 11 3 33 4 5 5 12 6 15 7 2 8 3 9 13 10 16 11 1 12
REMARK SMILES IDX 4 13 14 14 31 15 17 16 18 17 30 18 32 19 19 20 29 21 28 22
REMARK SMILES IDX 21 23 20 24 25 25 22 26 23 27 26 28 27 29 8 30 9 31 10 32
REMARK SMILES IDX 24 33
REMARK H PARENT 24 34
REMARK Flexibility Score: inf
ROOT
ATOM      1  C   UNL     1      -2.046 -15.172  17.831  1.00  0.00     0.017 C 
ATOM      2  C   UNL     1      -3.419 -15.468  18.514  1.00  0.00     0.014 C 
ATOM      3  C   UNL     1      -2.029 -15.834  16.413  1.00  0.00     0.014 C 
ATOM      4  C   UNL     1      -1.825 -13.605  17.787  1.00  0.00     0.030 C 
ATOM      5  C   UNL     1      -3.543 -14.873  19.928  1.00  0.00     0.004 C 
ATOM      6  C   UNL     1      -1.693 -14.872  15.267  1.00  0.00     0.013 C 
ATOM      7  C   UNL     1      -2.574 -12.916  16.610  1.00  0.00    -0.063 C 
ATOM      8  C   UNL     1      -1.962 -13.020  19.247  1.00  0.00    -0.003 C 
ATOM      9  C   UNL     1      -3.309 -13.351  19.948  1.00  0.00    -0.011 C 
ATOM     10  C   UNL     1      -2.591 -13.593  15.228  1.00  0.00    -0.006 C 
ATOM     11  C   UNL     1      -2.984 -11.626  16.690  1.00  0.00    -0.027 C 
ATOM     12  C   UNL     1      -1.442 -11.580  19.471  1.00  0.00     0.008 C 
ATOM     13  C   UNL     1      -4.540 -12.600  19.410  1.00  0.00     0.008 C 
ATOM     14  C   UNL     1      -4.064 -14.059  14.967  1.00  0.00     0.017 C 
ATOM     15  C   UNL     1      -2.068 -12.556  14.106  1.00  0.00    -0.020 C 
ATOM     16  C   UNL     1      -2.980 -10.650  15.539  1.00  0.00     0.032 C 
ATOM     17  C   UNL     1      -2.970 -11.280  14.123  1.00  0.00     0.006 C 
ATOM     18  C   UNL     1      -2.183 -13.154  12.680  1.00  0.00     0.008 C 
ATOM     19  C   UNL     1      -0.579 -12.174  14.404  1.00  0.00     0.012 C 
ATOM     20  C   UNL     1      -2.852 -10.220  12.911  1.00  0.00    -0.025 C 
ATOM     21  C   UNL     1      -1.598 -12.229  11.628  1.00  0.00     0.005 C 
ATOM     22  C   UNL     1      -2.299 -10.843  11.533  1.00  0.00     0.003 C 
ATOM     23  C   UNL     1      -2.019  -8.960  13.303  1.00  0.00     0.010 C 
ATOM     24  C   UNL     1      -4.320  -9.712  12.679  1.00  0.00     0.012 C 
ATOM     25  C   UNL     1      -1.462  -9.850  10.598  1.00  0.00    -0.006 C 
ATOM     26  C   UNL     1      -1.887  -7.882  12.205  1.00  0.00     0.033 C 
ATOM     27  C   UNL     1      -1.986  -8.396  10.754  1.00  0.00     0.120 C 
ATOM     28  C   UNL     1      -1.658 -10.264   9.114  1.00  0.00     0.014 C 
ATOM     29  C   UNL     1       0.071  -9.872  10.880  1.00  0.00     0.014 C 
ENDROOT
BRANCH   1  30
ATOM     30  C   UNL     1      -0.929 -15.848  18.629  1.00  0.00     0.048 C 
ATOM     31  O   UNL     1       0.238 -15.372  18.630  1.00  0.00    -0.550 OA
ATOM     32  O   UNL     1      -1.148 -17.073  19.252  1.00  0.00    -0.550 OA
ENDBRANCH   1  30
BRANCH  27  33
ATOM     33  O   UNL     1      -1.286  -7.519   9.906  1.00  0.00    -0.393 OA
ATOM     34  H   UNL     1      -0.427  -7.302  10.356  1.00  0.00     0.210 HD
ENDBRANCH  27  33
TORSDOF 2
ENDMDL
MODEL 8
REMARK VINA RESULT:    -5.336     10.693     13.999
REMARK INTER + INTRA:          -5.845
REMARK INTER:                  -5.849
REMARK INTRA:                   0.004
REMARK UNBOUND:                -0.041
REMARK SMILES C[C@H]1[C@@H](C)CC[C@@]2(C(=O)[O-])CC[C@@]3(C)C(=CC[C@H]4[C@@]5(C)CC[C@@H](O)C(C)(C)[C@H]5CC[C@@]43C)[C@@H]12
REMARK SMILES IDX 7 1 6 2 11 3 33 4 5 5 12 6 15 7 2 8 3 9 13 10 16 11 1 12
REMARK SMILES IDX 4 13 14 14 31 15 17 16 18 17 30 18 32 19 19 20 29 21 28 22
REMARK SMILES IDX 21 23 20 24 25 25 22 26 23 27 26 28 27 29 8 30 9 31 10 32
REMARK SMILES IDX 24 33
REMARK H PARENT 24 34
REMARK Flexibility Score: inf
ROOT
ATOM      1  C   UNL     1     -17.059 -14.987  14.161  1.00  0.00     0.017 C 
ATOM      2  C   UNL     1     -16.523 -14.370  12.831  1.00  0.00     0.014 C 
ATOM      3  C   UNL     1     -16.062 -16.091  14.649  1.00  0.00     0.014 C 
ATOM      4  C   UNL     1     -17.264 -13.826  15.217  1.00  0.00     0.030 C 
ATOM      5  C   UNL     1     -17.437 -13.277  12.248  1.00  0.00     0.004 C 
ATOM      6  C   UNL     1     -15.562 -15.904  16.086  1.00  0.00     0.013 C 
ATOM      7  C   UNL     1     -15.945 -13.407  15.927  1.00  0.00    -0.063 C 
ATOM      8  C   UNL     1     -18.200 -12.718  14.593  1.00  0.00    -0.003 C 
ATOM      9  C   UNL     1     -17.693 -12.132  13.246  1.00  0.00    -0.011 C 
ATOM     10  C   UNL     1     -14.948 -14.495  16.366  1.00  0.00    -0.006 C 
ATOM     11  C   UNL     1     -15.766 -12.151  16.405  1.00  0.00    -0.027 C 
ATOM     12  C   UNL     1     -18.799 -11.682  15.574  1.00  0.00     0.008 C 
ATOM     13  C   UNL     1     -16.469 -11.205  13.342  1.00  0.00     0.008 C 
ATOM     14  C   UNL     1     -13.681 -14.343  15.457  1.00  0.00     0.017 C 
ATOM     15  C   UNL     1     -14.603 -14.317  17.934  1.00  0.00    -0.020 C 
ATOM     16  C   UNL     1     -15.022 -11.812  17.674  1.00  0.00     0.032 C 
ATOM     17  C   UNL     1     -14.023 -12.886  18.175  1.00  0.00     0.006 C 
ATOM     18  C   UNL     1     -13.507 -15.315  18.392  1.00  0.00     0.008 C 
ATOM     19  C   UNL     1     -15.903 -14.528  18.780  1.00  0.00     0.012 C 
ATOM     20  C   UNL     1     -13.324 -12.551  19.592  1.00  0.00    -0.025 C 
ATOM     21  C   UNL     1     -13.251 -15.228  19.886  1.00  0.00     0.005 C 
ATOM     22  C   UNL     1     -12.745 -13.837  20.368  1.00  0.00     0.003 C 
ATOM     23  C   UNL     1     -14.258 -11.730  20.536  1.00  0.00     0.010 C 
ATOM     24  C   UNL     1     -12.128 -11.599  19.233  1.00  0.00     0.012 C 
ATOM     25  C   UNL     1     -12.754 -13.757  21.966  1.00  0.00    -0.006 C 
ATOM     26  C   UNL     1     -13.649 -11.343  21.900  1.00  0.00     0.033 C 
ATOM     27  C   UNL     1     -12.552 -12.289  22.431  1.00  0.00     0.120 C 
ATOM     28  C   UNL     1     -11.570 -14.594  22.523  1.00  0.00     0.014 C 
ATOM     29  C   UNL     1     -14.055 -14.322  22.612  1.00  0.00     0.014 C 
ENDROOT
BRANCH   1  30
ATOM     30  C   UNL     1     -18.384 -15.703  13.888  1.00  0.00     0.048 C 
ATOM     31  O   UNL     1     -19.104 -16.107  14.840  1.00  0.00    -0.550 OA
ATOM     32  O   UNL     1     -18.750 -16.042  12.588  1.00  0.00    -0.550 OA
ENDBRANCH   1  30
BRANCH  27  33
ATOM     33  O   UNL     1     -12.516 -12.210  23.836  1.00  0.00    -0.393 OA
ATOM     34  H   UNL     1     -11.563 -12.106  24.097  1.00  0.00     0.210 HD
ENDBRANCH  27  33
TORSDOF 2
ENDMDL
MODEL 9
REMARK VINA RESULT:    -5.278      2.213      3.754
REMARK INTER + INTRA:          -5.782
REMARK INTER:                  -5.957
REMARK INTRA:                   0.175
REMARK UNBOUND:                -0.041
REMARK SMILES C[C@H]1[C@@H](C)CC[C@@]2(C(=O)[O-])CC[C@@]3(C)C(=CC[C@H]4[C@@]5(C)CC[C@@H](O)C(C)(C)[C@H]5CC[C@@]43C)[C@@H]12
REMARK SMILES IDX 7 1 6 2 11 3 33 4 5 5 12 6 15 7 2 8 3 9 13 10 16 11 1 12
REMARK SMILES IDX 4 13 14 14 31 15 17 16 18 17 30 18 32 19 19 20 29 21 28 22
REMARK SMILES IDX 21 23 20 24 25 25 22 26 23 27 26 28 27 29 8 30 9 31 10 32
REMARK SMILES IDX 24 33
REMARK H PARENT 24 34
REMARK Flexibility Score: inf
ROOT
ATOM      1  C   UNL     1      -3.907 -15.699  20.258  1.00  0.00     0.017 C 
ATOM      2  C   UNL     1      -2.817 -16.802  20.074  1.00  0.00     0.014 C 
ATOM      3  C   UNL     1      -3.251 -14.440  20.916  1.00  0.00     0.014 C 
ATOM      4  C   UNL     1      -4.565 -15.392  18.851  1.00  0.00     0.030 C 
ATOM      5  C   UNL     1      -3.356 -18.100  19.444  1.00  0.00     0.004 C 
ATOM      6  C   UNL     1      -3.463 -13.135  20.141  1.00  0.00     0.013 C 
ATOM      7  C   UNL     1      -3.715 -14.425  17.978  1.00  0.00    -0.063 C 
ATOM      8  C   UNL     1      -5.105 -16.738  18.226  1.00  0.00    -0.003 C 
ATOM      9  C   UNL     1      -4.033 -17.855  18.083  1.00  0.00    -0.011 C 
ATOM     10  C   UNL     1      -3.037 -13.212  18.639  1.00  0.00    -0.006 C 
ATOM     11  C   UNL     1      -3.767 -14.464  16.624  1.00  0.00    -0.027 C 
ATOM     12  C   UNL     1      -6.080 -16.608  17.032  1.00  0.00     0.008 C 
ATOM     13  C   UNL     1      -2.983 -17.631  16.981  1.00  0.00     0.008 C 
ATOM     14  C   UNL     1      -1.493 -13.478  18.601  1.00  0.00     0.017 C 
ATOM     15  C   UNL     1      -3.447 -11.863  17.852  1.00  0.00    -0.020 C 
ATOM     16  C   UNL     1      -3.685 -13.254  15.725  1.00  0.00     0.032 C 
ATOM     17  C   UNL     1      -3.033 -11.995  16.351  1.00  0.00     0.006 C 
ATOM     18  C   UNL     1      -2.689 -10.628  18.407  1.00  0.00     0.008 C 
ATOM     19  C   UNL     1      -4.991 -11.639  17.974  1.00  0.00     0.012 C 
ATOM     20  C   UNL     1      -3.058 -10.681  15.412  1.00  0.00    -0.025 C 
ATOM     21  C   UNL     1      -3.144  -9.340  17.746  1.00  0.00     0.005 C 
ATOM     22  C   UNL     1      -2.906  -9.291  16.208  1.00  0.00     0.003 C 
ATOM     23  C   UNL     1      -4.315 -10.637  14.487  1.00  0.00     0.010 C 
ATOM     24  C   UNL     1      -1.824 -10.850  14.455  1.00  0.00     0.012 C 
ATOM     25  C   UNL     1      -3.646  -8.027  15.563  1.00  0.00    -0.006 C 
ATOM     26  C   UNL     1      -4.396  -9.425  13.535  1.00  0.00     0.033 C 
ATOM     27  C   UNL     1      -3.670  -8.151  14.016  1.00  0.00     0.120 C 
ATOM     28  C   UNL     1      -2.853  -6.739  15.919  1.00  0.00     0.014 C 
ATOM     29  C   UNL     1      -5.102  -7.824  16.081  1.00  0.00     0.014 C 
ENDROOT
BRANCH   1  30
ATOM     30  C   UNL     1      -4.964 -16.194  21.248  1.00  0.00     0.048 C 
ATOM     31  O   UNL     1      -5.888 -15.429  21.636  1.00  0.00    -0.550 OA
ATOM     32  O   UNL     1      -4.846 -17.447  21.841  1.00  0.00    -0.550 OA
ENDBRANCH   1  30
BRANCH  27  33
ATOM     33  O   UNL     1      -4.281  -7.025  13.433  1.00  0.00    -0.393 OA
ATOM     34  H   UNL     1      -4.639  -6.472  14.176  1.00  0.00     0.210 HD
ENDBRANCH  27  33
TORSDOF 2
ENDMDL
