MODEL 1
REMARK VINA RESULT:    -3.621      0.000      0.000
REMARK INTER + INTRA:          -4.179
REMARK INTER:                  -3.938
REMARK INTRA:                  -0.241
REMARK UNBOUND:                -0.241
REMARK SMILES O=C([O-])c1ccccc1O
REMARK SMILES IDX 4 1 9 2 5 3 8 4 6 5 7 6 2 7 1 8 3 9 10 10
REMARK H PARENT 10 11
REMARK Flexibility Score: inf
ROOT
ATOM      1  C   UNL     1      87.336  27.754  27.466  1.00  0.00     0.039 A 
ATOM      2  C   UNL     1      87.883  28.041  28.741  1.00  0.00     0.124 A 
ATOM      3  C   UNL     1      87.804  28.475  26.350  1.00  0.00     0.014 A 
ATOM      4  C   UNL     1      88.871  29.028  28.872  1.00  0.00     0.047 A 
ATOM      5  C   UNL     1      88.789  29.455  26.495  1.00  0.00     0.001 A 
ATOM      6  C   UNL     1      89.321  29.731  27.754  1.00  0.00     0.004 A 
ENDROOT
BRANCH   1   7
ATOM      7  C   UNL     1      86.289  26.719  27.273  1.00  0.00     0.075 C 
ATOM      8  O   UNL     1      85.377  26.869  26.417  1.00  0.00    -0.545 OA
ATOM      9  O   UNL     1      86.299  25.561  28.041  1.00  0.00    -0.545 OA
ENDBRANCH   1   7
BRANCH   2  10
ATOM     10  O   UNL     1      87.450  27.351  29.873  1.00  0.00    -0.507 OA
ATOM     11  H   UNL     1      86.466  27.269  30.104  1.00  0.00     0.293 HD
ENDBRANCH   2  10
TORSDOF 2
ENDMDL
MODEL 2
REMARK VINA RESULT:    -3.477      1.842      2.049
REMARK INTER + INTRA:          -4.023
REMARK INTER:                  -3.788
REMARK INTRA:                  -0.234
REMARK UNBOUND:                -0.241
REMARK SMILES O=C([O-])c1ccccc1O
REMARK SMILES IDX 4 1 9 2 5 3 8 4 6 5 7 6 2 7 1 8 3 9 10 10
REMARK H PARENT 10 11
REMARK Flexibility Score: inf
ROOT
ATOM      1  C   UNL     1      86.379  28.698  28.568  1.00  0.00     0.039 A 
ATOM      2  C   UNL     1      87.597  28.195  29.087  1.00  0.00     0.124 A 
ATOM      3  C   UNL     1      86.402  29.893  27.822  1.00  0.00     0.014 A 
ATOM      4  C   UNL     1      88.796  28.885  28.852  1.00  0.00     0.047 A 
ATOM      5  C   UNL     1      87.603  30.570  27.596  1.00  0.00     0.001 A 
ATOM      6  C   UNL     1      88.797  30.066  28.110  1.00  0.00     0.004 A 
ENDROOT
BRANCH   1   7
ATOM      7  C   UNL     1      85.084  28.006  28.788  1.00  0.00     0.075 C 
ATOM      8  O   UNL     1      85.022  26.749  28.850  1.00  0.00    -0.545 OA
ATOM      9  O   UNL     1      83.912  28.739  28.930  1.00  0.00    -0.545 OA
ENDBRANCH   1   7
BRANCH   2  10
ATOM     10  O   UNL     1      87.622  27.015  29.831  1.00  0.00    -0.507 OA
ATOM     11  H   UNL     1      87.878  26.127  29.414  1.00  0.00     0.293 HD
ENDBRANCH   2  10
TORSDOF 2
ENDMDL
MODEL 3
REMARK VINA RESULT:    -3.471      1.749      3.502
REMARK INTER + INTRA:          -4.017
REMARK INTER:                  -3.798
REMARK INTRA:                  -0.219
REMARK UNBOUND:                -0.241
REMARK SMILES O=C([O-])c1ccccc1O
REMARK SMILES IDX 4 1 9 2 5 3 8 4 6 5 7 6 2 7 1 8 3 9 10 10
REMARK H PARENT 10 11
REMARK Flexibility Score: inf
ROOT
ATOM      1  C   UNL     1      87.560  28.160  27.746  1.00  0.00     0.039 A 
ATOM      2  C   UNL     1      87.044  27.095  28.525  1.00  0.00     0.124 A 
ATOM      3  C   UNL     1      87.198  28.243  26.388  1.00  0.00     0.014 A 
ATOM      4  C   UNL     1      86.190  26.150  27.939  1.00  0.00     0.047 A 
ATOM      5  C   UNL     1      86.346  27.295  25.817  1.00  0.00     0.001 A 
ATOM      6  C   UNL     1      85.843  26.250  26.591  1.00  0.00     0.004 A 
ENDROOT
BRANCH   1   7
ATOM      7  C   UNL     1      88.467  29.186  28.319  1.00  0.00     0.075 C 
ATOM      8  O   UNL     1      89.610  28.875  28.750  1.00  0.00    -0.545 OA
ATOM      9  O   UNL     1      88.067  30.515  28.391  1.00  0.00    -0.545 OA
ENDBRANCH   1   7
BRANCH   2  10
ATOM     10  O   UNL     1      87.375  26.973  29.875  1.00  0.00    -0.507 OA
ATOM     11  H   UNL     1      87.582  26.074  30.294  1.00  0.00     0.293 HD
ENDBRANCH   2  10
TORSDOF 2
ENDMDL
MODEL 4
REMARK VINA RESULT:    -3.374      2.948      3.394
REMARK INTER + INTRA:          -3.911
REMARK INTER:                  -3.685
REMARK INTRA:                  -0.226
REMARK UNBOUND:                -0.241
REMARK SMILES O=C([O-])c1ccccc1O
REMARK SMILES IDX 4 1 9 2 5 3 8 4 6 5 7 6 2 7 1 8 3 9 10 10
REMARK H PARENT 10 11
REMARK Flexibility Score: inf
ROOT
ATOM      1  C   UNL     1      87.534  30.472  27.385  1.00  0.00     0.039 A 
ATOM      2  C   UNL     1      87.572  30.046  28.735  1.00  0.00     0.124 A 
ATOM      3  C   UNL     1      88.526  30.007  26.499  1.00  0.00     0.014 A 
ATOM      4  C   UNL     1      88.585  29.176  29.166  1.00  0.00     0.047 A 
ATOM      5  C   UNL     1      89.528  29.141  26.941  1.00  0.00     0.001 A 
ATOM      6  C   UNL     1      89.558  28.726  28.272  1.00  0.00     0.004 A 
ENDROOT
BRANCH   1   7
ATOM      7  C   UNL     1      86.484  31.392  26.879  1.00  0.00     0.075 C 
ATOM      8  O   UNL     1      86.712  32.173  25.918  1.00  0.00    -0.545 OA
ATOM      9  O   UNL     1      85.223  31.405  27.464  1.00  0.00    -0.545 OA
ENDBRANCH   1   7
BRANCH   2  10
ATOM     10  O   UNL     1      86.610  30.481  29.647  1.00  0.00    -0.507 OA
ATOM     11  H   UNL     1      85.967  31.232  29.426  1.00  0.00     0.293 HD
ENDBRANCH   2  10
TORSDOF 2
ENDMDL
MODEL 5
REMARK VINA RESULT:    -3.292      2.810      3.622
REMARK INTER + INTRA:          -3.822
REMARK INTER:                  -3.575
REMARK INTRA:                  -0.247
REMARK UNBOUND:                -0.241
REMARK SMILES O=C([O-])c1ccccc1O
REMARK SMILES IDX 4 1 9 2 5 3 8 4 6 5 7 6 2 7 1 8 3 9 10 10
REMARK H PARENT 10 11
REMARK Flexibility Score: inf
ROOT
ATOM      1  C   UNL     1      86.878  30.240  29.057  1.00  0.00     0.039 A 
ATOM      2  C   UNL     1      86.742  28.832  28.985  1.00  0.00     0.124 A 
ATOM      3  C   UNL     1      88.132  30.815  28.768  1.00  0.00     0.014 A 
ATOM      4  C   UNL     1      87.844  28.039  28.631  1.00  0.00     0.047 A 
ATOM      5  C   UNL     1      89.220  30.014  28.416  1.00  0.00     0.001 A 
ATOM      6  C   UNL     1      89.077  28.629  28.348  1.00  0.00     0.004 A 
ENDROOT
BRANCH   1   7
ATOM      7  C   UNL     1      85.743  31.123  29.426  1.00  0.00     0.075 C 
ATOM      8  O   UNL     1      84.649  31.068  28.804  1.00  0.00    -0.545 OA
ATOM      9  O   UNL     1      85.872  32.029  30.472  1.00  0.00    -0.545 OA
ENDBRANCH   1   7
BRANCH   2  10
ATOM     10  O   UNL     1      85.519  28.219  29.262  1.00  0.00    -0.507 OA
ATOM     11  H   UNL     1      84.914  28.550  30.005  1.00  0.00     0.293 HD
ENDBRANCH   2  10
TORSDOF 2
ENDMDL
MODEL 6
REMARK VINA RESULT:    -3.272      1.709      1.760
REMARK INTER + INTRA:          -3.800
REMARK INTER:                  -3.555
REMARK INTRA:                  -0.245
REMARK UNBOUND:                -0.241
REMARK SMILES O=C([O-])c1ccccc1O
REMARK SMILES IDX 4 1 9 2 5 3 8 4 6 5 7 6 2 7 1 8 3 9 10 10
REMARK H PARENT 10 11
REMARK Flexibility Score: inf
ROOT
ATOM      1  C   UNL     1      87.013  28.552  28.293  1.00  0.00     0.039 A 
ATOM      2  C   UNL     1      87.434  29.727  28.962  1.00  0.00     0.124 A 
ATOM      3  C   UNL     1      87.805  28.050  27.242  1.00  0.00     0.014 A 
ATOM      4  C   UNL     1      88.620  30.367  28.572  1.00  0.00     0.047 A 
ATOM      5  C   UNL     1      88.983  28.697  26.864  1.00  0.00     0.001 A 
ATOM      6  C   UNL     1      89.390  29.853  27.528  1.00  0.00     0.004 A 
ENDROOT
BRANCH   1   7
ATOM      7  C   UNL     1      85.767  27.837  28.668  1.00  0.00     0.075 C 
ATOM      8  O   UNL     1      84.658  28.434  28.689  1.00  0.00    -0.545 OA
ATOM      9  O   UNL     1      85.806  26.489  29.003  1.00  0.00    -0.545 OA
ENDBRANCH   1   7
BRANCH   2  10
ATOM     10  O   UNL     1      86.682  30.260  30.010  1.00  0.00    -0.507 OA
ATOM     11  H   UNL     1      85.808  29.840  30.305  1.00  0.00     0.293 HD
ENDBRANCH   2  10
TORSDOF 2
ENDMDL
MODEL 7
REMARK VINA RESULT:    -3.259      1.728      2.530
REMARK INTER + INTRA:          -3.786
REMARK INTER:                  -3.537
REMARK INTRA:                  -0.249
REMARK UNBOUND:                -0.241
REMARK SMILES O=C([O-])c1ccccc1O
REMARK SMILES IDX 4 1 9 2 5 3 8 4 6 5 7 6 2 7 1 8 3 9 10 10
REMARK H PARENT 10 11
REMARK Flexibility Score: inf
ROOT
ATOM      1  C   UNL     1      86.177  26.190  27.077  1.00  0.00     0.039 A 
ATOM      2  C   UNL     1      86.374  25.988  28.465  1.00  0.00     0.124 A 
ATOM      3  C   UNL     1      86.645  27.383  26.493  1.00  0.00     0.014 A 
ATOM      4  C   UNL     1      87.025  26.968  29.229  1.00  0.00     0.047 A 
ATOM      5  C   UNL     1      87.291  28.350  27.265  1.00  0.00     0.001 A 
ATOM      6  C   UNL     1      87.481  28.143  28.631  1.00  0.00     0.004 A 
ENDROOT
BRANCH   1   7
ATOM      7  C   UNL     1      85.494  25.184  26.225  1.00  0.00     0.075 C 
ATOM      8  O   UNL     1      85.862  23.978  26.222  1.00  0.00    -0.545 OA
ATOM      9  O   UNL     1      84.432  25.559  25.411  1.00  0.00    -0.545 OA
ENDBRANCH   1   7
BRANCH   2  10
ATOM     10  O   UNL     1      85.928  24.820  29.086  1.00  0.00    -0.507 OA
ATOM     11  H   UNL     1      85.105  24.813  29.678  1.00  0.00     0.293 HD
ENDBRANCH   2  10
TORSDOF 2
ENDMDL
MODEL 8
REMARK VINA RESULT:    -3.245      3.512      4.345
REMARK INTER + INTRA:          -3.770
REMARK INTER:                  -3.518
REMARK INTRA:                  -0.252
REMARK UNBOUND:                -0.241
REMARK SMILES O=C([O-])c1ccccc1O
REMARK SMILES IDX 4 1 9 2 5 3 8 4 6 5 7 6 2 7 1 8 3 9 10 10
REMARK H PARENT 10 11
REMARK Flexibility Score: inf
ROOT
ATOM      1  C   UNL     1      89.334  29.686  26.665  1.00  0.00     0.039 A 
ATOM      2  C   UNL     1      88.199  30.527  26.760  1.00  0.00     0.124 A 
ATOM      3  C   UNL     1      89.650  28.848  27.752  1.00  0.00     0.014 A 
ATOM      4  C   UNL     1      87.414  30.514  27.923  1.00  0.00     0.047 A 
ATOM      5  C   UNL     1      88.860  28.845  28.904  1.00  0.00     0.001 A 
ATOM      6  C   UNL     1      87.744  29.676  28.989  1.00  0.00     0.004 A 
ENDROOT
BRANCH   1   7
ATOM      7  C   UNL     1      90.197  29.662  25.457  1.00  0.00     0.075 C 
ATOM      8  O   UNL     1      90.487  28.576  24.887  1.00  0.00    -0.545 OA
ATOM      9  O   UNL     1      90.701  30.846  24.932  1.00  0.00    -0.545 OA
ENDBRANCH   1   7
BRANCH   2  10
ATOM     10  O   UNL     1      87.848  31.373  25.707  1.00  0.00    -0.507 OA
ATOM     11  H   UNL     1      86.946  31.834  25.672  1.00  0.00     0.293 HD
ENDBRANCH   2  10
TORSDOF 2
ENDMDL
MODEL 9
REMARK VINA RESULT:    -3.226      1.100      2.221
REMARK INTER + INTRA:          -3.750
REMARK INTER:                  -3.509
REMARK INTRA:                  -0.241
REMARK UNBOUND:                -0.241
REMARK SMILES O=C([O-])c1ccccc1O
REMARK SMILES IDX 4 1 9 2 5 3 8 4 6 5 7 6 2 7 1 8 3 9 10 10
REMARK H PARENT 10 11
REMARK Flexibility Score: inf
ROOT
ATOM      1  C   UNL     1      87.214  27.842  27.880  1.00  0.00     0.039 A 
ATOM      2  C   UNL     1      87.638  28.010  26.539  1.00  0.00     0.124 A 
ATOM      3  C   UNL     1      88.033  28.331  28.917  1.00  0.00     0.014 A 
ATOM      4  C   UNL     1      88.854  28.655  26.266  1.00  0.00     0.047 A 
ATOM      5  C   UNL     1      89.241  28.971  28.630  1.00  0.00     0.001 A 
ATOM      6  C   UNL     1      89.650  29.132  27.307  1.00  0.00     0.004 A 
ENDROOT
BRANCH   1   7
ATOM      7  C   UNL     1      85.937  27.167  28.223  1.00  0.00     0.075 C 
ATOM      8  O   UNL     1      84.838  27.589  27.773  1.00  0.00    -0.545 OA
ATOM      9  O   UNL     1      85.933  26.052  29.052  1.00  0.00    -0.545 OA
ENDBRANCH   1   7
BRANCH   2  10
ATOM     10  O   UNL     1      86.858  27.543  25.481  1.00  0.00    -0.507 OA
ATOM     11  H   UNL     1      86.568  26.573  25.421  1.00  0.00     0.293 HD
ENDBRANCH   2  10
TORSDOF 2
ENDMDL
