MODEL 1
REMARK VINA RESULT:    -6.040      0.000      0.000
REMARK INTER + INTRA:         -10.532
REMARK INTER:                  -9.218
REMARK INTRA:                  -1.314
REMARK UNBOUND:                -1.314
REMARK SMILES CC(=O)CCC=C(C)CCC=C(C)CCC=C(C)C
REMARK SMILES IDX 10 1 11 2 12 3 13 4 14 5 15 6 16 7 18 8 17 9 19 10 9 11 7 12
REMARK SMILES IDX 6 13 8 14 5 15 4 16 2 17 3 18 1 19
REMARK H PARENT
REMARK Flexibility Score: inf
ROOT
ATOM      1  C   UNL     1      11.030 -21.320  21.518  1.00  0.00     0.032 C 
ENDROOT
BRANCH   1   2
ATOM      2  C   UNL     1      11.885 -20.404  20.678  1.00  0.00    -0.028 C 
ATOM      3  C   UNL     1      12.243 -19.149  21.040  1.00  0.00    -0.077 C 
ATOM      4  C   UNL     1      11.761 -18.522  22.327  1.00  0.00     0.039 C 
BRANCH   3   5
ATOM      5  C   UNL     1      13.121 -18.328  20.118  1.00  0.00     0.034 C 
BRANCH   5   6
ATOM      6  C   UNL     1      12.424 -18.021  18.785  1.00  0.00     0.032 C 
BRANCH   6   7
ATOM      7  C   UNL     1      10.975 -17.632  18.969  1.00  0.00    -0.028 C 
ATOM      8  C   UNL     1      10.217 -19.329  17.302  1.00  0.00     0.039 C 
ATOM      9  C   UNL     1       9.963 -18.229  18.305  1.00  0.00    -0.080 C 
ATOM     10  C   UNL     1       8.550 -17.773  18.572  1.00  0.00     0.039 C 
ENDBRANCH   6   7
ENDBRANCH   5   6
ENDBRANCH   3   5
ENDBRANCH   1   2
BRANCH   1  11
ATOM     11  C   UNL     1       9.557 -21.223  21.108  1.00  0.00     0.034 C 
BRANCH  11  12
ATOM     12  C   UNL     1       8.699 -22.087  22.004  1.00  0.00    -0.077 C 
ATOM     13  C   UNL     1       9.216 -23.228  22.512  1.00  0.00    -0.028 C 
ATOM     14  C   UNL     1       7.262 -21.683  22.235  1.00  0.00     0.039 C 
BRANCH  13  15
ATOM     15  C   UNL     1       8.475 -24.173  23.431  1.00  0.00     0.035 C 
BRANCH  15  16
ATOM     16  C   UNL     1       7.997 -25.434  22.698  1.00  0.00     0.079 C 
BRANCH  16  17
ATOM     17  C   UNL     1       6.552 -25.740  22.992  1.00  0.00     0.130 C 
ATOM     18  O   UNL     1       6.204 -25.996  24.135  1.00  0.00    -0.300 OA
ATOM     19  C   UNL     1       5.537 -25.730  21.889  1.00  0.00     0.087 C 
ENDBRANCH  16  17
ENDBRANCH  15  16
ENDBRANCH  13  15
ENDBRANCH  11  12
ENDBRANCH   1  11
TORSDOF 9
ENDMDL
MODEL 2
REMARK VINA RESULT:    -5.699      1.351      2.088
REMARK INTER + INTRA:         -10.012
REMARK INTER:                  -8.628
REMARK INTRA:                  -1.384
REMARK UNBOUND:                -1.314
REMARK SMILES CC(=O)CCC=C(C)CCC=C(C)CCC=C(C)C
REMARK SMILES IDX 10 1 11 2 12 3 13 4 14 5 15 6 16 7 18 8 17 9 19 10 9 11 7 12
REMARK SMILES IDX 6 13 8 14 5 15 4 16 2 17 3 18 1 19
REMARK H PARENT
REMARK Flexibility Score: inf
ROOT
ATOM      1  C   UNL     1       9.583 -22.105  21.779  1.00  0.00     0.032 C 
ENDROOT
BRANCH   1   2
ATOM      2  C   UNL     1      10.662 -21.112  21.425  1.00  0.00    -0.028 C 
ATOM      3  C   UNL     1      10.558 -19.774  21.606  1.00  0.00    -0.077 C 
ATOM      4  C   UNL     1       9.298 -19.138  22.144  1.00  0.00     0.039 C 
BRANCH   3   5
ATOM      5  C   UNL     1      11.718 -18.877  21.226  1.00  0.00     0.034 C 
BRANCH   5   6
ATOM      6  C   UNL     1      11.343 -17.898  20.104  1.00  0.00     0.032 C 
BRANCH   6   7
ATOM      7  C   UNL     1      11.281 -18.570  18.751  1.00  0.00    -0.028 C 
ATOM      8  C   UNL     1       8.833 -18.122  18.546  1.00  0.00     0.039 C 
ATOM      9  C   UNL     1      10.144 -18.668  18.031  1.00  0.00    -0.080 C 
ATOM     10  C   UNL     1      10.194 -19.348  16.684  1.00  0.00     0.039 C 
ENDBRANCH   6   7
ENDBRANCH   5   6
ENDBRANCH   3   5
ENDBRANCH   1   2
BRANCH   1  11
ATOM     11  C   UNL     1       9.710 -22.554  23.238  1.00  0.00     0.034 C 
BRANCH  11  12
ATOM     12  C   UNL     1       8.622 -23.545  23.585  1.00  0.00    -0.077 C 
ATOM     13  C   UNL     1       8.551 -24.712  22.905  1.00  0.00    -0.028 C 
ATOM     14  C   UNL     1       7.598 -23.157  24.625  1.00  0.00     0.039 C 
BRANCH  13  15
ATOM     15  C   UNL     1       7.526 -25.793  23.160  1.00  0.00     0.035 C 
BRANCH  15  16
ATOM     16  C   UNL     1       6.353 -25.720  22.173  1.00  0.00     0.079 C 
BRANCH  16  17
ATOM     17  C   UNL     1       5.058 -25.379  22.863  1.00  0.00     0.130 C 
ATOM     18  O   UNL     1       4.207 -24.729  22.276  1.00  0.00    -0.300 OA
ATOM     19  C   UNL     1       4.807 -25.835  24.269  1.00  0.00     0.087 C 
ENDBRANCH  16  17
ENDBRANCH  15  16
ENDBRANCH  13  15
ENDBRANCH  11  12
ENDBRANCH   1  11
TORSDOF 9
ENDMDL
MODEL 3
REMARK VINA RESULT:    -5.585      1.224      2.751
REMARK INTER + INTRA:          -9.838
REMARK INTER:                  -8.614
REMARK INTRA:                  -1.224
REMARK UNBOUND:                -1.314
REMARK SMILES CC(=O)CCC=C(C)CCC=C(C)CCC=C(C)C
REMARK SMILES IDX 10 1 11 2 12 3 13 4 14 5 15 6 16 7 18 8 17 9 19 10 9 11 7 12
REMARK SMILES IDX 6 13 8 14 5 15 4 16 2 17 3 18 1 19
REMARK H PARENT
REMARK Flexibility Score: inf
ROOT
ATOM      1  C   UNL     1       9.894 -21.451  20.666  1.00  0.00     0.032 C 
ENDROOT
BRANCH   1   2
ATOM      2  C   UNL     1      10.319 -20.291  19.799  1.00  0.00    -0.028 C 
ATOM      3  C   UNL     1       9.711 -19.081  19.791  1.00  0.00    -0.077 C 
ATOM      4  C   UNL     1       8.491 -18.796  20.634  1.00  0.00     0.039 C 
BRANCH   3   5
ATOM      5  C   UNL     1      10.241 -17.986  18.888  1.00  0.00     0.034 C 
BRANCH   5   6
ATOM      6  C   UNL     1      11.678 -17.586  19.252  1.00  0.00     0.032 C 
BRANCH   6   7
ATOM      7  C   UNL     1      11.925 -17.623  20.743  1.00  0.00    -0.028 C 
ATOM      8  C   UNL     1      14.010 -18.966  20.452  1.00  0.00     0.039 C 
ATOM      9  C   UNL     1      12.989 -18.240  21.297  1.00  0.00    -0.080 C 
ATOM     10  C   UNL     1      13.149 -18.207  22.797  1.00  0.00     0.039 C 
ENDBRANCH   6   7
ENDBRANCH   5   6
ENDBRANCH   3   5
ENDBRANCH   1   2
BRANCH   1  11
ATOM     11  C   UNL     1      10.700 -21.485  21.968  1.00  0.00     0.034 C 
BRANCH  11  12
ATOM     12  C   UNL     1      10.027 -22.379  22.984  1.00  0.00    -0.077 C 
ATOM     13  C   UNL     1       9.055 -23.227  22.577  1.00  0.00    -0.028 C 
ATOM     14  C   UNL     1      10.409 -22.234  24.439  1.00  0.00     0.039 C 
BRANCH  13  15
ATOM     15  C   UNL     1       8.314 -24.183  23.484  1.00  0.00     0.035 C 
BRANCH  15  16
ATOM     16  C   UNL     1       7.900 -25.467  22.753  1.00  0.00     0.079 C 
BRANCH  16  17
ATOM     17  C   UNL     1       6.451 -25.805  22.989  1.00  0.00     0.130 C 
ATOM     18  O   UNL     1       6.018 -25.869  24.129  1.00  0.00    -0.300 OA
ATOM     19  C   UNL     1       5.535 -26.060  21.830  1.00  0.00     0.087 C 
ENDBRANCH  16  17
ENDBRANCH  15  16
ENDBRANCH  13  15
ENDBRANCH  11  12
ENDBRANCH   1  11
TORSDOF 9
ENDMDL
MODEL 4
REMARK VINA RESULT:    -5.574      3.197      7.287
REMARK INTER + INTRA:          -9.820
REMARK INTER:                  -7.612
REMARK INTRA:                  -2.208
REMARK UNBOUND:                -1.314
REMARK SMILES CC(=O)CCC=C(C)CCC=C(C)CCC=C(C)C
REMARK SMILES IDX 10 1 11 2 12 3 13 4 14 5 15 6 16 7 18 8 17 9 19 10 9 11 7 12
REMARK SMILES IDX 6 13 8 14 5 15 4 16 2 17 3 18 1 19
REMARK H PARENT
REMARK Flexibility Score: inf
ROOT
ATOM      1  C   UNL     1       7.441 -19.878  21.436  1.00  0.00     0.032 C 
ENDROOT
BRANCH   1   2
ATOM      2  C   UNL     1       8.353 -20.462  22.487  1.00  0.00    -0.028 C 
ATOM      3  C   UNL     1       9.511 -21.110  22.217  1.00  0.00    -0.077 C 
ATOM      4  C   UNL     1       9.976 -21.357  20.802  1.00  0.00     0.039 C 
BRANCH   3   5
ATOM      5  C   UNL     1      10.353 -21.640  23.361  1.00  0.00     0.034 C 
BRANCH   5   6
ATOM      6  C   UNL     1       9.581 -22.650  24.222  1.00  0.00     0.032 C 
BRANCH   6   7
ATOM      7  C   UNL     1       9.224 -23.904  23.457  1.00  0.00    -0.028 C 
ATOM      8  C   UNL     1       6.782 -23.539  23.826  1.00  0.00     0.039 C 
ATOM      9  C   UNL     1       7.953 -24.312  23.264  1.00  0.00    -0.080 C 
ATOM     10  C   UNL     1       7.706 -25.574  22.475  1.00  0.00     0.039 C 
ENDBRANCH   6   7
ENDBRANCH   5   6
ENDBRANCH   3   5
ENDBRANCH   1   2
BRANCH   1  11
ATOM     11  C   UNL     1       7.458 -18.347  21.487  1.00  0.00     0.034 C 
BRANCH  11  12
ATOM     12  C   UNL     1       8.749 -17.812  20.909  1.00  0.00    -0.077 C 
ATOM     13  C   UNL     1       9.032 -18.036  19.606  1.00  0.00    -0.028 C 
ATOM     14  C   UNL     1       9.721 -17.116  21.834  1.00  0.00     0.039 C 
BRANCH  13  15
ATOM     15  C   UNL     1      10.276 -17.546  18.901  1.00  0.00     0.035 C 
BRANCH  15  16
ATOM     16  C   UNL     1      11.302 -18.669  18.694  1.00  0.00     0.079 C 
BRANCH  16  17
ATOM     17  C   UNL     1      12.586 -18.398  19.433  1.00  0.00     0.130 C 
ATOM     18  O   UNL     1      13.488 -17.784  18.883  1.00  0.00    -0.300 OA
ATOM     19  C   UNL     1      12.764 -18.876  20.842  1.00  0.00     0.087 C 
ENDBRANCH  16  17
ENDBRANCH  15  16
ENDBRANCH  13  15
ENDBRANCH  11  12
ENDBRANCH   1  11
TORSDOF 9
ENDMDL
MODEL 5
REMARK VINA RESULT:    -5.502      1.508      2.080
REMARK INTER + INTRA:          -9.711
REMARK INTER:                  -7.467
REMARK INTRA:                  -2.244
REMARK UNBOUND:                -1.314
REMARK SMILES CC(=O)CCC=C(C)CCC=C(C)CCC=C(C)C
REMARK SMILES IDX 10 1 11 2 12 3 13 4 14 5 15 6 16 7 18 8 17 9 19 10 9 11 7 12
REMARK SMILES IDX 6 13 8 14 5 15 4 16 2 17 3 18 1 19
REMARK H PARENT
REMARK Flexibility Score: inf
ROOT
ATOM      1  C   UNL     1      11.082 -20.225  23.292  1.00  0.00     0.032 C 
ENDROOT
BRANCH   1   2
ATOM      2  C   UNL     1      11.538 -19.314  22.180  1.00  0.00    -0.028 C 
ATOM      3  C   UNL     1      11.815 -19.726  20.920  1.00  0.00    -0.077 C 
ATOM      4  C   UNL     1      11.740 -21.181  20.523  1.00  0.00     0.039 C 
BRANCH   3   5
ATOM      5  C   UNL     1      12.250 -18.712  19.882  1.00  0.00     0.034 C 
BRANCH   5   6
ATOM      6  C   UNL     1      11.276 -17.528  19.794  1.00  0.00     0.032 C 
BRANCH   6   7
ATOM      7  C   UNL     1       9.974 -17.902  19.123  1.00  0.00    -0.028 C 
ATOM      8  C   UNL     1       8.658 -17.326  21.166  1.00  0.00     0.039 C 
ATOM      9  C   UNL     1       8.776 -17.804  19.737  1.00  0.00    -0.080 C 
ATOM     10  C   UNL     1       7.534 -18.192  18.974  1.00  0.00     0.039 C 
ENDBRANCH   6   7
ENDBRANCH   5   6
ENDBRANCH   3   5
ENDBRANCH   1   2
BRANCH   1  11
ATOM     11  C   UNL     1       9.568 -20.116  23.503  1.00  0.00     0.034 C 
BRANCH  11  12
ATOM     12  C   UNL     1       8.855 -21.261  22.821  1.00  0.00    -0.077 C 
ATOM     13  C   UNL     1       9.326 -22.519  22.975  1.00  0.00    -0.028 C 
ATOM     14  C   UNL     1       7.684 -20.947  21.919  1.00  0.00     0.039 C 
BRANCH  13  15
ATOM     15  C   UNL     1       8.702 -23.752  22.363  1.00  0.00     0.035 C 
BRANCH  15  16
ATOM     16  C   UNL     1       8.138 -24.703  23.427  1.00  0.00     0.079 C 
BRANCH  16  17
ATOM     17  C   UNL     1       6.696 -24.400  23.742  1.00  0.00     0.130 C 
ATOM     18  O   UNL     1       5.979 -23.895  22.892  1.00  0.00    -0.300 OA
ATOM     19  C   UNL     1       6.135 -24.718  25.095  1.00  0.00     0.087 C 
ENDBRANCH  16  17
ENDBRANCH  15  16
ENDBRANCH  13  15
ENDBRANCH  11  12
ENDBRANCH   1  11
TORSDOF 9
ENDMDL
MODEL 6
REMARK VINA RESULT:    -5.482      1.686      2.633
REMARK INTER + INTRA:          -9.680
REMARK INTER:                  -8.307
REMARK INTRA:                  -1.373
REMARK UNBOUND:                -1.314
REMARK SMILES CC(=O)CCC=C(C)CCC=C(C)CCC=C(C)C
REMARK SMILES IDX 10 1 11 2 12 3 13 4 14 5 15 6 16 7 18 8 17 9 19 10 9 11 7 12
REMARK SMILES IDX 6 13 8 14 5 15 4 16 2 17 3 18 1 19
REMARK H PARENT
REMARK Flexibility Score: inf
ROOT
ATOM      1  C   UNL     1      10.966 -21.570  21.160  1.00  0.00     0.032 C 
ENDROOT
BRANCH   1   2
ATOM      2  C   UNL     1      10.292 -20.826  20.034  1.00  0.00    -0.028 C 
ATOM      3  C   UNL     1      10.747 -19.666  19.505  1.00  0.00    -0.077 C 
ATOM      4  C   UNL     1      11.973 -18.969  20.047  1.00  0.00     0.039 C 
BRANCH   3   5
ATOM      5  C   UNL     1       9.991 -19.019  18.362  1.00  0.00     0.034 C 
BRANCH   5   6
ATOM      6  C   UNL     1       9.160 -17.816  18.831  1.00  0.00     0.032 C 
BRANCH   6   7
ATOM      7  C   UNL     1       8.047 -18.217  19.772  1.00  0.00    -0.028 C 
ATOM      8  C   UNL     1       9.175 -17.123  21.712  1.00  0.00     0.039 C 
ATOM      9  C   UNL     1       8.041 -17.898  21.083  1.00  0.00    -0.080 C 
ATOM     10  C   UNL     1       6.873 -18.337  21.932  1.00  0.00     0.039 C 
ENDBRANCH   6   7
ENDBRANCH   5   6
ENDBRANCH   3   5
ENDBRANCH   1   2
BRANCH   1  11
ATOM     11  C   UNL     1      10.369 -21.171  22.514  1.00  0.00     0.034 C 
BRANCH  11  12
ATOM     12  C   UNL     1       9.888 -22.395  23.261  1.00  0.00    -0.077 C 
ATOM     13  C   UNL     1       9.137 -23.312  22.611  1.00  0.00    -0.028 C 
ATOM     14  C   UNL     1      10.196 -22.507  24.736  1.00  0.00     0.039 C 
BRANCH  13  15
ATOM     15  C   UNL     1       8.605 -24.583  23.233  1.00  0.00     0.035 C 
BRANCH  15  16
ATOM     16  C   UNL     1       7.774 -25.408  22.241  1.00  0.00     0.079 C 
BRANCH  16  17
ATOM     17  C   UNL     1       6.351 -25.577  22.706  1.00  0.00     0.130 C 
ATOM     18  O   UNL     1       5.433 -25.486  21.905  1.00  0.00    -0.300 OA
ATOM     19  C   UNL     1       6.055 -25.859  24.148  1.00  0.00     0.087 C 
ENDBRANCH  16  17
ENDBRANCH  15  16
ENDBRANCH  13  15
ENDBRANCH  11  12
ENDBRANCH   1  11
TORSDOF 9
ENDMDL
MODEL 7
REMARK VINA RESULT:    -5.392      2.882      7.598
REMARK INTER + INTRA:          -9.543
REMARK INTER:                  -8.132
REMARK INTRA:                  -1.411
REMARK UNBOUND:                -1.314
REMARK SMILES CC(=O)CCC=C(C)CCC=C(C)CCC=C(C)C
REMARK SMILES IDX 10 1 11 2 12 3 13 4 14 5 15 6 16 7 18 8 17 9 19 10 9 11 7 12
REMARK SMILES IDX 6 13 8 14 5 15 4 16 2 17 3 18 1 19
REMARK H PARENT
REMARK Flexibility Score: inf
ROOT
ATOM      1  C   UNL     1       9.330 -23.247  23.028  1.00  0.00     0.032 C 
ENDROOT
BRANCH   1   2
ATOM      2  C   UNL     1       8.136 -23.584  23.887  1.00  0.00    -0.028 C 
ATOM      3  C   UNL     1       7.361 -24.682  23.720  1.00  0.00    -0.077 C 
ATOM      4  C   UNL     1       7.599 -25.663  22.597  1.00  0.00     0.039 C 
BRANCH   3   5
ATOM      5  C   UNL     1       6.196 -24.922  24.659  1.00  0.00     0.034 C 
BRANCH   5   6
ATOM      6  C   UNL     1       4.868 -24.436  24.062  1.00  0.00     0.032 C 
BRANCH   6   7
ATOM      7  C   UNL     1       4.567 -22.999  24.421  1.00  0.00    -0.028 C 
ATOM      8  C   UNL     1       5.145 -22.211  22.124  1.00  0.00     0.039 C 
ATOM      9  C   UNL     1       4.681 -21.981  23.543  1.00  0.00    -0.080 C 
ATOM     10  C   UNL     1       4.344 -20.584  24.002  1.00  0.00     0.039 C 
ENDBRANCH   6   7
ENDBRANCH   5   6
ENDBRANCH   3   5
ENDBRANCH   1   2
BRANCH   1  11
ATOM     11  C   UNL     1       8.926 -22.338  21.863  1.00  0.00     0.034 C 
BRANCH  11  12
ATOM     12  C   UNL     1       9.990 -21.292  21.614  1.00  0.00    -0.077 C 
ATOM     13  C   UNL     1      10.161 -20.809  20.362  1.00  0.00    -0.028 C 
ATOM     14  C   UNL     1      10.884 -20.884  22.762  1.00  0.00     0.039 C 
BRANCH  13  15
ATOM     15  C   UNL     1      11.174 -19.755  19.980  1.00  0.00     0.035 C 
BRANCH  15  16
ATOM     16  C   UNL     1      10.508 -18.421  19.612  1.00  0.00     0.079 C 
BRANCH  16  17
ATOM     17  C   UNL     1       9.651 -18.543  18.380  1.00  0.00     0.130 C 
ATOM     18  O   UNL     1       8.497 -18.143  18.398  1.00  0.00    -0.300 OA
ATOM     19  C   UNL     1      10.208 -19.151  17.128  1.00  0.00     0.087 C 
ENDBRANCH  16  17
ENDBRANCH  15  16
ENDBRANCH  13  15
ENDBRANCH  11  12
ENDBRANCH   1  11
TORSDOF 9
ENDMDL
MODEL 8
REMARK VINA RESULT:    -5.379      1.594      2.777
REMARK INTER + INTRA:          -9.523
REMARK INTER:                  -8.145
REMARK INTRA:                  -1.378
REMARK UNBOUND:                -1.314
REMARK SMILES CC(=O)CCC=C(C)CCC=C(C)CCC=C(C)C
REMARK SMILES IDX 10 1 11 2 12 3 13 4 14 5 15 6 16 7 18 8 17 9 19 10 9 11 7 12
REMARK SMILES IDX 6 13 8 14 5 15 4 16 2 17 3 18 1 19
REMARK H PARENT
REMARK Flexibility Score: inf
ROOT
ATOM      1  C   UNL     1       8.966 -22.147  22.064  1.00  0.00     0.032 C 
ENDROOT
BRANCH   1   2
ATOM      2  C   UNL     1       9.708 -20.898  22.472  1.00  0.00    -0.028 C 
ATOM      3  C   UNL     1      10.856 -20.469  21.895  1.00  0.00    -0.077 C 
ATOM      4  C   UNL     1      11.539 -21.253  20.799  1.00  0.00     0.039 C 
BRANCH   3   5
ATOM      5  C   UNL     1      11.501 -19.187  22.381  1.00  0.00     0.034 C 
BRANCH   5   6
ATOM      6  C   UNL     1      10.801 -17.943  21.816  1.00  0.00     0.032 C 
BRANCH   6   7
ATOM      7  C   UNL     1      10.828 -17.904  20.304  1.00  0.00    -0.028 C 
ATOM      8  C   UNL     1       8.335 -17.957  20.173  1.00  0.00     0.039 C 
ATOM      9  C   UNL     1       9.710 -17.900  19.549  1.00  0.00    -0.080 C 
ATOM     10  C   UNL     1       9.847 -17.848  18.047  1.00  0.00     0.039 C 
ENDBRANCH   6   7
ENDBRANCH   5   6
ENDBRANCH   3   5
ENDBRANCH   1   2
BRANCH   1  11
ATOM     11  C   UNL     1       9.391 -23.341  22.925  1.00  0.00     0.034 C 
BRANCH  11  12
ATOM     12  C   UNL     1       8.181 -24.142  23.353  1.00  0.00    -0.077 C 
ATOM     13  C   UNL     1       7.445 -23.715  24.404  1.00  0.00    -0.028 C 
ATOM     14  C   UNL     1       7.886 -25.440  22.639  1.00  0.00     0.039 C 
BRANCH  13  15
ATOM     15  C   UNL     1       6.208 -24.410  24.924  1.00  0.00     0.035 C 
BRANCH  15  16
ATOM     16  C   UNL     1       4.921 -23.681  24.515  1.00  0.00     0.079 C 
BRANCH  16  17
ATOM     17  C   UNL     1       4.151 -24.444  23.469  1.00  0.00     0.130 C 
ATOM     18  O   UNL     1       3.336 -25.289  23.807  1.00  0.00    -0.300 OA
ATOM     19  C   UNL     1       4.379 -24.171  22.013  1.00  0.00     0.087 C 
ENDBRANCH  16  17
ENDBRANCH  15  16
ENDBRANCH  13  15
ENDBRANCH  11  12
ENDBRANCH   1  11
TORSDOF 9
ENDMDL
MODEL 9
REMARK VINA RESULT:    -5.338      1.705      2.793
REMARK INTER + INTRA:          -9.461
REMARK INTER:                  -7.994
REMARK INTRA:                  -1.467
REMARK UNBOUND:                -1.314
REMARK SMILES CC(=O)CCC=C(C)CCC=C(C)CCC=C(C)C
REMARK SMILES IDX 10 1 11 2 12 3 13 4 14 5 15 6 16 7 18 8 17 9 19 10 9 11 7 12
REMARK SMILES IDX 6 13 8 14 5 15 4 16 2 17 3 18 1 19
REMARK H PARENT
REMARK Flexibility Score: inf
ROOT
ATOM      1  C   UNL     1      10.198 -20.649  22.447  1.00  0.00     0.032 C 
ENDROOT
BRANCH   1   2
ATOM      2  C   UNL     1       9.108 -20.024  21.611  1.00  0.00    -0.028 C 
ATOM      3  C   UNL     1       8.685 -18.745  21.743  1.00  0.00    -0.077 C 
ATOM      4  C   UNL     1       9.245 -17.823  22.801  1.00  0.00     0.039 C 
BRANCH   3   5
ATOM      5  C   UNL     1       7.592 -18.223  20.832  1.00  0.00     0.034 C 
BRANCH   5   6
ATOM      6  C   UNL     1       8.158 -17.377  19.683  1.00  0.00     0.032 C 
BRANCH   6   7
ATOM      7  C   UNL     1       8.564 -18.219  18.494  1.00  0.00    -0.028 C 
ATOM      8  C   UNL     1      10.990 -17.818  18.929  1.00  0.00     0.039 C 
ATOM      9  C   UNL     1       9.850 -18.432  18.149  1.00  0.00    -0.080 C 
ATOM     10  C   UNL     1      10.147 -19.299  16.950  1.00  0.00     0.039 C 
ENDBRANCH   6   7
ENDBRANCH   5   6
ENDBRANCH   3   5
ENDBRANCH   1   2
BRANCH   1  11
ATOM     11  C   UNL     1      10.345 -22.141  22.127  1.00  0.00     0.034 C 
BRANCH  11  12
ATOM     12  C   UNL     1       9.480 -22.968  23.052  1.00  0.00    -0.077 C 
ATOM     13  C   UNL     1       8.773 -24.003  22.545  1.00  0.00    -0.028 C 
ATOM     14  C   UNL     1       9.373 -22.555  24.502  1.00  0.00     0.039 C 
BRANCH  13  15
ATOM     15  C   UNL     1       7.885 -24.916  23.358  1.00  0.00     0.035 C 
BRANCH  15  16
ATOM     16  C   UNL     1       6.403 -24.762  22.987  1.00  0.00     0.079 C 
BRANCH  16  17
ATOM     17  C   UNL     1       5.566 -24.361  24.173  1.00  0.00     0.130 C 
ATOM     18  O   UNL     1       4.372 -24.146  24.031  1.00  0.00    -0.300 OA
ATOM     19  C   UNL     1       6.190 -24.228  25.529  1.00  0.00     0.087 C 
ENDBRANCH  16  17
ENDBRANCH  15  16
ENDBRANCH  13  15
ENDBRANCH  11  12
ENDBRANCH   1  11
TORSDOF 9
ENDMDL
