MODEL 1
REMARK VINA RESULT:    -3.381      0.000      0.000
REMARK INTER + INTRA:          -5.060
REMARK INTER:                  -4.567
REMARK INTRA:                  -0.493
REMARK UNBOUND:                -0.493
REMARK SMILES [NH3+]CCCC[C@@H]([NH3+])C(=O)[O-]
REMARK SMILES IDX 4 1 3 2 2 3 1 4 5 8 6 9 7 10 8 14 9 15 10 16
REMARK H PARENT 1 5 1 6 1 7 7 11 7 12 7 13
REMARK Flexibility Score: inf
ROOT
ATOM      1  C   UNL     1      32.249  19.982 -22.827  1.00  0.00     0.012 C 
ENDROOT
BRANCH   1   2
ATOM      2  C   UNL     1      30.791  19.822 -22.358  1.00  0.00     0.061 C 
BRANCH   2   3
ATOM      3  C   UNL     1      30.624  19.155 -20.980  1.00  0.00     0.258 C 
BRANCH   3   4
ATOM      4  N   UNL     1      31.627  19.612 -20.015  1.00  0.00    -0.358 N 
ATOM      5  H   UNL     1      32.250  20.311 -20.480  1.00  0.00     0.344 HD
ATOM      6  H   UNL     1      32.209  18.809 -19.683  1.00  0.00     0.344 HD
ATOM      7  H   UNL     1      31.161  20.078 -19.204  1.00  0.00     0.344 HD
ENDBRANCH   3   4
ENDBRANCH   2   3
ENDBRANCH   1   2
BRANCH   1   8
ATOM      8  C   UNL     1      32.597  21.429 -23.219  1.00  0.00     0.072 C 
BRANCH   8   9
ATOM      9  C   UNL     1      33.596  22.075 -22.235  1.00  0.00     0.227 C 
BRANCH   9  10
ATOM     10  N   UNL     1      34.622  22.829 -22.967  1.00  0.00    -0.350 N 
ATOM     11  H   UNL     1      35.314  22.167 -23.389  1.00  0.00     0.345 HD
ATOM     12  H   UNL     1      35.134  23.461 -22.311  1.00  0.00     0.345 HD
ATOM     13  H   UNL     1      34.187  23.401 -23.728  1.00  0.00     0.345 HD
ENDBRANCH   9  10
BRANCH   9  14
ATOM     14  C   UNL     1      32.889  22.985 -21.263  1.00  0.00     0.099 C 
ATOM     15  O   UNL     1      32.403  22.518 -20.200  1.00  0.00    -0.544 OA
ATOM     16  O   UNL     1      32.766  24.342 -21.534  1.00  0.00    -0.544 OA
ENDBRANCH   9  14
ENDBRANCH   8   9
ENDBRANCH   1   8
TORSDOF 7
ENDMDL
MODEL 2
REMARK VINA RESULT:    -3.260      2.934      5.232
REMARK INTER + INTRA:          -4.897
REMARK INTER:                  -4.822
REMARK INTRA:                  -0.075
REMARK UNBOUND:                -0.493
REMARK SMILES [NH3+]CCCC[C@@H]([NH3+])C(=O)[O-]
REMARK SMILES IDX 4 1 3 2 2 3 1 4 5 8 6 9 7 10 8 14 9 15 10 16
REMARK H PARENT 1 5 1 6 1 7 7 11 7 12 7 13
REMARK Flexibility Score: inf
ROOT
ATOM      1  C   UNL     1      33.589  24.772 -21.326  1.00  0.00     0.012 C 
ENDROOT
BRANCH   1   2
ATOM      2  C   UNL     1      34.228  25.551 -20.162  1.00  0.00     0.061 C 
BRANCH   2   3
ATOM      3  C   UNL     1      35.135  26.721 -20.588  1.00  0.00     0.258 C 
BRANCH   3   4
ATOM      4  N   UNL     1      34.730  27.990 -19.979  1.00  0.00    -0.358 N 
ATOM      5  H   UNL     1      33.712  28.143 -20.160  1.00  0.00     0.344 HD
ATOM      6  H   UNL     1      35.269  28.784 -20.395  1.00  0.00     0.344 HD
ATOM      7  H   UNL     1      34.878  27.958 -18.945  1.00  0.00     0.344 HD
ENDBRANCH   3   4
ENDBRANCH   2   3
ENDBRANCH   1   2
BRANCH   1   8
ATOM      8  C   UNL     1      32.963  23.438 -20.881  1.00  0.00     0.072 C 
BRANCH   8   9
ATOM      9  C   UNL     1      32.932  22.399 -22.022  1.00  0.00     0.227 C 
BRANCH   9  10
ATOM     10  N   UNL     1      34.293  22.109 -22.489  1.00  0.00    -0.350 N 
ATOM     11  H   UNL     1      34.924  22.911 -22.261  1.00  0.00     0.345 HD
ATOM     12  H   UNL     1      34.293  21.979 -23.527  1.00  0.00     0.345 HD
ATOM     13  H   UNL     1      34.662  21.242 -22.034  1.00  0.00     0.345 HD
ENDBRANCH   9  10
BRANCH   9  14
ATOM     14  C   UNL     1      32.261  21.125 -21.577  1.00  0.00     0.099 C 
ATOM     15  O   UNL     1      31.728  20.362 -22.426  1.00  0.00    -0.544 OA
ATOM     16  O   UNL     1      32.223  20.784 -20.231  1.00  0.00    -0.544 OA
ENDBRANCH   9  14
ENDBRANCH   8   9
ENDBRANCH   1   8
TORSDOF 7
ENDMDL
MODEL 3
REMARK VINA RESULT:    -3.228      2.348      3.938
REMARK INTER + INTRA:          -4.854
REMARK INTER:                  -4.361
REMARK INTRA:                  -0.493
REMARK UNBOUND:                -0.493
REMARK SMILES [NH3+]CCCC[C@@H]([NH3+])C(=O)[O-]
REMARK SMILES IDX 4 1 3 2 2 3 1 4 5 8 6 9 7 10 8 14 9 15 10 16
REMARK H PARENT 1 5 1 6 1 7 7 11 7 12 7 13
REMARK Flexibility Score: inf
ROOT
ATOM      1  C   UNL     1      32.072  20.745 -23.299  1.00  0.00     0.012 C 
ENDROOT
BRANCH   1   2
ATOM      2  C   UNL     1      32.966  21.998 -23.331  1.00  0.00     0.061 C 
BRANCH   2   3
ATOM      3  C   UNL     1      33.363  22.543 -21.946  1.00  0.00     0.258 C 
BRANCH   3   4
ATOM      4  N   UNL     1      32.221  22.630 -21.033  1.00  0.00    -0.358 N 
ATOM      5  H   UNL     1      31.432  22.066 -21.423  1.00  0.00     0.344 HD
ATOM      6  H   UNL     1      31.907  23.623 -20.934  1.00  0.00     0.344 HD
ATOM      7  H   UNL     1      32.474  22.237 -20.099  1.00  0.00     0.344 HD
ENDBRANCH   3   4
ENDBRANCH   2   3
ENDBRANCH   1   2
BRANCH   1   8
ATOM      8  C   UNL     1      32.821  19.485 -22.830  1.00  0.00     0.072 C 
BRANCH   8   9
ATOM      9  C   UNL     1      31.902  18.511 -22.063  1.00  0.00     0.227 C 
BRANCH   9  10
ATOM     10  N   UNL     1      32.659  17.336 -21.615  1.00  0.00    -0.350 N 
ATOM     11  H   UNL     1      32.398  16.504 -22.194  1.00  0.00     0.345 HD
ATOM     12  H   UNL     1      32.429  17.123 -20.617  1.00  0.00     0.345 HD
ATOM     13  H   UNL     1      33.688  17.504 -21.703  1.00  0.00     0.345 HD
ENDBRANCH   9  10
BRANCH   9  14
ATOM     14  C   UNL     1      31.261  19.188 -20.879  1.00  0.00     0.099 C 
ATOM     15  O   UNL     1      30.008  19.197 -20.758  1.00  0.00    -0.544 OA
ATOM     16  O   UNL     1      32.046  19.809 -19.915  1.00  0.00    -0.544 OA
ENDBRANCH   9  14
ENDBRANCH   8   9
ENDBRANCH   1   8
TORSDOF 7
ENDMDL
MODEL 4
REMARK VINA RESULT:    -3.189     10.329     11.205
REMARK INTER + INTRA:          -4.800
REMARK INTER:                  -4.578
REMARK INTRA:                  -0.222
REMARK UNBOUND:                -0.493
REMARK SMILES [NH3+]CCCC[C@@H]([NH3+])C(=O)[O-]
REMARK SMILES IDX 4 1 3 2 2 3 1 4 5 8 6 9 7 10 8 14 9 15 10 16
REMARK H PARENT 1 5 1 6 1 7 7 11 7 12 7 13
REMARK Flexibility Score: inf
ROOT
ATOM      1  C   UNL     1      24.921  13.968 -16.995  1.00  0.00     0.012 C 
ENDROOT
BRANCH   1   2
ATOM      2  C   UNL     1      23.708  14.881 -17.249  1.00  0.00     0.061 C 
BRANCH   2   3
ATOM      3  C   UNL     1      23.071  15.478 -15.980  1.00  0.00     0.258 C 
BRANCH   3   4
ATOM      4  N   UNL     1      23.107  16.943 -15.976  1.00  0.00    -0.358 N 
ATOM      5  H   UNL     1      23.995  17.261 -16.427  1.00  0.00     0.344 HD
ATOM      6  H   UNL     1      23.078  17.307 -14.996  1.00  0.00     0.344 HD
ATOM      7  H   UNL     1      22.306  17.325 -16.527  1.00  0.00     0.344 HD
ENDBRANCH   3   4
ENDBRANCH   2   3
ENDBRANCH   1   2
BRANCH   1   8
ATOM      8  C   UNL     1      25.680  14.326 -15.705  1.00  0.00     0.072 C 
BRANCH   8   9
ATOM      9  C   UNL     1      26.968  15.127 -15.989  1.00  0.00     0.227 C 
BRANCH   9  10
ATOM     10  N   UNL     1      26.678  16.565 -16.042  1.00  0.00    -0.350 N 
ATOM     11  H   UNL     1      26.948  17.015 -15.137  1.00  0.00     0.345 HD
ATOM     12  H   UNL     1      25.653  16.717 -16.188  1.00  0.00     0.345 HD
ATOM     13  H   UNL     1      27.207  17.020 -16.822  1.00  0.00     0.345 HD
ENDBRANCH   9  10
BRANCH   9  14
ATOM     14  C   UNL     1      28.018  14.856 -14.943  1.00  0.00     0.099 C 
ATOM     15  O   UNL     1      29.089  14.272 -15.258  1.00  0.00    -0.544 OA
ATOM     16  O   UNL     1      27.813  15.244 -13.625  1.00  0.00    -0.544 OA
ENDBRANCH   9  14
ENDBRANCH   8   9
ENDBRANCH   1   8
TORSDOF 7
ENDMDL
MODEL 5
REMARK VINA RESULT:    -3.112     10.670     11.267
REMARK INTER + INTRA:          -4.697
REMARK INTER:                  -4.579
REMARK INTRA:                  -0.118
REMARK UNBOUND:                -0.493
REMARK SMILES [NH3+]CCCC[C@@H]([NH3+])C(=O)[O-]
REMARK SMILES IDX 4 1 3 2 2 3 1 4 5 8 6 9 7 10 8 14 9 15 10 16
REMARK H PARENT 1 5 1 6 1 7 7 11 7 12 7 13
REMARK Flexibility Score: inf
ROOT
ATOM      1  C   UNL     1      25.094  14.206 -16.194  1.00  0.00     0.012 C 
ENDROOT
BRANCH   1   2
ATOM      2  C   UNL     1      26.305  14.033 -15.260  1.00  0.00     0.061 C 
BRANCH   2   3
ATOM      3  C   UNL     1      27.345  15.167 -15.333  1.00  0.00     0.258 C 
BRANCH   3   4
ATOM      4  N   UNL     1      27.890  15.508 -14.017  1.00  0.00    -0.358 N 
ATOM      5  H   UNL     1      28.181  16.512 -14.020  1.00  0.00     0.344 HD
ATOM      6  H   UNL     1      28.725  14.917 -13.801  1.00  0.00     0.344 HD
ATOM      7  H   UNL     1      27.160  15.382 -13.280  1.00  0.00     0.344 HD
ENDBRANCH   3   4
ENDBRANCH   2   3
ENDBRANCH   1   2
BRANCH   1   8
ATOM      8  C   UNL     1      25.015  15.612 -16.817  1.00  0.00     0.072 C 
BRANCH   8   9
ATOM      9  C   UNL     1      23.558  16.094 -16.984  1.00  0.00     0.227 C 
BRANCH   9  10
ATOM     10  N   UNL     1      23.154  16.915 -15.836  1.00  0.00    -0.350 N 
ATOM     11  H   UNL     1      22.136  17.146 -15.907  1.00  0.00     0.345 HD
ATOM     12  H   UNL     1      23.692  17.812 -15.833  1.00  0.00     0.345 HD
ATOM     13  H   UNL     1      23.328  16.406 -14.939  1.00  0.00     0.345 HD
ENDBRANCH   9  10
BRANCH   9  14
ATOM     14  C   UNL     1      23.389  16.879 -18.259  1.00  0.00     0.099 C 
ATOM     15  O   UNL     1      23.801  16.407 -19.352  1.00  0.00    -0.544 OA
ATOM     16  O   UNL     1      22.781  18.129 -18.240  1.00  0.00    -0.544 OA
ENDBRANCH   9  14
ENDBRANCH   8   9
ENDBRANCH   1   8
TORSDOF 7
ENDMDL
MODEL 6
REMARK VINA RESULT:    -3.068     10.198     11.116
REMARK INTER + INTRA:          -4.637
REMARK INTER:                  -4.551
REMARK INTRA:                  -0.086
REMARK UNBOUND:                -0.493
REMARK SMILES [NH3+]CCCC[C@@H]([NH3+])C(=O)[O-]
REMARK SMILES IDX 4 1 3 2 2 3 1 4 5 8 6 9 7 10 8 14 9 15 10 16
REMARK H PARENT 1 5 1 6 1 7 7 11 7 12 7 13
REMARK Flexibility Score: inf
ROOT
ATOM      1  C   UNL     1      27.358  14.616 -14.399  1.00  0.00     0.012 C 
ENDROOT
BRANCH   1   2
ATOM      2  C   UNL     1      28.792  14.590 -13.840  1.00  0.00     0.061 C 
BRANCH   2   3
ATOM      3  C   UNL     1      28.885  14.498 -12.305  1.00  0.00     0.258 C 
BRANCH   3   4
ATOM      4  N   UNL     1      28.439  15.728 -11.646  1.00  0.00    -0.358 N 
ATOM      5  H   UNL     1      29.138  16.484 -11.831  1.00  0.00     0.344 HD
ATOM      6  H   UNL     1      28.365  15.584 -10.613  1.00  0.00     0.344 HD
ATOM      7  H   UNL     1      27.518  16.032 -12.034  1.00  0.00     0.344 HD
ENDBRANCH   3   4
ENDBRANCH   2   3
ENDBRANCH   1   2
BRANCH   1   8
ATOM      8  C   UNL     1      27.251  15.370 -15.737  1.00  0.00     0.072 C 
BRANCH   8   9
ATOM      9  C   UNL     1      25.924  15.074 -16.468  1.00  0.00     0.227 C 
BRANCH   9  10
ATOM     10  N   UNL     1      24.968  16.169 -16.261  1.00  0.00    -0.350 N 
ATOM     11  H   UNL     1      25.026  16.508 -15.273  1.00  0.00     0.345 HD
ATOM     12  H   UNL     1      23.994  15.828 -16.432  1.00  0.00     0.345 HD
ATOM     13  H   UNL     1      25.173  16.965 -16.909  1.00  0.00     0.345 HD
ENDBRANCH   9  10
BRANCH   9  14
ATOM     14  C   UNL     1      26.153  14.866 -17.943  1.00  0.00     0.099 C 
ATOM     15  O   UNL     1      25.208  15.034 -18.759  1.00  0.00    -0.544 OA
ATOM     16  O   UNL     1      27.404  14.486 -18.413  1.00  0.00    -0.544 OA
ENDBRANCH   9  14
ENDBRANCH   8   9
ENDBRANCH   1   8
TORSDOF 7
ENDMDL
MODEL 7
REMARK VINA RESULT:    -3.048      1.870      3.654
REMARK INTER + INTRA:          -4.610
REMARK INTER:                  -4.092
REMARK INTRA:                  -0.518
REMARK UNBOUND:                -0.493
REMARK SMILES [NH3+]CCCC[C@@H]([NH3+])C(=O)[O-]
REMARK SMILES IDX 4 1 3 2 2 3 1 4 5 8 6 9 7 10 8 14 9 15 10 16
REMARK H PARENT 1 5 1 6 1 7 7 11 7 12 7 13
REMARK Flexibility Score: inf
ROOT
ATOM      1  C   UNL     1      33.792  19.176 -23.230  1.00  0.00     0.012 C 
ENDROOT
BRANCH   1   2
ATOM      2  C   UNL     1      34.205  20.383 -24.092  1.00  0.00     0.061 C 
BRANCH   2   3
ATOM      3  C   UNL     1      35.370  21.214 -23.523  1.00  0.00     0.258 C 
BRANCH   3   4
ATOM      4  N   UNL     1      34.927  22.510 -23.003  1.00  0.00    -0.358 N 
ATOM      5  H   UNL     1      35.766  23.108 -22.824  1.00  0.00     0.344 HD
ATOM      6  H   UNL     1      34.405  22.386 -22.105  1.00  0.00     0.344 HD
ATOM      7  H   UNL     1      34.324  22.994 -23.706  1.00  0.00     0.344 HD
ENDBRANCH   3   4
ENDBRANCH   2   3
ENDBRANCH   1   2
BRANCH   1   8
ATOM      8  C   UNL     1      32.275  19.110 -22.981  1.00  0.00     0.072 C 
BRANCH   8   9
ATOM      9  C   UNL     1      31.696  20.471 -22.539  1.00  0.00     0.227 C 
BRANCH   9  10
ATOM     10  N   UNL     1      30.229  20.437 -22.560  1.00  0.00    -0.350 N 
ATOM     11  H   UNL     1      29.878  19.801 -21.806  1.00  0.00     0.345 HD
ATOM     12  H   UNL     1      29.894  20.066 -23.479  1.00  0.00     0.345 HD
ATOM     13  H   UNL     1      29.835  21.395 -22.410  1.00  0.00     0.345 HD
ENDBRANCH   9  10
BRANCH   9  14
ATOM     14  C   UNL     1      32.180  20.843 -21.161  1.00  0.00     0.099 C 
ATOM     15  O   UNL     1      32.011  20.051 -20.196  1.00  0.00    -0.544 OA
ATOM     16  O   UNL     1      32.812  22.062 -20.943  1.00  0.00    -0.544 OA
ENDBRANCH   9  14
ENDBRANCH   8   9
ENDBRANCH   1   8
TORSDOF 7
ENDMDL
MODEL 8
REMARK VINA RESULT:    -3.036     10.748     11.792
REMARK INTER + INTRA:          -4.595
REMARK INTER:                  -4.501
REMARK INTRA:                  -0.094
REMARK UNBOUND:                -0.493
REMARK SMILES [NH3+]CCCC[C@@H]([NH3+])C(=O)[O-]
REMARK SMILES IDX 4 1 3 2 2 3 1 4 5 8 6 9 7 10 8 14 9 15 10 16
REMARK H PARENT 1 5 1 6 1 7 7 11 7 12 7 13
REMARK Flexibility Score: inf
ROOT
ATOM      1  C   UNL     1      27.032  14.747 -14.971  1.00  0.00     0.012 C 
ENDROOT
BRANCH   1   2
ATOM      2  C   UNL     1      26.946  15.644 -16.220  1.00  0.00     0.061 C 
BRANCH   2   3
ATOM      3  C   UNL     1      25.592  15.604 -16.952  1.00  0.00     0.258 C 
BRANCH   3   4
ATOM      4  N   UNL     1      24.501  16.139 -16.134  1.00  0.00    -0.358 N 
ATOM      5  H   UNL     1      24.315  15.482 -15.343  1.00  0.00     0.344 HD
ATOM      6  H   UNL     1      23.629  16.235 -16.704  1.00  0.00     0.344 HD
ATOM      7  H   UNL     1      24.771  17.066 -15.733  1.00  0.00     0.344 HD
ENDBRANCH   3   4
ENDBRANCH   2   3
ENDBRANCH   1   2
BRANCH   1   8
ATOM      8  C   UNL     1      28.409  14.804 -14.287  1.00  0.00     0.072 C 
BRANCH   8   9
ATOM      9  C   UNL     1      28.464  13.934 -13.013  1.00  0.00     0.227 C 
BRANCH   9  10
ATOM     10  N   UNL     1      29.403  12.819 -13.192  1.00  0.00    -0.350 N 
ATOM     11  H   UNL     1      30.360  13.191 -13.392  1.00  0.00     0.345 HD
ATOM     12  H   UNL     1      29.106  12.231 -14.004  1.00  0.00     0.345 HD
ATOM     13  H   UNL     1      29.439  12.225 -12.331  1.00  0.00     0.345 HD
ENDBRANCH   9  10
BRANCH   9  14
ATOM     14  C   UNL     1      28.865  14.753 -11.813  1.00  0.00     0.099 C 
ATOM     15  O   UNL     1      28.346  15.883 -11.617  1.00  0.00    -0.544 OA
ATOM     16  O   UNL     1      29.811  14.269 -10.917  1.00  0.00    -0.544 OA
ENDBRANCH   9  14
ENDBRANCH   8   9
ENDBRANCH   1   8
TORSDOF 7
ENDMDL
MODEL 9
REMARK VINA RESULT:    -2.986      2.663      3.456
REMARK INTER + INTRA:          -4.527
REMARK INTER:                  -4.034
REMARK INTRA:                  -0.493
REMARK UNBOUND:                -0.493
REMARK SMILES [NH3+]CCCC[C@@H]([NH3+])C(=O)[O-]
REMARK SMILES IDX 4 1 3 2 2 3 1 4 5 8 6 9 7 10 8 14 9 15 10 16
REMARK H PARENT 1 5 1 6 1 7 7 11 7 12 7 13
REMARK Flexibility Score: inf
ROOT
ATOM      1  C   UNL     1      31.331  18.235 -23.750  1.00  0.00     0.012 C 
ENDROOT
BRANCH   1   2
ATOM      2  C   UNL     1      32.059  16.915 -23.437  1.00  0.00     0.061 C 
BRANCH   2   3
ATOM      3  C   UNL     1      33.365  17.072 -22.634  1.00  0.00     0.258 C 
BRANCH   3   4
ATOM      4  N   UNL     1      33.187  16.757 -21.215  1.00  0.00    -0.358 N 
ATOM      5  H   UNL     1      32.558  17.472 -20.785  1.00  0.00     0.344 HD
ATOM      6  H   UNL     1      34.107  16.775 -20.718  1.00  0.00     0.344 HD
ATOM      7  H   UNL     1      32.738  15.819 -21.107  1.00  0.00     0.344 HD
ENDBRANCH   3   4
ENDBRANCH   2   3
ENDBRANCH   1   2
BRANCH   1   8
ATOM      8  C   UNL     1      32.166  19.478 -23.395  1.00  0.00     0.072 C 
BRANCH   8   9
ATOM      9  C   UNL     1      31.376  20.485 -22.533  1.00  0.00     0.227 C 
BRANCH   9  10
ATOM     10  N   UNL     1      29.940  20.179 -22.572  1.00  0.00    -0.350 N 
ATOM     11  H   UNL     1      29.485  20.499 -21.686  1.00  0.00     0.345 HD
ATOM     12  H   UNL     1      29.799  19.146 -22.656  1.00  0.00     0.345 HD
ATOM     13  H   UNL     1      29.483  20.657 -23.383  1.00  0.00     0.345 HD
ENDBRANCH   9  10
BRANCH   9  14
ATOM     14  C   UNL     1      31.862  20.477 -21.106  1.00  0.00     0.099 C 
ATOM     15  O   UNL     1      32.459  21.481 -20.636  1.00  0.00    -0.544 OA
ATOM     16  O   UNL     1      31.658  19.362 -20.301  1.00  0.00    -0.544 OA
ENDBRANCH   9  14
ENDBRANCH   8   9
ENDBRANCH   1   8
TORSDOF 7
ENDMDL
