MODEL 1
REMARK VINA RESULT:    -7.977      0.000      0.000
REMARK INTER + INTRA:          -9.915
REMARK INTER:                  -9.609
REMARK INTRA:                  -0.306
REMARK UNBOUND:                -0.306
REMARK SMILES O=c1c(O)c(-c2ccc(O)c(O)c2)oc2cc(O)cc(O)c12
REMARK SMILES IDX 5 1 3 2 2 3 1 4 22 5 20 6 19 7 17 8 16 9 15 10 14 11 6 12
REMARK SMILES IDX 7 13 8 14 9 15 13 16 11 17 10 18 12 20 4 22 21 24 18 26
REMARK H PARENT 10 19 12 21 4 23 21 25 18 27
REMARK Flexibility Score: inf
ROOT
ATOM      1  C   UNL     1      14.220   5.989  82.095  1.00  0.00     0.180 A 
ATOM      2  C   UNL     1      15.231   5.578  82.980  1.00  0.00     0.208 A 
ATOM      3  C   UNL     1      16.449   5.115  82.455  1.00  0.00     0.238 A 
ATOM      4  O   UNL     1      17.370   4.799  83.253  1.00  0.00    -0.285 OA
ATOM      5  C   UNL     1      16.633   5.054  81.052  1.00  0.00     0.111 A 
ATOM      6  C   UNL     1      17.809   4.563  80.411  1.00  0.00     0.134 A 
ATOM      7  C   UNL     1      17.933   4.671  79.020  1.00  0.00     0.093 A 
ATOM      8  C   UNL     1      16.896   5.191  78.242  1.00  0.00     0.123 A 
ATOM      9  C   UNL     1      15.720   5.616  78.854  1.00  0.00     0.094 A 
ATOM     10  C   UNL     1      15.581   5.555  80.243  1.00  0.00     0.146 A 
ATOM     11  O   UNL     1      14.447   5.981  80.786  1.00  0.00    -0.452 OA
ENDROOT
BRANCH   1  12
ATOM     12  C   UNL     1      12.902   6.466  82.572  1.00  0.00     0.025 A 
ATOM     13  C   UNL     1      11.833   5.561  82.665  1.00  0.00     0.016 A 
ATOM     14  C   UNL     1      10.585   5.984  83.133  1.00  0.00     0.051 A 
ATOM     15  C   UNL     1      10.393   7.311  83.530  1.00  0.00     0.157 A 
ATOM     16  C   UNL     1      12.711   7.795  82.993  1.00  0.00     0.062 A 
ATOM     17  C   UNL     1      11.461   8.220  83.464  1.00  0.00     0.158 A 
BRANCH  15  18
ATOM     18  O   UNL     1       9.137   7.704  83.991  1.00  0.00    -0.504 OA
ATOM     19  H   UNL     1       8.395   7.036  84.167  1.00  0.00     0.293 HD
ENDBRANCH  15  18
BRANCH  17  20
ATOM     20  O   UNL     1      11.280   9.541  83.873  1.00  0.00    -0.504 OA
ATOM     21  H   UNL     1      11.992  10.246  83.723  1.00  0.00     0.293 HD
ENDBRANCH  17  20
ENDBRANCH   1  12
BRANCH   2  22
ATOM     22  O   UNL     1      15.036   5.667  84.361  1.00  0.00    -0.502 OA
ATOM     23  H   UNL     1      15.077   4.858  84.969  1.00  0.00     0.293 HD
ENDBRANCH   2  22
BRANCH   6  24
ATOM     24  O   UNL     1      18.866   3.942  81.084  1.00  0.00    -0.507 OA
ATOM     25  H   UNL     1      19.835   4.210  81.003  1.00  0.00     0.293 HD
ENDBRANCH   6  24
BRANCH   8  26
ATOM     26  O   UNL     1      17.022   5.279  76.858  1.00  0.00    -0.508 OA
ATOM     27  H   UNL     1      16.224   5.471  76.263  1.00  0.00     0.293 HD
ENDBRANCH   8  26
TORSDOF 6
ENDMDL
MODEL 2
REMARK VINA RESULT:    -7.955      5.673     11.133
REMARK INTER + INTRA:          -9.888
REMARK INTER:                  -9.603
REMARK INTRA:                  -0.285
REMARK UNBOUND:                -0.306
REMARK SMILES O=c1c(O)c(-c2ccc(O)c(O)c2)oc2cc(O)cc(O)c12
REMARK SMILES IDX 5 1 3 2 2 3 1 4 22 5 20 6 19 7 17 8 16 9 15 10 14 11 6 12
REMARK SMILES IDX 7 13 8 14 9 15 13 16 11 17 10 18 12 20 4 22 21 24 18 26
REMARK H PARENT 10 19 12 21 4 23 21 25 18 27
REMARK Flexibility Score: inf
ROOT
ATOM      1  C   UNL     1      19.788   1.286  75.987  1.00  0.00     0.180 A 
ATOM      2  C   UNL     1      19.320   2.280  75.110  1.00  0.00     0.208 A 
ATOM      3  C   UNL     1      18.679   3.411  75.642  1.00  0.00     0.238 A 
ATOM      4  O   UNL     1      18.310   4.322  74.856  1.00  0.00    -0.285 OA
ATOM      5  C   UNL     1      18.500   3.524  77.042  1.00  0.00     0.111 A 
ATOM      6  C   UNL     1      17.828   4.606  77.687  1.00  0.00     0.134 A 
ATOM      7  C   UNL     1      17.825   4.681  79.085  1.00  0.00     0.093 A 
ATOM      8  C   UNL     1      18.411   3.679  79.862  1.00  0.00     0.123 A 
ATOM      9  C   UNL     1      19.016   2.589  79.242  1.00  0.00     0.094 A 
ATOM     10  C   UNL     1      19.068   2.505  77.848  1.00  0.00     0.146 A 
ATOM     11  O   UNL     1      19.663   1.453  77.298  1.00  0.00    -0.452 OA
ENDROOT
BRANCH   1  12
ATOM     12  C   UNL     1      20.451   0.055  75.499  1.00  0.00     0.025 A 
ATOM     13  C   UNL     1      19.710  -1.131  75.390  1.00  0.00     0.016 A 
ATOM     14  C   UNL     1      20.310  -2.300  74.913  1.00  0.00     0.051 A 
ATOM     15  C   UNL     1      21.652  -2.296  74.522  1.00  0.00     0.157 A 
ATOM     16  C   UNL     1      21.796   0.062  75.086  1.00  0.00     0.062 A 
ATOM     17  C   UNL     1      22.399  -1.109  74.604  1.00  0.00     0.158 A 
BRANCH  15  18
ATOM     18  O   UNL     1      22.224  -3.478  74.052  1.00  0.00    -0.504 OA
ATOM     19  H   UNL     1      23.161  -3.764  74.314  1.00  0.00     0.293 HD
ENDBRANCH  15  18
BRANCH  17  20
ATOM     20  O   UNL     1      23.734  -1.095  74.203  1.00  0.00    -0.504 OA
ATOM     21  H   UNL     1      24.489  -1.011  74.873  1.00  0.00     0.293 HD
ENDBRANCH  17  20
ENDBRANCH   1  12
BRANCH   2  22
ATOM     22  O   UNL     1      19.526   2.157  73.733  1.00  0.00    -0.502 OA
ATOM     23  H   UNL     1      19.069   2.759  73.059  1.00  0.00     0.293 HD
ENDBRANCH   2  22
BRANCH   6  24
ATOM     24  O   UNL     1      17.133   5.611  77.007  1.00  0.00    -0.507 OA
ATOM     25  H   UNL     1      17.448   6.052  76.156  1.00  0.00     0.293 HD
ENDBRANCH   6  24
BRANCH   8  26
ATOM     26  O   UNL     1      18.389   3.754  81.253  1.00  0.00    -0.508 OA
ATOM     27  H   UNL     1      18.018   2.999  81.819  1.00  0.00     0.293 HD
ENDBRANCH   8  26
TORSDOF 6
ENDMDL
MODEL 3
REMARK VINA RESULT:    -7.775      5.550      7.183
REMARK INTER + INTRA:          -9.671
REMARK INTER:                  -9.622
REMARK INTRA:                  -0.049
REMARK UNBOUND:                -0.306
REMARK SMILES O=c1c(O)c(-c2ccc(O)c(O)c2)oc2cc(O)cc(O)c12
REMARK SMILES IDX 5 1 3 2 2 3 1 4 22 5 20 6 19 7 17 8 16 9 15 10 14 11 6 12
REMARK SMILES IDX 7 13 8 14 9 15 13 16 11 17 10 18 12 20 4 22 21 24 18 26
REMARK H PARENT 10 19 12 21 4 23 21 25 18 27
REMARK Flexibility Score: inf
ROOT
ATOM      1  C   UNL     1      17.734   1.131  79.896  1.00  0.00     0.180 A 
ATOM      2  C   UNL     1      18.506   2.297  80.034  1.00  0.00     0.208 A 
ATOM      3  C   UNL     1      19.388   2.656  79.001  1.00  0.00     0.238 A 
ATOM      4  O   UNL     1      20.036   3.730  79.106  1.00  0.00    -0.285 OA
ATOM      5  C   UNL     1      19.498   1.835  77.853  1.00  0.00     0.111 A 
ATOM      6  C   UNL     1      20.389   2.081  76.765  1.00  0.00     0.134 A 
ATOM      7  C   UNL     1      20.320   1.276  75.621  1.00  0.00     0.093 A 
ATOM      8  C   UNL     1      19.438   0.194  75.553  1.00  0.00     0.123 A 
ATOM      9  C   UNL     1      18.608  -0.090  76.634  1.00  0.00     0.094 A 
ATOM     10  C   UNL     1      18.628   0.718  77.774  1.00  0.00     0.146 A 
ATOM     11  O   UNL     1      17.812   0.418  78.778  1.00  0.00    -0.452 OA
ENDROOT
BRANCH   1  12
ATOM     12  C   UNL     1      16.801   0.675  80.951  1.00  0.00     0.025 A 
ATOM     13  C   UNL     1      15.768   1.526  81.375  1.00  0.00     0.016 A 
ATOM     14  C   UNL     1      14.863   1.109  82.355  1.00  0.00     0.051 A 
ATOM     15  C   UNL     1      14.967  -0.168  82.914  1.00  0.00     0.157 A 
ATOM     16  C   UNL     1      16.890  -0.617  81.500  1.00  0.00     0.062 A 
ATOM     17  C   UNL     1      15.982  -1.038  82.483  1.00  0.00     0.158 A 
BRANCH  15  18
ATOM     18  O   UNL     1      14.051  -0.556  83.892  1.00  0.00    -0.504 OA
ATOM     19  H   UNL     1      13.907  -1.528  84.139  1.00  0.00     0.293 HD
ENDBRANCH  15  18
BRANCH  17  20
ATOM     20  O   UNL     1      16.082  -2.318  83.026  1.00  0.00    -0.504 OA
ATOM     21  H   UNL     1      15.870  -2.500  84.000  1.00  0.00     0.293 HD
ENDBRANCH  17  20
ENDBRANCH   1  12
BRANCH   2  22
ATOM     22  O   UNL     1      18.365   3.104  81.166  1.00  0.00    -0.502 OA
ATOM     23  H   UNL     1      17.476   3.234  81.635  1.00  0.00     0.293 HD
ENDBRANCH   2  22
BRANCH   6  24
ATOM     24  O   UNL     1      21.369   3.077  76.767  1.00  0.00    -0.507 OA
ATOM     25  H   UNL     1      21.410   3.842  77.425  1.00  0.00     0.293 HD
ENDBRANCH   6  24
BRANCH   8  26
ATOM     26  O   UNL     1      19.388  -0.612  74.418  1.00  0.00    -0.508 OA
ATOM     27  H   UNL     1      19.652  -0.260  73.505  1.00  0.00     0.293 HD
ENDBRANCH   8  26
TORSDOF 6
ENDMDL
MODEL 4
REMARK VINA RESULT:    -7.756      2.559      7.589
REMARK INTER + INTRA:          -9.649
REMARK INTER:                  -9.586
REMARK INTRA:                  -0.064
REMARK UNBOUND:                -0.306
REMARK SMILES O=c1c(O)c(-c2ccc(O)c(O)c2)oc2cc(O)cc(O)c12
REMARK SMILES IDX 5 1 3 2 2 3 1 4 22 5 20 6 19 7 17 8 16 9 15 10 14 11 6 12
REMARK SMILES IDX 7 13 8 14 9 15 13 16 11 17 10 18 12 20 4 22 21 24 18 26
REMARK H PARENT 10 19 12 21 4 23 21 25 18 27
REMARK Flexibility Score: inf
ROOT
ATOM      1  C   UNL     1      16.767   4.374  78.992  1.00  0.00     0.180 A 
ATOM      2  C   UNL     1      17.016   4.937  80.255  1.00  0.00     0.208 A 
ATOM      3  C   UNL     1      15.939   5.154  81.129  1.00  0.00     0.238 A 
ATOM      4  O   UNL     1      16.175   5.609  82.279  1.00  0.00    -0.285 OA
ATOM      5  C   UNL     1      14.624   4.820  80.722  1.00  0.00     0.111 A 
ATOM      6  C   UNL     1      13.454   5.034  81.511  1.00  0.00     0.134 A 
ATOM      7  C   UNL     1      12.221   4.545  81.062  1.00  0.00     0.093 A 
ATOM      8  C   UNL     1      12.105   3.908  79.824  1.00  0.00     0.123 A 
ATOM      9  C   UNL     1      13.231   3.748  79.021  1.00  0.00     0.094 A 
ATOM     10  C   UNL     1      14.482   4.193  79.458  1.00  0.00     0.146 A 
ATOM     11  O   UNL     1      15.532   4.010  78.666  1.00  0.00    -0.452 OA
ENDROOT
BRANCH   1  12
ATOM     12  C   UNL     1      17.847   4.138  78.008  1.00  0.00     0.025 A 
ATOM     13  C   UNL     1      18.924   3.306  78.350  1.00  0.00     0.016 A 
ATOM     14  C   UNL     1      19.945   3.053  77.430  1.00  0.00     0.051 A 
ATOM     15  C   UNL     1      19.897   3.614  76.150  1.00  0.00     0.157 A 
ATOM     16  C   UNL     1      17.790   4.684  76.712  1.00  0.00     0.062 A 
ATOM     17  C   UNL     1      18.813   4.429  75.787  1.00  0.00     0.158 A 
BRANCH  15  18
ATOM     18  O   UNL     1      20.931   3.345  75.253  1.00  0.00    -0.504 OA
ATOM     19  H   UNL     1      20.786   2.795  74.414  1.00  0.00     0.293 HD
ENDBRANCH  15  18
BRANCH  17  20
ATOM     20  O   UNL     1      18.751   4.979  74.507  1.00  0.00    -0.504 OA
ATOM     21  H   UNL     1      18.136   4.602  73.795  1.00  0.00     0.293 HD
ENDBRANCH  17  20
ENDBRANCH   1  12
BRANCH   2  22
ATOM     22  O   UNL     1      18.324   5.240  80.644  1.00  0.00    -0.502 OA
ATOM     23  H   UNL     1      18.932   4.559  81.085  1.00  0.00     0.293 HD
ENDBRANCH   2  22
BRANCH   6  24
ATOM     24  O   UNL     1      13.443   5.738  82.718  1.00  0.00    -0.507 OA
ATOM     25  H   UNL     1      13.533   5.316  83.630  1.00  0.00     0.293 HD
ENDBRANCH   6  24
BRANCH   8  26
ATOM     26  O   UNL     1      10.871   3.439  79.379  1.00  0.00    -0.508 OA
ATOM     27  H   UNL     1      10.008   3.692  79.845  1.00  0.00     0.293 HD
ENDBRANCH   8  26
TORSDOF 6
ENDMDL
MODEL 5
REMARK VINA RESULT:    -7.743      3.401      6.001
REMARK INTER + INTRA:          -9.633
REMARK INTER:                  -9.357
REMARK INTRA:                  -0.276
REMARK UNBOUND:                -0.306
REMARK SMILES O=c1c(O)c(-c2ccc(O)c(O)c2)oc2cc(O)cc(O)c12
REMARK SMILES IDX 5 1 3 2 2 3 1 4 22 5 20 6 19 7 17 8 16 9 15 10 14 11 6 12
REMARK SMILES IDX 7 13 8 14 9 15 13 16 11 17 10 18 12 20 4 22 21 24 18 26
REMARK H PARENT 10 19 12 21 4 23 21 25 18 27
REMARK Flexibility Score: inf
ROOT
ATOM      1  C   UNL     1      15.983   3.944  78.395  1.00  0.00     0.180 A 
ATOM      2  C   UNL     1      14.847   3.155  78.148  1.00  0.00     0.208 A 
ATOM      3  C   UNL     1      14.781   2.410  76.959  1.00  0.00     0.238 A 
ATOM      4  O   UNL     1      13.786   1.663  76.768  1.00  0.00    -0.285 OA
ATOM      5  C   UNL     1      15.844   2.477  76.026  1.00  0.00     0.111 A 
ATOM      6  C   UNL     1      15.865   1.797  74.772  1.00  0.00     0.134 A 
ATOM      7  C   UNL     1      17.025   1.831  73.987  1.00  0.00     0.093 A 
ATOM      8  C   UNL     1      18.140   2.575  74.381  1.00  0.00     0.123 A 
ATOM      9  C   UNL     1      18.106   3.291  75.575  1.00  0.00     0.094 A 
ATOM     10  C   UNL     1      16.977   3.246  76.397  1.00  0.00     0.146 A 
ATOM     11  O   UNL     1      16.992   3.935  77.532  1.00  0.00    -0.452 OA
ENDROOT
BRANCH   1  12
ATOM     12  C   UNL     1      16.113   4.775  79.614  1.00  0.00     0.025 A 
ATOM     13  C   UNL     1      15.391   5.975  79.712  1.00  0.00     0.016 A 
ATOM     14  C   UNL     1      15.482   6.765  80.861  1.00  0.00     0.051 A 
ATOM     15  C   UNL     1      16.282   6.361  81.934  1.00  0.00     0.157 A 
ATOM     16  C   UNL     1      16.900   4.361  80.703  1.00  0.00     0.062 A 
ATOM     17  C   UNL     1      16.991   5.151  81.858  1.00  0.00     0.158 A 
BRANCH  15  18
ATOM     18  O   UNL     1      16.355   7.171  83.067  1.00  0.00    -0.504 OA
ATOM     19  H   UNL     1      15.938   8.094  83.096  1.00  0.00     0.293 HD
ENDBRANCH  15  18
BRANCH  17  20
ATOM     20  O   UNL     1      17.780   4.735  82.931  1.00  0.00    -0.504 OA
ATOM     21  H   UNL     1      17.386   4.587  83.853  1.00  0.00     0.293 HD
ENDBRANCH  17  20
ENDBRANCH   1  12
BRANCH   2  22
ATOM     22  O   UNL     1      13.819   3.086  79.092  1.00  0.00    -0.502 OA
ATOM     23  H   UNL     1      13.127   2.345  79.089  1.00  0.00     0.293 HD
ENDBRANCH   2  22
BRANCH   6  24
ATOM     24  O   UNL     1      14.774   1.101  74.242  1.00  0.00    -0.507 OA
ATOM     25  H   UNL     1      13.813   1.251  74.510  1.00  0.00     0.293 HD
ENDBRANCH   6  24
BRANCH   8  26
ATOM     26  O   UNL     1      19.283   2.616  73.587  1.00  0.00    -0.508 OA
ATOM     27  H   UNL     1      19.914   1.826  73.522  1.00  0.00     0.293 HD
ENDBRANCH   8  26
TORSDOF 6
ENDMDL
MODEL 6
REMARK VINA RESULT:    -7.681      3.698      6.556
REMARK INTER + INTRA:          -9.558
REMARK INTER:                  -9.504
REMARK INTRA:                  -0.054
REMARK UNBOUND:                -0.306
REMARK SMILES O=c1c(O)c(-c2ccc(O)c(O)c2)oc2cc(O)cc(O)c12
REMARK SMILES IDX 5 1 3 2 2 3 1 4 22 5 20 6 19 7 17 8 16 9 15 10 14 11 6 12
REMARK SMILES IDX 7 13 8 14 9 15 13 16 11 17 10 18 12 20 4 22 21 24 18 26
REMARK H PARENT 10 19 12 21 4 23 21 25 18 27
REMARK Flexibility Score: inf
ROOT
ATOM      1  C   UNL     1      17.897   3.341  79.025  1.00  0.00     0.180 A 
ATOM      2  C   UNL     1      18.501   3.632  77.790  1.00  0.00     0.208 A 
ATOM      3  C   UNL     1      18.890   2.570  76.956  1.00  0.00     0.238 A 
ATOM      4  O   UNL     1      19.381   2.837  75.828  1.00  0.00    -0.285 OA
ATOM      5  C   UNL     1      18.683   1.234  77.375  1.00  0.00     0.111 A 
ATOM      6  C   UNL     1      19.075   0.082  76.628  1.00  0.00     0.134 A 
ATOM      7  C   UNL     1      18.703  -1.191  77.078  1.00  0.00     0.093 A 
ATOM      8  C   UNL     1      18.012  -1.357  78.281  1.00  0.00     0.123 A 
ATOM      9  C   UNL     1      17.679  -0.243  79.046  1.00  0.00     0.094 A 
ATOM     10  C   UNL     1      18.004   1.043  78.605  1.00  0.00     0.146 A 
ATOM     11  O   UNL     1      17.658   2.079  79.360  1.00  0.00    -0.452 OA
ENDROOT
BRANCH   1  12
ATOM     12  C   UNL     1      17.484   4.405  79.969  1.00  0.00     0.025 A 
ATOM     13  C   UNL     1      16.569   5.383  79.548  1.00  0.00     0.016 A 
ATOM     14  C   UNL     1      16.149   6.385  80.428  1.00  0.00     0.051 A 
ATOM     15  C   UNL     1      16.623   6.413  81.743  1.00  0.00     0.157 A 
ATOM     16  C   UNL     1      17.942   4.424  81.298  1.00  0.00     0.062 A 
ATOM     17  C   UNL     1      17.520   5.427  82.183  1.00  0.00     0.158 A 
BRANCH  15  18
ATOM     18  O   UNL     1      16.187   7.426  82.598  1.00  0.00    -0.504 OA
ATOM     19  H   UNL     1      15.464   7.271  83.291  1.00  0.00     0.293 HD
ENDBRANCH  15  18
BRANCH  17  20
ATOM     20  O   UNL     1      17.985   5.441  83.498  1.00  0.00    -0.504 OA
ATOM     21  H   UNL     1      17.374   5.668  84.274  1.00  0.00     0.293 HD
ENDBRANCH  17  20
ENDBRANCH   1  12
BRANCH   2  22
ATOM     22  O   UNL     1      18.676   4.958  77.387  1.00  0.00    -0.502 OA
ATOM     23  H   UNL     1      19.388   5.236  76.722  1.00  0.00     0.293 HD
ENDBRANCH   2  22
BRANCH   6  24
ATOM     24  O   UNL     1      19.845   0.131  75.462  1.00  0.00    -0.507 OA
ATOM     25  H   UNL     1      20.648   0.727  75.329  1.00  0.00     0.293 HD
ENDBRANCH   6  24
BRANCH   8  26
ATOM     26  O   UNL     1      17.661  -2.629  78.728  1.00  0.00    -0.508 OA
ATOM     27  H   UNL     1      17.739  -3.443  78.130  1.00  0.00     0.293 HD
ENDBRANCH   8  26
TORSDOF 6
ENDMDL
MODEL 7
REMARK VINA RESULT:    -7.668      3.624      7.328
REMARK INTER + INTRA:          -9.543
REMARK INTER:                  -9.518
REMARK INTRA:                  -0.025
REMARK UNBOUND:                -0.306
REMARK SMILES O=c1c(O)c(-c2ccc(O)c(O)c2)oc2cc(O)cc(O)c12
REMARK SMILES IDX 5 1 3 2 2 3 1 4 22 5 20 6 19 7 17 8 16 9 15 10 14 11 6 12
REMARK SMILES IDX 7 13 8 14 9 15 13 16 11 17 10 18 12 20 4 22 21 24 18 26
REMARK H PARENT 10 19 12 21 4 23 21 25 18 27
REMARK Flexibility Score: inf
ROOT
ATOM      1  C   UNL     1      14.691   3.817  77.992  1.00  0.00     0.180 A 
ATOM      2  C   UNL     1      15.681   4.809  77.884  1.00  0.00     0.208 A 
ATOM      3  C   UNL     1      15.856   5.714  78.944  1.00  0.00     0.238 A 
ATOM      4  O   UNL     1      16.780   6.565  78.865  1.00  0.00    -0.285 OA
ATOM      5  C   UNL     1      15.029   5.625  80.089  1.00  0.00     0.111 A 
ATOM      6  C   UNL     1      15.091   6.514  81.204  1.00  0.00     0.134 A 
ATOM      7  C   UNL     1      14.314   6.253  82.340  1.00  0.00     0.093 A 
ATOM      8  C   UNL     1      13.429   5.173  82.375  1.00  0.00     0.123 A 
ATOM      9  C   UNL     1      13.317   4.335  81.268  1.00  0.00     0.094 A 
ATOM     10  C   UNL     1      14.106   4.549  80.135  1.00  0.00     0.146 A 
ATOM     11  O   UNL     1      13.975   3.719  79.106  1.00  0.00    -0.452 OA
ENDROOT
BRANCH   1  12
ATOM     12  C   UNL     1      14.430   2.844  76.906  1.00  0.00     0.025 A 
ATOM     13  C   UNL     1      15.480   2.043  76.431  1.00  0.00     0.016 A 
ATOM     14  C   UNL     1      15.253   1.103  75.422  1.00  0.00     0.051 A 
ATOM     15  C   UNL     1      13.972   0.939  74.885  1.00  0.00     0.157 A 
ATOM     16  C   UNL     1      13.139   2.663  76.379  1.00  0.00     0.062 A 
ATOM     17  C   UNL     1      12.909   1.719  75.368  1.00  0.00     0.158 A 
BRANCH  15  18
ATOM     18  O   UNL     1      13.776  -0.005  73.877  1.00  0.00    -0.504 OA
ATOM     19  H   UNL     1      12.851  -0.311  73.599  1.00  0.00     0.293 HD
ENDBRANCH  15  18
BRANCH  17  20
ATOM     20  O   UNL     1      11.627   1.550  74.846  1.00  0.00    -0.504 OA
ATOM     21  H   UNL     1      11.308   2.074  74.039  1.00  0.00     0.293 HD
ENDBRANCH  17  20
ENDBRANCH   1  12
BRANCH   2  22
ATOM     22  O   UNL     1      16.501   4.865  76.754  1.00  0.00    -0.502 OA
ATOM     23  H   UNL     1      16.209   4.504  75.852  1.00  0.00     0.293 HD
ENDBRANCH   2  22
BRANCH   6  24
ATOM     24  O   UNL     1      15.873   7.673  81.237  1.00  0.00    -0.507 OA
ATOM     25  H   UNL     1      15.552   8.590  80.968  1.00  0.00     0.293 HD
ENDBRANCH   6  24
BRANCH   8  26
ATOM     26  O   UNL     1      12.648   4.931  83.502  1.00  0.00    -0.508 OA
ATOM     27  H   UNL     1      12.059   5.651  83.905  1.00  0.00     0.293 HD
ENDBRANCH   8  26
TORSDOF 6
ENDMDL
MODEL 8
REMARK VINA RESULT:    -7.625      3.707      8.042
REMARK INTER + INTRA:          -9.490
REMARK INTER:                  -9.210
REMARK INTRA:                  -0.280
REMARK UNBOUND:                -0.306
REMARK SMILES O=c1c(O)c(-c2ccc(O)c(O)c2)oc2cc(O)cc(O)c12
REMARK SMILES IDX 5 1 3 2 2 3 1 4 22 5 20 6 19 7 17 8 16 9 15 10 14 11 6 12
REMARK SMILES IDX 7 13 8 14 9 15 13 16 11 17 10 18 12 20 4 22 21 24 18 26
REMARK H PARENT 10 19 12 21 4 23 21 25 18 27
REMARK Flexibility Score: inf
ROOT
ATOM      1  C   UNL     1      17.467   2.589  79.619  1.00  0.00     0.180 A 
ATOM      2  C   UNL     1      16.835   1.350  79.825  1.00  0.00     0.208 A 
ATOM      3  C   UNL     1      16.088   1.153  80.998  1.00  0.00     0.238 A 
ATOM      4  O   UNL     1      15.480   0.061  81.151  1.00  0.00    -0.285 OA
ATOM      5  C   UNL     1      15.997   2.191  81.957  1.00  0.00     0.111 A 
ATOM      6  C   UNL     1      15.302   2.086  83.199  1.00  0.00     0.134 A 
ATOM      7  C   UNL     1      15.167   3.218  84.012  1.00  0.00     0.093 A 
ATOM      8  C   UNL     1      15.758   4.434  83.659  1.00  0.00     0.123 A 
ATOM      9  C   UNL     1      16.490   4.529  82.478  1.00  0.00     0.094 A 
ATOM     10  C   UNL     1      16.611   3.426  81.628  1.00  0.00     0.146 A 
ATOM     11  O   UNL     1      17.308   3.564  80.506  1.00  0.00    -0.452 OA
ENDROOT
BRANCH   1  12
ATOM     12  C   UNL     1      18.291   2.862  78.420  1.00  0.00     0.025 A 
ATOM     13  C   UNL     1      19.585   2.325  78.334  1.00  0.00     0.016 A 
ATOM     14  C   UNL     1      20.373   2.553  77.202  1.00  0.00     0.051 A 
ATOM     15  C   UNL     1      19.874   3.306  76.134  1.00  0.00     0.157 A 
ATOM     16  C   UNL     1      17.784   3.601  77.336  1.00  0.00     0.062 A 
ATOM     17  C   UNL     1      18.572   3.829  76.198  1.00  0.00     0.158 A 
BRANCH  15  18
ATOM     18  O   UNL     1      20.684   3.518  75.019  1.00  0.00    -0.504 OA
ATOM     19  H   UNL     1      20.985   4.445  74.741  1.00  0.00     0.293 HD
ENDBRANCH  15  18
BRANCH  17  20
ATOM     20  O   UNL     1      18.064   4.568  75.131  1.00  0.00    -0.504 OA
ATOM     21  H   UNL     1      18.155   5.577  75.092  1.00  0.00     0.293 HD
ENDBRANCH  17  20
ENDBRANCH   1  12
BRANCH   2  22
ATOM     22  O   UNL     1      16.920   0.348  78.855  1.00  0.00    -0.502 OA
ATOM     23  H   UNL     1      16.764  -0.631  79.069  1.00  0.00     0.293 HD
ENDBRANCH   2  22
BRANCH   6  24
ATOM     24  O   UNL     1      14.752   0.898  83.689  1.00  0.00    -0.507 OA
ATOM     25  H   UNL     1      13.782   0.772  83.935  1.00  0.00     0.293 HD
ENDBRANCH   6  24
BRANCH   8  26
ATOM     26  O   UNL     1      15.632   5.551  84.481  1.00  0.00    -0.508 OA
ATOM     27  H   UNL     1      15.596   6.489  84.101  1.00  0.00     0.293 HD
ENDBRANCH   8  26
TORSDOF 6
ENDMDL
MODEL 9
REMARK VINA RESULT:    -7.503      2.923      7.861
REMARK INTER + INTRA:          -9.344
REMARK INTER:                  -9.010
REMARK INTRA:                  -0.334
REMARK UNBOUND:                -0.306
REMARK SMILES O=c1c(O)c(-c2ccc(O)c(O)c2)oc2cc(O)cc(O)c12
REMARK SMILES IDX 5 1 3 2 2 3 1 4 22 5 20 6 19 7 17 8 16 9 15 10 14 11 6 12
REMARK SMILES IDX 7 13 8 14 9 15 13 16 11 17 10 18 12 20 4 22 21 24 18 26
REMARK H PARENT 10 19 12 21 4 23 21 25 18 27
REMARK Flexibility Score: inf
ROOT
ATOM      1  C   UNL     1      17.465   3.561  78.701  1.00  0.00     0.180 A 
ATOM      2  C   UNL     1      17.579   2.611  79.731  1.00  0.00     0.208 A 
ATOM      3  C   UNL     1      17.084   2.928  81.007  1.00  0.00     0.238 A 
ATOM      4  O   UNL     1      17.141   2.054  81.911  1.00  0.00    -0.285 OA
ATOM      5  C   UNL     1      16.498   4.195  81.239  1.00  0.00     0.111 A 
ATOM      6  C   UNL     1      16.001   4.638  82.502  1.00  0.00     0.134 A 
ATOM      7  C   UNL     1      15.322   5.860  82.588  1.00  0.00     0.093 A 
ATOM      8  C   UNL     1      15.180   6.685  81.469  1.00  0.00     0.123 A 
ATOM      9  C   UNL     1      15.715   6.289  80.246  1.00  0.00     0.094 A 
ATOM     10  C   UNL     1      16.365   5.058  80.122  1.00  0.00     0.146 A 
ATOM     11  O   UNL     1      16.850   4.715  78.934  1.00  0.00    -0.452 OA
ENDROOT
BRANCH   1  12
ATOM     12  C   UNL     1      17.984   3.309  77.337  1.00  0.00     0.025 A 
ATOM     13  C   UNL     1      17.122   2.803  76.353  1.00  0.00     0.016 A 
ATOM     14  C   UNL     1      17.585   2.577  75.053  1.00  0.00     0.051 A 
ATOM     15  C   UNL     1      18.910   2.869  74.715  1.00  0.00     0.157 A 
ATOM     16  C   UNL     1      19.311   3.622  76.989  1.00  0.00     0.062 A 
ATOM     17  C   UNL     1      19.777   3.398  75.686  1.00  0.00     0.158 A 
BRANCH  15  18
ATOM     18  O   UNL     1      19.344   2.631  73.411  1.00  0.00    -0.504 OA
ATOM     19  H   UNL     1      20.261   2.248  73.211  1.00  0.00     0.293 HD
ENDBRANCH  15  18
BRANCH  17  20
ATOM     20  O   UNL     1      21.095   3.705  75.351  1.00  0.00    -0.504 OA
ATOM     21  H   UNL     1      21.611   3.161  74.669  1.00  0.00     0.293 HD
ENDBRANCH  17  20
ENDBRANCH   1  12
BRANCH   2  22
ATOM     22  O   UNL     1      18.142   1.359  79.473  1.00  0.00    -0.502 OA
ATOM     23  H   UNL     1      18.756   0.893  80.131  1.00  0.00     0.293 HD
ENDBRANCH   2  22
BRANCH   6  24
ATOM     24  O   UNL     1      16.169   3.933  83.698  1.00  0.00    -0.507 OA
ATOM     25  H   UNL     1      17.053   3.592  84.044  1.00  0.00     0.293 HD
ENDBRANCH   6  24
BRANCH   8  26
ATOM     26  O   UNL     1      14.518   7.906  81.567  1.00  0.00    -0.508 OA
ATOM     27  H   UNL     1      13.711   8.120  80.993  1.00  0.00     0.293 HD
ENDBRANCH   8  26
TORSDOF 6
ENDMDL
