MODEL 1
REMARK VINA RESULT:    -3.315      0.000      0.000
REMARK INTER + INTRA:          -4.568
REMARK INTER:                  -4.187
REMARK INTRA:                  -0.381
REMARK UNBOUND:                -0.381
REMARK SMILES O=C(C=Cc1ccc(O)cc1)c1ccc(O)cc1O
REMARK SMILES IDX 4 1 3 2 5 3 6 4 7 5 8 6 11 7 10 8 9 9 2 11 1 12 12 13 18 14
REMARK SMILES IDX 13 15 17 16 14 17 15 18 19 19 16 21
REMARK H PARENT 9 10 19 20 16 22
REMARK Flexibility Score: inf
ROOT
ATOM      1  C   UNL     1       2.197 -15.125  11.147  1.00  0.00     0.012 C 
ATOM      2  C   UNL     1       3.148 -14.935  12.073  1.00  0.00     0.053 C 
ENDROOT
BRANCH   1   3
ATOM      3  C   UNL     1       2.440 -15.032   9.686  1.00  0.00    -0.025 A 
ATOM      4  C   UNL     1       1.337 -15.067   8.816  1.00  0.00     0.012 A 
ATOM      5  C   UNL     1       1.519 -14.993   7.433  1.00  0.00     0.047 A 
ATOM      6  C   UNL     1       2.809 -14.893   6.897  1.00  0.00     0.115 A 
ATOM      7  C   UNL     1       3.736 -14.948   9.138  1.00  0.00     0.012 A 
ATOM      8  C   UNL     1       3.914 -14.874   7.753  1.00  0.00     0.047 A 
BRANCH   6   9
ATOM      9  O   UNL     1       3.004 -14.818   5.519  1.00  0.00    -0.508 OA
ATOM     10  H   UNL     1       3.088 -15.653   4.951  1.00  0.00     0.293 HD
ENDBRANCH   6   9
ENDBRANCH   1   3
BRANCH   2  11
ATOM     11  C   UNL     1       2.863 -15.017  13.524  1.00  0.00     0.189 C 
ATOM     12  O   UNL     1       1.667 -15.073  13.923  1.00  0.00    -0.289 OA
BRANCH  11  13
ATOM     13  C   UNL     1       3.965 -15.027  14.519  1.00  0.00     0.064 A 
ATOM     14  C   UNL     1       3.690 -14.986  15.905  1.00  0.00     0.130 A 
ATOM     15  C   UNL     1       5.305 -15.100  14.093  1.00  0.00     0.020 A 
ATOM     16  C   UNL     1       4.746 -15.013  16.829  1.00  0.00     0.093 A 
ATOM     17  C   UNL     1       6.347 -15.124  15.022  1.00  0.00     0.047 A 
ATOM     18  C   UNL     1       6.072 -15.080  16.390  1.00  0.00     0.119 A 
BRANCH  14  19
ATOM     19  O   UNL     1       2.375 -14.901  16.363  1.00  0.00    -0.507 OA
ATOM     20  H   UNL     1       1.917 -14.008  16.503  1.00  0.00     0.293 HD
ENDBRANCH  14  19
BRANCH  18  21
ATOM     21  O   UNL     1       7.124 -15.106  17.303  1.00  0.00    -0.508 OA
ATOM     22  H   UNL     1       7.231 -14.384  18.006  1.00  0.00     0.293 HD
ENDBRANCH  18  21
ENDBRANCH  11  13
ENDBRANCH   2  11
TORSDOF 6
ENDMDL
MODEL 2
REMARK VINA RESULT:    -2.607      1.561      7.803
REMARK INTER + INTRA:          -3.674
REMARK INTER:                  -3.279
REMARK INTRA:                  -0.395
REMARK UNBOUND:                -0.381
REMARK SMILES O=C(C=Cc1ccc(O)cc1)c1ccc(O)cc1O
REMARK SMILES IDX 4 1 3 2 5 3 6 4 7 5 8 6 11 7 10 8 9 9 2 11 1 12 12 13 18 14
REMARK SMILES IDX 13 15 17 16 14 17 15 18 19 19 16 21
REMARK H PARENT 9 10 19 20 16 22
REMARK Flexibility Score: inf
ROOT
ATOM      1  C   UNL     1       2.452 -14.995  12.365  1.00  0.00     0.012 C 
ATOM      2  C   UNL     1       3.036 -14.865  11.166  1.00  0.00     0.053 C 
ENDROOT
BRANCH   1   3
ATOM      3  C   UNL     1       3.183 -14.901  13.653  1.00  0.00    -0.025 A 
ATOM      4  C   UNL     1       4.571 -15.125  13.657  1.00  0.00     0.012 A 
ATOM      5  C   UNL     1       5.299 -15.056  14.847  1.00  0.00     0.047 A 
ATOM      6  C   UNL     1       4.649 -14.771  16.055  1.00  0.00     0.115 A 
ATOM      7  C   UNL     1       2.535 -14.630  14.875  1.00  0.00     0.012 A 
ATOM      8  C   UNL     1       3.267 -14.562  16.064  1.00  0.00     0.047 A 
BRANCH   6   9
ATOM      9  O   UNL     1       5.365 -14.699  17.248  1.00  0.00    -0.508 OA
ATOM     10  H   UNL     1       5.339 -15.451  17.926  1.00  0.00     0.293 HD
ENDBRANCH   6   9
ENDBRANCH   1   3
BRANCH   2  11
ATOM     11  C   UNL     1       2.275 -14.984   9.901  1.00  0.00     0.189 C 
ATOM     12  O   UNL     1       1.016 -15.060   9.934  1.00  0.00    -0.289 OA
BRANCH  11  13
ATOM     13  C   UNL     1       2.973 -15.026   8.591  1.00  0.00     0.064 A 
ATOM     14  C   UNL     1       2.246 -14.971   7.381  1.00  0.00     0.130 A 
ATOM     15  C   UNL     1       4.378 -15.099   8.539  1.00  0.00     0.020 A 
ATOM     16  C   UNL     1       2.926 -14.994   6.153  1.00  0.00     0.093 A 
ATOM     17  C   UNL     1       5.044 -15.124   7.311  1.00  0.00     0.047 A 
ATOM     18  C   UNL     1       4.322 -15.072   6.117  1.00  0.00     0.119 A 
BRANCH  14  19
ATOM     19  O   UNL     1       0.852 -14.910   7.395  1.00  0.00    -0.507 OA
ATOM     20  H   UNL     1       0.282 -15.729   7.223  1.00  0.00     0.293 HD
ENDBRANCH  14  19
BRANCH  18  21
ATOM     21  O   UNL     1       5.002 -15.098   4.901  1.00  0.00    -0.508 OA
ATOM     22  H   UNL     1       4.509 -15.199   4.021  1.00  0.00     0.293 HD
ENDBRANCH  18  21
ENDBRANCH  11  13
ENDBRANCH   2  11
TORSDOF 6
ENDMDL
MODEL 3
REMARK VINA RESULT:    -0.640      1.962      3.294
REMARK INTER + INTRA:          -1.189
REMARK INTER:                  -0.703
REMARK INTRA:                  -0.486
REMARK UNBOUND:                -0.381
REMARK SMILES O=C(C=Cc1ccc(O)cc1)c1ccc(O)cc1O
REMARK SMILES IDX 4 1 3 2 5 3 6 4 7 5 8 6 11 7 10 8 9 9 2 11 1 12 12 13 18 14
REMARK SMILES IDX 13 15 17 16 14 17 15 18 19 19 16 21
REMARK H PARENT 9 10 19 20 16 22
REMARK Flexibility Score: inf
ROOT
ATOM      1  C   UNL     1       3.275 -14.417  10.537  1.00  0.00     0.012 C 
ATOM      2  C   UNL     1       2.709 -14.988  11.610  1.00  0.00     0.053 C 
ENDROOT
BRANCH   1   3
ATOM      3  C   UNL     1       2.788 -14.610   9.149  1.00  0.00    -0.025 A 
ATOM      4  C   UNL     1       3.682 -14.394   8.086  1.00  0.00     0.012 A 
ATOM      5  C   UNL     1       3.265 -14.553   6.762  1.00  0.00     0.047 A 
ATOM      6  C   UNL     1       1.944 -14.922   6.480  1.00  0.00     0.115 A 
ATOM      7  C   UNL     1       1.456 -14.966   8.855  1.00  0.00     0.012 A 
ATOM      8  C   UNL     1       1.043 -15.125   7.529  1.00  0.00     0.047 A 
BRANCH   6   9
ATOM      9  O   UNL     1       1.516 -15.085   5.164  1.00  0.00    -0.508 OA
ATOM     10  H   UNL     1       0.630 -14.711   4.846  1.00  0.00     0.293 HD
ENDBRANCH   6   9
ENDBRANCH   1   3
BRANCH   2  11
ATOM     11  C   UNL     1       3.234 -14.787  12.980  1.00  0.00     0.189 C 
ATOM     12  O   UNL     1       4.420 -15.125  13.250  1.00  0.00    -0.289 OA
BRANCH  11  13
ATOM     13  C   UNL     1       2.383 -14.202  14.046  1.00  0.00     0.064 A 
ATOM     14  C   UNL     1       2.726 -14.347  15.409  1.00  0.00     0.130 A 
ATOM     15  C   UNL     1       1.227 -13.471  13.709  1.00  0.00     0.020 A 
ATOM     16  C   UNL     1       1.917 -13.771  16.401  1.00  0.00     0.093 A 
ATOM     17  C   UNL     1       0.427 -12.905  14.705  1.00  0.00     0.047 A 
ATOM     18  C   UNL     1       0.769 -13.052  16.051  1.00  0.00     0.119 A 
BRANCH  14  19
ATOM     19  O   UNL     1       3.857 -15.074  15.780  1.00  0.00    -0.507 OA
ATOM     20  H   UNL     1       4.733 -14.988  15.277  1.00  0.00     0.293 HD
ENDBRANCH  14  19
BRANCH  18  21
ATOM     21  O   UNL     1      -0.039 -12.480  17.031  1.00  0.00    -0.508 OA
ATOM     22  H   UNL     1       0.350 -12.127  17.898  1.00  0.00     0.293 HD
ENDBRANCH  18  21
ENDBRANCH  11  13
ENDBRANCH   2  11
TORSDOF 6
ENDMDL
