MODEL 1
REMARK VINA RESULT:    -6.341      0.000      0.000
REMARK INTER + INTRA:          -6.341
REMARK INTER:                  -6.341
REMARK INTRA:                   0.000
REMARK UNBOUND:                 0.000
REMARK SMILES CC(C)=C1CC[C@@H](C)CC1=O
REMARK SMILES IDX 8 1 7 2 6 3 5 4 4 5 2 6 1 7 3 8 10 9 11 10 9 11
REMARK H PARENT
REMARK Flexibility Score: inf
ROOT
ATOM      1  C   UNL     1     -14.992 -12.497  28.728  1.00  0.00     0.008 C 
ATOM      2  C   UNL     1     -13.977 -13.607  29.025  1.00  0.00    -0.006 C 
ATOM      3  C   UNL     1     -13.925 -14.617  27.867  1.00  0.00     0.008 C 
ATOM      4  C   UNL     1     -12.842 -15.678  28.102  1.00  0.00     0.039 C 
ATOM      5  C   UNL     1     -12.971 -16.353  29.461  1.00  0.00    -0.006 C 
ATOM      6  C   UNL     1     -12.603 -17.655  29.644  1.00  0.00    -0.070 C 
ATOM      7  C   UNL     1     -12.037 -18.477  28.509  1.00  0.00     0.039 C 
ATOM      8  C   UNL     1     -12.779 -18.352  30.974  1.00  0.00     0.039 C 
ATOM      9  C   UNL     1     -13.406 -15.477  30.590  1.00  0.00     0.159 C 
ATOM     10  O   UNL     1     -13.003 -15.677  31.767  1.00  0.00    -0.295 OA
ATOM     11  C   UNL     1     -14.337 -14.327  30.334  1.00  0.00     0.084 C 
ENDROOT
TORSDOF 0
ENDMDL
MODEL 2
REMARK VINA RESULT:    -6.183      1.561      4.401
REMARK INTER + INTRA:          -6.183
REMARK INTER:                  -6.183
REMARK INTRA:                   0.000
REMARK UNBOUND:                 0.000
REMARK SMILES CC(C)=C1CC[C@@H](C)CC1=O
REMARK SMILES IDX 8 1 7 2 6 3 5 4 4 5 2 6 1 7 3 8 10 9 11 10 9 11
REMARK H PARENT
REMARK Flexibility Score: inf
ROOT
ATOM      1  C   UNL     1     -12.232 -20.524  31.570  1.00  0.00     0.008 C 
ATOM      2  C   UNL     1     -12.898 -19.432  30.727  1.00  0.00    -0.006 C 
ATOM      3  C   UNL     1     -12.516 -19.585  29.246  1.00  0.00     0.008 C 
ATOM      4  C   UNL     1     -13.254 -18.561  28.372  1.00  0.00     0.039 C 
ATOM      5  C   UNL     1     -13.084 -17.134  28.875  1.00  0.00    -0.006 C 
ATOM      6  C   UNL     1     -13.066 -16.076  28.012  1.00  0.00    -0.070 C 
ATOM      7  C   UNL     1     -13.230 -16.275  26.523  1.00  0.00     0.039 C 
ATOM      8  C   UNL     1     -12.842 -14.660  28.494  1.00  0.00     0.039 C 
ATOM      9  C   UNL     1     -13.060 -16.960  30.357  1.00  0.00     0.159 C 
ATOM     10  O   UNL     1     -13.515 -15.919  30.902  1.00  0.00    -0.295 OA
ATOM     11  C   UNL     1     -12.491 -18.040  31.233  1.00  0.00     0.084 C 
ENDROOT
TORSDOF 0
ENDMDL
MODEL 3
REMARK VINA RESULT:    -6.106      1.913      4.742
REMARK INTER + INTRA:          -6.106
REMARK INTER:                  -6.106
REMARK INTRA:                   0.000
REMARK UNBOUND:                 0.000
REMARK SMILES CC(C)=C1CC[C@@H](C)CC1=O
REMARK SMILES IDX 8 1 7 2 6 3 5 4 4 5 2 6 1 7 3 8 10 9 11 10 9 11
REMARK H PARENT
REMARK Flexibility Score: inf
ROOT
ATOM      1  C   UNL     1     -12.441 -19.881  31.612  1.00  0.00     0.008 C 
ATOM      2  C   UNL     1     -12.222 -18.660  30.713  1.00  0.00    -0.006 C 
ATOM      3  C   UNL     1     -13.052 -17.465  31.212  1.00  0.00     0.008 C 
ATOM      4  C   UNL     1     -12.767 -16.205  30.384  1.00  0.00     0.039 C 
ATOM      5  C   UNL     1     -12.923 -16.442  28.888  1.00  0.00    -0.006 C 
ATOM      6  C   UNL     1     -13.347 -15.448  28.053  1.00  0.00    -0.070 C 
ATOM      7  C   UNL     1     -13.663 -14.065  28.577  1.00  0.00     0.039 C 
ATOM      8  C   UNL     1     -13.559 -15.685  26.576  1.00  0.00     0.039 C 
ATOM      9  C   UNL     1     -12.475 -17.774  28.384  1.00  0.00     0.159 C 
ATOM     10  O   UNL     1     -11.988 -17.908  27.230  1.00  0.00    -0.295 OA
ATOM     11  C   UNL     1     -12.596 -18.988  29.260  1.00  0.00     0.084 C 
ENDROOT
TORSDOF 0
ENDMDL
MODEL 4
REMARK VINA RESULT:    -6.024      1.967      3.868
REMARK INTER + INTRA:          -6.024
REMARK INTER:                  -6.024
REMARK INTRA:                   0.000
REMARK UNBOUND:                 0.000
REMARK SMILES CC(C)=C1CC[C@@H](C)CC1=O
REMARK SMILES IDX 8 1 7 2 6 3 5 4 4 5 2 6 1 7 3 8 10 9 11 10 9 11
REMARK H PARENT
REMARK Flexibility Score: inf
ROOT
ATOM      1  C   UNL     1     -11.050 -17.390  26.008  1.00  0.00     0.008 C 
ATOM      2  C   UNL     1     -11.251 -16.614  27.313  1.00  0.00    -0.006 C 
ATOM      3  C   UNL     1     -11.169 -17.559  28.523  1.00  0.00     0.008 C 
ATOM      4  C   UNL     1     -11.266 -16.785  29.844  1.00  0.00     0.039 C 
ATOM      5  C   UNL     1     -12.484 -15.872  29.897  1.00  0.00    -0.006 C 
ATOM      6  C   UNL     1     -13.121 -15.608  31.075  1.00  0.00    -0.070 C 
ATOM      7  C   UNL     1     -12.634 -16.197  32.380  1.00  0.00     0.039 C 
ATOM      8  C   UNL     1     -14.364 -14.749  31.133  1.00  0.00     0.039 C 
ATOM      9  C   UNL     1     -12.857 -15.201  28.616  1.00  0.00     0.159 C 
ATOM     10  O   UNL     1     -13.380 -14.055  28.606  1.00  0.00    -0.295 OA
ATOM     11  C   UNL     1     -12.605 -15.889  27.305  1.00  0.00     0.084 C 
ENDROOT
TORSDOF 0
ENDMDL
MODEL 5
REMARK VINA RESULT:    -5.963      1.855      3.731
REMARK INTER + INTRA:          -5.963
REMARK INTER:                  -5.963
REMARK INTRA:                   0.000
REMARK UNBOUND:                 0.000
REMARK SMILES CC(C)=C1CC[C@@H](C)CC1=O
REMARK SMILES IDX 8 1 7 2 6 3 5 4 4 5 2 6 1 7 3 8 10 9 11 10 9 11
REMARK H PARENT
REMARK Flexibility Score: inf
ROOT
ATOM      1  C   UNL     1     -10.908 -17.366  26.280  1.00  0.00     0.008 C 
ATOM      2  C   UNL     1     -11.993 -17.182  27.346  1.00  0.00    -0.006 C 
ATOM      3  C   UNL     1     -12.017 -15.730  27.849  1.00  0.00     0.008 C 
ATOM      4  C   UNL     1     -13.164 -15.503  28.842  1.00  0.00     0.039 C 
ATOM      5  C   UNL     1     -13.160 -16.515  29.980  1.00  0.00    -0.006 C 
ATOM      6  C   UNL     1     -13.602 -16.181  31.228  1.00  0.00    -0.070 C 
ATOM      7  C   UNL     1     -14.130 -14.797  31.529  1.00  0.00     0.039 C 
ATOM      8  C   UNL     1     -13.551 -17.159  32.379  1.00  0.00     0.039 C 
ATOM      9  C   UNL     1     -12.759 -17.907  29.618  1.00  0.00     0.159 C 
ATOM     10  O   UNL     1     -13.250 -18.905  30.211  1.00  0.00    -0.295 OA
ATOM     11  C   UNL     1     -11.758 -18.141  28.523  1.00  0.00     0.084 C 
ENDROOT
TORSDOF 0
ENDMDL
MODEL 6
REMARK VINA RESULT:    -5.899      1.622      4.802
REMARK INTER + INTRA:          -5.899
REMARK INTER:                  -5.899
REMARK INTRA:                   0.000
REMARK UNBOUND:                 0.000
REMARK SMILES CC(C)=C1CC[C@@H](C)CC1=O
REMARK SMILES IDX 8 1 7 2 6 3 5 4 4 5 2 6 1 7 3 8 10 9 11 10 9 11
REMARK H PARENT
REMARK Flexibility Score: inf
ROOT
ATOM      1  C   UNL     1     -12.166 -20.352  31.119  1.00  0.00     0.008 C 
ATOM      2  C   UNL     1     -12.134 -18.836  30.902  1.00  0.00    -0.006 C 
ATOM      3  C   UNL     1     -13.324 -18.164  31.605  1.00  0.00     0.008 C 
ATOM      4  C   UNL     1     -13.253 -16.636  31.485  1.00  0.00     0.039 C 
ATOM      5  C   UNL     1     -13.087 -16.171  30.044  1.00  0.00    -0.006 C 
ATOM      6  C   UNL     1     -13.614 -14.987  29.615  1.00  0.00    -0.070 C 
ATOM      7  C   UNL     1     -14.372 -14.079  30.557  1.00  0.00     0.039 C 
ATOM      8  C   UNL     1     -13.505 -14.542  28.175  1.00  0.00     0.039 C 
ATOM      9  C   UNL     1     -12.221 -17.024  29.176  1.00  0.00     0.159 C 
ATOM     10  O   UNL     1     -11.529 -16.524  28.248  1.00  0.00    -0.295 OA
ATOM     11  C   UNL     1     -12.157 -18.507  29.402  1.00  0.00     0.084 C 
ENDROOT
TORSDOF 0
ENDMDL
MODEL 7
REMARK VINA RESULT:    -5.796      1.975      2.866
REMARK INTER + INTRA:          -5.796
REMARK INTER:                  -5.796
REMARK INTRA:                   0.000
REMARK UNBOUND:                 0.000
REMARK SMILES CC(C)=C1CC[C@@H](C)CC1=O
REMARK SMILES IDX 8 1 7 2 6 3 5 4 4 5 2 6 1 7 3 8 10 9 11 10 9 11
REMARK H PARENT
REMARK Flexibility Score: inf
ROOT
ATOM      1  C   UNL     1     -14.362 -14.767  33.089  1.00  0.00     0.008 C 
ATOM      2  C   UNL     1     -13.491 -15.629  32.170  1.00  0.00    -0.006 C 
ATOM      3  C   UNL     1     -13.638 -15.180  30.707  1.00  0.00     0.008 C 
ATOM      4  C   UNL     1     -12.697 -15.966  29.785  1.00  0.00     0.039 C 
ATOM      5  C   UNL     1     -12.842 -17.473  29.950  1.00  0.00    -0.006 C 
ATOM      6  C   UNL     1     -12.644 -18.323  28.901  1.00  0.00    -0.070 C 
ATOM      7  C   UNL     1     -12.256 -17.807  27.534  1.00  0.00     0.039 C 
ATOM      8  C   UNL     1     -12.840 -19.816  29.039  1.00  0.00     0.039 C 
ATOM      9  C   UNL     1     -13.093 -17.959  31.340  1.00  0.00     0.159 C 
ATOM     10  O   UNL     1     -12.657 -19.074  31.732  1.00  0.00    -0.295 OA
ATOM     11  C   UNL     1     -13.873 -17.111  32.304  1.00  0.00     0.084 C 
ENDROOT
TORSDOF 0
ENDMDL
MODEL 8
REMARK VINA RESULT:    -5.756      1.674      2.493
REMARK INTER + INTRA:          -5.756
REMARK INTER:                  -5.756
REMARK INTRA:                   0.000
REMARK UNBOUND:                 0.000
REMARK SMILES CC(C)=C1CC[C@@H](C)CC1=O
REMARK SMILES IDX 8 1 7 2 6 3 5 4 4 5 2 6 1 7 3 8 10 9 11 10 9 11
REMARK H PARENT
REMARK Flexibility Score: inf
ROOT
ATOM      1  C   UNL     1     -14.917 -12.633  28.998  1.00  0.00     0.008 C 
ATOM      2  C   UNL     1     -14.365 -14.055  29.140  1.00  0.00    -0.006 C 
ATOM      3  C   UNL     1     -14.048 -14.368  30.612  1.00  0.00     0.008 C 
ATOM      4  C   UNL     1     -13.589 -15.821  30.787  1.00  0.00     0.039 C 
ATOM      5  C   UNL     1     -12.444 -16.188  29.852  1.00  0.00    -0.006 C 
ATOM      6  C   UNL     1     -11.495 -17.099  30.218  1.00  0.00    -0.070 C 
ATOM      7  C   UNL     1     -11.549 -17.793  31.559  1.00  0.00     0.039 C 
ATOM      8  C   UNL     1     -10.323 -17.430  29.322  1.00  0.00     0.039 C 
ATOM      9  C   UNL     1     -12.494 -15.588  28.486  1.00  0.00     0.159 C 
ATOM     10  O   UNL     1     -12.040 -16.201  27.484  1.00  0.00    -0.295 OA
ATOM     11  C   UNL     1     -13.101 -14.229  28.284  1.00  0.00     0.084 C 
ENDROOT
TORSDOF 0
ENDMDL
MODEL 9
REMARK VINA RESULT:    -5.269      2.191      3.534
REMARK INTER + INTRA:          -5.269
REMARK INTER:                  -5.269
REMARK INTRA:                   0.000
REMARK UNBOUND:                 0.000
REMARK SMILES CC(C)=C1CC[C@@H](C)CC1=O
REMARK SMILES IDX 8 1 7 2 6 3 5 4 4 5 2 6 1 7 3 8 10 9 11 10 9 11
REMARK H PARENT
REMARK Flexibility Score: inf
ROOT
ATOM      1  C   UNL     1     -13.249 -16.251  26.373  1.00  0.00     0.008 C 
ATOM      2  C   UNL     1     -13.074 -16.689  27.831  1.00  0.00    -0.006 C 
ATOM      3  C   UNL     1     -12.839 -15.470  28.738  1.00  0.00     0.008 C 
ATOM      4  C   UNL     1     -12.762 -15.881  30.214  1.00  0.00     0.039 C 
ATOM      5  C   UNL     1     -11.752 -16.994  30.459  1.00  0.00    -0.006 C 
ATOM      6  C   UNL     1     -11.062 -17.080  31.633  1.00  0.00    -0.070 C 
ATOM      7  C   UNL     1     -11.283 -16.083  32.748  1.00  0.00     0.039 C 
ATOM      8  C   UNL     1     -10.016 -18.146  31.866  1.00  0.00     0.039 C 
ATOM      9  C   UNL     1     -11.655 -18.037  29.395  1.00  0.00     0.159 C 
ATOM     10  O   UNL     1     -11.376 -19.234  29.674  1.00  0.00    -0.295 OA
ATOM     11  C   UNL     1     -11.899 -17.671  27.958  1.00  0.00     0.084 C 
ENDROOT
TORSDOF 0
ENDMDL
