MODEL 1
REMARK VINA RESULT:    -2.107      0.000      0.000
REMARK INTER + INTRA:          -2.731
REMARK INTER:                  -2.846
REMARK INTRA:                   0.115
REMARK UNBOUND:                 0.115
REMARK SMILES C=C(C)[C@@H]1CC[C@H](C)C2=C(C1)[C@H](C)CC2
REMARK SMILES IDX 10 1 9 2 15 3 14 4 12 5 13 6 7 7 8 8 6 9 11 11 4 12 5 13
REMARK SMILES IDX 2 15 1 16 3 17
REMARK H PARENT
REMARK Flexibility Score: 80.00
ROOT
ATOM      1  C   UNL     1     167.466 174.187 138.144  1.00  0.00    -0.067 C 
ATOM      2  C   UNL     1     166.323 173.721 138.678  1.00  0.00    -0.068 C 
ATOM      3  C   UNL     1     165.639 174.792 139.473  1.00  0.00     0.032 C 
ATOM      4  C   UNL     1     166.391 176.075 139.132  1.00  0.00     0.012 C 
ATOM      5  C   UNL     1     167.712 175.621 138.505  1.00  0.00     0.012 C 
ATOM      6  C   UNL     1     168.874 175.743 139.499  1.00  0.00     0.012 C 
ENDROOT
BRANCH   2   7
ATOM      7  C   UNL     1     165.880 172.253 138.723  1.00  0.00     0.012 C 
ATOM      8  C   UNL     1     164.469 172.115 139.320  1.00  0.00     0.012 C 
BRANCH   7   9
ATOM      9  C   UNL     1     165.920 171.575 137.336  1.00  0.00     0.008 CG0
ATOM     10  G   UNL     1     167.332 171.126 136.919  1.00  0.00     0.000 G0
ENDBRANCH   7   9
ENDBRANCH   2   7
BRANCH   1  11
ATOM     11  C   UNL     1     168.435 173.416 137.269  1.00  0.00     0.039 C 
BRANCH  11  12
ATOM     12  C   UNL     1     168.477 171.915 137.618  1.00  0.00     0.018 C 
BRANCH  12  13
ATOM     13  C   UNL     1     167.348 171.124 136.915  1.00  0.00     0.009 CG0
ATOM     14  G   UNL     1     165.923 171.538 137.322  1.00  0.00     0.000 G0
ENDBRANCH  12  13
BRANCH  12  15
ATOM     15  C   UNL     1     169.836 171.309 137.283  1.00  0.00    -0.077 C 
ATOM     16  C   UNL     1     170.917 172.087 137.100  1.00  0.00     0.008 C 
ATOM     17  C   UNL     1     169.993 169.814 137.164  1.00  0.00     0.039 C 
ENDBRANCH  12  15
ENDBRANCH  11  12
ENDBRANCH   1  11
TORSDOF 1
ENDMDL
MODEL 2
REMARK VINA RESULT:    -1.949     12.495     14.968
REMARK INTER + INTRA:          -2.517
REMARK INTER:                  -2.998
REMARK INTRA:                   0.480
REMARK UNBOUND:                 0.115
REMARK SMILES C=C(C)[C@@H]1CC[C@H](C)C2=C(C1)[C@H](C)CC2
REMARK SMILES IDX 10 1 9 2 15 3 14 4 12 5 13 6 7 7 8 8 6 9 11 11 4 12 5 13
REMARK SMILES IDX 2 15 1 16 3 17
REMARK H PARENT
REMARK Flexibility Score: 80.00
ROOT
ATOM      1  C   UNL     1     164.259 157.892 137.978  1.00  0.00    -0.067 C 
ATOM      2  C   UNL     1     165.461 158.325 138.398  1.00  0.00    -0.068 C 
ATOM      3  C   UNL     1     166.186 157.236 139.130  1.00  0.00     0.032 C 
ATOM      4  C   UNL     1     165.366 155.976 138.870  1.00  0.00     0.012 C 
ATOM      5  C   UNL     1     164.006 156.468 138.369  1.00  0.00     0.012 C 
ATOM      6  C   UNL     1     162.941 156.383 139.471  1.00  0.00     0.012 C 
ENDROOT
BRANCH   2   7
ATOM      7  C   UNL     1     165.951 159.778 138.392  1.00  0.00     0.012 C 
ATOM      8  C   UNL     1     167.482 159.850 138.273  1.00  0.00     0.012 C 
BRANCH   7   9
ATOM      9  C   UNL     1     165.308 160.620 137.268  1.00  0.00     0.008 CG0
ATOM     10  G   UNL     1     163.895 161.124 137.616  1.00  0.00     0.000 G0
ENDBRANCH   7   9
ENDBRANCH   2   7
BRANCH   1  11
ATOM     11  C   UNL     1     163.235 158.689 137.196  1.00  0.00     0.039 C 
BRANCH  11  12
ATOM     12  C   UNL     1     162.859 160.012 137.893  1.00  0.00     0.018 C 
BRANCH  12  13
ATOM     13  C   UNL     1     163.894 161.128 137.617  1.00  0.00     0.009 CG0
ATOM     14  G   UNL     1     165.307 160.625 137.271  1.00  0.00     0.000 G0
ENDBRANCH  12  13
BRANCH  12  15
ATOM     15  C   UNL     1     161.462 160.472 137.487  1.00  0.00    -0.077 C 
ATOM     16  C   UNL     1     160.408 159.642 137.565  1.00  0.00     0.008 C 
ATOM     17  C   UNL     1     161.238 161.881 137.000  1.00  0.00     0.039 C 
ENDBRANCH  12  15
ENDBRANCH  11  12
ENDBRANCH   1  11
TORSDOF 1
ENDMDL
MODEL 3
REMARK VINA RESULT:    -1.832     13.427     15.507
REMARK INTER + INTRA:          -2.360
REMARK INTER:                  -2.564
REMARK INTRA:                   0.204
REMARK UNBOUND:                 0.115
REMARK SMILES C=C(C)[C@@H]1CC[C@H](C)C2=C(C1)[C@H](C)CC2
REMARK SMILES IDX 10 1 9 2 15 3 14 4 12 5 13 6 7 7 8 8 6 9 11 11 4 12 5 13
REMARK SMILES IDX 2 15 1 16 3 17
REMARK H PARENT
REMARK Flexibility Score: 80.00
ROOT
ATOM      1  C   UNL     1     164.039 158.418 140.946  1.00  0.00    -0.067 C 
ATOM      2  C   UNL     1     165.075 157.573 140.793  1.00  0.00    -0.068 C 
ATOM      3  C   UNL     1     165.829 157.427 142.081  1.00  0.00     0.032 C 
ATOM      4  C   UNL     1     164.947 158.098 143.130  1.00  0.00     0.012 C 
ATOM      5  C   UNL     1     163.955 158.957 142.342  1.00  0.00     0.012 C 
ATOM      6  C   UNL     1     164.345 160.440 142.380  1.00  0.00     0.012 C 
ENDROOT
BRANCH   2   7
ATOM      7  C   UNL     1     165.608 157.028 139.463  1.00  0.00     0.012 C 
ATOM      8  C   UNL     1     166.691 155.960 139.691  1.00  0.00     0.012 C 
BRANCH   7   9
ATOM      9  C   UNL     1     164.493 156.447 138.567  1.00  0.00     0.008 CG0
ATOM     10  G   UNL     1     163.724 157.521 137.776  1.00  0.00     0.000 G0
ENDBRANCH   7   9
ENDBRANCH   2   7
BRANCH   1  11
ATOM     11  C   UNL     1     163.037 158.818 139.883  1.00  0.00     0.039 C 
BRANCH  11  12
ATOM     12  C   UNL     1     163.671 158.918 138.481  1.00  0.00     0.018 C 
BRANCH  12  13
ATOM     13  C   UNL     1     163.747 157.542 137.779  1.00  0.00     0.009 CG0
ATOM     14  G   UNL     1     164.480 156.450 138.579  1.00  0.00     0.000 G0
ENDBRANCH  12  13
BRANCH  12  15
ATOM     15  C   UNL     1     162.922 159.919 137.607  1.00  0.00    -0.077 C 
ATOM     16  C   UNL     1     161.719 159.623 137.088  1.00  0.00     0.008 C 
ATOM     17  C   UNL     1     163.521 161.272 137.318  1.00  0.00     0.039 C 
ENDBRANCH  12  15
ENDBRANCH  11  12
ENDBRANCH   1  11
TORSDOF 1
ENDMDL
MODEL 4
REMARK VINA RESULT:    -1.637      3.117      4.525
REMARK INTER + INTRA:          -2.096
REMARK INTER:                  -2.213
REMARK INTRA:                   0.117
REMARK UNBOUND:                 0.115
REMARK SMILES C=C(C)[C@@H]1CC[C@H](C)C2=C(C1)[C@H](C)CC2
REMARK SMILES IDX 10 1 9 2 15 3 14 4 12 5 13 6 7 7 8 8 6 9 11 11 4 12 5 13
REMARK SMILES IDX 2 15 1 16 3 17
REMARK H PARENT
REMARK Flexibility Score: 80.00
ROOT
ATOM      1  C   UNL     1     167.531 174.376 140.305  1.00  0.00    -0.067 C 
ATOM      2  C   UNL     1     168.167 174.020 139.174  1.00  0.00    -0.068 C 
ATOM      3  C   UNL     1     167.830 174.966 138.061  1.00  0.00     0.032 C 
ATOM      4  C   UNL     1     167.099 176.123 138.737  1.00  0.00     0.012 C 
ATOM      5  C   UNL     1     166.681 175.595 140.112  1.00  0.00     0.012 C 
ATOM      6  C   UNL     1     165.190 175.233 140.143  1.00  0.00     0.012 C 
ENDROOT
BRANCH   2   7
ATOM      7  C   UNL     1     168.917 172.704 138.935  1.00  0.00     0.012 C 
ATOM      8  C   UNL     1     169.602 172.695 137.558  1.00  0.00     0.012 C 
BRANCH   7   9
ATOM      9  C   UNL     1     169.964 172.407 140.031  1.00  0.00     0.008 CG0
ATOM     10  G   UNL     1     169.351 171.814 141.313  1.00  0.00     0.000 G0
ENDBRANCH   7   9
ENDBRANCH   2   7
BRANCH   1  11
ATOM     11  C   UNL     1     167.619 173.679 141.647  1.00  0.00     0.039 C 
BRANCH  11  12
ATOM     12  C   UNL     1     167.843 172.160 141.510  1.00  0.00     0.018 C 
BRANCH  12  13
ATOM     13  C   UNL     1     169.336 171.810 141.308  1.00  0.00     0.009 CG0
ATOM     14  G   UNL     1     169.972 172.406 140.039  1.00  0.00     0.000 G0
ENDBRANCH  12  13
BRANCH  12  15
ATOM     15  C   UNL     1     167.280 171.408 142.712  1.00  0.00    -0.077 C 
ATOM     16  C   UNL     1     168.020 170.500 143.371  1.00  0.00     0.008 C 
ATOM     17  C   UNL     1     165.878 171.683 143.191  1.00  0.00     0.039 C 
ENDBRANCH  12  15
ENDBRANCH  11  12
ENDBRANCH   1  11
TORSDOF 1
ENDMDL
MODEL 5
REMARK VINA RESULT:    -1.635      5.084      7.212
REMARK INTER + INTRA:          -2.094
REMARK INTER:                  -2.179
REMARK INTRA:                   0.085
REMARK UNBOUND:                 0.115
REMARK SMILES C=C(C)[C@@H]1CC[C@H](C)C2=C(C1)[C@H](C)CC2
REMARK SMILES IDX 10 1 9 2 15 3 14 4 12 5 13 6 7 7 8 8 6 9 11 11 4 12 5 13
REMARK SMILES IDX 2 15 1 16 3 17
REMARK H PARENT
REMARK Flexibility Score: 80.00
ROOT
ATOM      1  C   UNL     1     173.829 174.436 139.785  1.00  0.00    -0.067 C 
ATOM      2  C   UNL     1     174.718 173.755 140.530  1.00  0.00    -0.068 C 
ATOM      3  C   UNL     1     175.992 174.533 140.669  1.00  0.00     0.032 C 
ATOM      4  C   UNL     1     175.667 175.920 140.122  1.00  0.00     0.012 C 
ATOM      5  C   UNL     1     174.377 175.750 139.317  1.00  0.00     0.012 C 
ATOM      6  C   UNL     1     174.658 175.721 137.809  1.00  0.00     0.012 C 
ENDROOT
BRANCH   2   7
ATOM      7  C   UNL     1     174.597 172.291 140.968  1.00  0.00     0.012 C 
ATOM      8  C   UNL     1     175.814 171.855 141.802  1.00  0.00     0.012 C 
BRANCH   7   9
ATOM      9  C   UNL     1     173.303 172.011 141.763  1.00  0.00     0.008 CG0
ATOM     10  G   UNL     1     172.054 171.891 140.870  1.00  0.00     0.000 G0
ENDBRANCH   7   9
ENDBRANCH   2   7
BRANCH   1  11
ATOM     11  C   UNL     1     172.426 173.992 139.424  1.00  0.00     0.039 C 
BRANCH  11  12
ATOM     12  C   UNL     1     172.273 172.458 139.428  1.00  0.00     0.018 C 
BRANCH  12  13
ATOM     13  C   UNL     1     172.069 171.899 140.856  1.00  0.00     0.009 CG0
ATOM     14  G   UNL     1     173.300 172.012 141.774  1.00  0.00     0.000 G0
ENDBRANCH  12  13
BRANCH  12  15
ATOM     15  C   UNL     1     171.133 172.014 138.517  1.00  0.00    -0.077 C 
ATOM     16  C   UNL     1     171.117 172.345 137.215  1.00  0.00     0.008 C 
ATOM     17  C   UNL     1     170.002 171.181 139.065  1.00  0.00     0.039 C 
ENDBRANCH  12  15
ENDBRANCH  11  12
ENDBRANCH   1  11
TORSDOF 1
ENDMDL
MODEL 6
REMARK VINA RESULT:    -1.621     13.508     15.272
REMARK INTER + INTRA:          -2.074
REMARK INTER:                  -2.227
REMARK INTRA:                   0.152
REMARK UNBOUND:                 0.115
REMARK SMILES C=C(C)[C@@H]1CC[C@H](C)C2=C(C1)[C@H](C)CC2
REMARK SMILES IDX 10 1 9 2 15 3 14 4 12 5 13 6 7 7 8 8 6 9 11 11 4 12 5 13
REMARK SMILES IDX 2 15 1 16 3 17
REMARK H PARENT
REMARK Flexibility Score: 80.00
ROOT
ATOM      1  C   UNL     1     164.558 157.609 140.255  1.00  0.00    -0.067 C 
ATOM      2  C   UNL     1     163.789 157.992 139.220  1.00  0.00    -0.068 C 
ATOM      3  C   UNL     1     164.021 157.103 138.035  1.00  0.00     0.032 C 
ATOM      4  C   UNL     1     164.853 155.942 138.572  1.00  0.00     0.012 C 
ATOM      5  C   UNL     1     165.411 156.425 139.913  1.00  0.00     0.012 C 
ATOM      6  C   UNL     1     166.886 156.829 139.792  1.00  0.00     0.012 C 
ENDROOT
BRANCH   2   7
ATOM      7  C   UNL     1     162.984 159.293 139.126  1.00  0.00     0.012 C 
ATOM      8  C   UNL     1     162.101 159.314 137.867  1.00  0.00     0.012 C 
BRANCH   7   9
ATOM      9  C   UNL     1     162.107 159.543 140.373  1.00  0.00     0.008 CG0
ATOM     10  G   UNL     1     162.885 160.153 141.553  1.00  0.00     0.000 G0
ENDBRANCH   7   9
ENDBRANCH   2   7
BRANCH   1  11
ATOM     11  C   UNL     1     164.606 158.246 141.629  1.00  0.00     0.039 C 
BRANCH  11  12
ATOM     12  C   UNL     1     164.393 159.772 141.579  1.00  0.00     0.018 C 
BRANCH  12  13
ATOM     13  C   UNL     1     162.893 160.148 141.558  1.00  0.00     0.009 CG0
ATOM     14  G   UNL     1     162.095 159.547 140.386  1.00  0.00     0.000 G0
ENDBRANCH  12  13
BRANCH  12  15
ATOM     15  C   UNL     1     165.096 160.466 142.741  1.00  0.00    -0.077 C 
ATOM     16  C   UNL     1     164.396 161.030 143.740  1.00  0.00     0.008 C 
ATOM     17  C   UNL     1     166.602 160.519 142.795  1.00  0.00     0.039 C 
ENDBRANCH  12  15
ENDBRANCH  11  12
ENDBRANCH   1  11
TORSDOF 1
ENDMDL
MODEL 7
REMARK VINA RESULT:    -1.613      2.569      3.296
REMARK INTER + INTRA:          -2.064
REMARK INTER:                  -2.311
REMARK INTRA:                   0.247
REMARK UNBOUND:                 0.115
REMARK SMILES C=C(C)[C@@H]1CC[C@H](C)C2=C(C1)[C@H](C)CC2
REMARK SMILES IDX 10 1 9 2 15 3 14 4 12 5 13 6 7 7 8 8 6 9 11 11 4 12 5 13
REMARK SMILES IDX 2 15 1 16 3 17
REMARK H PARENT
REMARK Flexibility Score: 80.00
ROOT
ATOM      1  C   UNL     1     168.443 173.196 140.832  1.00  0.00    -0.067 C 
ATOM      2  C   UNL     1     167.283 173.845 140.621  1.00  0.00    -0.068 C 
ATOM      3  C   UNL     1     166.468 173.886 141.879  1.00  0.00     0.032 C 
ATOM      4  C   UNL     1     167.412 173.399 142.974  1.00  0.00     0.012 C 
ATOM      5  C   UNL     1     168.566 172.709 142.244  1.00  0.00     0.012 C 
ATOM      6  C   UNL     1     168.436 171.181 142.309  1.00  0.00     0.012 C 
ENDROOT
BRANCH   2   7
ATOM      7  C   UNL     1     166.715 174.262 139.260  1.00  0.00     0.012 C 
ATOM      8  C   UNL     1     165.521 175.218 139.422  1.00  0.00     0.012 C 
BRANCH   7   9
ATOM      9  C   UNL     1     167.775 174.914 138.345  1.00  0.00     0.008 CG0
ATOM     10  G   UNL     1     168.649 173.890 137.599  1.00  0.00     0.000 G0
ENDBRANCH   7   9
ENDBRANCH   2   7
BRANCH   1  11
ATOM     11  C   UNL     1     169.539 172.953 139.814  1.00  0.00     0.039 C 
BRANCH  11  12
ATOM     12  C   UNL     1     168.983 172.611 138.417  1.00  0.00     0.018 C 
BRANCH  12  13
ATOM     13  C   UNL     1     168.654 173.881 137.597  1.00  0.00     0.009 CG0
ATOM     14  G   UNL     1     167.782 174.915 138.333  1.00  0.00     0.000 G0
ENDBRANCH  12  13
BRANCH  12  15
ATOM     15  C   UNL     1     169.945 171.715 137.644  1.00  0.00    -0.077 C 
ATOM     16  C   UNL     1     169.781 170.382 137.617  1.00  0.00     0.008 C 
ATOM     17  C   UNL     1     171.098 172.317 136.882  1.00  0.00     0.039 C 
ENDBRANCH  12  15
ENDBRANCH  11  12
ENDBRANCH   1  11
TORSDOF 1
ENDMDL
MODEL 8
REMARK VINA RESULT:    -1.542     12.326     14.920
REMARK INTER + INTRA:          -1.968
REMARK INTER:                  -2.135
REMARK INTRA:                   0.168
REMARK UNBOUND:                 0.115
REMARK SMILES C=C(C)[C@@H]1CC[C@H](C)C2=C(C1)[C@H](C)CC2
REMARK SMILES IDX 10 1 9 2 15 3 14 4 12 5 13 6 7 7 8 8 6 9 11 11 4 12 5 13
REMARK SMILES IDX 2 15 1 16 3 17
REMARK H PARENT
REMARK Flexibility Score: 80.00
ROOT
ATOM      1  C   UNL     1     165.008 158.246 138.875  1.00  0.00    -0.067 C 
ATOM      2  C   UNL     1     165.958 157.331 139.137  1.00  0.00    -0.068 C 
ATOM      3  C   UNL     1     165.440 155.947 138.884  1.00  0.00     0.032 C 
ATOM      4  C   UNL     1     164.108 156.152 138.167  1.00  0.00     0.012 C 
ATOM      5  C   UNL     1     163.728 157.613 138.420  1.00  0.00     0.012 C 
ATOM      6  C   UNL     1     162.645 157.731 139.501  1.00  0.00     0.012 C 
ENDROOT
BRANCH   2   7
ATOM      7  C   UNL     1     167.294 157.591 139.844  1.00  0.00     0.012 C 
ATOM      8  C   UNL     1     168.191 156.343 139.820  1.00  0.00     0.012 C 
BRANCH   7   9
ATOM      9  C   UNL     1     168.063 158.789 139.245  1.00  0.00     0.008 CG0
ATOM     10  G   UNL     1     167.554 160.153 139.748  1.00  0.00     0.000 G0
ENDBRANCH   7   9
ENDBRANCH   2   7
BRANCH   1  11
ATOM     11  C   UNL     1     165.145 159.750 138.999  1.00  0.00     0.039 C 
BRANCH  11  12
ATOM     12  C   UNL     1     166.070 160.165 140.161  1.00  0.00     0.018 C 
BRANCH  12  13
ATOM     13  C   UNL     1     167.560 160.152 139.749  1.00  0.00     0.009 CG0
ATOM     14  G   UNL     1     168.075 158.795 139.236  1.00  0.00     0.000 G0
ENDBRANCH  12  13
BRANCH  12  15
ATOM     15  C   UNL     1     165.684 161.534 140.712  1.00  0.00    -0.077 C 
ATOM     16  C   UNL     1     166.433 162.621 140.458  1.00  0.00     0.008 C 
ATOM     17  C   UNL     1     164.438 161.694 141.546  1.00  0.00     0.039 C 
ENDBRANCH  12  15
ENDBRANCH  11  12
ENDBRANCH   1  11
TORSDOF 1
ENDMDL
MODEL 9
REMARK VINA RESULT:    -1.525     12.620     15.054
REMARK INTER + INTRA:          -1.944
REMARK INTER:                  -2.126
REMARK INTRA:                   0.182
REMARK UNBOUND:                 0.115
REMARK SMILES C=C(C)[C@@H]1CC[C@H](C)C2=C(C1)[C@H](C)CC2
REMARK SMILES IDX 10 1 9 2 15 3 14 4 12 5 13 6 7 7 8 8 6 9 11 11 4 12 5 13
REMARK SMILES IDX 2 15 1 16 3 17
REMARK H PARENT
REMARK Flexibility Score: 80.00
ROOT
ATOM      1  C   UNL     1     163.869 158.345 138.911  1.00  0.00    -0.067 C 
ATOM      2  C   UNL     1     164.675 158.958 139.796  1.00  0.00    -0.068 C 
ATOM      3  C   UNL     1     165.850 158.089 140.128  1.00  0.00     0.032 C 
ATOM      4  C   UNL     1     165.796 156.952 139.112  1.00  0.00     0.012 C 
ATOM      5  C   UNL     1     164.381 156.988 138.532  1.00  0.00     0.012 C 
ATOM      6  C   UNL     1     163.501 155.884 139.133  1.00  0.00     0.012 C 
ENDROOT
BRANCH   2   7
ATOM      7  C   UNL     1     164.350 160.235 140.581  1.00  0.00     0.012 C 
ATOM      8  C   UNL     1     165.576 160.739 141.361  1.00  0.00     0.012 C 
BRANCH   7   9
ATOM      9  C   UNL     1     163.812 161.368 139.681  1.00  0.00     0.008 CG0
ATOM     10  G   UNL     1     162.313 161.229 139.355  1.00  0.00     0.000 G0
ENDBRANCH   7   9
ENDBRANCH   2   7
BRANCH   1  11
ATOM     11  C   UNL     1     162.588 158.899 138.322  1.00  0.00     0.039 C 
BRANCH  11  12
ATOM     12  C   UNL     1     161.802 159.764 139.327  1.00  0.00     0.018 C 
BRANCH  12  13
ATOM     13  C   UNL     1     162.310 161.225 139.357  1.00  0.00     0.009 CG0
ATOM     14  G   UNL     1     163.811 161.378 139.664  1.00  0.00     0.000 G0
ENDBRANCH  12  13
BRANCH  12  15
ATOM     15  C   UNL     1     160.305 159.730 139.034  1.00  0.00    -0.077 C 
ATOM     16  C   UNL     1     159.722 160.684 138.290  1.00  0.00     0.008 C 
ATOM     17  C   UNL     1     159.452 158.607 139.569  1.00  0.00     0.039 C 
ENDBRANCH  12  15
ENDBRANCH  11  12
ENDBRANCH   1  11
TORSDOF 1
ENDMDL
