MODEL 1
REMARK VINA RESULT:    -3.647      0.000      0.000
REMARK INTER + INTRA:          -4.085
REMARK INTER:                  -4.073
REMARK INTRA:                  -0.012
REMARK UNBOUND:                -0.012
REMARK SMILES CCCC(=O)[O-]
REMARK SMILES IDX 3 1 4 2 5 3 6 4 2 5 1 6
REMARK H PARENT
REMARK Flexibility Score: inf
ROOT
ATOM      1  C   UNL     1      45.503  12.404 -30.855  1.00  0.00     0.052 C 
ENDROOT
BRANCH   1   2
ATOM      2  C   UNL     1      45.620  12.558 -32.338  1.00  0.00     0.041 C 
ATOM      3  O   UNL     1      46.739  12.429 -32.902  1.00  0.00    -0.550 OA
ATOM      4  O   UNL     1      44.486  12.792 -33.105  1.00  0.00    -0.550 OA
ENDBRANCH   1   2
BRANCH   1   5
ATOM      5  C   UNL     1      46.696  11.623 -30.300  1.00  0.00     0.003 C 
ATOM      6  C   UNL     1      46.321  10.877 -29.023  1.00  0.00     0.004 C 
ENDBRANCH   1   5
TORSDOF 2
ENDMDL
MODEL 2
REMARK VINA RESULT:    -2.753      5.631      6.666
REMARK INTER + INTRA:          -3.087
REMARK INTER:                  -3.058
REMARK INTRA:                  -0.029
REMARK UNBOUND:                -0.012
REMARK SMILES CCCC(=O)[O-]
REMARK SMILES IDX 3 1 4 2 5 3 6 4 2 5 1 6
REMARK H PARENT
REMARK Flexibility Score: inf
ROOT
ATOM      1  C   UNL     1      41.545  13.270 -36.546  1.00  0.00     0.052 C 
ENDROOT
BRANCH   1   2
ATOM      2  C   UNL     1      40.792  14.306 -35.775  1.00  0.00     0.041 C 
ATOM      3  O   UNL     1      41.384  15.334 -35.350  1.00  0.00    -0.550 OA
ATOM      4  O   UNL     1      39.426  14.164 -35.568  1.00  0.00    -0.550 OA
ENDBRANCH   1   2
BRANCH   1   5
ATOM      5  C   UNL     1      41.784  12.027 -35.685  1.00  0.00     0.003 C 
ATOM      6  C   UNL     1      43.250  11.909 -35.280  1.00  0.00     0.004 C 
ENDBRANCH   1   5
TORSDOF 2
ENDMDL
MODEL 3
REMARK VINA RESULT:    -2.724     19.413     20.236
REMARK INTER + INTRA:          -3.054
REMARK INTER:                  -3.020
REMARK INTRA:                  -0.034
REMARK UNBOUND:                -0.012
REMARK SMILES CCCC(=O)[O-]
REMARK SMILES IDX 3 1 4 2 5 3 6 4 2 5 1 6
REMARK H PARENT
REMARK Flexibility Score: inf
ROOT
ATOM      1  C   UNL     1      55.150  29.537 -37.281  1.00  0.00     0.052 C 
ENDROOT
BRANCH   1   2
ATOM      2  C   UNL     1      56.016  28.851 -36.272  1.00  0.00     0.041 C 
ATOM      3  O   UNL     1      57.125  29.351 -35.944  1.00  0.00    -0.550 OA
ATOM      4  O   UNL     1      55.577  27.687 -35.656  1.00  0.00    -0.550 OA
ENDBRANCH   1   2
BRANCH   1   5
ATOM      5  C   UNL     1      55.256  28.843 -38.640  1.00  0.00     0.003 C 
ATOM      6  C   UNL     1      54.104  27.866 -38.852  1.00  0.00     0.004 C 
ENDBRANCH   1   5
TORSDOF 2
ENDMDL
MODEL 4
REMARK VINA RESULT:    -2.639     17.951     18.431
REMARK INTER + INTRA:          -2.959
REMARK INTER:                  -2.951
REMARK INTRA:                  -0.009
REMARK UNBOUND:                -0.012
REMARK SMILES CCCC(=O)[O-]
REMARK SMILES IDX 3 1 4 2 5 3 6 4 2 5 1 6
REMARK H PARENT
REMARK Flexibility Score: inf
ROOT
ATOM      1  C   UNL     1      56.729  26.911 -33.833  1.00  0.00     0.052 C 
ENDROOT
BRANCH   1   2
ATOM      2  C   UNL     1      55.832  26.905 -35.029  1.00  0.00     0.041 C 
ATOM      3  O   UNL     1      55.657  27.959 -35.697  1.00  0.00    -0.550 OA
ATOM      4  O   UNL     1      55.228  25.723 -35.439  1.00  0.00    -0.550 OA
ENDBRANCH   1   2
BRANCH   1   5
ATOM      5  C   UNL     1      56.385  28.083 -32.910  1.00  0.00     0.003 C 
ATOM      6  C   UNL     1      56.340  27.641 -31.451  1.00  0.00     0.004 C 
ENDBRANCH   1   5
TORSDOF 2
ENDMDL
MODEL 5
REMARK VINA RESULT:    -2.623      7.471      8.726
REMARK INTER + INTRA:          -2.942
REMARK INTER:                  -2.908
REMARK INTRA:                  -0.034
REMARK UNBOUND:                -0.012
REMARK SMILES CCCC(=O)[O-]
REMARK SMILES IDX 3 1 4 2 5 3 6 4 2 5 1 6
REMARK H PARENT
REMARK Flexibility Score: inf
ROOT
ATOM      1  C   UNL     1      38.725  14.214 -35.636  1.00  0.00     0.052 C 
ENDROOT
BRANCH   1   2
ATOM      2  C   UNL     1      40.199  13.997 -35.757  1.00  0.00     0.041 C 
ATOM      3  O   UNL     1      40.644  12.907 -36.207  1.00  0.00    -0.550 OA
ATOM      4  O   UNL     1      41.083  15.014 -35.420  1.00  0.00    -0.550 OA
ENDBRANCH   1   2
BRANCH   1   5
ATOM      5  C   UNL     1      38.000  13.682 -36.875  1.00  0.00     0.003 C 
ATOM      6  C   UNL     1      36.875  12.727 -36.488  1.00  0.00     0.004 C 
ENDBRANCH   1   5
TORSDOF 2
ENDMDL
MODEL 6
REMARK VINA RESULT:    -2.615     18.090     18.717
REMARK INTER + INTRA:          -2.933
REMARK INTER:                  -2.923
REMARK INTRA:                  -0.010
REMARK UNBOUND:                -0.012
REMARK SMILES CCCC(=O)[O-]
REMARK SMILES IDX 3 1 4 2 5 3 6 4 2 5 1 6
REMARK H PARENT
REMARK Flexibility Score: inf
ROOT
ATOM      1  C   UNL     1      56.793  26.997 -33.990  1.00  0.00     0.052 C 
ENDROOT
BRANCH   1   2
ATOM      2  C   UNL     1      56.454  27.911 -32.855  1.00  0.00     0.041 C 
ATOM      3  O   UNL     1      56.401  29.156 -33.038  1.00  0.00    -0.550 OA
ATOM      4  O   UNL     1      56.146  27.385 -31.607  1.00  0.00    -0.550 OA
ENDBRANCH   1   2
BRANCH   1   5
ATOM      5  C   UNL     1      55.653  26.963 -35.011  1.00  0.00     0.003 C 
ATOM      6  C   UNL     1      55.312  25.531 -35.409  1.00  0.00     0.004 C 
ENDBRANCH   1   5
TORSDOF 2
ENDMDL
MODEL 7
REMARK VINA RESULT:    -2.487     18.605     19.326
REMARK INTER + INTRA:          -2.790
REMARK INTER:                  -2.755
REMARK INTRA:                  -0.035
REMARK UNBOUND:                -0.012
REMARK SMILES CCCC(=O)[O-]
REMARK SMILES IDX 3 1 4 2 5 3 6 4 2 5 1 6
REMARK H PARENT
REMARK Flexibility Score: inf
ROOT
ATOM      1  C   UNL     1      57.077  28.003 -35.064  1.00  0.00     0.052 C 
ENDROOT
BRANCH   1   2
ATOM      2  C   UNL     1      56.137  27.089 -34.345  1.00  0.00     0.041 C 
ATOM      3  O   UNL     1      55.977  27.197 -33.099  1.00  0.00    -0.550 OA
ATOM      4  O   UNL     1      55.398  26.152 -35.054  1.00  0.00    -0.550 OA
ENDBRANCH   1   2
BRANCH   1   5
ATOM      5  C   UNL     1      56.361  29.291 -35.480  1.00  0.00     0.003 C 
ATOM      6  C   UNL     1      55.709  29.142 -36.850  1.00  0.00     0.004 C 
ENDBRANCH   1   5
TORSDOF 2
ENDMDL
MODEL 8
REMARK VINA RESULT:    -2.464     18.896     19.476
REMARK INTER + INTRA:          -2.764
REMARK INTER:                  -2.742
REMARK INTRA:                  -0.022
REMARK UNBOUND:                -0.012
REMARK SMILES CCCC(=O)[O-]
REMARK SMILES IDX 3 1 4 2 5 3 6 4 2 5 1 6
REMARK H PARENT
REMARK Flexibility Score: inf
ROOT
ATOM      1  C   UNL     1      56.936  27.801 -34.996  1.00  0.00     0.052 C 
ENDROOT
BRANCH   1   2
ATOM      2  C   UNL     1      56.335  29.040 -35.578  1.00  0.00     0.041 C 
ATOM      3  O   UNL     1      56.489  30.150 -35.002  1.00  0.00    -0.550 OA
ATOM      4  O   UNL     1      55.646  28.980 -36.782  1.00  0.00    -0.550 OA
ENDBRANCH   1   2
BRANCH   1   5
ATOM      5  C   UNL     1      55.853  26.925 -34.362  1.00  0.00     0.003 C 
ATOM      6  C   UNL     1      55.383  25.842 -35.329  1.00  0.00     0.004 C 
ENDBRANCH   1   5
TORSDOF 2
ENDMDL
