MODEL 1
REMARK VINA RESULT:    -5.294      0.000      0.000
REMARK INTER + INTRA:          -6.052
REMARK INTER:                  -5.913
REMARK INTRA:                  -0.139
REMARK UNBOUND:                -0.139
REMARK SMILES O=C([O-])C=Cc1ccccc1
REMARK SMILES IDX 4 1 5 2 2 3 1 4 3 5 6 6 7 7 11 8 8 9 10 10 9 11
REMARK H PARENT
REMARK Flexibility Score: inf
ROOT
ATOM      1  C   UNL     1      15.430   7.821 -21.127  1.00  0.00     0.025 C 
ATOM      2  C   UNL     1      16.355   8.345 -20.310  1.00  0.00     0.010 C 
ENDROOT
BRANCH   1   3
ATOM      3  C   UNL     1      14.405   6.884 -20.639  1.00  0.00     0.064 C 
ATOM      4  O   UNL     1      14.639   5.647 -20.649  1.00  0.00    -0.545 OA
ATOM      5  O   UNL     1      13.179   7.341 -20.167  1.00  0.00    -0.545 OA
ENDBRANCH   1   3
BRANCH   2   6
ATOM      6  C   UNL     1      17.420   9.295 -20.731  1.00  0.00    -0.026 A 
ATOM      7  C   UNL     1      18.731   9.274 -20.207  1.00  0.00     0.008 A 
ATOM      8  C   UNL     1      17.100  10.263 -21.703  1.00  0.00     0.008 A 
ATOM      9  C   UNL     1      19.685  10.197 -20.647  1.00  0.00     0.001 A 
ATOM     10  C   UNL     1      18.059  11.182 -22.138  1.00  0.00     0.001 A 
ATOM     11  C   UNL     1      19.350  11.150 -21.611  1.00  0.00     0.000 A 
ENDBRANCH   2   6
TORSDOF 2
ENDMDL
MODEL 2
REMARK VINA RESULT:    -4.912     16.124     16.701
REMARK INTER + INTRA:          -5.626
REMARK INTER:                  -5.495
REMARK INTRA:                  -0.131
REMARK UNBOUND:                -0.139
REMARK SMILES O=C([O-])C=Cc1ccccc1
REMARK SMILES IDX 4 1 5 2 2 3 1 4 3 5 6 6 7 7 11 8 8 9 10 10 9 11
REMARK H PARENT
REMARK Flexibility Score: inf
ROOT
ATOM      1  C   UNL     1       5.464  -2.056 -28.307  1.00  0.00     0.025 C 
ATOM      2  C   UNL     1       6.735  -1.690 -28.088  1.00  0.00     0.010 C 
ENDROOT
BRANCH   1   3
ATOM      3  C   UNL     1       4.505  -1.165 -28.980  1.00  0.00     0.064 C 
ATOM      4  O   UNL     1       4.292  -1.300 -30.214  1.00  0.00    -0.545 OA
ATOM      5  O   UNL     1       3.830  -0.173 -28.277  1.00  0.00    -0.545 OA
ENDBRANCH   1   3
BRANCH   2   6
ATOM      6  C   UNL     1       7.759  -2.535 -27.415  1.00  0.00    -0.026 A 
ATOM      7  C   UNL     1       8.894  -3.054 -28.076  1.00  0.00     0.008 A 
ATOM      8  C   UNL     1       7.583  -2.830 -26.049  1.00  0.00     0.008 A 
ATOM      9  C   UNL     1       9.819  -3.842 -27.383  1.00  0.00     0.001 A 
ATOM     10  C   UNL     1       8.511  -3.618 -25.363  1.00  0.00     0.001 A 
ATOM     11  C   UNL     1       9.628  -4.125 -26.029  1.00  0.00     0.000 A 
ENDBRANCH   2   6
TORSDOF 2
ENDMDL
MODEL 3
REMARK VINA RESULT:    -4.765      3.831      5.336
REMARK INTER + INTRA:          -5.462
REMARK INTER:                  -5.325
REMARK INTRA:                  -0.137
REMARK UNBOUND:                -0.139
REMARK SMILES O=C([O-])C=Cc1ccccc1
REMARK SMILES IDX 4 1 5 2 2 3 1 4 3 5 6 6 7 7 11 8 8 9 10 10 9 11
REMARK H PARENT
REMARK Flexibility Score: inf
ROOT
ATOM      1  C   UNL     1      18.050  11.535 -20.952  1.00  0.00     0.025 C 
ATOM      2  C   UNL     1      18.141  10.205 -20.812  1.00  0.00     0.010 C 
ENDROOT
BRANCH   1   3
ATOM      3  C   UNL     1      19.224  12.411 -20.819  1.00  0.00     0.064 C 
ATOM      4  O   UNL     1      20.125  12.380 -21.698  1.00  0.00    -0.545 OA
ATOM      5  O   UNL     1      19.359  13.275 -19.737  1.00  0.00    -0.545 OA
ENDBRANCH   1   3
BRANCH   2   6
ATOM      6  C   UNL     1      17.000   9.257 -20.931  1.00  0.00    -0.026 A 
ATOM      7  C   UNL     1      16.727   8.246 -19.984  1.00  0.00     0.008 A 
ATOM      8  C   UNL     1      16.150   9.379 -22.047  1.00  0.00     0.008 A 
ATOM      9  C   UNL     1      15.636   7.388 -20.157  1.00  0.00     0.001 A 
ATOM     10  C   UNL     1      15.061   8.518 -22.214  1.00  0.00     0.001 A 
ATOM     11  C   UNL     1      14.804   7.523 -21.270  1.00  0.00     0.000 A 
ENDBRANCH   2   6
TORSDOF 2
ENDMDL
MODEL 4
REMARK VINA RESULT:    -4.734      9.342     10.419
REMARK INTER + INTRA:          -5.426
REMARK INTER:                  -5.287
REMARK INTRA:                  -0.139
REMARK UNBOUND:                -0.139
REMARK SMILES O=C([O-])C=Cc1ccccc1
REMARK SMILES IDX 4 1 5 2 2 3 1 4 3 5 6 6 7 7 11 8 8 9 10 10 9 11
REMARK H PARENT
REMARK Flexibility Score: inf
ROOT
ATOM      1  C   UNL     1       9.609  14.540 -15.868  1.00  0.00     0.025 C 
ATOM      2  C   UNL     1       9.664  14.912 -17.156  1.00  0.00     0.010 C 
ENDROOT
BRANCH   1   3
ATOM      3  C   UNL     1       9.649  15.525 -14.775  1.00  0.00     0.064 C 
ATOM      4  O   UNL     1      10.726  16.125 -14.519  1.00  0.00    -0.545 OA
ATOM      5  O   UNL     1       8.517  15.804 -14.018  1.00  0.00    -0.545 OA
ENDBRANCH   1   3
BRANCH   2   6
ATOM      6  C   UNL     1       9.630  13.976 -18.312  1.00  0.00    -0.026 A 
ATOM      7  C   UNL     1       8.934  14.247 -19.510  1.00  0.00     0.008 A 
ATOM      8  C   UNL     1      10.330  12.759 -18.202  1.00  0.00     0.008 A 
ATOM      9  C   UNL     1       8.943  13.322 -20.560  1.00  0.00     0.001 A 
ATOM     10  C   UNL     1      10.335  11.840 -19.255  1.00  0.00     0.001 A 
ATOM     11  C   UNL     1       9.642  12.121 -20.434  1.00  0.00     0.000 A 
ENDBRANCH   2   6
TORSDOF 2
ENDMDL
MODEL 5
REMARK VINA RESULT:    -4.711      3.803      5.504
REMARK INTER + INTRA:          -5.401
REMARK INTER:                  -5.272
REMARK INTRA:                  -0.129
REMARK UNBOUND:                -0.139
REMARK SMILES O=C([O-])C=Cc1ccccc1
REMARK SMILES IDX 4 1 5 2 2 3 1 4 3 5 6 6 7 7 11 8 8 9 10 10 9 11
REMARK H PARENT
REMARK Flexibility Score: inf
ROOT
ATOM      1  C   UNL     1      18.010  11.513 -21.092  1.00  0.00     0.025 C 
ATOM      2  C   UNL     1      18.029  10.203 -20.804  1.00  0.00     0.010 C 
ENDROOT
BRANCH   1   3
ATOM      3  C   UNL     1      19.178  12.376 -20.857  1.00  0.00     0.064 C 
ATOM      4  O   UNL     1      20.125  12.379 -21.687  1.00  0.00    -0.545 OA
ATOM      5  O   UNL     1      19.257  13.189 -19.732  1.00  0.00    -0.545 OA
ENDBRANCH   1   3
BRANCH   2   6
ATOM      6  C   UNL     1      16.888   9.270 -21.013  1.00  0.00    -0.026 A 
ATOM      7  C   UNL     1      16.013   9.350 -22.118  1.00  0.00     0.008 A 
ATOM      8  C   UNL     1      16.676   8.257 -20.059  1.00  0.00     0.008 A 
ATOM      9  C   UNL     1      14.959   8.440 -22.255  1.00  0.00     0.001 A 
ATOM     10  C   UNL     1      15.622   7.351 -20.201  1.00  0.00     0.001 A 
ATOM     11  C   UNL     1      14.763   7.442 -21.298  1.00  0.00     0.000 A 
ENDBRANCH   2   6
TORSDOF 2
ENDMDL
MODEL 6
REMARK VINA RESULT:    -4.601     15.983     17.224
REMARK INTER + INTRA:          -5.278
REMARK INTER:                  -5.133
REMARK INTRA:                  -0.145
REMARK UNBOUND:                -0.139
REMARK SMILES O=C([O-])C=Cc1ccccc1
REMARK SMILES IDX 4 1 5 2 2 3 1 4 3 5 6 6 7 7 11 8 8 9 10 10 9 11
REMARK H PARENT
REMARK Flexibility Score: inf
ROOT
ATOM      1  C   UNL     1       8.249  -3.483 -27.539  1.00  0.00     0.025 C 
ATOM      2  C   UNL     1       7.805  -2.307 -28.008  1.00  0.00     0.010 C 
ENDROOT
BRANCH   1   3
ATOM      3  C   UNL     1       9.684  -3.752 -27.355  1.00  0.00     0.064 C 
ATOM      4  O   UNL     1      10.448  -3.757 -28.355  1.00  0.00    -0.545 OA
ATOM      5  O   UNL     1      10.212  -4.002 -26.093  1.00  0.00    -0.545 OA
ENDBRANCH   1   3
BRANCH   2   6
ATOM      6  C   UNL     1       6.373  -1.964 -28.222  1.00  0.00    -0.026 A 
ATOM      7  C   UNL     1       5.913  -0.645 -28.428  1.00  0.00     0.008 A 
ATOM      8  C   UNL     1       5.431  -3.011 -28.218  1.00  0.00     0.008 A 
ATOM      9  C   UNL     1       4.551  -0.391 -28.623  1.00  0.00     0.001 A 
ATOM     10  C   UNL     1       4.072  -2.750 -28.413  1.00  0.00     0.001 A 
ATOM     11  C   UNL     1       3.632  -1.442 -28.615  1.00  0.00     0.000 A 
ENDBRANCH   2   6
TORSDOF 2
ENDMDL
MODEL 7
REMARK VINA RESULT:    -4.416     16.939     18.806
REMARK INTER + INTRA:          -5.071
REMARK INTER:                  -4.938
REMARK INTRA:                  -0.133
REMARK UNBOUND:                -0.139
REMARK SMILES O=C([O-])C=Cc1ccccc1
REMARK SMILES IDX 4 1 5 2 2 3 1 4 3 5 6 6 7 7 11 8 8 9 10 10 9 11
REMARK H PARENT
REMARK Flexibility Score: inf
ROOT
ATOM      1  C   UNL     1       2.431  -1.746 -29.982  1.00  0.00     0.025 C 
ATOM      2  C   UNL     1       3.364  -1.116 -29.253  1.00  0.00     0.010 C 
ENDROOT
BRANCH   1   3
ATOM      3  C   UNL     1       1.196  -1.071 -30.412  1.00  0.00     0.064 C 
ATOM      4  O   UNL     1       0.840  -0.006 -29.843  1.00  0.00    -0.545 OA
ATOM      5  O   UNL     1       0.413  -1.589 -31.438  1.00  0.00    -0.545 OA
ENDBRANCH   1   3
BRANCH   2   6
ATOM      6  C   UNL     1       4.634  -1.732 -28.783  1.00  0.00    -0.026 A 
ATOM      7  C   UNL     1       4.742  -3.084 -28.388  1.00  0.00     0.008 A 
ATOM      8  C   UNL     1       5.785  -0.923 -28.730  1.00  0.00     0.008 A 
ATOM      9  C   UNL     1       5.967  -3.600 -27.955  1.00  0.00     0.001 A 
ATOM     10  C   UNL     1       7.006  -1.445 -28.297  1.00  0.00     0.001 A 
ATOM     11  C   UNL     1       7.099  -2.783 -27.909  1.00  0.00     0.000 A 
ENDBRANCH   2   6
TORSDOF 2
ENDMDL
