MODEL 1
REMARK VINA RESULT:    -2.950      0.000      0.000
REMARK INTER + INTRA:         -11.408
REMARK INTER:                  -6.745
REMARK INTRA:                  -4.663
REMARK UNBOUND:                -4.663
REMARK SMILES CCCCCCCCCCCCCCCCCCCCCCCC(=O)[O-]
REMARK SMILES IDX 13 1 14 2 15 3 16 4 17 5 18 6 19 7 20 8 21 9 22 10 23 11
REMARK SMILES IDX 24 12 25 13 26 14 12 15 11 16 10 17 9 18 8 19 7 20 6 21 5 22
REMARK SMILES IDX 4 23 3 24 2 25 1 26
REMARK H PARENT
REMARK Flexibility Score: inf
ROOT
ATOM      1  C   UNL     1      58.871  28.049  53.183  1.00  0.00     0.000 C 
ENDROOT
BRANCH   1   2
ATOM      2  C   UNL     1      57.876  28.767  52.264  1.00  0.00     0.000 C 
BRANCH   2   3
ATOM      3  C   UNL     1      58.561  29.605  51.174  1.00  0.00     0.000 C 
BRANCH   3   4
ATOM      4  C   UNL     1      58.189  29.152  49.750  1.00  0.00     0.000 C 
BRANCH   4   5
ATOM      5  C   UNL     1      59.393  28.566  48.994  1.00  0.00     0.000 C 
BRANCH   5   6
ATOM      6  C   UNL     1      59.642  27.095  49.363  1.00  0.00     0.000 C 
BRANCH   6   7
ATOM      7  C   UNL     1      61.076  26.876  49.869  1.00  0.00     0.000 C 
BRANCH   7   8
ATOM      8  C   UNL     1      61.868  28.193  49.932  1.00  0.00     0.000 C 
BRANCH   8   9
ATOM      9  C   UNL     1      62.188  28.617  51.373  1.00  0.00     0.000 C 
BRANCH   9  10
ATOM     10  C   UNL     1      62.250  30.146  51.488  1.00  0.00     0.006 C 
BRANCH  10  11
ATOM     11  C   UNL     1      61.870  30.824  50.168  1.00  0.00     0.053 C 
BRANCH  11  12
ATOM     12  C   UNL     1      62.999  31.673  49.670  1.00  0.00     0.041 C 
ATOM     13  O   UNL     1      62.761  32.766  49.091  1.00  0.00    -0.550 OA
ATOM     14  O   UNL     1      64.314  31.240  49.813  1.00  0.00    -0.550 OA
ENDBRANCH  11  12
ENDBRANCH  10  11
ENDBRANCH   9  10
ENDBRANCH   8   9
ENDBRANCH   7   8
ENDBRANCH   6   7
ENDBRANCH   5   6
ENDBRANCH   4   5
ENDBRANCH   3   4
ENDBRANCH   2   3
ENDBRANCH   1   2
BRANCH   1  15
ATOM     15  C   UNL     1      58.737  26.526  53.036  1.00  0.00     0.000 C 
BRANCH  15  16
ATOM     16  C   UNL     1      57.706  26.111  51.975  1.00  0.00     0.000 C 
BRANCH  16  17
ATOM     17  C   UNL     1      56.523  25.335  52.570  1.00  0.00     0.000 C 
BRANCH  17  18
ATOM     18  C   UNL     1      55.252  25.544  51.736  1.00  0.00    -0.000 C 
BRANCH  18  19
ATOM     19  C   UNL     1      55.552  26.362  50.472  1.00  0.00    -0.000 C 
BRANCH  19  20
ATOM     20  C   UNL     1      54.289  26.661  49.642  1.00  0.00    -0.000 C 
BRANCH  20  21
ATOM     21  C   UNL     1      53.734  28.090  49.806  1.00  0.00    -0.000 C 
BRANCH  21  22
ATOM     22  C   UNL     1      54.706  29.107  50.437  1.00  0.00    -0.000 C 
BRANCH  22  23
ATOM     23  C   UNL     1      54.161  29.788  51.711  1.00  0.00    -0.000 C 
BRANCH  23  24
ATOM     24  C   UNL     1      53.928  28.789  52.856  1.00  0.00    -0.000 C 
BRANCH  24  25
ATOM     25  C   UNL     1      54.814  29.071  54.079  1.00  0.00    -0.003 C 
ATOM     26  C   UNL     1      55.194  27.799  54.837  1.00  0.00     0.004 C 
ENDBRANCH  24  25
ENDBRANCH  23  24
ENDBRANCH  22  23
ENDBRANCH  21  22
ENDBRANCH  20  21
ENDBRANCH  19  20
ENDBRANCH  18  19
ENDBRANCH  17  18
ENDBRANCH  16  17
ENDBRANCH  15  16
ENDBRANCH   1  15
TORSDOF 22
ENDMDL
MODEL 2
REMARK VINA RESULT:    -2.934      2.939      5.406
REMARK INTER + INTRA:         -11.370
REMARK INTER:                  -7.118
REMARK INTRA:                  -4.252
REMARK UNBOUND:                -4.663
REMARK SMILES CCCCCCCCCCCCCCCCCCCCCCCC(=O)[O-]
REMARK SMILES IDX 13 1 14 2 15 3 16 4 17 5 18 6 19 7 20 8 21 9 22 10 23 11
REMARK SMILES IDX 24 12 25 13 26 14 12 15 11 16 10 17 9 18 8 19 7 20 6 21 5 22
REMARK SMILES IDX 4 23 3 24 2 25 1 26
REMARK H PARENT
REMARK Flexibility Score: inf
ROOT
ATOM      1  C   UNL     1      53.671  26.093  49.212  1.00  0.00     0.000 C 
ENDROOT
BRANCH   1   2
ATOM      2  C   UNL     1      55.153  25.880  49.543  1.00  0.00     0.000 C 
BRANCH   2   3
ATOM      3  C   UNL     1      55.444  25.927  51.051  1.00  0.00     0.000 C 
BRANCH   3   4
ATOM      4  C   UNL     1      56.647  26.823  51.398  1.00  0.00     0.000 C 
BRANCH   4   5
ATOM      5  C   UNL     1      57.371  27.336  50.141  1.00  0.00     0.000 C 
BRANCH   5   6
ATOM      6  C   UNL     1      57.620  28.852  50.201  1.00  0.00     0.000 C 
BRANCH   6   7
ATOM      7  C   UNL     1      58.883  29.245  49.420  1.00  0.00     0.000 C 
BRANCH   7   8
ATOM      8  C   UNL     1      59.742  28.020  49.065  1.00  0.00     0.000 C 
BRANCH   8   9
ATOM      9  C   UNL     1      61.032  27.947  49.895  1.00  0.00     0.000 C 
BRANCH   9  10
ATOM     10  C   UNL     1      61.092  26.636  50.689  1.00  0.00     0.006 C 
BRANCH  10  11
ATOM     11  C   UNL     1      60.585  25.453  49.859  1.00  0.00     0.053 C 
BRANCH  11  12
ATOM     12  C   UNL     1      60.022  24.389  50.752  1.00  0.00     0.041 C 
ATOM     13  O   UNL     1      60.064  23.181  50.400  1.00  0.00    -0.550 OA
ATOM     14  O   UNL     1      59.420  24.735  51.958  1.00  0.00    -0.550 OA
ENDBRANCH  11  12
ENDBRANCH  10  11
ENDBRANCH   9  10
ENDBRANCH   8   9
ENDBRANCH   7   8
ENDBRANCH   6   7
ENDBRANCH   5   6
ENDBRANCH   4   5
ENDBRANCH   3   4
ENDBRANCH   2   3
ENDBRANCH   1   2
BRANCH   1  15
ATOM     15  C   UNL     1      53.018  27.024  50.244  1.00  0.00     0.000 C 
BRANCH  15  16
ATOM     16  C   UNL     1      52.888  28.474  49.752  1.00  0.00     0.000 C 
BRANCH  16  17
ATOM     17  C   UNL     1      54.053  29.362  50.209  1.00  0.00     0.000 C 
BRANCH  17  18
ATOM     18  C   UNL     1      53.594  30.372  51.269  1.00  0.00    -0.000 C 
BRANCH  18  19
ATOM     19  C   UNL     1      54.003  29.915  52.677  1.00  0.00    -0.000 C 
BRANCH  19  20
ATOM     20  C   UNL     1      55.494  30.167  52.974  1.00  0.00    -0.000 C 
BRANCH  20  21
ATOM     21  C   UNL     1      56.145  29.135  53.916  1.00  0.00    -0.000 C 
BRANCH  21  22
ATOM     22  C   UNL     1      57.030  29.726  55.033  1.00  0.00    -0.000 C 
BRANCH  22  23
ATOM     23  C   UNL     1      58.448  29.119  55.098  1.00  0.00    -0.000 C 
BRANCH  23  24
ATOM     24  C   UNL     1      58.909  28.560  53.742  1.00  0.00    -0.000 C 
BRANCH  24  25
ATOM     25  C   UNL     1      60.072  29.360  53.136  1.00  0.00    -0.003 C 
ATOM     26  C   UNL     1      59.650  30.757  52.680  1.00  0.00     0.004 C 
ENDBRANCH  24  25
ENDBRANCH  23  24
ENDBRANCH  22  23
ENDBRANCH  21  22
ENDBRANCH  20  21
ENDBRANCH  19  20
ENDBRANCH  18  19
ENDBRANCH  17  18
ENDBRANCH  16  17
ENDBRANCH  15  16
ENDBRANCH   1  15
TORSDOF 22
ENDMDL
MODEL 3
REMARK VINA RESULT:    -2.927      8.660     11.380
REMARK INTER + INTRA:         -11.354
REMARK INTER:                  -6.841
REMARK INTRA:                  -4.513
REMARK UNBOUND:                -4.663
REMARK SMILES CCCCCCCCCCCCCCCCCCCCCCCC(=O)[O-]
REMARK SMILES IDX 13 1 14 2 15 3 16 4 17 5 18 6 19 7 20 8 21 9 22 10 23 11
REMARK SMILES IDX 24 12 25 13 26 14 12 15 11 16 10 17 9 18 8 19 7 20 6 21 5 22
REMARK SMILES IDX 4 23 3 24 2 25 1 26
REMARK H PARENT
REMARK Flexibility Score: inf
ROOT
ATOM      1  C   UNL     1      64.915  31.183  59.198  1.00  0.00     0.000 C 
ENDROOT
BRANCH   1   2
ATOM      2  C   UNL     1      64.727  30.323  60.454  1.00  0.00     0.000 C 
BRANCH   2   3
ATOM      3  C   UNL     1      64.188  28.919  60.145  1.00  0.00     0.000 C 
BRANCH   3   4
ATOM      4  C   UNL     1      62.737  28.719  60.620  1.00  0.00     0.000 C 
BRANCH   4   5
ATOM      5  C   UNL     1      62.365  29.674  61.767  1.00  0.00     0.000 C 
BRANCH   5   6
ATOM      6  C   UNL     1      60.997  30.338  61.539  1.00  0.00     0.000 C 
BRANCH   6   7
ATOM      7  C   UNL     1      61.150  31.786  61.049  1.00  0.00     0.000 C 
BRANCH   7   8
ATOM      8  C   UNL     1      60.856  31.915  59.545  1.00  0.00     0.000 C 
BRANCH   8   9
ATOM      9  C   UNL     1      60.011  30.751  59.009  1.00  0.00     0.000 C 
BRANCH   9  10
ATOM     10  C   UNL     1      60.571  30.241  57.675  1.00  0.00     0.006 C 
BRANCH  10  11
ATOM     11  C   UNL     1      61.946  30.847  57.377  1.00  0.00     0.053 C 
BRANCH  11  12
ATOM     12  C   UNL     1      61.990  31.384  55.979  1.00  0.00     0.041 C 
ATOM     13  O   UNL     1      63.094  31.681  55.449  1.00  0.00    -0.550 OA
ATOM     14  O   UNL     1      60.809  31.592  55.273  1.00  0.00    -0.550 OA
ENDBRANCH  11  12
ENDBRANCH  10  11
ENDBRANCH   9  10
ENDBRANCH   8   9
ENDBRANCH   7   8
ENDBRANCH   6   7
ENDBRANCH   5   6
ENDBRANCH   4   5
ENDBRANCH   3   4
ENDBRANCH   2   3
ENDBRANCH   1   2
BRANCH   1  15
ATOM     15  C   UNL     1      64.520  32.640  59.480  1.00  0.00     0.000 C 
BRANCH  15  16
ATOM     16  C   UNL     1      64.358  32.942  60.978  1.00  0.00     0.000 C 
BRANCH  16  17
ATOM     17  C   UNL     1      64.237  34.444  61.270  1.00  0.00     0.000 C 
BRANCH  17  18
ATOM     18  C   UNL     1      62.885  34.990  60.794  1.00  0.00    -0.000 C 
BRANCH  18  19
ATOM     19  C   UNL     1      62.748  36.484  61.122  1.00  0.00    -0.000 C 
BRANCH  19  20
ATOM     20  C   UNL     1      61.310  37.005  60.939  1.00  0.00    -0.000 C 
BRANCH  20  21
ATOM     21  C   UNL     1      60.382  36.066  60.145  1.00  0.00    -0.000 C 
BRANCH  21  22
ATOM     22  C   UNL     1      59.752  36.677  58.876  1.00  0.00    -0.000 C 
BRANCH  22  23
ATOM     23  C   UNL     1      59.190  35.632  57.888  1.00  0.00    -0.000 C 
BRANCH  23  24
ATOM     24  C   UNL     1      60.214  34.537  57.549  1.00  0.00    -0.000 C 
BRANCH  24  25
ATOM     25  C   UNL     1      61.271  35.007  56.537  1.00  0.00    -0.003 C 
ATOM     26  C   UNL     1      62.682  35.021  57.124  1.00  0.00     0.004 C 
ENDBRANCH  24  25
ENDBRANCH  23  24
ENDBRANCH  22  23
ENDBRANCH  21  22
ENDBRANCH  20  21
ENDBRANCH  19  20
ENDBRANCH  18  19
ENDBRANCH  17  18
ENDBRANCH  16  17
ENDBRANCH  15  16
ENDBRANCH   1  15
TORSDOF 22
ENDMDL
MODEL 4
REMARK VINA RESULT:    -2.917      1.992      3.088
REMARK INTER + INTRA:         -11.332
REMARK INTER:                  -7.120
REMARK INTRA:                  -4.212
REMARK UNBOUND:                -4.663
REMARK SMILES CCCCCCCCCCCCCCCCCCCCCCCC(=O)[O-]
REMARK SMILES IDX 13 1 14 2 15 3 16 4 17 5 18 6 19 7 20 8 21 9 22 10 23 11
REMARK SMILES IDX 24 12 25 13 26 14 12 15 11 16 10 17 9 18 8 19 7 20 6 21 5 22
REMARK SMILES IDX 4 23 3 24 2 25 1 26
REMARK H PARENT
REMARK Flexibility Score: inf
ROOT
ATOM      1  C   UNL     1      56.832  26.562  52.415  1.00  0.00     0.000 C 
ENDROOT
BRANCH   1   2
ATOM      2  C   UNL     1      58.017  27.516  52.610  1.00  0.00     0.000 C 
BRANCH   2   3
ATOM      3  C   UNL     1      57.633  28.993  52.438  1.00  0.00     0.000 C 
BRANCH   3   4
ATOM      4  C   UNL     1      58.484  29.711  51.374  1.00  0.00     0.000 C 
BRANCH   4   5
ATOM      5  C   UNL     1      58.157  29.231  49.949  1.00  0.00     0.000 C 
BRANCH   5   6
ATOM      6  C   UNL     1      59.412  28.748  49.204  1.00  0.00     0.000 C 
BRANCH   6   7
ATOM      7  C   UNL     1      59.563  27.222  49.287  1.00  0.00     0.000 C 
BRANCH   7   8
ATOM      8  C   UNL     1      60.986  26.808  49.696  1.00  0.00     0.000 C 
BRANCH   8   9
ATOM      9  C   UNL     1      61.604  27.766  50.726  1.00  0.00     0.000 C 
BRANCH   9  10
ATOM     10  C   UNL     1      62.963  28.284  50.239  1.00  0.00     0.006 C 
BRANCH  10  11
ATOM     11  C   UNL     1      63.289  27.768  48.834  1.00  0.00     0.053 C 
BRANCH  11  12
ATOM     12  C   UNL     1      64.552  26.962  48.851  1.00  0.00     0.041 C 
ATOM     13  O   UNL     1      64.627  25.918  49.552  1.00  0.00    -0.550 OA
ATOM     14  O   UNL     1      65.660  27.383  48.122  1.00  0.00    -0.550 OA
ENDBRANCH  11  12
ENDBRANCH  10  11
ENDBRANCH   9  10
ENDBRANCH   8   9
ENDBRANCH   7   8
ENDBRANCH   6   7
ENDBRANCH   5   6
ENDBRANCH   4   5
ENDBRANCH   3   4
ENDBRANCH   2   3
ENDBRANCH   1   2
BRANCH   1  15
ATOM     15  C   UNL     1      57.037  25.701  51.160  1.00  0.00     0.000 C 
BRANCH  15  16
ATOM     16  C   UNL     1      55.927  25.886  50.113  1.00  0.00     0.000 C 
BRANCH  16  17
ATOM     17  C   UNL     1      55.330  27.300  50.126  1.00  0.00     0.000 C 
BRANCH  17  18
ATOM     18  C   UNL     1      53.851  27.277  49.718  1.00  0.00    -0.000 C 
BRANCH  18  19
ATOM     19  C   UNL     1      53.211  28.662  49.889  1.00  0.00    -0.000 C 
BRANCH  19  20
ATOM     20  C   UNL     1      54.188  29.701  50.472  1.00  0.00    -0.000 C 
BRANCH  20  21
ATOM     21  C   UNL     1      53.663  30.453  51.711  1.00  0.00    -0.000 C 
BRANCH  21  22
ATOM     22  C   UNL     1      53.032  29.566  52.804  1.00  0.00    -0.000 C 
BRANCH  22  23
ATOM     23  C   UNL     1      54.020  28.575  53.456  1.00  0.00    -0.000 C 
BRANCH  23  24
ATOM     24  C   UNL     1      53.314  27.338  54.033  1.00  0.00    -0.000 C 
BRANCH  24  25
ATOM     25  C   UNL     1      53.012  26.276  52.964  1.00  0.00    -0.003 C 
ATOM     26  C   UNL     1      53.666  24.929  53.272  1.00  0.00     0.004 C 
ENDBRANCH  24  25
ENDBRANCH  23  24
ENDBRANCH  22  23
ENDBRANCH  21  22
ENDBRANCH  20  21
ENDBRANCH  19  20
ENDBRANCH  18  19
ENDBRANCH  17  18
ENDBRANCH  16  17
ENDBRANCH  15  16
ENDBRANCH   1  15
TORSDOF 22
ENDMDL
MODEL 5
REMARK VINA RESULT:    -2.915      8.662     11.440
REMARK INTER + INTRA:         -11.328
REMARK INTER:                  -6.829
REMARK INTRA:                  -4.499
REMARK UNBOUND:                -4.663
REMARK SMILES CCCCCCCCCCCCCCCCCCCCCCCC(=O)[O-]
REMARK SMILES IDX 13 1 14 2 15 3 16 4 17 5 18 6 19 7 20 8 21 9 22 10 23 11
REMARK SMILES IDX 24 12 25 13 26 14 12 15 11 16 10 17 9 18 8 19 7 20 6 21 5 22
REMARK SMILES IDX 4 23 3 24 2 25 1 26
REMARK H PARENT
REMARK Flexibility Score: inf
ROOT
ATOM      1  C   UNL     1      63.870  32.848  58.018  1.00  0.00     0.000 C 
ENDROOT
BRANCH   1   2
ATOM      2  C   UNL     1      64.623  33.825  58.929  1.00  0.00     0.000 C 
BRANCH   2   3
ATOM      3  C   UNL     1      64.244  33.679  60.410  1.00  0.00     0.000 C 
BRANCH   3   4
ATOM      4  C   UNL     1      64.669  34.892  61.258  1.00  0.00     0.000 C 
BRANCH   4   5
ATOM      5  C   UNL     1      63.590  35.989  61.284  1.00  0.00     0.000 C 
BRANCH   5   6
ATOM      6  C   UNL     1      62.187  35.419  61.019  1.00  0.00     0.000 C 
BRANCH   6   7
ATOM      7  C   UNL     1      61.177  36.534  60.709  1.00  0.00     0.000 C 
BRANCH   7   8
ATOM      8  C   UNL     1      60.311  36.198  59.483  1.00  0.00     0.000 C 
BRANCH   8   9
ATOM      9  C   UNL     1      61.066  35.357  58.443  1.00  0.00     0.000 C 
BRANCH   9  10
ATOM     10  C   UNL     1      60.093  34.757  57.420  1.00  0.00     0.006 C 
BRANCH  10  11
ATOM     11  C   UNL     1      60.808  34.388  56.116  1.00  0.00     0.053 C 
BRANCH  11  12
ATOM     12  C   UNL     1      59.892  33.615  55.217  1.00  0.00     0.041 C 
ATOM     13  O   UNL     1      59.566  34.081  54.093  1.00  0.00    -0.550 OA
ATOM     14  O   UNL     1      59.368  32.395  55.636  1.00  0.00    -0.550 OA
ENDBRANCH  11  12
ENDBRANCH  10  11
ENDBRANCH   9  10
ENDBRANCH   8   9
ENDBRANCH   7   8
ENDBRANCH   6   7
ENDBRANCH   5   6
ENDBRANCH   4   5
ENDBRANCH   3   4
ENDBRANCH   2   3
ENDBRANCH   1   2
BRANCH   1  15
ATOM     15  C   UNL     1      63.045  31.860  58.856  1.00  0.00     0.000 C 
BRANCH  15  16
ATOM     16  C   UNL     1      61.677  31.537  58.234  1.00  0.00     0.000 C 
BRANCH  16  17
ATOM     17  C   UNL     1      60.536  31.574  59.260  1.00  0.00     0.000 C 
BRANCH  17  18
ATOM     18  C   UNL     1      61.065  31.911  60.660  1.00  0.00    -0.000 C 
BRANCH  18  19
ATOM     19  C   UNL     1      60.870  30.729  61.621  1.00  0.00    -0.000 C 
BRANCH  19  20
ATOM     20  C   UNL     1      62.178  29.959  61.889  1.00  0.00    -0.000 C 
BRANCH  20  21
ATOM     21  C   UNL     1      62.147  28.475  61.473  1.00  0.00    -0.000 C 
BRANCH  21  22
ATOM     22  C   UNL     1      61.650  28.202  60.038  1.00  0.00    -0.000 C 
BRANCH  22  23
ATOM     23  C   UNL     1      62.783  28.001  59.009  1.00  0.00    -0.000 C 
BRANCH  23  24
ATOM     24  C   UNL     1      64.156  27.822  59.675  1.00  0.00    -0.000 C 
BRANCH  24  25
ATOM     25  C   UNL     1      65.162  28.907  59.259  1.00  0.00    -0.003 C 
ATOM     26  C   UNL     1      65.604  29.781  60.433  1.00  0.00     0.004 C 
ENDBRANCH  24  25
ENDBRANCH  23  24
ENDBRANCH  22  23
ENDBRANCH  21  22
ENDBRANCH  20  21
ENDBRANCH  19  20
ENDBRANCH  18  19
ENDBRANCH  17  18
ENDBRANCH  16  17
ENDBRANCH  15  16
ENDBRANCH   1  15
TORSDOF 22
ENDMDL
MODEL 6
REMARK VINA RESULT:    -2.862      3.278      5.533
REMARK INTER + INTRA:         -11.205
REMARK INTER:                  -6.302
REMARK INTRA:                  -4.903
REMARK UNBOUND:                -4.663
REMARK SMILES CCCCCCCCCCCCCCCCCCCCCCCC(=O)[O-]
REMARK SMILES IDX 13 1 14 2 15 3 16 4 17 5 18 6 19 7 20 8 21 9 22 10 23 11
REMARK SMILES IDX 24 12 25 13 26 14 12 15 11 16 10 17 9 18 8 19 7 20 6 21 5 22
REMARK SMILES IDX 4 23 3 24 2 25 1 26
REMARK H PARENT
REMARK Flexibility Score: inf
ROOT
ATOM      1  C   UNL     1      61.644  28.181  52.823  1.00  0.00     0.000 C 
ENDROOT
BRANCH   1   2
ATOM      2  C   UNL     1      62.784  29.050  52.279  1.00  0.00     0.000 C 
BRANCH   2   3
ATOM      3  C   UNL     1      62.285  30.287  51.517  1.00  0.00     0.000 C 
BRANCH   3   4
ATOM      4  C   UNL     1      62.796  30.341  50.066  1.00  0.00     0.000 C 
BRANCH   4   5
ATOM      5  C   UNL     1      64.122  29.581  49.889  1.00  0.00     0.000 C 
BRANCH   5   6
ATOM      6  C   UNL     1      64.294  29.055  48.454  1.00  0.00     0.000 C 
BRANCH   6   7
ATOM      7  C   UNL     1      63.911  27.572  48.350  1.00  0.00     0.000 C 
BRANCH   7   8
ATOM      8  C   UNL     1      64.130  26.828  49.678  1.00  0.00     0.000 C 
BRANCH   8   9
ATOM      9  C   UNL     1      62.899  26.015  50.105  1.00  0.00     0.000 C 
BRANCH   9  10
ATOM     10  C   UNL     1      63.313  24.623  50.599  1.00  0.00     0.006 C 
BRANCH  10  11
ATOM     11  C   UNL     1      62.157  23.623  50.489  1.00  0.00     0.053 C 
BRANCH  11  12
ATOM     12  C   UNL     1      61.776  23.111  51.844  1.00  0.00     0.041 C 
ATOM     13  O   UNL     1      60.566  22.904  52.125  1.00  0.00    -0.550 OA
ATOM     14  O   UNL     1      62.754  22.898  52.811  1.00  0.00    -0.550 OA
ENDBRANCH  11  12
ENDBRANCH  10  11
ENDBRANCH   9  10
ENDBRANCH   8   9
ENDBRANCH   7   8
ENDBRANCH   6   7
ENDBRANCH   5   6
ENDBRANCH   4   5
ENDBRANCH   3   4
ENDBRANCH   2   3
ENDBRANCH   1   2
BRANCH   1  15
ATOM     15  C   UNL     1      60.402  29.040  53.107  1.00  0.00     0.000 C 
BRANCH  15  16
ATOM     16  C   UNL     1      59.127  28.207  53.312  1.00  0.00     0.000 C 
BRANCH  16  17
ATOM     17  C   UNL     1      57.901  28.820  52.621  1.00  0.00     0.000 C 
BRANCH  17  18
ATOM     18  C   UNL     1      58.324  29.830  51.546  1.00  0.00    -0.000 C 
BRANCH  18  19
ATOM     19  C   UNL     1      58.007  29.301  50.139  1.00  0.00    -0.000 C 
BRANCH  19  20
ATOM     20  C   UNL     1      59.255  29.223  49.238  1.00  0.00    -0.000 C 
BRANCH  20  21
ATOM     21  C   UNL     1      60.064  27.917  49.371  1.00  0.00    -0.000 C 
BRANCH  21  22
ATOM     22  C   UNL     1      59.239  26.617  49.290  1.00  0.00    -0.000 C 
BRANCH  22  23
ATOM     23  C   UNL     1      59.167  25.835  50.620  1.00  0.00    -0.000 C 
BRANCH  23  24
ATOM     24  C   UNL     1      57.724  25.478  51.012  1.00  0.00    -0.000 C 
BRANCH  24  25
ATOM     25  C   UNL     1      56.693  25.961  49.981  1.00  0.00    -0.003 C 
ATOM     26  C   UNL     1      55.531  26.721  50.621  1.00  0.00     0.004 C 
ENDBRANCH  24  25
ENDBRANCH  23  24
ENDBRANCH  22  23
ENDBRANCH  21  22
ENDBRANCH  20  21
ENDBRANCH  19  20
ENDBRANCH  18  19
ENDBRANCH  17  18
ENDBRANCH  16  17
ENDBRANCH  15  16
ENDBRANCH   1  15
TORSDOF 22
ENDMDL
MODEL 7
REMARK VINA RESULT:    -2.847      9.338     12.321
REMARK INTER + INTRA:         -11.170
REMARK INTER:                  -7.135
REMARK INTRA:                  -4.035
REMARK UNBOUND:                -4.663
REMARK SMILES CCCCCCCCCCCCCCCCCCCCCCCC(=O)[O-]
REMARK SMILES IDX 13 1 14 2 15 3 16 4 17 5 18 6 19 7 20 8 21 9 22 10 23 11
REMARK SMILES IDX 24 12 25 13 26 14 12 15 11 16 10 17 9 18 8 19 7 20 6 21 5 22
REMARK SMILES IDX 4 23 3 24 2 25 1 26
REMARK H PARENT
REMARK Flexibility Score: inf
ROOT
ATOM      1  C   UNL     1      62.066  32.280  56.023  1.00  0.00     0.000 C 
ENDROOT
BRANCH   1   2
ATOM      2  C   UNL     1      63.144  31.619  56.891  1.00  0.00     0.000 C 
BRANCH   2   3
ATOM      3  C   UNL     1      62.685  31.375  58.337  1.00  0.00     0.000 C 
BRANCH   3   4
ATOM      4  C   UNL     1      63.431  32.255  59.356  1.00  0.00     0.000 C 
BRANCH   4   5
ATOM      5  C   UNL     1      62.675  32.364  60.692  1.00  0.00     0.000 C 
BRANCH   5   6
ATOM      6  C   UNL     1      61.214  31.901  60.564  1.00  0.00     0.000 C 
BRANCH   6   7
ATOM      7  C   UNL     1      60.870  30.829  61.609  1.00  0.00     0.000 C 
BRANCH   7   8
ATOM      8  C   UNL     1      62.059  29.892  61.881  1.00  0.00     0.000 C 
BRANCH   8   9
ATOM      9  C   UNL     1      61.995  28.605  61.045  1.00  0.00     0.000 C 
BRANCH   9  10
ATOM     10  C   UNL     1      63.337  28.343  60.348  1.00  0.00     0.006 C 
BRANCH  10  11
ATOM     11  C   UNL     1      64.491  29.041  61.074  1.00  0.00     0.053 C 
BRANCH  11  12
ATOM     12  C   UNL     1      65.791  28.362  60.767  1.00  0.00     0.041 C 
ATOM     13  O   UNL     1      65.804  27.153  60.413  1.00  0.00    -0.550 OA
ATOM     14  O   UNL     1      66.990  29.052  60.906  1.00  0.00    -0.550 OA
ENDBRANCH  11  12
ENDBRANCH  10  11
ENDBRANCH   9  10
ENDBRANCH   8   9
ENDBRANCH   7   8
ENDBRANCH   6   7
ENDBRANCH   5   6
ENDBRANCH   4   5
ENDBRANCH   3   4
ENDBRANCH   2   3
ENDBRANCH   1   2
BRANCH   1  15
ATOM     15  C   UNL     1      60.787  32.513  56.840  1.00  0.00     0.000 C 
BRANCH  15  16
ATOM     16  C   UNL     1      60.446  34.001  57.016  1.00  0.00     0.000 C 
BRANCH  16  17
ATOM     17  C   UNL     1      61.684  34.905  56.947  1.00  0.00     0.000 C 
BRANCH  17  18
ATOM     18  C   UNL     1      61.804  35.772  58.207  1.00  0.00    -0.000 C 
BRANCH  18  19
ATOM     19  C   UNL     1      60.817  35.309  59.289  1.00  0.00    -0.000 C 
BRANCH  19  20
ATOM     20  C   UNL     1      60.893  36.163  60.569  1.00  0.00    -0.000 C 
BRANCH  20  21
ATOM     21  C   UNL     1      62.301  36.693  60.907  1.00  0.00    -0.000 C 
BRANCH  21  22
ATOM     22  C   UNL     1      63.329  35.620  61.318  1.00  0.00    -0.000 C 
BRANCH  22  23
ATOM     23  C   UNL     1      64.697  36.193  61.747  1.00  0.00    -0.000 C 
BRANCH  23  24
ATOM     24  C   UNL     1      65.802  35.905  60.718  1.00  0.00    -0.000 C 
BRANCH  24  25
ATOM     25  C   UNL     1      65.355  36.187  59.275  1.00  0.00    -0.003 C 
ATOM     26  C   UNL     1      65.619  35.009  58.337  1.00  0.00     0.004 C 
ENDBRANCH  24  25
ENDBRANCH  23  24
ENDBRANCH  22  23
ENDBRANCH  21  22
ENDBRANCH  20  21
ENDBRANCH  19  20
ENDBRANCH  18  19
ENDBRANCH  17  18
ENDBRANCH  16  17
ENDBRANCH  15  16
ENDBRANCH   1  15
TORSDOF 22
ENDMDL
MODEL 8
REMARK VINA RESULT:    -2.835      9.427     12.511
REMARK INTER + INTRA:         -11.143
REMARK INTER:                  -6.967
REMARK INTRA:                  -4.176
REMARK UNBOUND:                -4.663
REMARK SMILES CCCCCCCCCCCCCCCCCCCCCCCC(=O)[O-]
REMARK SMILES IDX 13 1 14 2 15 3 16 4 17 5 18 6 19 7 20 8 21 9 22 10 23 11
REMARK SMILES IDX 24 12 25 13 26 14 12 15 11 16 10 17 9 18 8 19 7 20 6 21 5 22
REMARK SMILES IDX 4 23 3 24 2 25 1 26
REMARK H PARENT
REMARK Flexibility Score: inf
ROOT
ATOM      1  C   UNL     1      61.723  34.778  60.339  1.00  0.00     0.000 C 
ENDROOT
BRANCH   1   2
ATOM      2  C   UNL     1      62.093  33.294  60.457  1.00  0.00     0.000 C 
BRANCH   2   3
ATOM      3  C   UNL     1      61.133  32.374  59.688  1.00  0.00     0.000 C 
BRANCH   3   4
ATOM      4  C   UNL     1      60.892  31.032  60.404  1.00  0.00     0.000 C 
BRANCH   4   5
ATOM      5  C   UNL     1      62.092  30.614  61.273  1.00  0.00     0.000 C 
BRANCH   5   6
ATOM      6  C   UNL     1      61.978  29.154  61.742  1.00  0.00     0.000 C 
BRANCH   6   7
ATOM      7  C   UNL     1      63.180  28.319  61.275  1.00  0.00     0.000 C 
BRANCH   7   8
ATOM      8  C   UNL     1      64.415  29.193  61.003  1.00  0.00     0.000 C 
BRANCH   8   9
ATOM      9  C   UNL     1      65.591  28.387  60.434  1.00  0.00     0.000 C 
BRANCH   9  10
ATOM     10  C   UNL     1      66.925  28.917  60.974  1.00  0.00     0.006 C 
BRANCH  10  11
ATOM     11  C   UNL     1      68.034  27.867  60.860  1.00  0.00     0.053 C 
BRANCH  11  12
ATOM     12  C   UNL     1      69.046  28.281  59.836  1.00  0.00     0.041 C 
ATOM     13  O   UNL     1      70.080  27.585  59.650  1.00  0.00    -0.550 OA
ATOM     14  O   UNL     1      68.867  29.456  59.112  1.00  0.00    -0.550 OA
ENDBRANCH  11  12
ENDBRANCH  10  11
ENDBRANCH   9  10
ENDBRANCH   8   9
ENDBRANCH   7   8
ENDBRANCH   6   7
ENDBRANCH   5   6
ENDBRANCH   4   5
ENDBRANCH   3   4
ENDBRANCH   2   3
ENDBRANCH   1   2
BRANCH   1  15
ATOM     15  C   UNL     1      62.781  35.652  61.028  1.00  0.00     0.000 C 
BRANCH  15  16
ATOM     16  C   UNL     1      64.057  34.879  61.395  1.00  0.00     0.000 C 
BRANCH  16  17
ATOM     17  C   UNL     1      65.338  35.644  61.034  1.00  0.00     0.000 C 
BRANCH  17  18
ATOM     18  C   UNL     1      65.146  36.467  59.754  1.00  0.00    -0.000 C 
BRANCH  18  19
ATOM     19  C   UNL     1      65.636  35.690  58.522  1.00  0.00    -0.000 C 
BRANCH  19  20
ATOM     20  C   UNL     1      64.481  35.213  57.620  1.00  0.00    -0.000 C 
BRANCH  20  21
ATOM     21  C   UNL     1      64.279  33.685  57.587  1.00  0.00    -0.000 C 
BRANCH  21  22
ATOM     22  C   UNL     1      65.244  32.873  58.474  1.00  0.00    -0.000 C 
BRANCH  22  23
ATOM     23  C   UNL     1      65.124  31.344  58.295  1.00  0.00    -0.000 C 
BRANCH  23  24
ATOM     24  C   UNL     1      63.738  30.920  57.785  1.00  0.00    -0.000 C 
BRANCH  24  25
ATOM     25  C   UNL     1      63.690  29.446  57.355  1.00  0.00    -0.003 C 
ATOM     26  C   UNL     1      62.367  28.770  57.719  1.00  0.00     0.004 C 
ENDBRANCH  24  25
ENDBRANCH  23  24
ENDBRANCH  22  23
ENDBRANCH  21  22
ENDBRANCH  20  21
ENDBRANCH  19  20
ENDBRANCH  18  19
ENDBRANCH  17  18
ENDBRANCH  16  17
ENDBRANCH  15  16
ENDBRANCH   1  15
TORSDOF 22
ENDMDL
MODEL 9
REMARK VINA RESULT:    -2.797      8.828     11.214
REMARK INTER + INTRA:         -11.057
REMARK INTER:                  -6.840
REMARK INTRA:                  -4.217
REMARK UNBOUND:                -4.663
REMARK SMILES CCCCCCCCCCCCCCCCCCCCCCCC(=O)[O-]
REMARK SMILES IDX 13 1 14 2 15 3 16 4 17 5 18 6 19 7 20 8 21 9 22 10 23 11
REMARK SMILES IDX 24 12 25 13 26 14 12 15 11 16 10 17 9 18 8 19 7 20 6 21 5 22
REMARK SMILES IDX 4 23 3 24 2 25 1 26
REMARK H PARENT
REMARK Flexibility Score: inf
ROOT
ATOM      1  C   UNL     1      64.494  34.850  61.564  1.00  0.00     0.000 C 
ENDROOT
BRANCH   1   2
ATOM      2  C   UNL     1      64.180  33.953  60.360  1.00  0.00     0.000 C 
BRANCH   2   3
ATOM      3  C   UNL     1      63.609  32.585  60.764  1.00  0.00     0.000 C 
BRANCH   3   4
ATOM      4  C   UNL     1      62.077  32.514  60.626  1.00  0.00     0.000 C 
BRANCH   4   5
ATOM      5  C   UNL     1      61.491  31.266  61.308  1.00  0.00     0.000 C 
BRANCH   5   6
ATOM      6  C   UNL     1      62.587  30.274  61.730  1.00  0.00     0.000 C 
BRANCH   6   7
ATOM      7  C   UNL     1      62.225  28.834  61.335  1.00  0.00     0.000 C 
BRANCH   7   8
ATOM      8  C   UNL     1      63.466  28.023  60.924  1.00  0.00     0.000 C 
BRANCH   8   9
ATOM      9  C   UNL     1      64.701  28.909  60.709  1.00  0.00     0.000 C 
BRANCH   9  10
ATOM     10  C   UNL     1      64.981  29.097  59.212  1.00  0.00     0.006 C 
BRANCH  10  11
ATOM     11  C   UNL     1      65.880  30.311  58.958  1.00  0.00     0.053 C 
BRANCH  11  12
ATOM     12  C   UNL     1      67.171  29.885  58.329  1.00  0.00     0.041 C 
ATOM     13  O   UNL     1      68.256  30.029  58.952  1.00  0.00    -0.550 OA
ATOM     14  O   UNL     1      67.181  29.362  57.040  1.00  0.00    -0.550 OA
ENDBRANCH  11  12
ENDBRANCH  10  11
ENDBRANCH   9  10
ENDBRANCH   8   9
ENDBRANCH   7   8
ENDBRANCH   6   7
ENDBRANCH   5   6
ENDBRANCH   4   5
ENDBRANCH   3   4
ENDBRANCH   2   3
ENDBRANCH   1   2
BRANCH   1  15
ATOM     15  C   UNL     1      63.756  36.191  61.441  1.00  0.00     0.000 C 
BRANCH  15  16
ATOM     16  C   UNL     1      62.802  36.247  60.238  1.00  0.00     0.000 C 
BRANCH  16  17
ATOM     17  C   UNL     1      61.325  36.176  60.648  1.00  0.00     0.000 C 
BRANCH  17  18
ATOM     18  C   UNL     1      60.463  35.615  59.509  1.00  0.00    -0.000 C 
BRANCH  18  19
ATOM     19  C   UNL     1      61.331  35.234  58.300  1.00  0.00    -0.000 C 
BRANCH  19  20
ATOM     20  C   UNL     1      60.578  34.359  57.280  1.00  0.00    -0.000 C 
BRANCH  20  21
ATOM     21  C   UNL     1      59.145  33.972  57.697  1.00  0.00    -0.000 C 
BRANCH  21  22
ATOM     22  C   UNL     1      58.756  32.502  57.439  1.00  0.00    -0.000 C 
BRANCH  22  23
ATOM     23  C   UNL     1      59.448  31.495  58.383  1.00  0.00    -0.000 C 
BRANCH  23  24
ATOM     24  C   UNL     1      59.835  30.191  57.667  1.00  0.00    -0.000 C 
BRANCH  24  25
ATOM     25  C   UNL     1      61.315  29.825  57.864  1.00  0.00    -0.003 C 
ATOM     26  C   UNL     1      62.262  30.928  57.391  1.00  0.00     0.004 C 
ENDBRANCH  24  25
ENDBRANCH  23  24
ENDBRANCH  22  23
ENDBRANCH  21  22
ENDBRANCH  20  21
ENDBRANCH  19  20
ENDBRANCH  18  19
ENDBRANCH  17  18
ENDBRANCH  16  17
ENDBRANCH  15  16
ENDBRANCH   1  15
TORSDOF 22
ENDMDL
