MODEL 1
REMARK VINA RESULT:    -1.936      0.000      0.000
REMARK INTER + INTRA:          -2.372
REMARK INTER:                  -2.049
REMARK INTRA:                  -0.323
REMARK UNBOUND:                -0.323
REMARK SMILES CC1=CC[C@@]23[C@@H]([C@@H]12)[C@H](C(C)C)CC[C@@H]3C
REMARK SMILES IDX 15 1 14 2 13 3 12 4 8 5 6 6 5 7 7 8 2 9 3 10 4 11 1 12 9 13
REMARK SMILES IDX 10 14 11 15
REMARK H PARENT
REMARK Flexibility Score: inf
ROOT
ATOM      1  C   UNL     1     137.311 134.876 121.363  1.00  0.00     0.008 C 
ATOM      2  C   UNL     1     138.343 135.991 121.615  1.00  0.00    -0.007 C 
ATOM      3  C   UNL     1     137.877 137.307 120.961  1.00  0.00     0.004 C 
ATOM      4  C   UNL     1     136.822 138.026 121.806  1.00  0.00     0.004 C 
ATOM      5  C   UNL     1     137.418 138.517 123.141  1.00  0.00    -0.004 C 
ATOM      6  C   UNL     1     138.102 137.349 123.905  1.00  0.00     0.007 C 
ATOM      7  C   UNL     1     138.630 136.128 123.134  1.00  0.00    -0.013 C 
ATOM      8  C   UNL     1     139.595 137.229 123.573  1.00  0.00     0.025 C 
ATOM      9  C   UNL     1     140.439 136.593 124.623  1.00  0.00    -0.073 C 
ATOM     10  C   UNL     1     140.127 135.321 124.828  1.00  0.00    -0.027 C 
ATOM     11  C   UNL     1     139.011 134.878 123.952  1.00  0.00     0.035 C 
ATOM     12  C   UNL     1     141.513 137.314 125.374  1.00  0.00     0.039 C 
ENDROOT
BRANCH   5  13
ATOM     13  C   UNL     1     136.353 139.202 124.057  1.00  0.00    -0.014 C 
ATOM     14  C   UNL     1     136.078 138.417 125.352  1.00  0.00     0.007 C 
ATOM     15  C   UNL     1     135.020 139.388 123.307  1.00  0.00     0.007 C 
ENDBRANCH   5  13
TORSDOF 1
ENDMDL
MODEL 2
REMARK VINA RESULT:    -1.723     14.162     16.637
REMARK INTER + INTRA:          -2.147
REMARK INTER:                  -1.810
REMARK INTRA:                  -0.336
REMARK UNBOUND:                -0.323
REMARK SMILES CC1=CC[C@@]23[C@@H]([C@@H]12)[C@H](C(C)C)CC[C@@H]3C
REMARK SMILES IDX 15 1 14 2 13 3 12 4 8 5 6 6 5 7 7 8 2 9 3 10 4 11 1 12 9 13
REMARK SMILES IDX 10 14 11 15
REMARK H PARENT
REMARK Flexibility Score: inf
ROOT
ATOM      1  C   UNL     1     135.938 150.997 126.337  1.00  0.00     0.008 C 
ATOM      2  C   UNL     1     135.286 152.106 125.491  1.00  0.00    -0.007 C 
ATOM      3  C   UNL     1     135.361 153.456 126.232  1.00  0.00     0.004 C 
ATOM      4  C   UNL     1     136.742 154.104 126.105  1.00  0.00     0.004 C 
ATOM      5  C   UNL     1     137.032 154.515 124.647  1.00  0.00    -0.004 C 
ATOM      6  C   UNL     1     136.848 153.308 123.685  1.00  0.00     0.007 C 
ATOM      7  C   UNL     1     135.918 152.147 124.074  1.00  0.00    -0.013 C 
ATOM      8  C   UNL     1     135.426 153.230 123.113  1.00  0.00     0.025 C 
ATOM      9  C   UNL     1     135.298 152.538 121.801  1.00  0.00    -0.073 C 
ATOM     10  C   UNL     1     135.610 151.251 121.869  1.00  0.00    -0.027 C 
ATOM     11  C   UNL     1     136.009 150.851 123.244  1.00  0.00     0.035 C 
ATOM     12  C   UNL     1     134.876 153.221 120.539  1.00  0.00     0.039 C 
ENDROOT
BRANCH   5  13
ATOM     13  C   UNL     1     138.461 155.125 124.470  1.00  0.00    -0.014 C 
ATOM     14  C   UNL     1     138.939 155.123 123.007  1.00  0.00     0.007 C 
ATOM     15  C   UNL     1     139.494 154.363 125.322  1.00  0.00     0.007 C 
ENDBRANCH   5  13
TORSDOF 1
ENDMDL
MODEL 3
REMARK VINA RESULT:    -1.698      1.395      3.566
REMARK INTER + INTRA:          -2.120
REMARK INTER:                  -1.912
REMARK INTRA:                  -0.208
REMARK UNBOUND:                -0.323
REMARK SMILES CC1=CC[C@@]23[C@@H]([C@@H]12)[C@H](C(C)C)CC[C@@H]3C
REMARK SMILES IDX 15 1 14 2 13 3 12 4 8 5 6 6 5 7 7 8 2 9 3 10 4 11 1 12 9 13
REMARK SMILES IDX 10 14 11 15
REMARK H PARENT
REMARK Flexibility Score: inf
ROOT
ATOM      1  C   UNL     1     139.643 136.000 125.911  1.00  0.00     0.008 C 
ATOM      2  C   UNL     1     138.329 135.542 125.252  1.00  0.00    -0.007 C 
ATOM      3  C   UNL     1     137.121 136.016 126.086  1.00  0.00     0.004 C 
ATOM      4  C   UNL     1     136.791 137.488 125.834  1.00  0.00     0.004 C 
ATOM      5  C   UNL     1     136.297 137.709 124.389  1.00  0.00    -0.004 C 
ATOM      6  C   UNL     1     137.317 137.141 123.363  1.00  0.00     0.007 C 
ATOM      7  C   UNL     1     138.274 136.010 123.773  1.00  0.00    -0.013 C 
ATOM      8  C   UNL     1     137.009 135.688 122.977  1.00  0.00     0.025 C 
ATOM      9  C   UNL     1     137.505 135.258 121.641  1.00  0.00    -0.073 C 
ATOM     10  C   UNL     1     138.828 135.261 121.560  1.00  0.00    -0.027 C 
ATOM     11  C   UNL     1     139.457 135.700 122.834  1.00  0.00     0.035 C 
ATOM     12  C   UNL     1     136.608 134.876 120.506  1.00  0.00     0.039 C 
ENDROOT
BRANCH   5  13
ATOM     13  C   UNL     1     136.009 139.214 124.077  1.00  0.00    -0.014 C 
ATOM     14  C   UNL     1     135.625 140.025 125.328  1.00  0.00     0.007 C 
ATOM     15  C   UNL     1     134.880 139.354 123.038  1.00  0.00     0.007 C 
ENDBRANCH   5  13
TORSDOF 1
ENDMDL
MODEL 4
REMARK VINA RESULT:    -0.835     13.392     15.638
REMARK INTER + INTRA:          -1.207
REMARK INTER:                  -0.910
REMARK INTRA:                  -0.297
REMARK UNBOUND:                -0.323
REMARK SMILES CC1=CC[C@@]23[C@@H]([C@@H]12)[C@H](C(C)C)CC[C@@H]3C
REMARK SMILES IDX 15 1 14 2 13 3 12 4 8 5 6 6 5 7 7 8 2 9 3 10 4 11 1 12 9 13
REMARK SMILES IDX 10 14 11 15
REMARK H PARENT
REMARK Flexibility Score: inf
ROOT
ATOM      1  C   UNL     1     134.875 152.876 121.004  1.00  0.00     0.008 C 
ATOM      2  C   UNL     1     136.142 152.114 121.437  1.00  0.00    -0.007 C 
ATOM      3  C   UNL     1     137.404 152.869 120.971  1.00  0.00     0.004 C 
ATOM      4  C   UNL     1     137.739 154.047 121.889  1.00  0.00     0.004 C 
ATOM      5  C   UNL     1     138.150 153.559 123.293  1.00  0.00    -0.004 C 
ATOM      6  C   UNL     1     137.063 152.624 123.894  1.00  0.00     0.007 C 
ATOM      7  C   UNL     1     136.115 151.847 122.965  1.00  0.00    -0.013 C 
ATOM      8  C   UNL     1     137.327 151.146 123.580  1.00  0.00     0.025 C 
ATOM      9  C   UNL     1     136.747 150.169 124.543  1.00  0.00    -0.073 C 
ATOM     10  C   UNL     1     135.422 150.188 124.555  1.00  0.00    -0.027 C 
ATOM     11  C   UNL     1     134.875 151.189 123.600  1.00  0.00     0.035 C 
ATOM     12  C   UNL     1     137.570 149.273 125.414  1.00  0.00     0.039 C 
ENDROOT
BRANCH   5  13
ATOM     13  C   UNL     1     138.440 154.740 124.276  1.00  0.00    -0.014 C 
ATOM     14  C   UNL     1     139.944 154.972 124.510  1.00  0.00     0.007 C 
ATOM     15  C   UNL     1     137.766 154.498 125.641  1.00  0.00     0.007 C 
ENDBRANCH   5  13
TORSDOF 1
ENDMDL
MODEL 5
REMARK VINA RESULT:    -0.615      1.495      4.528
REMARK INTER + INTRA:          -0.973
REMARK INTER:                  -0.704
REMARK INTRA:                  -0.269
REMARK UNBOUND:                -0.323
REMARK SMILES CC1=CC[C@@]23[C@@H]([C@@H]12)[C@H](C(C)C)CC[C@@H]3C
REMARK SMILES IDX 15 1 14 2 13 3 12 4 8 5 6 6 5 7 7 8 2 9 3 10 4 11 1 12 9 13
REMARK SMILES IDX 10 14 11 15
REMARK H PARENT
REMARK Flexibility Score: inf
ROOT
ATOM      1  C   UNL     1     136.318 135.180 121.921  1.00  0.00     0.008 C 
ATOM      2  C   UNL     1     135.924 135.814 123.268  1.00  0.00    -0.007 C 
ATOM      3  C   UNL     1     136.304 134.875 124.431  1.00  0.00     0.004 C 
ATOM      4  C   UNL     1     137.794 134.958 124.772  1.00  0.00     0.004 C 
ATOM      5  C   UNL     1     138.159 136.345 125.339  1.00  0.00    -0.004 C 
ATOM      6  C   UNL     1     137.703 137.475 124.373  1.00  0.00     0.007 C 
ATOM      7  C   UNL     1     136.540 137.233 123.398  1.00  0.00    -0.013 C 
ATOM      8  C   UNL     1     136.296 137.991 124.703  1.00  0.00     0.025 C 
ATOM      9  C   UNL     1     136.007 139.388 124.277  1.00  0.00    -0.073 C 
ATOM     10  C   UNL     1     136.023 139.536 122.960  1.00  0.00    -0.027 C 
ATOM     11  C   UNL     1     136.333 138.257 122.265  1.00  0.00     0.035 C 
ATOM     12  C   UNL     1     135.739 140.509 125.231  1.00  0.00     0.039 C 
ENDROOT
BRANCH   5  13
ATOM     13  C   UNL     1     139.687 136.486 125.640  1.00  0.00    -0.014 C 
ATOM     14  C   UNL     1     140.532 136.713 124.374  1.00  0.00     0.007 C 
ATOM     15  C   UNL     1     140.221 135.238 126.368  1.00  0.00     0.007 C 
ENDBRANCH   5  13
TORSDOF 1
ENDMDL
MODEL 6
REMARK VINA RESULT:    -0.572     13.103     16.136
REMARK INTER + INTRA:          -0.928
REMARK INTER:                  -0.728
REMARK INTRA:                  -0.200
REMARK UNBOUND:                -0.323
REMARK SMILES CC1=CC[C@@]23[C@@H]([C@@H]12)[C@H](C(C)C)CC[C@@H]3C
REMARK SMILES IDX 15 1 14 2 13 3 12 4 8 5 6 6 5 7 7 8 2 9 3 10 4 11 1 12 9 13
REMARK SMILES IDX 10 14 11 15
REMARK H PARENT
REMARK Flexibility Score: inf
ROOT
ATOM      1  C   UNL     1     154.713 139.506 126.440  1.00  0.00     0.008 C 
ATOM      2  C   UNL     1     155.125 138.397 125.453  1.00  0.00    -0.007 C 
ATOM      3  C   UNL     1     154.845 137.009 126.063  1.00  0.00     0.004 C 
ATOM      4  C   UNL     1     153.369 136.622 125.957  1.00  0.00     0.004 C 
ATOM      5  C   UNL     1     152.949 136.423 124.486  1.00  0.00    -0.004 C 
ATOM      6  C   UNL     1     153.302 137.676 123.636  1.00  0.00     0.007 C 
ATOM      7  C   UNL     1     154.436 138.614 124.079  1.00  0.00    -0.013 C 
ATOM      8  C   UNL     1     154.690 137.571 122.991  1.00  0.00     0.025 C 
ATOM      9  C   UNL     1     154.882 138.366 121.746  1.00  0.00    -0.073 C 
ATOM     10  C   UNL     1     154.803 139.672 121.956  1.00  0.00    -0.027 C 
ATOM     11  C   UNL     1     154.538 139.987 123.386  1.00  0.00     0.035 C 
ATOM     12  C   UNL     1     155.125 137.758 120.401  1.00  0.00     0.039 C 
ENDROOT
BRANCH   5  13
ATOM     13  C   UNL     1     151.430 136.087 124.337  1.00  0.00    -0.014 C 
ATOM     14  C   UNL     1     150.750 135.762 125.679  1.00  0.00     0.007 C 
ATOM     15  C   UNL     1     151.221 134.894 123.383  1.00  0.00     0.007 C 
ENDBRANCH   5  13
TORSDOF 1
ENDMDL
MODEL 7
REMARK VINA RESULT:    -0.429      1.199      4.333
REMARK INTER + INTRA:          -0.776
REMARK INTER:                  -0.463
REMARK INTRA:                  -0.314
REMARK UNBOUND:                -0.323
REMARK SMILES CC1=CC[C@@]23[C@@H]([C@@H]12)[C@H](C(C)C)CC[C@@H]3C
REMARK SMILES IDX 15 1 14 2 13 3 12 4 8 5 6 6 5 7 7 8 2 9 3 10 4 11 1 12 9 13
REMARK SMILES IDX 10 14 11 15
REMARK H PARENT
REMARK Flexibility Score: inf
ROOT
ATOM      1  C   UNL     1     139.165 134.875 125.995  1.00  0.00     0.008 C 
ATOM      2  C   UNL     1     139.182 136.315 125.450  1.00  0.00    -0.007 C 
ATOM      3  C   UNL     1     140.394 136.520 124.519  1.00  0.00     0.004 C 
ATOM      4  C   UNL     1     140.149 135.942 123.123  1.00  0.00     0.004 C 
ATOM      5  C   UNL     1     139.038 136.717 122.387  1.00  0.00    -0.004 C 
ATOM      6  C   UNL     1     137.743 136.775 123.245  1.00  0.00     0.007 C 
ATOM      7  C   UNL     1     137.825 136.652 124.775  1.00  0.00    -0.013 C 
ATOM      8  C   UNL     1     137.683 138.030 124.127  1.00  0.00     0.025 C 
ATOM      9  C   UNL     1     136.317 138.485 124.507  1.00  0.00    -0.073 C 
ATOM     10  C   UNL     1     135.682 137.611 125.275  1.00  0.00    -0.027 C 
ATOM     11  C   UNL     1     136.512 136.406 125.543  1.00  0.00     0.035 C 
ATOM     12  C   UNL     1     135.719 139.782 124.061  1.00  0.00     0.039 C 
ENDROOT
BRANCH   5  13
ATOM     13  C   UNL     1     138.718 136.115 120.980  1.00  0.00    -0.014 C 
ATOM     14  C   UNL     1     138.313 137.181 119.947  1.00  0.00     0.007 C 
ATOM     15  C   UNL     1     137.590 135.070 121.072  1.00  0.00     0.007 C 
ENDBRANCH   5  13
TORSDOF 1
ENDMDL
MODEL 8
REMARK VINA RESULT:     0.094      1.022      4.194
REMARK INTER + INTRA:          -0.224
REMARK INTER:                   0.091
REMARK INTRA:                  -0.315
REMARK UNBOUND:                -0.323
REMARK SMILES CC1=CC[C@@]23[C@@H]([C@@H]12)[C@H](C(C)C)CC[C@@H]3C
REMARK SMILES IDX 15 1 14 2 13 3 12 4 8 5 6 6 5 7 7 8 2 9 3 10 4 11 1 12 9 13
REMARK SMILES IDX 10 14 11 15
REMARK H PARENT
REMARK Flexibility Score: inf
ROOT
ATOM      1  C   UNL     1     138.642 136.949 120.099  1.00  0.00     0.008 C 
ATOM      2  C   UNL     1     137.628 136.463 121.151  1.00  0.00    -0.007 C 
ATOM      3  C   UNL     1     137.915 134.996 121.531  1.00  0.00     0.004 C 
ATOM      4  C   UNL     1     139.075 134.875 122.521  1.00  0.00     0.004 C 
ATOM      5  C   UNL     1     138.710 135.499 123.884  1.00  0.00    -0.004 C 
ATOM      6  C   UNL     1     138.225 136.966 123.708  1.00  0.00     0.007 C 
ATOM      7  C   UNL     1     137.616 137.421 122.372  1.00  0.00    -0.013 C 
ATOM      8  C   UNL     1     136.702 137.060 123.543  1.00  0.00     0.025 C 
ATOM      9  C   UNL     1     136.089 138.353 123.955  1.00  0.00    -0.073 C 
ATOM     10  C   UNL     1     136.484 139.369 123.201  1.00  0.00    -0.027 C 
ATOM     11  C   UNL     1     137.440 138.936 122.147  1.00  0.00     0.035 C 
ATOM     12  C   UNL     1     135.140 138.495 125.103  1.00  0.00     0.039 C 
ENDROOT
BRANCH   5  13
ATOM     13  C   UNL     1     139.896 135.449 124.902  1.00  0.00    -0.014 C 
ATOM     14  C   UNL     1     139.429 135.318 126.363  1.00  0.00     0.007 C 
ATOM     15  C   UNL     1     140.778 136.707 124.783  1.00  0.00     0.007 C 
ENDBRANCH   5  13
TORSDOF 1
ENDMDL
