MODEL 1
REMARK VINA RESULT:    -7.516      0.000      0.000
REMARK INTER + INTRA:          -8.643
REMARK INTER:                  -8.176
REMARK INTRA:                  -0.467
REMARK UNBOUND:                -0.467
REMARK SMILES C=C(C)[C@@H]1CC[C@]2(C)CC[C@]3(C)[C@@H](CC[C@H]4[C@@]5(C)CC[C@H](O)C(C)(C)[C@H]5CC[C@]43C)[C@@H]12
REMARK SMILES IDX 4 1 5 2 6 3 7 4 31 5 13 6 14 7 15 8 16 9 17 10 19 11 20 12
REMARK SMILES IDX 21 13 23 14 26 15 27 16 28 17 29 18 11 19 10 20 9 21 12 22
REMARK SMILES IDX 30 23 24 24 25 25 18 26 8 27 2 28 3 29 1 30 22 31
REMARK H PARENT 22 32
REMARK Flexibility Score: inf
ROOT
ATOM      1  C   UNL     1     117.718 120.880 133.813  1.00  0.00     0.018 C 
ATOM      2  C   UNL     1     116.420 120.909 134.657  1.00  0.00     0.009 C 
ATOM      3  C   UNL     1     115.254 120.642 133.678  1.00  0.00     0.008 C 
ATOM      4  C   UNL     1     115.827 120.922 132.271  1.00  0.00    -0.029 C 
ATOM      5  C   UNL     1     117.235 120.361 132.456  1.00  0.00     0.006 C 
ATOM      6  C   UNL     1     118.148 120.388 131.214  1.00  0.00    -0.000 C 
ATOM      7  C   UNL     1     118.762 121.740 130.850  1.00  0.00     0.005 C 
ATOM      8  C   UNL     1     119.755 121.515 129.719  1.00  0.00     0.005 C 
ATOM      9  C   UNL     1     119.077 121.134 128.365  1.00  0.00     0.002 C 
ATOM     10  C   UNL     1     120.165 120.725 127.226  1.00  0.00    -0.026 C 
ATOM     11  C   UNL     1     121.387 119.946 127.830  1.00  0.00     0.010 C 
ATOM     12  C   UNL     1     122.389 119.387 126.806  1.00  0.00     0.033 C 
ATOM     13  C   UNL     1     121.709 118.521 125.736  1.00  0.00     0.120 C 
ATOM     14  C   UNL     1     120.554 119.261 124.996  1.00  0.00    -0.006 C 
ATOM     15  C   UNL     1     119.526 119.857 126.065  1.00  0.00     0.003 C 
ATOM     16  C   UNL     1     118.665 118.746 126.712  1.00  0.00     0.005 C 
ATOM     17  C   UNL     1     117.425 119.337 127.349  1.00  0.00     0.008 C 
ATOM     18  C   UNL     1     117.681 120.329 128.537  1.00  0.00    -0.024 C 
ATOM     19  C   UNL     1     117.518 119.585 129.984  1.00  0.00    -0.024 C 
ATOM     20  C   UNL     1     116.002 119.177 130.298  1.00  0.00     0.008 C 
ATOM     21  C   UNL     1     115.110 120.176 131.104  1.00  0.00     0.007 C 
ATOM     22  C   UNL     1     118.297 118.230 129.955  1.00  0.00     0.012 C 
ATOM     23  C   UNL     1     116.525 121.375 128.350  1.00  0.00     0.012 C 
ATOM     24  C   UNL     1     121.099 120.377 124.053  1.00  0.00     0.014 C 
ATOM     25  C   UNL     1     119.859 118.236 124.048  1.00  0.00     0.014 C 
ATOM     26  C   UNL     1     120.708 122.077 126.650  1.00  0.00     0.012 C 
ATOM     27  C   UNL     1     115.748 122.463 132.050  1.00  0.00     0.011 C 
ENDROOT
BRANCH   1  28
ATOM     28  C   UNL     1     118.821 120.029 134.438  1.00  0.00    -0.077 C 
ATOM     29  C   UNL     1     120.281 120.407 134.308  1.00  0.00     0.039 C 
ATOM     30  C   UNL     1     118.497 118.913 135.121  1.00  0.00     0.008 C 
ENDBRANCH   1  28
BRANCH  13  31
ATOM     31  O   UNL     1     122.661 118.001 124.836  1.00  0.00    -0.393 OA
ATOM     32  H   UNL     1     123.031 117.164 125.219  1.00  0.00     0.210 HD
ENDBRANCH  13  31
TORSDOF 2
ENDMDL
MODEL 2
REMARK VINA RESULT:    -6.979      2.019      4.599
REMARK INTER + INTRA:          -8.059
REMARK INTER:                  -7.580
REMARK INTRA:                  -0.478
REMARK UNBOUND:                -0.467
REMARK SMILES C=C(C)[C@@H]1CC[C@]2(C)CC[C@]3(C)[C@@H](CC[C@H]4[C@@]5(C)CC[C@H](O)C(C)(C)[C@H]5CC[C@]43C)[C@@H]12
REMARK SMILES IDX 4 1 5 2 6 3 7 4 31 5 13 6 14 7 15 8 16 9 17 10 19 11 20 12
REMARK SMILES IDX 21 13 23 14 26 15 27 16 28 17 29 18 11 19 10 20 9 21 12 22
REMARK SMILES IDX 30 23 24 24 25 25 18 26 8 27 2 28 3 29 1 30 22 31
REMARK H PARENT 22 32
REMARK Flexibility Score: inf
ROOT
ATOM      1  C   UNL     1     115.190 121.350 129.156  1.00  0.00     0.018 C 
ATOM      2  C   UNL     1     114.742 122.041 130.467  1.00  0.00     0.009 C 
ATOM      3  C   UNL     1     116.033 122.423 131.225  1.00  0.00     0.008 C 
ATOM      4  C   UNL     1     117.149 121.561 130.594  1.00  0.00    -0.029 C 
ATOM      5  C   UNL     1     116.700 121.596 129.135  1.00  0.00     0.006 C 
ATOM      6  C   UNL     1     117.617 120.882 128.122  1.00  0.00    -0.000 C 
ATOM      7  C   UNL     1     117.532 119.356 128.085  1.00  0.00     0.005 C 
ATOM      8  C   UNL     1     118.372 118.867 126.914  1.00  0.00     0.005 C 
ATOM      9  C   UNL     1     119.905 119.063 127.126  1.00  0.00     0.002 C 
ATOM     10  C   UNL     1     120.762 118.701 125.790  1.00  0.00    -0.026 C 
ATOM     11  C   UNL     1     120.011 119.117 124.476  1.00  0.00     0.010 C 
ATOM     12  C   UNL     1     120.811 118.951 123.173  1.00  0.00     0.033 C 
ATOM     13  C   UNL     1     122.172 119.660 123.230  1.00  0.00     0.120 C 
ATOM     14  C   UNL     1     123.041 119.214 124.445  1.00  0.00    -0.006 C 
ATOM     15  C   UNL     1     122.198 119.370 125.794  1.00  0.00     0.003 C 
ATOM     16  C   UNL     1     122.037 120.854 126.201  1.00  0.00     0.005 C 
ATOM     17  C   UNL     1     121.661 120.967 127.662  1.00  0.00     0.008 C 
ATOM     18  C   UNL     1     120.279 120.336 128.057  1.00  0.00    -0.024 C 
ATOM     19  C   UNL     1     119.103 121.470 128.134  1.00  0.00    -0.024 C 
ATOM     20  C   UNL     1     119.299 122.476 129.364  1.00  0.00     0.008 C 
ATOM     21  C   UNL     1     118.589 122.149 130.718  1.00  0.00     0.007 C 
ATOM     22  C   UNL     1     119.181 122.376 126.862  1.00  0.00     0.012 C 
ATOM     23  C   UNL     1     120.568 119.780 129.496  1.00  0.00     0.012 C 
ATOM     24  C   UNL     1     123.566 117.756 124.271  1.00  0.00     0.014 C 
ATOM     25  C   UNL     1     124.322 120.104 124.469  1.00  0.00     0.014 C 
ATOM     26  C   UNL     1     120.896 117.139 125.781  1.00  0.00     0.012 C 
ATOM     27  C   UNL     1     117.082 120.162 131.279  1.00  0.00     0.011 C 
ENDROOT
BRANCH   1  28
ATOM     28  C   UNL     1     114.465 121.879 127.921  1.00  0.00    -0.077 C 
ATOM     29  C   UNL     1     113.661 120.963 127.022  1.00  0.00     0.039 C 
ATOM     30  C   UNL     1     114.538 123.189 127.615  1.00  0.00     0.008 C 
ENDBRANCH   1  28
BRANCH  13  31
ATOM     31  O   UNL     1     122.862 119.513 122.010  1.00  0.00    -0.393 OA
ATOM     32  H   UNL     1     122.451 120.121 121.342  1.00  0.00     0.210 HD
ENDBRANCH  13  31
TORSDOF 2
ENDMDL
MODEL 3
REMARK VINA RESULT:    -6.915      9.985     13.193
REMARK INTER + INTRA:          -7.989
REMARK INTER:                  -7.525
REMARK INTRA:                  -0.464
REMARK UNBOUND:                -0.467
REMARK SMILES C=C(C)[C@@H]1CC[C@]2(C)CC[C@]3(C)[C@@H](CC[C@H]4[C@@]5(C)CC[C@H](O)C(C)(C)[C@H]5CC[C@]43C)[C@@H]12
REMARK SMILES IDX 4 1 5 2 6 3 7 4 31 5 13 6 14 7 15 8 16 9 17 10 19 11 20 12
REMARK SMILES IDX 21 13 23 14 26 15 27 16 28 17 29 18 11 19 10 20 9 21 12 22
REMARK SMILES IDX 30 23 24 24 25 25 18 26 8 27 2 28 3 29 1 30 22 31
REMARK H PARENT 22 32
REMARK Flexibility Score: inf
ROOT
ATOM      1  C   UNL     1     126.856 119.763 119.239  1.00  0.00     0.018 C 
ATOM      2  C   UNL     1     125.511 120.096 118.550  1.00  0.00     0.009 C 
ATOM      3  C   UNL     1     124.399 119.762 119.571  1.00  0.00     0.008 C 
ATOM      4  C   UNL     1     125.065 118.836 120.613  1.00  0.00    -0.029 C 
ATOM      5  C   UNL     1     126.443 119.491 120.687  1.00  0.00     0.006 C 
ATOM      6  C   UNL     1     127.431 118.885 121.705  1.00  0.00    -0.000 C 
ATOM      7  C   UNL     1     128.104 117.573 121.302  1.00  0.00     0.005 C 
ATOM      8  C   UNL     1     129.157 117.245 122.351  1.00  0.00     0.005 C 
ATOM      9  C   UNL     1     128.553 116.845 123.733  1.00  0.00     0.002 C 
ATOM     10  C   UNL     1     129.697 116.677 124.879  1.00  0.00    -0.026 C 
ATOM     11  C   UNL     1     130.857 117.721 124.712  1.00  0.00     0.010 C 
ATOM     12  C   UNL     1     131.904 117.735 125.839  1.00  0.00     0.033 C 
ATOM     13  C   UNL     1     131.267 117.897 127.226  1.00  0.00     0.120 C 
ATOM     14  C   UNL     1     130.181 116.820 127.527  1.00  0.00    -0.006 C 
ATOM     15  C   UNL     1     129.105 116.796 126.344  1.00  0.00     0.003 C 
ATOM     16  C   UNL     1     128.176 118.032 126.390  1.00  0.00     0.005 C 
ATOM     17  C   UNL     1     126.917 117.780 125.588  1.00  0.00     0.008 C 
ATOM     18  C   UNL     1     127.127 117.547 124.051  1.00  0.00    -0.024 C 
ATOM     19  C   UNL     1     126.855 118.914 123.195  1.00  0.00    -0.024 C 
ATOM     20  C   UNL     1     125.311 119.340 123.193  1.00  0.00     0.008 C 
ATOM     21  C   UNL     1     124.400 118.843 122.025  1.00  0.00     0.007 C 
ATOM     22  C   UNL     1     127.596 120.106 123.884  1.00  0.00     0.012 C 
ATOM     23  C   UNL     1     126.014 116.490 123.721  1.00  0.00     0.012 C 
ATOM     24  C   UNL     1     130.813 115.412 127.745  1.00  0.00     0.014 C 
ATOM     25  C   UNL     1     129.516 117.179 128.892  1.00  0.00     0.014 C 
ATOM     26  C   UNL     1     130.312 115.252 124.661  1.00  0.00     0.012 C 
ATOM     27  C   UNL     1     125.043 117.396 120.018  1.00  0.00     0.011 C 
ENDROOT
BRANCH   1  28
ATOM     28  C   UNL     1     127.895 120.872 119.095  1.00  0.00    -0.077 C 
ATOM     29  C   UNL     1     129.375 120.565 119.013  1.00  0.00     0.039 C 
ATOM     30  C   UNL     1     127.494 122.158 119.042  1.00  0.00     0.008 C 
ENDBRANCH   1  28
BRANCH  13  31
ATOM     31  O   UNL     1     132.257 117.937 128.228  1.00  0.00    -0.393 OA
ATOM     32  H   UNL     1     131.814 118.106 129.100  1.00  0.00     0.210 HD
ENDBRANCH  13  31
TORSDOF 2
ENDMDL
MODEL 4
REMARK VINA RESULT:    -6.457      3.761      7.232
REMARK INTER + INTRA:          -7.491
REMARK INTER:                  -7.014
REMARK INTRA:                  -0.477
REMARK UNBOUND:                -0.467
REMARK SMILES C=C(C)[C@@H]1CC[C@]2(C)CC[C@]3(C)[C@@H](CC[C@H]4[C@@]5(C)CC[C@H](O)C(C)(C)[C@H]5CC[C@]43C)[C@@H]12
REMARK SMILES IDX 4 1 5 2 6 3 7 4 31 5 13 6 14 7 15 8 16 9 17 10 19 11 20 12
REMARK SMILES IDX 21 13 23 14 26 15 27 16 28 17 29 18 11 19 10 20 9 21 12 22
REMARK SMILES IDX 30 23 24 24 25 25 18 26 8 27 2 28 3 29 1 30 22 31
REMARK H PARENT 22 32
REMARK Flexibility Score: inf
ROOT
ATOM      1  C   UNL     1     120.298 117.327 127.397  1.00  0.00     0.018 C 
ATOM      2  C   UNL     1     121.266 116.517 126.501  1.00  0.00     0.009 C 
ATOM      3  C   UNL     1     122.034 117.546 125.642  1.00  0.00     0.008 C 
ATOM      4  C   UNL     1     121.199 118.844 125.712  1.00  0.00    -0.029 C 
ATOM      5  C   UNL     1     120.745 118.772 127.168  1.00  0.00     0.006 C 
ATOM      6  C   UNL     1     119.909 119.963 127.681  1.00  0.00    -0.000 C 
ATOM      7  C   UNL     1     118.443 120.000 127.252  1.00  0.00     0.005 C 
ATOM      8  C   UNL     1     117.764 121.139 127.999  1.00  0.00     0.005 C 
ATOM      9  C   UNL     1     118.234 122.552 127.534  1.00  0.00     0.002 C 
ATOM     10  C   UNL     1     117.630 123.740 128.469  1.00  0.00    -0.026 C 
ATOM     11  C   UNL     1     117.534 123.313 129.976  1.00  0.00     0.010 C 
ATOM     12  C   UNL     1     117.118 124.424 130.955  1.00  0.00     0.033 C 
ATOM     13  C   UNL     1     118.003 125.672 130.833  1.00  0.00     0.120 C 
ATOM     14  C   UNL     1     118.058 126.240 129.382  1.00  0.00    -0.006 C 
ATOM     15  C   UNL     1     118.473 125.077 128.366  1.00  0.00     0.003 C 
ATOM     16  C   UNL     1     119.972 124.713 128.493  1.00  0.00     0.005 C 
ATOM     17  C   UNL     1     120.446 123.976 127.260  1.00  0.00     0.008 C 
ATOM     18  C   UNL     1     119.762 122.589 126.994  1.00  0.00    -0.024 C 
ATOM     19  C   UNL     1     120.686 121.352 127.535  1.00  0.00    -0.024 C 
ATOM     20  C   UNL     1     122.022 121.161 126.673  1.00  0.00     0.008 C 
ATOM     21  C   UNL     1     122.001 120.161 125.472  1.00  0.00     0.007 C 
ATOM     22  C   UNL     1     121.187 121.680 128.979  1.00  0.00     0.012 C 
ATOM     23  C   UNL     1     119.694 122.548 125.427  1.00  0.00     0.012 C 
ATOM     24  C   UNL     1     116.706 126.896 128.970  1.00  0.00     0.014 C 
ATOM     25  C   UNL     1     119.094 127.406 129.364  1.00  0.00     0.014 C 
ATOM     26  C   UNL     1     116.169 123.985 127.956  1.00  0.00     0.012 C 
ATOM     27  C   UNL     1     120.063 118.709 124.653  1.00  0.00     0.011 C 
ENDROOT
BRANCH   1  28
ATOM     28  C   UNL     1     120.336 116.897 128.862  1.00  0.00    -0.077 C 
ATOM     29  C   UNL     1     121.602 117.002 129.685  1.00  0.00     0.039 C 
ATOM     30  C   UNL     1     119.221 116.411 129.443  1.00  0.00     0.008 C 
ENDBRANCH   1  28
BRANCH  13  31
ATOM     31  O   UNL     1     117.611 126.654 131.765  1.00  0.00    -0.393 OA
ATOM     32  H   UNL     1     117.156 126.204 132.523  1.00  0.00     0.210 HD
ENDBRANCH  13  31
TORSDOF 2
ENDMDL
MODEL 5
REMARK VINA RESULT:    -6.453      3.048      7.981
REMARK INTER + INTRA:          -7.486
REMARK INTER:                  -7.285
REMARK INTRA:                  -0.202
REMARK UNBOUND:                -0.467
REMARK SMILES C=C(C)[C@@H]1CC[C@]2(C)CC[C@]3(C)[C@@H](CC[C@H]4[C@@]5(C)CC[C@H](O)C(C)(C)[C@H]5CC[C@]43C)[C@@H]12
REMARK SMILES IDX 4 1 5 2 6 3 7 4 31 5 13 6 14 7 15 8 16 9 17 10 19 11 20 12
REMARK SMILES IDX 21 13 23 14 26 15 27 16 28 17 29 18 11 19 10 20 9 21 12 22
REMARK SMILES IDX 30 23 24 24 25 25 18 26 8 27 2 28 3 29 1 30 22 31
REMARK H PARENT 22 32
REMARK Flexibility Score: inf
ROOT
ATOM      1  C   UNL     1     122.843 119.384 124.055  1.00  0.00     0.018 C 
ATOM      2  C   UNL     1     123.916 118.285 123.860  1.00  0.00     0.009 C 
ATOM      3  C   UNL     1     123.838 117.370 125.103  1.00  0.00     0.008 C 
ATOM      4  C   UNL     1     123.081 118.192 126.170  1.00  0.00    -0.029 C 
ATOM      5  C   UNL     1     122.061 118.890 125.274  1.00  0.00     0.006 C 
ATOM      6  C   UNL     1     121.030 119.789 125.986  1.00  0.00    -0.000 C 
ATOM      7  C   UNL     1     121.526 121.160 126.447  1.00  0.00     0.005 C 
ATOM      8  C   UNL     1     120.326 121.945 126.957  1.00  0.00     0.005 C 
ATOM      9  C   UNL     1     119.742 121.388 128.292  1.00  0.00     0.002 C 
ATOM     10  C   UNL     1     118.358 122.132 128.717  1.00  0.00    -0.026 C 
ATOM     11  C   UNL     1     117.474 122.489 127.470  1.00  0.00     0.010 C 
ATOM     12  C   UNL     1     116.080 123.057 127.786  1.00  0.00     0.033 C 
ATOM     13  C   UNL     1     115.282 122.151 128.735  1.00  0.00     0.120 C 
ATOM     14  C   UNL     1     116.040 121.841 130.061  1.00  0.00    -0.006 C 
ATOM     15  C   UNL     1     117.495 121.270 129.728  1.00  0.00     0.003 C 
ATOM     16  C   UNL     1     117.432 119.819 129.193  1.00  0.00     0.005 C 
ATOM     17  C   UNL     1     118.783 119.148 129.319  1.00  0.00     0.008 C 
ATOM     18  C   UNL     1     119.940 119.790 128.476  1.00  0.00    -0.024 C 
ATOM     19  C   UNL     1     120.176 118.985 127.072  1.00  0.00    -0.024 C 
ATOM     20  C   UNL     1     120.789 117.523 127.298  1.00  0.00     0.008 C 
ATOM     21  C   UNL     1     122.341 117.348 127.254  1.00  0.00     0.007 C 
ATOM     22  C   UNL     1     118.794 118.736 126.385  1.00  0.00     0.012 C 
ATOM     23  C   UNL     1     121.183 119.588 129.413  1.00  0.00     0.012 C 
ATOM     24  C   UNL     1     116.122 123.097 130.983  1.00  0.00     0.014 C 
ATOM     25  C   UNL     1     115.193 120.806 130.865  1.00  0.00     0.014 C 
ATOM     26  C   UNL     1     118.788 123.480 129.390  1.00  0.00     0.012 C 
ATOM     27  C   UNL     1     124.127 119.130 126.845  1.00  0.00     0.011 C 
ENDROOT
BRANCH   1  28
ATOM     28  C   UNL     1     121.977 119.603 122.817  1.00  0.00    -0.077 C 
ATOM     29  C   UNL     1     120.748 120.486 122.857  1.00  0.00     0.039 C 
ATOM     30  C   UNL     1     122.305 118.998 121.658  1.00  0.00     0.008 C 
ENDBRANCH   1  28
BRANCH  13  31
ATOM     31  O   UNL     1     114.001 122.687 128.976  1.00  0.00    -0.393 OA
ATOM     32  H   UNL     1     114.045 123.671 128.858  1.00  0.00     0.210 HD
ENDBRANCH  13  31
TORSDOF 2
ENDMDL
MODEL 6
REMARK VINA RESULT:    -6.393      2.879      5.280
REMARK INTER + INTRA:          -7.421
REMARK INTER:                  -7.038
REMARK INTRA:                  -0.383
REMARK UNBOUND:                -0.467
REMARK SMILES C=C(C)[C@@H]1CC[C@]2(C)CC[C@]3(C)[C@@H](CC[C@H]4[C@@]5(C)CC[C@H](O)C(C)(C)[C@H]5CC[C@]43C)[C@@H]12
REMARK SMILES IDX 4 1 5 2 6 3 7 4 31 5 13 6 14 7 15 8 16 9 17 10 19 11 20 12
REMARK SMILES IDX 21 13 23 14 26 15 27 16 28 17 29 18 11 19 10 20 9 21 12 22
REMARK SMILES IDX 30 23 24 24 25 25 18 26 8 27 2 28 3 29 1 30 22 31
REMARK H PARENT 22 32
REMARK Flexibility Score: inf
ROOT
ATOM      1  C   UNL     1     117.778 125.029 129.404  1.00  0.00     0.018 C 
ATOM      2  C   UNL     1     117.819 125.814 130.737  1.00  0.00     0.009 C 
ATOM      3  C   UNL     1     119.082 125.337 131.488  1.00  0.00     0.008 C 
ATOM      4  C   UNL     1     119.475 124.000 130.822  1.00  0.00    -0.029 C 
ATOM      5  C   UNL     1     119.141 124.334 129.370  1.00  0.00     0.006 C 
ATOM      6  C   UNL     1     119.462 123.244 128.327  1.00  0.00    -0.000 C 
ATOM      7  C   UNL     1     118.492 122.066 128.253  1.00  0.00     0.005 C 
ATOM      8  C   UNL     1     118.885 121.208 127.059  1.00  0.00     0.005 C 
ATOM      9  C   UNL     1     120.237 120.454 127.256  1.00  0.00     0.002 C 
ATOM     10  C   UNL     1     120.720 119.692 125.901  1.00  0.00    -0.026 C 
ATOM     11  C   UNL     1     120.366 120.508 124.608  1.00  0.00     0.010 C 
ATOM     12  C   UNL     1     120.920 119.938 123.292  1.00  0.00     0.033 C 
ATOM     13  C   UNL     1     122.436 119.703 123.349  1.00  0.00     0.120 C 
ATOM     14  C   UNL     1     122.867 118.796 124.541  1.00  0.00    -0.006 C 
ATOM     15  C   UNL     1     122.273 119.382 125.905  1.00  0.00     0.003 C 
ATOM     16  C   UNL     1     123.020 120.662 126.351  1.00  0.00     0.005 C 
ATOM     17  C   UNL     1     122.776 120.935 127.819  1.00  0.00     0.008 C 
ATOM     18  C   UNL     1     121.287 121.232 128.215  1.00  0.00    -0.024 C 
ATOM     19  C   UNL     1     121.009 122.840 128.335  1.00  0.00    -0.024 C 
ATOM     20  C   UNL     1     121.756 123.500 129.588  1.00  0.00     0.008 C 
ATOM     21  C   UNL     1     120.984 123.618 130.942  1.00  0.00     0.007 C 
ATOM     22  C   UNL     1     121.613 123.559 127.086  1.00  0.00     0.012 C 
ATOM     23  C   UNL     1     121.183 120.573 129.636  1.00  0.00     0.012 C 
ATOM     24  C   UNL     1     122.430 117.315 124.323  1.00  0.00     0.014 C 
ATOM     25  C   UNL     1     124.427 118.754 124.572  1.00  0.00     0.014 C 
ATOM     26  C   UNL     1     119.905 118.355 125.851  1.00  0.00     0.012 C 
ATOM     27  C   UNL     1     118.590 122.893 131.471  1.00  0.00     0.011 C 
ENDROOT
BRANCH   1  28
ATOM     28  C   UNL     1     117.512 125.918 128.191  1.00  0.00    -0.077 C 
ATOM     29  C   UNL     1     118.638 126.400 127.302  1.00  0.00     0.039 C 
ATOM     30  C   UNL     1     116.249 126.289 127.900  1.00  0.00     0.008 C 
ENDBRANCH   1  28
BRANCH  13  31
ATOM     31  O   UNL     1     122.912 119.210 122.117  1.00  0.00    -0.393 OA
ATOM     32  H   UNL     1     123.547 119.872 121.739  1.00  0.00     0.210 HD
ENDBRANCH  13  31
TORSDOF 2
ENDMDL
MODEL 7
REMARK VINA RESULT:    -6.344      2.508      4.889
REMARK INTER + INTRA:          -7.368
REMARK INTER:                  -6.913
REMARK INTRA:                  -0.454
REMARK UNBOUND:                -0.467
REMARK SMILES C=C(C)[C@@H]1CC[C@]2(C)CC[C@]3(C)[C@@H](CC[C@H]4[C@@]5(C)CC[C@H](O)C(C)(C)[C@H]5CC[C@]43C)[C@@H]12
REMARK SMILES IDX 4 1 5 2 6 3 7 4 31 5 13 6 14 7 15 8 16 9 17 10 19 11 20 12
REMARK SMILES IDX 21 13 23 14 26 15 27 16 28 17 29 18 11 19 10 20 9 21 12 22
REMARK SMILES IDX 30 23 24 24 25 25 18 26 8 27 2 28 3 29 1 30 22 31
REMARK H PARENT 22 32
REMARK Flexibility Score: inf
ROOT
ATOM      1  C   UNL     1     116.601 120.145 132.757  1.00  0.00     0.018 C 
ATOM      2  C   UNL     1     115.948 120.297 134.152  1.00  0.00     0.009 C 
ATOM      3  C   UNL     1     117.055 120.810 135.101  1.00  0.00     0.008 C 
ATOM      4  C   UNL     1     118.387 120.506 134.380  1.00  0.00    -0.029 C 
ATOM      5  C   UNL     1     117.969 120.806 132.942  1.00  0.00     0.006 C 
ATOM      6  C   UNL     1     119.072 120.685 131.872  1.00  0.00    -0.000 C 
ATOM      7  C   UNL     1     119.448 119.267 131.440  1.00  0.00     0.005 C 
ATOM      8  C   UNL     1     120.413 119.375 130.267  1.00  0.00     0.005 C 
ATOM      9  C   UNL     1     121.814 119.934 130.666  1.00  0.00     0.002 C 
ATOM     10  C   UNL     1     122.760 120.207 129.369  1.00  0.00    -0.026 C 
ATOM     11  C   UNL     1     121.937 120.732 128.140  1.00  0.00     0.010 C 
ATOM     12  C   UNL     1     122.770 121.161 126.920  1.00  0.00     0.033 C 
ATOM     13  C   UNL     1     123.855 122.184 127.284  1.00  0.00     0.120 C 
ATOM     14  C   UNL     1     124.800 121.691 128.421  1.00  0.00    -0.006 C 
ATOM     15  C   UNL     1     123.929 121.229 129.680  1.00  0.00     0.003 C 
ATOM     16  C   UNL     1     123.326 122.437 130.435  1.00  0.00     0.005 C 
ATOM     17  C   UNL     1     122.911 122.038 131.834  1.00  0.00     0.008 C 
ATOM     18  C   UNL     1     121.777 120.957 131.922  1.00  0.00    -0.024 C 
ATOM     19  C   UNL     1     120.314 121.645 132.174  1.00  0.00    -0.024 C 
ATOM     20  C   UNL     1     120.182 122.292 133.633  1.00  0.00     0.008 C 
ATOM     21  C   UNL     1     119.583 121.422 134.785  1.00  0.00     0.007 C 
ATOM     22  C   UNL     1     120.135 122.845 131.188  1.00  0.00     0.012 C 
ATOM     23  C   UNL     1     122.197 120.137 133.193  1.00  0.00     0.012 C 
ATOM     24  C   UNL     1     125.740 120.548 127.932  1.00  0.00     0.014 C 
ATOM     25  C   UNL     1     125.755 122.867 128.793  1.00  0.00     0.014 C 
ATOM     26  C   UNL     1     123.355 118.812 128.975  1.00  0.00     0.012 C 
ATOM     27  C   UNL     1     118.731 119.014 134.676  1.00  0.00     0.011 C 
ENDROOT
BRANCH   1  28
ATOM     28  C   UNL     1     115.769 120.760 131.634  1.00  0.00    -0.077 C 
ATOM     29  C   UNL     1     115.218 122.166 131.737  1.00  0.00     0.039 C 
ATOM     30  C   UNL     1     115.514 120.042 130.523  1.00  0.00     0.008 C 
ENDBRANCH   1  28
BRANCH  13  31
ATOM     31  O   UNL     1     124.575 122.576 126.138  1.00  0.00    -0.393 OA
ATOM     32  H   UNL     1     123.950 123.029 125.514  1.00  0.00     0.210 HD
ENDBRANCH  13  31
TORSDOF 2
ENDMDL
MODEL 8
REMARK VINA RESULT:    -6.332      3.232      5.554
REMARK INTER + INTRA:          -7.354
REMARK INTER:                  -6.876
REMARK INTRA:                  -0.479
REMARK UNBOUND:                -0.467
REMARK SMILES C=C(C)[C@@H]1CC[C@]2(C)CC[C@]3(C)[C@@H](CC[C@H]4[C@@]5(C)CC[C@H](O)C(C)(C)[C@H]5CC[C@]43C)[C@@H]12
REMARK SMILES IDX 4 1 5 2 6 3 7 4 31 5 13 6 14 7 15 8 16 9 17 10 19 11 20 12
REMARK SMILES IDX 21 13 23 14 26 15 27 16 28 17 29 18 11 19 10 20 9 21 12 22
REMARK SMILES IDX 30 23 24 24 25 25 18 26 8 27 2 28 3 29 1 30 22 31
REMARK H PARENT 22 32
REMARK Flexibility Score: inf
ROOT
ATOM      1  C   UNL     1     115.555 121.857 129.437  1.00  0.00     0.018 C 
ATOM      2  C   UNL     1     114.397 122.162 128.457  1.00  0.00     0.009 C 
ATOM      3  C   UNL     1     115.034 122.831 127.218  1.00  0.00     0.008 C 
ATOM      4  C   UNL     1     116.427 123.312 127.683  1.00  0.00    -0.029 C 
ATOM      5  C   UNL     1     116.802 122.149 128.598  1.00  0.00     0.006 C 
ATOM      6  C   UNL     1     118.204 122.209 129.237  1.00  0.00    -0.000 C 
ATOM      7  C   UNL     1     118.373 123.163 130.420  1.00  0.00     0.005 C 
ATOM      8  C   UNL     1     119.760 122.941 131.007  1.00  0.00     0.005 C 
ATOM      9  C   UNL     1     120.912 123.433 130.076  1.00  0.00     0.002 C 
ATOM     10  C   UNL     1     122.381 123.021 130.646  1.00  0.00    -0.026 C 
ATOM     11  C   UNL     1     122.371 121.614 131.340  1.00  0.00     0.010 C 
ATOM     12  C   UNL     1     123.746 121.077 131.771  1.00  0.00     0.033 C 
ATOM     13  C   UNL     1     124.760 121.072 130.618  1.00  0.00     0.120 C 
ATOM     14  C   UNL     1     124.924 122.468 129.945  1.00  0.00    -0.006 C 
ATOM     15  C   UNL     1     123.490 123.029 129.515  1.00  0.00     0.003 C 
ATOM     16  C   UNL     1     122.928 122.281 128.283  1.00  0.00     0.005 C 
ATOM     17  C   UNL     1     121.835 123.092 127.621  1.00  0.00     0.008 C 
ATOM     18  C   UNL     1     120.559 123.350 128.497  1.00  0.00    -0.024 C 
ATOM     19  C   UNL     1     119.364 122.290 128.140  1.00  0.00    -0.024 C 
ATOM     20  C   UNL     1     118.743 122.533 126.684  1.00  0.00     0.008 C 
ATOM     21  C   UNL     1     117.489 123.456 126.549  1.00  0.00     0.007 C 
ATOM     22  C   UNL     1     119.959 120.846 128.084  1.00  0.00     0.012 C 
ATOM     23  C   UNL     1     120.134 124.792 128.047  1.00  0.00     0.012 C 
ATOM     24  C   UNL     1     125.668 123.471 130.878  1.00  0.00     0.014 C 
ATOM     25  C   UNL     1     125.861 122.295 128.709  1.00  0.00     0.014 C 
ATOM     26  C   UNL     1     122.725 124.085 131.744  1.00  0.00     0.012 C 
ATOM     27  C   UNL     1     116.217 124.682 128.397  1.00  0.00     0.011 C 
ENDROOT
BRANCH   1  28
ATOM     28  C   UNL     1     115.511 120.437 129.996  1.00  0.00    -0.077 C 
ATOM     29  C   UNL     1     115.446 120.175 131.485  1.00  0.00     0.039 C 
ATOM     30  C   UNL     1     115.531 119.387 129.151  1.00  0.00     0.008 C 
ENDBRANCH   1  28
BRANCH  13  31
ATOM     31  O   UNL     1     125.996 120.546 131.043  1.00  0.00    -0.393 OA
ATOM     32  H   UNL     1     126.670 121.275 131.025  1.00  0.00     0.210 HD
ENDBRANCH  13  31
TORSDOF 2
ENDMDL
