MODEL 1
REMARK VINA RESULT:    -4.632      0.000      0.000
REMARK INTER + INTRA:          -5.544
REMARK INTER:                  -5.444
REMARK INTRA:                  -0.100
REMARK UNBOUND:                -0.100
REMARK SMILES O=C([O-])CCC(=O)[O-]
REMARK SMILES IDX 4 1 2 2 1 3 3 4 5 5 6 6 7 7 8 8
REMARK H PARENT
REMARK Flexibility Score: inf
ROOT
ATOM      1  C   UNL     1      23.509  58.391  35.204  1.00  0.00     0.059 C 
ENDROOT
BRANCH   1   2
ATOM      2  C   UNL     1      22.691  59.284  36.081  1.00  0.00     0.042 C 
ATOM      3  O   UNL     1      21.463  59.060  36.246  1.00  0.00    -0.550 OA
ATOM      4  O   UNL     1      23.294  60.338  36.756  1.00  0.00    -0.550 OA
ENDBRANCH   1   2
BRANCH   1   5
ATOM      5  C   UNL     1      23.264  58.721  33.730  1.00  0.00     0.059 C 
BRANCH   5   6
ATOM      6  C   UNL     1      24.476  59.362  33.129  1.00  0.00     0.042 C 
ATOM      7  O   UNL     1      25.055  60.306  33.727  1.00  0.00    -0.550 OA
ATOM      8  O   UNL     1      24.996  58.881  31.933  1.00  0.00    -0.550 OA
ENDBRANCH   5   6
ENDBRANCH   1   5
TORSDOF 3
ENDMDL
MODEL 2
REMARK VINA RESULT:    -4.630      0.117      3.774
REMARK INTER + INTRA:          -5.542
REMARK INTER:                  -5.435
REMARK INTRA:                  -0.106
REMARK UNBOUND:                -0.100
REMARK SMILES O=C([O-])CCC(=O)[O-]
REMARK SMILES IDX 4 1 2 2 1 3 3 4 5 5 6 6 7 7 8 8
REMARK H PARENT
REMARK Flexibility Score: inf
ROOT
ATOM      1  C   UNL     1      23.299  58.597  33.715  1.00  0.00     0.059 C 
ENDROOT
BRANCH   1   2
ATOM      2  C   UNL     1      24.497  59.233  33.084  1.00  0.00     0.042 C 
ATOM      3  O   UNL     1      24.908  58.837  31.962  1.00  0.00    -0.550 OA
ATOM      4  O   UNL     1      25.131  60.297  33.713  1.00  0.00    -0.550 OA
ENDBRANCH   1   2
BRANCH   1   5
ATOM      5  C   UNL     1      23.555  58.328  35.198  1.00  0.00     0.059 C 
BRANCH   5   6
ATOM      6  C   UNL     1      22.744  59.257  36.046  1.00  0.00     0.042 C 
ATOM      7  O   UNL     1      23.293  60.233  36.620  1.00  0.00    -0.550 OA
ATOM      8  O   UNL     1      21.371  59.072  36.162  1.00  0.00    -0.550 OA
ENDBRANCH   5   6
ENDBRANCH   1   5
TORSDOF 3
ENDMDL
MODEL 3
REMARK VINA RESULT:    -4.603      0.122      1.151
REMARK INTER + INTRA:          -5.510
REMARK INTER:                  -5.414
REMARK INTRA:                  -0.095
REMARK UNBOUND:                -0.100
REMARK SMILES O=C([O-])CCC(=O)[O-]
REMARK SMILES IDX 4 1 2 2 1 3 3 4 5 5 6 6 7 7 8 8
REMARK H PARENT
REMARK Flexibility Score: inf
ROOT
ATOM      1  C   UNL     1      23.611  58.370  35.217  1.00  0.00     0.059 C 
ENDROOT
BRANCH   1   2
ATOM      2  C   UNL     1      22.717  59.271  36.008  1.00  0.00     0.042 C 
ATOM      3  O   UNL     1      21.478  59.052  36.056  1.00  0.00    -0.550 OA
ATOM      4  O   UNL     1      23.257  60.327  36.732  1.00  0.00    -0.550 OA
ENDBRANCH   1   2
BRANCH   1   5
ATOM      5  C   UNL     1      23.369  58.558  33.719  1.00  0.00     0.059 C 
BRANCH   5   6
ATOM      6  C   UNL     1      24.530  59.256  33.084  1.00  0.00     0.042 C 
ATOM      7  O   UNL     1      24.940  58.901  31.948  1.00  0.00    -0.550 OA
ATOM      8  O   UNL     1      25.129  60.333  33.726  1.00  0.00    -0.550 OA
ENDBRANCH   5   6
ENDBRANCH   1   5
TORSDOF 3
ENDMDL
MODEL 4
REMARK VINA RESULT:    -4.600      0.140      3.869
REMARK INTER + INTRA:          -5.507
REMARK INTER:                  -5.399
REMARK INTRA:                  -0.108
REMARK UNBOUND:                -0.100
REMARK SMILES O=C([O-])CCC(=O)[O-]
REMARK SMILES IDX 4 1 2 2 1 3 3 4 5 5 6 6 7 7 8 8
REMARK H PARENT
REMARK Flexibility Score: inf
ROOT
ATOM      1  C   UNL     1      23.161  58.626  33.767  1.00  0.00     0.059 C 
ENDROOT
BRANCH   1   2
ATOM      2  C   UNL     1      24.379  59.194  33.111  1.00  0.00     0.042 C 
ATOM      3  O   UNL     1      24.779  58.734  32.009  1.00  0.00    -0.550 OA
ATOM      4  O   UNL     1      25.048  60.264  33.692  1.00  0.00    -0.550 OA
ENDBRANCH   1   2
BRANCH   1   5
ATOM      5  C   UNL     1      23.434  58.340  35.244  1.00  0.00     0.059 C 
BRANCH   5   6
ATOM      6  C   UNL     1      22.646  59.271  36.112  1.00  0.00     0.042 C 
ATOM      7  O   UNL     1      21.422  59.060  36.319  1.00  0.00    -0.550 OA
ATOM      8  O   UNL     1      23.276  60.342  36.734  1.00  0.00    -0.550 OA
ENDBRANCH   5   6
ENDBRANCH   1   5
TORSDOF 3
ENDMDL
MODEL 5
REMARK VINA RESULT:    -4.454      2.453      4.125
REMARK INTER + INTRA:          -5.335
REMARK INTER:                  -5.300
REMARK INTRA:                  -0.036
REMARK UNBOUND:                -0.100
REMARK SMILES O=C([O-])CCC(=O)[O-]
REMARK SMILES IDX 4 1 2 2 1 3 3 4 5 5 6 6 7 7 8 8
REMARK H PARENT
REMARK Flexibility Score: inf
ROOT
ATOM      1  C   UNL     1      23.218  58.550  33.410  1.00  0.00     0.059 C 
ENDROOT
BRANCH   1   2
ATOM      2  C   UNL     1      24.478  59.257  33.024  1.00  0.00     0.042 C 
ATOM      3  O   UNL     1      25.076  58.950  31.959  1.00  0.00    -0.550 OA
ATOM      4  O   UNL     1      24.968  60.289  33.814  1.00  0.00    -0.550 OA
ENDBRANCH   1   2
BRANCH   1   5
ATOM      5  C   UNL     1      23.047  57.274  32.585  1.00  0.00     0.059 C 
BRANCH   5   6
ATOM      6  C   UNL     1      21.774  56.579  32.953  1.00  0.00     0.042 C 
ATOM      7  O   UNL     1      21.774  55.343  33.196  1.00  0.00    -0.550 OA
ATOM      8  O   UNL     1      20.596  57.306  33.079  1.00  0.00    -0.550 OA
ENDBRANCH   5   6
ENDBRANCH   1   5
TORSDOF 3
ENDMDL
MODEL 6
REMARK VINA RESULT:    -4.440      2.272      3.550
REMARK INTER + INTRA:          -5.319
REMARK INTER:                  -5.258
REMARK INTRA:                  -0.062
REMARK UNBOUND:                -0.100
REMARK SMILES O=C([O-])CCC(=O)[O-]
REMARK SMILES IDX 4 1 2 2 1 3 3 4 5 5 6 6 7 7 8 8
REMARK H PARENT
REMARK Flexibility Score: inf
ROOT
ATOM      1  C   UNL     1      23.238  57.186  33.265  1.00  0.00     0.059 C 
ENDROOT
BRANCH   1   2
ATOM      2  C   UNL     1      22.043  56.692  32.512  1.00  0.00     0.042 C 
ATOM      3  O   UNL     1      22.187  56.105  31.408  1.00  0.00    -0.550 OA
ATOM      4  O   UNL     1      20.771  56.837  33.053  1.00  0.00    -0.550 OA
ENDBRANCH   1   2
BRANCH   1   5
ATOM      5  C   UNL     1      23.180  58.706  33.419  1.00  0.00     0.059 C 
BRANCH   5   6
ATOM      6  C   UNL     1      24.486  59.322  33.024  1.00  0.00     0.042 C 
ATOM      7  O   UNL     1      25.048  58.981  31.950  1.00  0.00    -0.550 OA
ATOM      8  O   UNL     1      25.057  60.310  33.817  1.00  0.00    -0.550 OA
ENDBRANCH   5   6
ENDBRANCH   1   5
TORSDOF 3
ENDMDL
MODEL 7
REMARK VINA RESULT:    -4.308      2.099      2.798
REMARK INTER + INTRA:          -5.164
REMARK INTER:                  -5.056
REMARK INTRA:                  -0.108
REMARK UNBOUND:                -0.100
REMARK SMILES O=C([O-])CCC(=O)[O-]
REMARK SMILES IDX 4 1 2 2 1 3 3 4 5 5 6 6 7 7 8 8
REMARK H PARENT
REMARK Flexibility Score: inf
ROOT
ATOM      1  C   UNL     1      22.311  58.257  35.727  1.00  0.00     0.059 C 
ENDROOT
BRANCH   1   2
ATOM      2  C   UNL     1      23.243  59.412  35.916  1.00  0.00     0.042 C 
ATOM      3  O   UNL     1      24.210  59.581  35.128  1.00  0.00    -0.550 OA
ATOM      4  O   UNL     1      23.017  60.329  36.935  1.00  0.00    -0.550 OA
ENDBRANCH   1   2
BRANCH   1   5
ATOM      5  C   UNL     1      21.410  58.491  34.513  1.00  0.00     0.059 C 
BRANCH   5   6
ATOM      6  C   UNL     1      21.772  57.553  33.405  1.00  0.00     0.042 C 
ATOM      7  O   UNL     1      20.952  56.677  33.023  1.00  0.00    -0.550 OA
ATOM      8  O   UNL     1      22.996  57.679  32.758  1.00  0.00    -0.550 OA
ENDBRANCH   5   6
ENDBRANCH   1   5
TORSDOF 3
ENDMDL
MODEL 8
REMARK VINA RESULT:    -4.126      2.900      3.941
REMARK INTER + INTRA:          -4.950
REMARK INTER:                  -4.792
REMARK INTRA:                  -0.159
REMARK UNBOUND:                -0.100
REMARK SMILES O=C([O-])CCC(=O)[O-]
REMARK SMILES IDX 4 1 2 2 1 3 3 4 5 5 6 6 7 7 8 8
REMARK H PARENT
REMARK Flexibility Score: inf
ROOT
ATOM      1  C   UNL     1      21.123  57.717  33.007  1.00  0.00     0.059 C 
ENDROOT
BRANCH   1   2
ATOM      2  C   UNL     1      21.692  56.405  32.568  1.00  0.00     0.042 C 
ATOM      3  O   UNL     1      22.249  56.300  31.444  1.00  0.00    -0.550 OA
ATOM      4  O   UNL     1      21.650  55.308  33.420  1.00  0.00    -0.550 OA
ENDBRANCH   1   2
BRANCH   1   5
ATOM      5  C   UNL     1      21.772  58.169  34.316  1.00  0.00     0.059 C 
BRANCH   5   6
ATOM      6  C   UNL     1      23.241  58.383  34.125  1.00  0.00     0.042 C 
ATOM      7  O   UNL     1      23.657  59.142  33.211  1.00  0.00    -0.550 OA
ATOM      8  O   UNL     1      24.149  57.784  34.990  1.00  0.00    -0.550 OA
ENDBRANCH   5   6
ENDBRANCH   1   5
TORSDOF 3
ENDMDL
