MODEL 1
REMARK VINA RESULT:    -8.583      0.000      0.000
REMARK INTER + INTRA:         -13.006
REMARK INTER:                 -11.845
REMARK INTRA:                  -1.162
REMARK UNBOUND:                -1.162
REMARK SMILES O=C([O-])[C@@H]1O[C@H](Oc2cc3oc(-c4ccccc4)cc(=O)c3c(O)c2O)[C@@H](O)[C@@H](O)[C@@H]1O
REMARK SMILES IDX 7 1 6 2 4 3 31 4 5 5 29 6 27 7 2 8 1 9 3 10 32 11 30 13
REMARK SMILES IDX 28 15 8 17 25 18 9 19 23 20 10 21 22 22 11 23 20 24 12 25
REMARK SMILES IDX 19 26 21 27 26 28 24 30 13 32 14 33 18 34 15 35 17 36 16 37
REMARK H PARENT 32 12 30 14 28 16 26 29 24 31
REMARK Flexibility Score: inf
ROOT
ATOM      1  O   UNL     1       7.992  47.913  -2.034  1.00  0.00    -0.458 OA
ENDROOT
BRANCH   1   2
ATOM      2  C   UNL     1       8.020  47.120  -3.226  1.00  0.00     0.339 C 
ATOM      3  C   UNL     1       8.632  44.926  -3.992  1.00  0.00     0.199 C 
ATOM      4  C   UNL     1       7.996  45.407  -5.329  1.00  0.00     0.180 C 
ATOM      5  O   UNL     1       8.818  45.958  -3.024  1.00  0.00    -0.328 OA
ATOM      6  C   UNL     1       6.630  46.108  -5.100  1.00  0.00     0.181 C 
ATOM      7  C   UNL     1       6.588  46.811  -3.719  1.00  0.00     0.214 C 
BRANCH   3   8
ATOM      8  C   UNL     1       7.849  43.812  -3.355  1.00  0.00     0.073 C 
ATOM      9  O   UNL     1       8.017  42.617  -3.715  1.00  0.00    -0.547 OA
ATOM     10  O   UNL     1       8.035  42.494  -3.753  1.00  0.00    -0.547 OA
ENDBRANCH   3   8
BRANCH   4  11
ATOM     11  O   UNL     1       7.907  44.368  -6.273  1.00  0.00    -0.387 OA
ATOM     12  H   UNL     1       8.454  44.616  -7.063  1.00  0.00     0.211 HD
ENDBRANCH   4  11
BRANCH   6  13
ATOM     13  O   UNL     1       6.407  47.039  -6.128  1.00  0.00    -0.387 OA
ATOM     14  H   UNL     1       7.291  47.429  -6.358  1.00  0.00     0.211 HD
ENDBRANCH   6  13
BRANCH   7  15
ATOM     15  O   UNL     1       5.845  48.001  -3.781  1.00  0.00    -0.384 OA
ATOM     16  H   UNL     1       6.377  48.695  -3.311  1.00  0.00     0.211 HD
ENDBRANCH   7  15
ENDBRANCH   1   2
BRANCH   1  17
ATOM     17  C   UNL     1       8.644  47.650  -0.814  1.00  0.00     0.172 A 
ATOM     18  C   UNL     1      10.047  47.761  -0.772  1.00  0.00     0.201 A 
ATOM     19  C   UNL     1       7.953  47.273   0.349  1.00  0.00     0.098 A 
ATOM     20  C   UNL     1      10.750  47.509   0.422  1.00  0.00     0.176 A 
ATOM     21  C   UNL     1       8.639  47.021   1.538  1.00  0.00     0.146 A 
ATOM     22  C   UNL     1      10.044  47.138   1.590  1.00  0.00     0.111 A 
ATOM     23  O   UNL     1       7.948  46.668   2.618  1.00  0.00    -0.456 OA
ATOM     24  C   UNL     1      10.676  46.875   2.824  1.00  0.00     0.197 A 
ATOM     25  C   UNL     1       8.513  46.404   3.794  1.00  0.00     0.138 A 
ATOM     26  C   UNL     1       9.907  46.510   3.929  1.00  0.00     0.100 A 
ATOM     27  O   UNL     1      11.926  46.969   2.955  1.00  0.00    -0.289 OA
BRANCH  18  28
ATOM     28  O   UNL     1      10.760  48.126  -1.916  1.00  0.00    -0.502 OA
ATOM     29  H   UNL     1      10.749  49.068  -2.287  1.00  0.00     0.293 HD
ENDBRANCH  18  28
BRANCH  20  30
ATOM     30  O   UNL     1      12.142  47.627   0.447  1.00  0.00    -0.504 OA
ATOM     31  H   UNL     1      12.619  48.332   0.996  1.00  0.00     0.293 HD
ENDBRANCH  20  30
BRANCH  25  32
ATOM     32  C   UNL     1       7.640  46.020   4.932  1.00  0.00     0.017 A 
ATOM     33  C   UNL     1       7.981  46.330   6.265  1.00  0.00     0.012 A 
ATOM     34  C   UNL     1       6.457  45.298   4.686  1.00  0.00     0.012 A 
ATOM     35  C   UNL     1       7.144  45.945   7.317  1.00  0.00     0.001 A 
ATOM     36  C   UNL     1       5.625  44.917   5.743  1.00  0.00     0.001 A 
ATOM     37  C   UNL     1       5.966  45.242   7.056  1.00  0.00     0.000 A 
ENDBRANCH  25  32
ENDBRANCH   1  17
TORSDOF 9
ENDMDL
MODEL 2
REMARK VINA RESULT:    -8.311      5.740     11.186
REMARK INTER + INTRA:         -12.630
REMARK INTER:                 -11.808
REMARK INTRA:                  -0.822
REMARK UNBOUND:                -1.162
REMARK SMILES O=C([O-])[C@@H]1O[C@H](Oc2cc3oc(-c4ccccc4)cc(=O)c3c(O)c2O)[C@@H](O)[C@@H](O)[C@@H]1O
REMARK SMILES IDX 7 1 6 2 4 3 31 4 5 5 29 6 27 7 2 8 1 9 3 10 32 11 30 13
REMARK SMILES IDX 28 15 8 17 25 18 9 19 23 20 10 21 22 22 11 23 20 24 12 25
REMARK SMILES IDX 19 26 21 27 26 28 24 30 13 32 14 33 18 34 15 35 17 36 16 37
REMARK H PARENT 32 12 30 14 28 16 26 29 24 31
REMARK Flexibility Score: inf
ROOT
ATOM      1  O   UNL     1       5.736  43.557   7.193  1.00  0.00    -0.458 OA
ENDROOT
BRANCH   1   2
ATOM      2  C   UNL     1       6.127  44.031   8.487  1.00  0.00     0.339 C 
ATOM      3  C   UNL     1       5.333  45.420  10.281  1.00  0.00     0.199 C 
ATOM      4  C   UNL     1       6.605  44.899  11.011  1.00  0.00     0.180 C 
ATOM      5  O   UNL     1       5.285  45.107   8.889  1.00  0.00    -0.328 OA
ATOM      6  C   UNL     1       6.774  43.365  10.854  1.00  0.00     0.181 C 
ATOM      7  C   UNL     1       6.182  42.873   9.508  1.00  0.00     0.214 C 
BRANCH   3   8
ATOM      8  C   UNL     1       4.064  44.931  10.922  1.00  0.00     0.073 C 
ATOM      9  O   UNL     1       3.537  45.562  11.875  1.00  0.00    -0.547 OA
ATOM     10  O   UNL     1       3.484  45.628  11.974  1.00  0.00    -0.547 OA
ENDBRANCH   3   8
BRANCH   4  11
ATOM     11  O   UNL     1       6.638  45.300  12.359  1.00  0.00    -0.387 OA
ATOM     12  H   UNL     1       7.290  44.727  12.840  1.00  0.00     0.211 HD
ENDBRANCH   4  11
BRANCH   6  13
ATOM     13  O   UNL     1       8.139  43.037  10.935  1.00  0.00    -0.387 OA
ATOM     14  H   UNL     1       8.619  43.657  10.327  1.00  0.00     0.211 HD
ENDBRANCH   6  13
BRANCH   7  15
ATOM     15  O   UNL     1       6.941  41.815   8.979  1.00  0.00    -0.384 OA
ATOM     16  H   UNL     1       7.666  42.226   8.440  1.00  0.00     0.211 HD
ENDBRANCH   7  15
ENDBRANCH   1   2
BRANCH   1  17
ATOM     17  C   UNL     1       5.476  44.323   6.041  1.00  0.00     0.172 A 
ATOM     18  C   UNL     1       6.451  45.249   5.624  1.00  0.00     0.201 A 
ATOM     19  C   UNL     1       4.286  44.205   5.305  1.00  0.00     0.098 A 
ATOM     20  C   UNL     1       6.242  46.042   4.479  1.00  0.00     0.176 A 
ATOM     21  C   UNL     1       4.068  44.985   4.169  1.00  0.00     0.146 A 
ATOM     22  C   UNL     1       5.044  45.911   3.741  1.00  0.00     0.111 A 
ATOM     23  O   UNL     1       2.928  44.844   3.498  1.00  0.00    -0.456 OA
ATOM     24  C   UNL     1       4.765  46.664   2.580  1.00  0.00     0.197 A 
ATOM     25  C   UNL     1       2.629  45.544   2.407  1.00  0.00     0.138 A 
ATOM     26  C   UNL     1       3.555  46.477   1.911  1.00  0.00     0.100 A 
ATOM     27  O   UNL     1       5.590  47.502   2.127  1.00  0.00    -0.289 OA
BRANCH  18  28
ATOM     28  O   UNL     1       7.640  45.392   6.342  1.00  0.00    -0.502 OA
ATOM     29  H   UNL     1       8.023  44.649   6.914  1.00  0.00     0.293 HD
ENDBRANCH  18  28
BRANCH  20  30
ATOM     30  O   UNL     1       7.221  46.955   4.078  1.00  0.00    -0.504 OA
ATOM     31  H   UNL     1       7.833  46.785   3.289  1.00  0.00     0.293 HD
ENDBRANCH  20  30
BRANCH  25  32
ATOM     32  C   UNL     1       1.326  45.300   1.740  1.00  0.00     0.017 A 
ATOM     33  C   UNL     1       0.101  45.603   2.370  1.00  0.00     0.012 A 
ATOM     34  C   UNL     1       1.301  44.720   0.458  1.00  0.00     0.012 A 
ATOM     35  C   UNL     1      -1.111  45.351   1.720  1.00  0.00     0.001 A 
ATOM     36  C   UNL     1       0.086  44.470  -0.186  1.00  0.00     0.001 A 
ATOM     37  C   UNL     1      -1.119  44.788   0.442  1.00  0.00     0.000 A 
ENDBRANCH  25  32
ENDBRANCH   1  17
TORSDOF 9
ENDMDL
MODEL 3
REMARK VINA RESULT:    -8.168      3.920      6.102
REMARK INTER + INTRA:         -12.433
REMARK INTER:                 -11.838
REMARK INTRA:                  -0.595
REMARK UNBOUND:                -1.162
REMARK SMILES O=C([O-])[C@@H]1O[C@H](Oc2cc3oc(-c4ccccc4)cc(=O)c3c(O)c2O)[C@@H](O)[C@@H](O)[C@@H]1O
REMARK SMILES IDX 7 1 6 2 4 3 31 4 5 5 29 6 27 7 2 8 1 9 3 10 32 11 30 13
REMARK SMILES IDX 28 15 8 17 25 18 9 19 23 20 10 21 22 22 11 23 20 24 12 25
REMARK SMILES IDX 19 26 21 27 26 28 24 30 13 32 14 33 18 34 15 35 17 36 16 37
REMARK H PARENT 32 12 30 14 28 16 26 29 24 31
REMARK Flexibility Score: inf
ROOT
ATOM      1  O   UNL     1       7.880  46.571  -1.995  1.00  0.00    -0.458 OA
ENDROOT
BRANCH   1   2
ATOM      2  C   UNL     1       8.033  46.200  -3.370  1.00  0.00     0.339 C 
ATOM      3  C   UNL     1       8.819  44.383  -4.733  1.00  0.00     0.199 C 
ATOM      4  C   UNL     1       8.249  45.242  -5.898  1.00  0.00     0.180 C 
ATOM      5  O   UNL     1       8.880  45.060  -3.478  1.00  0.00    -0.328 OA
ATOM      6  C   UNL     1       6.833  45.789  -5.574  1.00  0.00     0.181 C 
ATOM      7  C   UNL     1       6.658  46.017  -4.050  1.00  0.00     0.214 C 
BRANCH   3   8
ATOM      8  C   UNL     1       8.060  43.099  -4.544  1.00  0.00     0.073 C 
ATOM      9  O   UNL     1       7.788  42.673  -3.390  1.00  0.00    -0.547 OA
ATOM     10  O   UNL     1       7.761  42.630  -3.271  1.00  0.00    -0.547 OA
ENDBRANCH   3   8
BRANCH   4  11
ATOM     11  O   UNL     1       8.283  44.555  -7.125  1.00  0.00    -0.387 OA
ATOM     12  H   UNL     1       9.085  44.851  -7.627  1.00  0.00     0.211 HD
ENDBRANCH   4  11
BRANCH   6  13
ATOM     13  O   UNL     1       6.628  46.991  -6.273  1.00  0.00    -0.387 OA
ATOM     14  H   UNL     1       5.760  46.901  -6.747  1.00  0.00     0.211 HD
ENDBRANCH   6  13
BRANCH   7  15
ATOM     15  O   UNL     1       5.854  47.140  -3.797  1.00  0.00    -0.384 OA
ATOM     16  H   UNL     1       6.430  47.939  -3.930  1.00  0.00     0.211 HD
ENDBRANCH   7  15
ENDBRANCH   1   2
BRANCH   1  17
ATOM     17  C   UNL     1       8.303  47.764  -1.377  1.00  0.00     0.172 A 
ATOM     18  C   UNL     1       9.239  47.675  -0.329  1.00  0.00     0.201 A 
ATOM     19  C   UNL     1       7.821  49.026  -1.757  1.00  0.00     0.098 A 
ATOM     20  C   UNL     1       9.695  48.835   0.325  1.00  0.00     0.176 A 
ATOM     21  C   UNL     1       8.265  50.184  -1.117  1.00  0.00     0.146 A 
ATOM     22  C   UNL     1       9.209  50.103  -0.071  1.00  0.00     0.111 A 
ATOM     23  O   UNL     1       7.786  51.361  -1.507  1.00  0.00    -0.456 OA
ATOM     24  C   UNL     1       9.622  51.311   0.530  1.00  0.00     0.197 A 
ATOM     25  C   UNL     1       8.146  52.518  -0.956  1.00  0.00     0.138 A 
ATOM     26  C   UNL     1       9.091  52.521   0.084  1.00  0.00     0.100 A 
ATOM     27  O   UNL     1      10.470  51.324   1.463  1.00  0.00    -0.289 OA
BRANCH  18  28
ATOM     28  O   UNL     1       9.728  46.430   0.074  1.00  0.00    -0.502 OA
ATOM     29  H   UNL     1       9.866  45.663  -0.572  1.00  0.00     0.293 HD
ENDBRANCH  18  28
BRANCH  20  30
ATOM     30  O   UNL     1      10.626  48.729   1.361  1.00  0.00    -0.504 OA
ATOM     31  H   UNL     1      11.367  48.039   1.359  1.00  0.00     0.293 HD
ENDBRANCH  20  30
BRANCH  25  32
ATOM     32  C   UNL     1       7.545  53.772  -1.475  1.00  0.00     0.017 A 
ATOM     33  C   UNL     1       6.763  54.614  -0.658  1.00  0.00     0.012 A 
ATOM     34  C   UNL     1       7.727  54.120  -2.827  1.00  0.00     0.012 A 
ATOM     35  C   UNL     1       6.201  55.783  -1.179  1.00  0.00     0.001 A 
ATOM     36  C   UNL     1       7.162  55.290  -3.341  1.00  0.00     0.001 A 
ATOM     37  C   UNL     1       6.402  56.123  -2.518  1.00  0.00     0.000 A 
ENDBRANCH  25  32
ENDBRANCH   1  17
TORSDOF 9
ENDMDL
MODEL 4
REMARK VINA RESULT:    -7.990      3.688      6.079
REMARK INTER + INTRA:         -12.188
REMARK INTER:                 -11.509
REMARK INTRA:                  -0.679
REMARK UNBOUND:                -1.162
REMARK SMILES O=C([O-])[C@@H]1O[C@H](Oc2cc3oc(-c4ccccc4)cc(=O)c3c(O)c2O)[C@@H](O)[C@@H](O)[C@@H]1O
REMARK SMILES IDX 7 1 6 2 4 3 31 4 5 5 29 6 27 7 2 8 1 9 3 10 32 11 30 13
REMARK SMILES IDX 28 15 8 17 25 18 9 19 23 20 10 21 22 22 11 23 20 24 12 25
REMARK SMILES IDX 19 26 21 27 26 28 24 30 13 32 14 33 18 34 15 35 17 36 16 37
REMARK H PARENT 32 12 30 14 28 16 26 29 24 31
REMARK Flexibility Score: inf
ROOT
ATOM      1  O   UNL     1       8.508  45.982  -1.769  1.00  0.00    -0.458 OA
ENDROOT
BRANCH   1   2
ATOM      2  C   UNL     1       8.052  45.812  -3.116  1.00  0.00     0.339 C 
ATOM      3  C   UNL     1       8.651  46.385  -5.373  1.00  0.00     0.199 C 
ATOM      4  C   UNL     1       7.453  45.462  -5.738  1.00  0.00     0.180 C 
ATOM      5  O   UNL     1       8.746  46.703  -3.984  1.00  0.00    -0.328 OA
ATOM      6  C   UNL     1       7.482  44.132  -4.938  1.00  0.00     0.181 C 
ATOM      7  C   UNL     1       8.140  44.331  -3.548  1.00  0.00     0.214 C 
BRANCH   3   8
ATOM      8  C   UNL     1       9.969  45.818  -5.822  1.00  0.00     0.073 C 
ATOM      9  O   UNL     1      10.676  46.422  -6.670  1.00  0.00    -0.547 OA
ATOM     10  O   UNL     1      10.748  46.485  -6.758  1.00  0.00    -0.547 OA
ENDBRANCH   3   8
BRANCH   4  11
ATOM     11  O   UNL     1       7.360  45.243  -7.125  1.00  0.00    -0.387 OA
ATOM     12  H   UNL     1       7.695  44.330  -7.321  1.00  0.00     0.211 HD
ENDBRANCH   4  11
BRANCH   6  13
ATOM     13  O   UNL     1       6.171  43.647  -4.792  1.00  0.00    -0.387 OA
ATOM     14  H   UNL     1       5.939  43.190  -5.642  1.00  0.00     0.211 HD
ENDBRANCH   6  13
BRANCH   7  15
ATOM     15  O   UNL     1       7.527  43.521  -2.579  1.00  0.00    -0.384 OA
ATOM     16  H   UNL     1       6.986  42.848  -3.070  1.00  0.00     0.211 HD
ENDBRANCH   7  15
ENDBRANCH   1   2
BRANCH   1  17
ATOM     17  C   UNL     1       8.872  47.183  -1.132  1.00  0.00     0.172 A 
ATOM     18  C   UNL     1       9.780  47.118  -0.058  1.00  0.00     0.201 A 
ATOM     19  C   UNL     1       8.359  48.432  -1.519  1.00  0.00     0.098 A 
ATOM     20  C   UNL     1      10.178  48.289   0.616  1.00  0.00     0.176 A 
ATOM     21  C   UNL     1       8.746  49.599  -0.859  1.00  0.00     0.146 A 
ATOM     22  C   UNL     1       9.662  49.542   0.214  1.00  0.00     0.111 A 
ATOM     23  O   UNL     1       8.239  50.763  -1.256  1.00  0.00    -0.456 OA
ATOM     24  C   UNL     1      10.017  50.759   0.834  1.00  0.00     0.197 A 
ATOM     25  C   UNL     1       8.545  51.926  -0.687  1.00  0.00     0.138 A 
ATOM     26  C   UNL     1       9.458  51.954   0.379  1.00  0.00     0.100 A 
ATOM     27  O   UNL     1      10.836  50.794   1.791  1.00  0.00    -0.289 OA
BRANCH  18  28
ATOM     28  O   UNL     1      10.299  45.888   0.352  1.00  0.00    -0.502 OA
ATOM     29  H   UNL     1      10.046  45.456   1.232  1.00  0.00     0.293 HD
ENDBRANCH  18  28
BRANCH  20  30
ATOM     30  O   UNL     1      11.081  48.207   1.678  1.00  0.00    -0.504 OA
ATOM     31  H   UNL     1      12.022  48.578   1.623  1.00  0.00     0.293 HD
ENDBRANCH  20  30
BRANCH  25  32
ATOM     32  C   UNL     1       7.917  53.163  -1.216  1.00  0.00     0.017 A 
ATOM     33  C   UNL     1       7.087  53.975  -0.416  1.00  0.00     0.012 A 
ATOM     34  C   UNL     1       8.123  53.524  -2.561  1.00  0.00     0.012 A 
ATOM     35  C   UNL     1       6.501  55.128  -0.946  1.00  0.00     0.001 A 
ATOM     36  C   UNL     1       7.534  54.679  -3.085  1.00  0.00     0.001 A 
ATOM     37  C   UNL     1       6.726  55.482  -2.278  1.00  0.00     0.000 A 
ENDBRANCH  25  32
ENDBRANCH   1  17
TORSDOF 9
ENDMDL
MODEL 5
REMARK VINA RESULT:    -7.897      6.278     10.901
REMARK INTER + INTRA:         -12.060
REMARK INTER:                 -10.682
REMARK INTRA:                  -1.377
REMARK UNBOUND:                -1.162
REMARK SMILES O=C([O-])[C@@H]1O[C@H](Oc2cc3oc(-c4ccccc4)cc(=O)c3c(O)c2O)[C@@H](O)[C@@H](O)[C@@H]1O
REMARK SMILES IDX 7 1 6 2 4 3 31 4 5 5 29 6 27 7 2 8 1 9 3 10 32 11 30 13
REMARK SMILES IDX 28 15 8 17 25 18 9 19 23 20 10 21 22 22 11 23 20 24 12 25
REMARK SMILES IDX 19 26 21 27 26 28 24 30 13 32 14 33 18 34 15 35 17 36 16 37
REMARK H PARENT 32 12 30 14 28 16 26 29 24 31
REMARK Flexibility Score: inf
ROOT
ATOM      1  O   UNL     1       5.245  43.136   9.158  1.00  0.00    -0.458 OA
ENDROOT
BRANCH   1   2
ATOM      2  C   UNL     1       5.447  41.739   9.403  1.00  0.00     0.339 C 
ATOM      3  C   UNL     1       5.557  39.640   8.239  1.00  0.00     0.199 C 
ATOM      4  C   UNL     1       5.972  39.089   9.633  1.00  0.00     0.180 C 
ATOM      5  O   UNL     1       5.071  40.982   8.258  1.00  0.00    -0.328 OA
ATOM      6  C   UNL     1       7.044  39.982  10.312  1.00  0.00     0.181 C 
ATOM      7  C   UNL     1       6.890  41.464   9.883  1.00  0.00     0.214 C 
BRANCH   3   8
ATOM      8  C   UNL     1       6.672  39.552   7.233  1.00  0.00     0.073 C 
ATOM      9  O   UNL     1       7.060  38.437   6.795  1.00  0.00    -0.547 OA
ATOM     10  O   UNL     1       7.099  38.321   6.751  1.00  0.00    -0.547 OA
ENDBRANCH   3   8
BRANCH   4  11
ATOM     11  O   UNL     1       6.369  37.740   9.570  1.00  0.00    -0.387 OA
ATOM     12  H   UNL     1       6.693  37.467  10.467  1.00  0.00     0.211 HD
ENDBRANCH   4  11
BRANCH   6  13
ATOM     13  O   UNL     1       6.932  39.865  11.708  1.00  0.00    -0.387 OA
ATOM     14  H   UNL     1       6.029  40.199  11.951  1.00  0.00     0.211 HD
ENDBRANCH   6  13
BRANCH   7  15
ATOM     15  O   UNL     1       7.208  42.331  10.940  1.00  0.00    -0.384 OA
ATOM     16  H   UNL     1       7.484  43.193  10.530  1.00  0.00     0.211 HD
ENDBRANCH   7  15
ENDBRANCH   1   2
BRANCH   1  17
ATOM     17  C   UNL     1       5.368  43.819   7.933  1.00  0.00     0.172 A 
ATOM     18  C   UNL     1       6.577  44.487   7.662  1.00  0.00     0.201 A 
ATOM     19  C   UNL     1       4.333  43.865   6.985  1.00  0.00     0.098 A 
ATOM     20  C   UNL     1       6.753  45.185   6.452  1.00  0.00     0.176 A 
ATOM     21  C   UNL     1       4.496  44.554   5.782  1.00  0.00     0.146 A 
ATOM     22  C   UNL     1       5.708  45.220   5.500  1.00  0.00     0.111 A 
ATOM     23  O   UNL     1       3.493  44.574   4.909  1.00  0.00    -0.456 OA
ATOM     24  C   UNL     1       5.811  45.892   4.264  1.00  0.00     0.197 A 
ATOM     25  C   UNL     1       3.553  45.206   3.740  1.00  0.00     0.138 A 
ATOM     26  C   UNL     1       4.731  45.882   3.381  1.00  0.00     0.100 A 
ATOM     27  O   UNL     1       6.864  46.501   3.933  1.00  0.00    -0.289 OA
BRANCH  18  28
ATOM     28  O   UNL     1       7.619  44.462   8.591  1.00  0.00    -0.502 OA
ATOM     29  H   UNL     1       8.590  44.568   8.324  1.00  0.00     0.293 HD
ENDBRANCH  18  28
BRANCH  20  30
ATOM     30  O   UNL     1       7.960  45.841   6.197  1.00  0.00    -0.504 OA
ATOM     31  H   UNL     1       8.029  46.632   5.569  1.00  0.00     0.293 HD
ENDBRANCH  20  30
BRANCH  25  32
ATOM     32  C   UNL     1       2.370  45.159   2.844  1.00  0.00     0.017 A 
ATOM     33  C   UNL     1       2.453  44.647   1.533  1.00  0.00     0.012 A 
ATOM     34  C   UNL     1       1.138  45.668   3.296  1.00  0.00     0.012 A 
ATOM     35  C   UNL     1       1.324  44.626   0.708  1.00  0.00     0.001 A 
ATOM     36  C   UNL     1       0.013  45.644   2.466  1.00  0.00     0.001 A 
ATOM     37  C   UNL     1       0.104  45.121   1.175  1.00  0.00     0.000 A 
ENDBRANCH  25  32
ENDBRANCH   1  17
TORSDOF 9
ENDMDL
MODEL 6
REMARK VINA RESULT:    -7.873      3.658      6.191
REMARK INTER + INTRA:         -12.027
REMARK INTER:                 -11.365
REMARK INTRA:                  -0.662
REMARK UNBOUND:                -1.162
REMARK SMILES O=C([O-])[C@@H]1O[C@H](Oc2cc3oc(-c4ccccc4)cc(=O)c3c(O)c2O)[C@@H](O)[C@@H](O)[C@@H]1O
REMARK SMILES IDX 7 1 6 2 4 3 31 4 5 5 29 6 27 7 2 8 1 9 3 10 32 11 30 13
REMARK SMILES IDX 28 15 8 17 25 18 9 19 23 20 10 21 22 22 11 23 20 24 12 25
REMARK SMILES IDX 19 26 21 27 26 28 24 30 13 32 14 33 18 34 15 35 17 36 16 37
REMARK H PARENT 32 12 30 14 28 16 26 29 24 31
REMARK Flexibility Score: inf
ROOT
ATOM      1  O   UNL     1       7.965  47.861   1.960  1.00  0.00    -0.458 OA
ENDROOT
BRANCH   1   2
ATOM      2  C   UNL     1       8.513  47.548   0.674  1.00  0.00     0.339 C 
ATOM      3  C   UNL     1       7.855  47.314  -1.626  1.00  0.00     0.199 C 
ATOM      4  C   UNL     1       9.384  47.147  -1.863  1.00  0.00     0.180 C 
ATOM      5  O   UNL     1       7.466  47.279  -0.253  1.00  0.00    -0.328 OA
ATOM      6  C   UNL     1      10.207  48.218  -1.099  1.00  0.00     0.181 C 
ATOM      7  C   UNL     1       9.489  48.650   0.205  1.00  0.00     0.214 C 
BRANCH   3   8
ATOM      8  C   UNL     1       7.314  48.574  -2.242  1.00  0.00     0.073 C 
ATOM      9  O   UNL     1       6.094  48.677  -2.537  1.00  0.00    -0.547 OA
ATOM     10  O   UNL     1       5.968  48.686  -2.567  1.00  0.00    -0.547 OA
ENDBRANCH   3   8
BRANCH   4  11
ATOM     11  O   UNL     1       9.703  47.111  -3.233  1.00  0.00    -0.387 OA
ATOM     12  H   UNL     1       9.285  47.895  -3.673  1.00  0.00     0.211 HD
ENDBRANCH   4  11
BRANCH   6  13
ATOM     13  O   UNL     1      11.482  47.704  -0.806  1.00  0.00    -0.387 OA
ATOM     14  H   UNL     1      11.496  47.514   0.169  1.00  0.00     0.211 HD
ENDBRANCH   6  13
BRANCH   7  15
ATOM     15  O   UNL     1      10.415  48.924   1.225  1.00  0.00    -0.384 OA
ATOM     16  H   UNL     1      11.296  49.047   0.784  1.00  0.00     0.211 HD
ENDBRANCH   7  15
ENDBRANCH   1   2
BRANCH   1  17
ATOM     17  C   UNL     1       7.021  47.117   2.694  1.00  0.00     0.172 A 
ATOM     18  C   UNL     1       7.465  46.421   3.835  1.00  0.00     0.201 A 
ATOM     19  C   UNL     1       5.668  47.037   2.328  1.00  0.00     0.098 A 
ATOM     20  C   UNL     1       6.564  45.661   4.605  1.00  0.00     0.176 A 
ATOM     21  C   UNL     1       4.766  46.287   3.084  1.00  0.00     0.146 A 
ATOM     22  C   UNL     1       5.202  45.593   4.232  1.00  0.00     0.111 A 
ATOM     23  O   UNL     1       3.492  46.237   2.705  1.00  0.00    -0.456 OA
ATOM     24  C   UNL     1       4.239  44.858   4.956  1.00  0.00     0.197 A 
ATOM     25  C   UNL     1       2.561  45.547   3.358  1.00  0.00     0.138 A 
ATOM     26  C   UNL     1       2.914  44.839   4.518  1.00  0.00     0.100 A 
ATOM     27  O   UNL     1       4.546  44.221   5.999  1.00  0.00    -0.289 OA
BRANCH  18  28
ATOM     28  O   UNL     1       8.807  46.477   4.216  1.00  0.00    -0.502 OA
ATOM     29  H   UNL     1       9.106  46.868   5.102  1.00  0.00     0.293 HD
ENDBRANCH  18  28
BRANCH  20  30
ATOM     30  O   UNL     1       7.021  44.978   5.735  1.00  0.00    -0.504 OA
ATOM     31  H   UNL     1       6.945  45.360   6.670  1.00  0.00     0.293 HD
ENDBRANCH  20  30
BRANCH  25  32
ATOM     32  C   UNL     1       1.169  45.565   2.842  1.00  0.00     0.017 A 
ATOM     33  C   UNL     1       0.118  46.169   3.563  1.00  0.00     0.012 A 
ATOM     34  C   UNL     1       0.875  44.935   1.618  1.00  0.00     0.012 A 
ATOM     35  C   UNL     1      -1.185  46.160   3.056  1.00  0.00     0.001 A 
ATOM     36  C   UNL     1      -0.430  44.929   1.117  1.00  0.00     0.001 A 
ATOM     37  C   UNL     1      -1.459  45.543   1.833  1.00  0.00     0.000 A 
ENDBRANCH  25  32
ENDBRANCH   1  17
TORSDOF 9
ENDMDL
MODEL 7
REMARK VINA RESULT:    -7.836      4.590      6.956
REMARK INTER + INTRA:         -11.975
REMARK INTER:                 -10.661
REMARK INTRA:                  -1.314
REMARK UNBOUND:                -1.162
REMARK SMILES O=C([O-])[C@@H]1O[C@H](Oc2cc3oc(-c4ccccc4)cc(=O)c3c(O)c2O)[C@@H](O)[C@@H](O)[C@@H]1O
REMARK SMILES IDX 7 1 6 2 4 3 31 4 5 5 29 6 27 7 2 8 1 9 3 10 32 11 30 13
REMARK SMILES IDX 28 15 8 17 25 18 9 19 23 20 10 21 22 22 11 23 20 24 12 25
REMARK SMILES IDX 19 26 21 27 26 28 24 30 13 32 14 33 18 34 15 35 17 36 16 37
REMARK H PARENT 32 12 30 14 28 16 26 29 24 31
REMARK Flexibility Score: inf
ROOT
ATOM      1  O   UNL     1       7.493  49.422  -0.922  1.00  0.00    -0.458 OA
ENDROOT
BRANCH   1   2
ATOM      2  C   UNL     1       7.589  50.849  -0.997  1.00  0.00     0.339 C 
ATOM      3  C   UNL     1       6.669  52.834  -0.001  1.00  0.00     0.199 C 
ATOM      4  C   UNL     1       7.744  53.554  -0.865  1.00  0.00     0.180 C 
ATOM      5  O   UNL     1       6.497  51.451  -0.309  1.00  0.00    -0.328 OA
ATOM      6  C   UNL     1       9.129  52.860  -0.762  1.00  0.00     0.181 C 
ATOM      7  C   UNL     1       8.973  51.338  -0.511  1.00  0.00     0.214 C 
BRANCH   3   8
ATOM      8  C   UNL     1       6.937  52.964   1.472  1.00  0.00     0.073 C 
ATOM      9  O   UNL     1       6.693  54.039   2.081  1.00  0.00    -0.547 OA
ATOM     10  O   UNL     1       6.668  54.151   2.142  1.00  0.00    -0.547 OA
ENDBRANCH   3   8
BRANCH   4  11
ATOM     11  O   UNL     1       7.818  54.929  -0.576  1.00  0.00    -0.387 OA
ATOM     12  H   UNL     1       8.662  55.100  -0.084  1.00  0.00     0.211 HD
ENDBRANCH   4  11
BRANCH   6  13
ATOM     13  O   UNL     1       9.853  53.087  -1.944  1.00  0.00    -0.387 OA
ATOM     14  H   UNL     1       9.531  52.424  -2.609  1.00  0.00     0.211 HD
ENDBRANCH   6  13
BRANCH   7  15
ATOM     15  O   UNL     1       9.983  50.613  -1.163  1.00  0.00    -0.384 OA
ATOM     16  H   UNL     1       9.716  50.546  -2.117  1.00  0.00     0.211 HD
ENDBRANCH   7  15
ENDBRANCH   1   2
BRANCH   1  17
ATOM     17  C   UNL     1       7.048  48.648   0.167  1.00  0.00     0.172 A 
ATOM     18  C   UNL     1       7.992  48.262   1.138  1.00  0.00     0.201 A 
ATOM     19  C   UNL     1       5.712  48.242   0.312  1.00  0.00     0.098 A 
ATOM     20  C   UNL     1       7.601  47.487   2.247  1.00  0.00     0.176 A 
ATOM     21  C   UNL     1       5.313  47.474   1.407  1.00  0.00     0.146 A 
ATOM     22  C   UNL     1       6.252  47.090   2.388  1.00  0.00     0.111 A 
ATOM     23  O   UNL     1       4.038  47.111   1.509  1.00  0.00    -0.456 OA
ATOM     24  C   UNL     1       5.783  46.320   3.474  1.00  0.00     0.197 A 
ATOM     25  C   UNL     1       3.565  46.377   2.513  1.00  0.00     0.138 A 
ATOM     26  C   UNL     1       4.435  45.966   3.536  1.00  0.00     0.100 A 
ATOM     27  O   UNL     1       6.555  45.947   4.397  1.00  0.00    -0.289 OA
BRANCH  18  28
ATOM     28  O   UNL     1       9.329  48.646   1.014  1.00  0.00    -0.502 OA
ATOM     29  H   UNL     1       9.946  48.251   0.316  1.00  0.00     0.293 HD
ENDBRANCH  18  28
BRANCH  20  30
ATOM     30  O   UNL     1       8.549  47.115   3.203  1.00  0.00    -0.504 OA
ATOM     31  H   UNL     1       8.742  46.148   3.432  1.00  0.00     0.293 HD
ENDBRANCH  20  30
BRANCH  25  32
ATOM     32  C   UNL     1       2.121  46.032   2.524  1.00  0.00     0.017 A 
ATOM     33  C   UNL     1       1.270  46.431   3.575  1.00  0.00     0.012 A 
ATOM     34  C   UNL     1       1.586  45.258   1.477  1.00  0.00     0.012 A 
ATOM     35  C   UNL     1      -0.083  46.081   3.563  1.00  0.00     0.001 A 
ATOM     36  C   UNL     1       0.231  44.912   1.470  1.00  0.00     0.001 A 
ATOM     37  C   UNL     1      -0.603  45.325   2.510  1.00  0.00     0.000 A 
ENDBRANCH  25  32
ENDBRANCH   1  17
TORSDOF 9
ENDMDL
MODEL 8
REMARK VINA RESULT:    -7.717     10.398     11.688
REMARK INTER + INTRA:         -11.811
REMARK INTER:                 -10.498
REMARK INTRA:                  -1.313
REMARK UNBOUND:                -1.162
REMARK SMILES O=C([O-])[C@@H]1O[C@H](Oc2cc3oc(-c4ccccc4)cc(=O)c3c(O)c2O)[C@@H](O)[C@@H](O)[C@@H]1O
REMARK SMILES IDX 7 1 6 2 4 3 31 4 5 5 29 6 27 7 2 8 1 9 3 10 32 11 30 13
REMARK SMILES IDX 28 15 8 17 25 18 9 19 23 20 10 21 22 22 11 23 20 24 12 25
REMARK SMILES IDX 19 26 21 27 26 28 24 30 13 32 14 33 18 34 15 35 17 36 16 37
REMARK H PARENT 32 12 30 14 28 16 26 29 24 31
REMARK Flexibility Score: inf
ROOT
ATOM      1  O   UNL     1       7.829  39.594   9.619  1.00  0.00    -0.458 OA
ENDROOT
BRANCH   1   2
ATOM      2  C   UNL     1       7.789  38.762   8.454  1.00  0.00     0.339 C 
ATOM      3  C   UNL     1       9.255  37.679   6.887  1.00  0.00     0.199 C 
ATOM      4  C   UNL     1       7.934  37.058   6.349  1.00  0.00     0.180 C 
ATOM      5  O   UNL     1       9.068  38.737   7.827  1.00  0.00    -0.328 OA
ATOM      6  C   UNL     1       7.033  36.530   7.498  1.00  0.00     0.181 C 
ATOM      7  C   UNL     1       7.237  37.360   8.793  1.00  0.00     0.214 C 
BRANCH   3   8
ATOM      8  C   UNL     1      10.162  36.650   7.503  1.00  0.00     0.073 C 
ATOM      9  O   UNL     1      11.007  36.033   6.804  1.00  0.00    -0.547 OA
ATOM     10  O   UNL     1      11.094  35.969   6.731  1.00  0.00    -0.547 OA
ENDBRANCH   3   8
BRANCH   4  11
ATOM     11  O   UNL     1       8.173  36.075   5.371  1.00  0.00    -0.387 OA
ATOM     12  H   UNL     1       8.206  35.190   5.818  1.00  0.00     0.211 HD
ENDBRANCH   4  11
BRANCH   6  13
ATOM     13  O   UNL     1       5.688  36.579   7.095  1.00  0.00    -0.387 OA
ATOM     14  H   UNL     1       5.179  36.007   7.727  1.00  0.00     0.211 HD
ENDBRANCH   6  13
BRANCH   7  15
ATOM     15  O   UNL     1       6.033  37.487   9.505  1.00  0.00    -0.384 OA
ATOM     16  H   UNL     1       6.211  38.111  10.256  1.00  0.00     0.211 HD
ENDBRANCH   7  15
ENDBRANCH   1   2
BRANCH   1  17
ATOM     17  C   UNL     1       7.605  40.982   9.691  1.00  0.00     0.172 A 
ATOM     18  C   UNL     1       8.669  41.845   9.364  1.00  0.00     0.201 A 
ATOM     19  C   UNL     1       6.374  41.533  10.082  1.00  0.00     0.098 A 
ATOM     20  C   UNL     1       8.501  43.242   9.419  1.00  0.00     0.176 A 
ATOM     21  C   UNL     1       6.195  42.916  10.140  1.00  0.00     0.146 A 
ATOM     22  C   UNL     1       7.255  43.786   9.806  1.00  0.00     0.111 A 
ATOM     23  O   UNL     1       5.014  43.398  10.514  1.00  0.00    -0.456 OA
ATOM     24  C   UNL     1       7.007  45.173   9.879  1.00  0.00     0.197 A 
ATOM     25  C   UNL     1       4.750  44.699  10.603  1.00  0.00     0.138 A 
ATOM     26  C   UNL     1       5.749  45.630  10.276  1.00  0.00     0.100 A 
ATOM     27  O   UNL     1       7.898  46.016   9.587  1.00  0.00    -0.289 OA
BRANCH  18  28
ATOM     28  O   UNL     1       9.906  41.323   8.979  1.00  0.00    -0.502 OA
ATOM     29  H   UNL     1      10.779  41.803   9.158  1.00  0.00     0.293 HD
ENDBRANCH  18  28
BRANCH  20  30
ATOM     30  O   UNL     1       9.566  44.084   9.089  1.00  0.00    -0.504 OA
ATOM     31  H   UNL     1       9.966  44.118   8.159  1.00  0.00     0.293 HD
ENDBRANCH  20  30
BRANCH  25  32
ATOM     32  C   UNL     1       3.392  45.122  11.031  1.00  0.00     0.017 A 
ATOM     33  C   UNL     1       2.238  44.748  10.313  1.00  0.00     0.012 A 
ATOM     34  C   UNL     1       3.248  45.947  12.162  1.00  0.00     0.012 A 
ATOM     35  C   UNL     1       0.974  45.172  10.734  1.00  0.00     0.001 A 
ATOM     36  C   UNL     1       1.982  46.366  12.579  1.00  0.00     0.001 A 
ATOM     37  C   UNL     1       0.845  45.977  11.868  1.00  0.00     0.000 A 
ENDBRANCH  25  32
ENDBRANCH   1  17
TORSDOF 9
ENDMDL
MODEL 9
REMARK VINA RESULT:    -7.525     10.728     13.424
REMARK INTER + INTRA:         -11.546
REMARK INTER:                 -10.609
REMARK INTRA:                  -0.937
REMARK UNBOUND:                -1.162
REMARK SMILES O=C([O-])[C@@H]1O[C@H](Oc2cc3oc(-c4ccccc4)cc(=O)c3c(O)c2O)[C@@H](O)[C@@H](O)[C@@H]1O
REMARK SMILES IDX 7 1 6 2 4 3 31 4 5 5 29 6 27 7 2 8 1 9 3 10 32 11 30 13
REMARK SMILES IDX 28 15 8 17 25 18 9 19 23 20 10 21 22 22 11 23 20 24 12 25
REMARK SMILES IDX 19 26 21 27 26 28 24 30 13 32 14 33 18 34 15 35 17 36 16 37
REMARK H PARENT 32 12 30 14 28 16 26 29 24 31
REMARK Flexibility Score: inf
ROOT
ATOM      1  O   UNL     1       5.723  39.296   9.118  1.00  0.00    -0.458 OA
ENDROOT
BRANCH   1   2
ATOM      2  C   UNL     1       6.282  38.291   9.970  1.00  0.00     0.339 C 
ATOM      3  C   UNL     1       8.385  37.601  10.909  1.00  0.00     0.199 C 
ATOM      4  C   UNL     1       7.504  36.583  11.687  1.00  0.00     0.180 C 
ATOM      5  O   UNL     1       7.702  38.290   9.861  1.00  0.00    -0.328 OA
ATOM      6  C   UNL     1       6.242  37.255  12.293  1.00  0.00     0.181 C 
ATOM      7  C   UNL     1       5.772  38.448  11.421  1.00  0.00     0.214 C 
BRANCH   3   8
ATOM      8  C   UNL     1       9.018  38.621  11.814  1.00  0.00     0.073 C 
ATOM      9  O   UNL     1      10.270  38.744  11.872  1.00  0.00    -0.547 OA
ATOM     10  O   UNL     1      10.399  38.756  11.877  1.00  0.00    -0.547 OA
ENDBRANCH   3   8
BRANCH   4  11
ATOM     11  O   UNL     1       8.243  35.878  12.655  1.00  0.00    -0.387 OA
ATOM     12  H   UNL     1       8.232  34.915  12.416  1.00  0.00     0.211 HD
ENDBRANCH   4  11
BRANCH   6  13
ATOM     13  O   UNL     1       5.216  36.301  12.407  1.00  0.00    -0.387 OA
ATOM     14  H   UNL     1       5.501  35.510  11.879  1.00  0.00     0.211 HD
ENDBRANCH   6  13
BRANCH   7  15
ATOM     15  O   UNL     1       4.371  38.551  11.418  1.00  0.00    -0.384 OA
ATOM     16  H   UNL     1       4.086  38.534  10.467  1.00  0.00     0.211 HD
ENDBRANCH   7  15
ENDBRANCH   1   2
BRANCH   1  17
ATOM     17  C   UNL     1       5.783  40.693   9.284  1.00  0.00     0.172 A 
ATOM     18  C   UNL     1       7.016  41.337   9.066  1.00  0.00     0.201 A 
ATOM     19  C   UNL     1       4.670  41.459   9.667  1.00  0.00     0.098 A 
ATOM     20  C   UNL     1       7.132  42.732   9.220  1.00  0.00     0.176 A 
ATOM     21  C   UNL     1       4.772  42.842   9.822  1.00  0.00     0.146 A 
ATOM     22  C   UNL     1       6.004  43.495   9.598  1.00  0.00     0.111 A 
ATOM     23  O   UNL     1       3.695  43.532  10.184  1.00  0.00    -0.456 OA
ATOM     24  C   UNL     1       6.039  44.896   9.765  1.00  0.00     0.197 A 
ATOM     25  C   UNL     1       3.696  44.851  10.360  1.00  0.00     0.138 A 
ATOM     26  C   UNL     1       4.880  45.575  10.145  1.00  0.00     0.100 A 
ATOM     27  O   UNL     1       7.097  45.554   9.573  1.00  0.00    -0.289 OA
BRANCH  18  28
ATOM     28  O   UNL     1       8.140  40.598   8.693  1.00  0.00    -0.502 OA
ATOM     29  H   UNL     1       8.436  39.767   9.190  1.00  0.00     0.293 HD
ENDBRANCH  18  28
BRANCH  20  30
ATOM     30  O   UNL     1       8.362  43.355   8.997  1.00  0.00    -0.504 OA
ATOM     31  H   UNL     1       8.708  43.561   8.068  1.00  0.00     0.293 HD
ENDBRANCH  20  30
BRANCH  25  32
ATOM     32  C   UNL     1       2.432  45.516  10.765  1.00  0.00     0.017 A 
ATOM     33  C   UNL     1       1.242  44.787  10.967  1.00  0.00     0.012 A 
ATOM     34  C   UNL     1       2.404  46.915  10.920  1.00  0.00     0.012 A 
ATOM     35  C   UNL     1       0.064  45.444  11.336  1.00  0.00     0.001 A 
ATOM     36  C   UNL     1       1.222  47.565  11.290  1.00  0.00     0.001 A 
ATOM     37  C   UNL     1       0.054  46.830  11.501  1.00  0.00     0.000 A 
ENDBRANCH  25  32
ENDBRANCH   1  17
TORSDOF 9
ENDMDL
