MODEL 1
REMARK VINA RESULT:    -3.896      0.000      0.000
REMARK INTER + INTRA:          -7.780
REMARK INTER:                  -6.401
REMARK INTRA:                  -1.378
REMARK UNBOUND:                -1.378
REMARK SMILES COc1ccc([C@H]2CC(=O)c3c(O)cc(O[C@@H]4O[C@H](CO[C@H]5O[C@@H](C)[C@H](O)[C@@H](O)[C@@H]5O)[C@@H](O)[C@H](O)[C@H]4O)cc3O2)cc1O
REMARK SMILES IDX 19 1 32 2 34 3 36 4 17 5 18 6 20 7 21 8 22 9 25 10 24 11
REMARK SMILES IDX 26 12 23 13 28 14 30 15 27 16 29 18 31 20 33 22 35 24 16 26
REMARK SMILES IDX 15 27 14 28 38 29 12 30 39 31 11 32 40 33 9 34 7 35 10 36
REMARK SMILES IDX 8 37 13 38 6 40 41 41 5 42 42 43 4 44 3 45 43 46 2 48 1 49
REMARK SMILES IDX 37 50
REMARK H PARENT 27 17 29 19 31 21 33 23 35 25 13 39 43 47 37 51
REMARK Flexibility Score: inf
ROOT
ATOM      1  C   UNL     1      22.629  16.745   2.332  1.00  0.00     0.180 C 
ATOM      2  C   UNL     1      23.649  15.827   3.030  1.00  0.00     0.177 C 
ATOM      3  C   UNL     1      24.783  16.636   3.734  1.00  0.00     0.180 C 
ATOM      4  C   UNL     1      24.757  18.163   3.446  1.00  0.00     0.214 C 
ATOM      5  C   UNL     1      23.337  18.765   3.193  1.00  0.00     0.339 C 
ATOM      6  O   UNL     1      22.296  17.805   3.206  1.00  0.00    -0.332 OA
ENDROOT
BRANCH   1   7
ATOM      7  C   UNL     1      21.346  16.029   1.875  1.00  0.00     0.198 C 
BRANCH   7   8
ATOM      8  O   UNL     1      21.481  14.619   1.902  1.00  0.00    -0.347 OA
BRANCH   8   9
ATOM      9  C   UNL     1      20.812  13.998   2.991  1.00  0.00     0.281 C 
ATOM     10  C   UNL     1      18.400  15.363   5.363  1.00  0.00     0.041 C 
ATOM     11  C   UNL     1      19.265  14.303   4.682  1.00  0.00     0.150 C 
ATOM     12  C   UNL     1      18.454  13.003   4.413  1.00  0.00     0.174 C 
ATOM     13  O   UNL     1      19.781  14.840   3.476  1.00  0.00    -0.344 OA
ATOM     14  C   UNL     1      18.814  12.364   3.040  1.00  0.00     0.179 C 
ATOM     15  C   UNL     1      20.307  12.541   2.687  1.00  0.00     0.202 C 
BRANCH  12  16
ATOM     16  O   UNL     1      18.707  12.094   5.453  1.00  0.00    -0.388 OA
ATOM     17  H   UNL     1      18.103  11.321   5.316  1.00  0.00     0.211 HD
ENDBRANCH  12  16
BRANCH  14  18
ATOM     18  O   UNL     1      17.989  12.847   2.005  1.00  0.00    -0.387 OA
ATOM     19  H   UNL     1      17.343  12.139   1.758  1.00  0.00     0.211 HD
ENDBRANCH  14  18
BRANCH  15  20
ATOM     20  O   UNL     1      21.055  11.616   3.434  1.00  0.00    -0.385 OA
ATOM     21  H   UNL     1      20.401  10.998   3.866  1.00  0.00     0.211 HD
ENDBRANCH  15  20
ENDBRANCH   8   9
ENDBRANCH   7   8
ENDBRANCH   1   7
BRANCH   2  22
ATOM     22  O   UNL     1      24.195  14.943   2.085  1.00  0.00    -0.387 OA
ATOM     23  H   UNL     1      24.133  15.392   1.202  1.00  0.00     0.211 HD
ENDBRANCH   2  22
BRANCH   3  24
ATOM     24  O   UNL     1      24.735  16.433   5.128  1.00  0.00    -0.387 OA
ATOM     25  H   UNL     1      25.671  16.429   5.456  1.00  0.00     0.211 HD
ENDBRANCH   3  24
BRANCH   5  26
ATOM     26  O   UNL     1      23.053  19.838   4.091  1.00  0.00    -0.462 OA
BRANCH  26  27
ATOM     27  C   UNL     1      23.330  19.918   5.467  1.00  0.00     0.130 A 
ATOM     28  C   UNL     1      24.623  20.076   5.999  1.00  0.00     0.093 A 
ATOM     29  C   UNL     1      22.243  19.811   6.343  1.00  0.00     0.094 A 
ATOM     30  C   UNL     1      24.828  20.081   7.389  1.00  0.00     0.133 A 
ATOM     31  C   UNL     1      22.432  19.849   7.723  1.00  0.00     0.138 A 
ATOM     32  C   UNL     1      23.727  19.963   8.261  1.00  0.00     0.102 A 
ATOM     33  O   UNL     1      21.317  19.768   8.572  1.00  0.00    -0.484 OA
ATOM     34  C   UNL     1      23.868  19.917   9.736  1.00  0.00     0.174 C 
ATOM     35  C   UNL     1      21.387  20.157   9.944  1.00  0.00     0.211 C 
ATOM     36  O   UNL     1      24.988  20.094  10.290  1.00  0.00    -0.294 OA
ATOM     37  C   UNL     1      22.674  19.583  10.582  1.00  0.00     0.131 C 
BRANCH  30  38
ATOM     38  O   UNL     1      26.124  20.202   7.890  1.00  0.00    -0.507 OA
ATOM     39  H   UNL     1      26.877  20.572   7.322  1.00  0.00     0.293 HD
ENDBRANCH  30  38
BRANCH  35  40
ATOM     40  C   UNL     1      20.085  19.780  10.639  1.00  0.00    -0.003 A 
ATOM     41  C   UNL     1      18.876  19.567   9.951  1.00  0.00     0.057 A 
ATOM     42  C   UNL     1      20.111  19.574  12.028  1.00  0.00     0.011 A 
ATOM     43  C   UNL     1      17.717  19.182  10.645  1.00  0.00     0.158 A 
ATOM     44  C   UNL     1      18.958  19.196  12.722  1.00  0.00     0.051 A 
ATOM     45  C   UNL     1      17.750  18.996  12.032  1.00  0.00     0.160 A 
BRANCH  43  46
ATOM     46  O   UNL     1      16.524  18.985   9.954  1.00  0.00    -0.504 OA
ATOM     47  H   UNL     1      16.218  18.062   9.670  1.00  0.00     0.293 HD
ENDBRANCH  43  46
BRANCH  45  48
ATOM     48  O   UNL     1      16.570  18.607  12.686  1.00  0.00    -0.493 OA
ATOM     49  C   UNL     1      15.870  19.414  13.629  1.00  0.00     0.278 C 
ENDBRANCH  45  48
ENDBRANCH  35  40
ENDBRANCH  26  27
ENDBRANCH   5  26
BRANCH   4  50
ATOM     50  O   UNL     1      25.607  18.466   2.366  1.00  0.00    -0.384 OA
ATOM     51  H   UNL     1      26.028  19.345   2.564  1.00  0.00     0.211 HD
ENDBRANCH   4  50
TORSDOF 15
ENDMDL
MODEL 2
REMARK VINA RESULT:    -3.057      1.933      7.430
REMARK INTER + INTRA:          -6.401
REMARK INTER:                  -5.151
REMARK INTRA:                  -1.250
REMARK UNBOUND:                -1.378
REMARK SMILES COc1ccc([C@H]2CC(=O)c3c(O)cc(O[C@@H]4O[C@H](CO[C@H]5O[C@@H](C)[C@H](O)[C@@H](O)[C@@H]5O)[C@@H](O)[C@H](O)[C@H]4O)cc3O2)cc1O
REMARK SMILES IDX 19 1 32 2 34 3 36 4 17 5 18 6 20 7 21 8 22 9 25 10 24 11
REMARK SMILES IDX 26 12 23 13 28 14 30 15 27 16 29 18 31 20 33 22 35 24 16 26
REMARK SMILES IDX 15 27 14 28 38 29 12 30 39 31 11 32 40 33 9 34 7 35 10 36
REMARK SMILES IDX 8 37 13 38 6 40 41 41 5 42 42 43 4 44 3 45 43 46 2 48 1 49
REMARK SMILES IDX 37 50
REMARK H PARENT 27 17 29 19 31 21 33 23 35 25 13 39 43 47 37 51
REMARK Flexibility Score: inf
ROOT
ATOM      1  C   UNL     1      24.755  18.874   5.460  1.00  0.00     0.180 C 
ATOM      2  C   UNL     1      23.860  19.686   4.506  1.00  0.00     0.177 C 
ATOM      3  C   UNL     1      23.874  19.111   3.055  1.00  0.00     0.180 C 
ATOM      4  C   UNL     1      24.903  17.969   2.827  1.00  0.00     0.214 C 
ATOM      5  C   UNL     1      25.194  17.080   4.079  1.00  0.00     0.339 C 
ATOM      6  O   UNL     1      24.515  17.497   5.249  1.00  0.00    -0.332 OA
ENDROOT
BRANCH   1   7
ATOM      7  C   UNL     1      24.556  19.211   6.949  1.00  0.00     0.198 C 
BRANCH   7   8
ATOM      8  O   UNL     1      23.189  19.215   7.319  1.00  0.00    -0.347 OA
BRANCH   8   9
ATOM      9  C   UNL     1      22.938  19.814   8.583  1.00  0.00     0.281 C 
ATOM     10  C   UNL     1      19.849  20.045  10.509  1.00  0.00     0.041 C 
ATOM     11  C   UNL     1      21.338  20.207  10.205  1.00  0.00     0.150 C 
ATOM     12  C   UNL     1      22.209  19.777  11.419  1.00  0.00     0.174 C 
ATOM     13  O   UNL     1      21.655  19.443   9.054  1.00  0.00    -0.344 OA
ATOM     14  C   UNL     1      23.494  19.017  10.975  1.00  0.00     0.179 C 
ATOM     15  C   UNL     1      24.067  19.563   9.648  1.00  0.00     0.202 C 
BRANCH  12  16
ATOM     16  O   UNL     1      22.554  20.924  12.152  1.00  0.00    -0.388 OA
ATOM     17  H   UNL     1      22.682  21.658  11.500  1.00  0.00     0.211 HD
ENDBRANCH  12  16
BRANCH  14  18
ATOM     18  O   UNL     1      23.280  17.626  10.899  1.00  0.00    -0.387 OA
ATOM     19  H   UNL     1      22.516  17.391  11.482  1.00  0.00     0.211 HD
ENDBRANCH  14  18
BRANCH  15  20
ATOM     20  O   UNL     1      24.742  20.766   9.915  1.00  0.00    -0.385 OA
ATOM     21  H   UNL     1      24.165  21.288  10.540  1.00  0.00     0.211 HD
ENDBRANCH  15  20
ENDBRANCH   8   9
ENDBRANCH   7   8
ENDBRANCH   1   7
BRANCH   2  22
ATOM     22  O   UNL     1      24.285  21.025   4.504  1.00  0.00    -0.387 OA
ATOM     23  H   UNL     1      23.474  21.584   4.375  1.00  0.00     0.211 HD
ENDBRANCH   2  22
BRANCH   3  24
ATOM     24  O   UNL     1      22.591  18.649   2.701  1.00  0.00    -0.387 OA
ATOM     25  H   UNL     1      21.951  19.380   2.898  1.00  0.00     0.211 HD
ENDBRANCH   3  24
BRANCH   5  26
ATOM     26  O   UNL     1      24.950  15.699   3.811  1.00  0.00    -0.462 OA
BRANCH  26  27
ATOM     27  C   UNL     1      23.713  15.042   3.688  1.00  0.00     0.130 A 
ATOM     28  C   UNL     1      23.531  13.837   2.987  1.00  0.00     0.093 A 
ATOM     29  C   UNL     1      22.605  15.652   4.290  1.00  0.00     0.094 A 
ATOM     30  C   UNL     1      22.250  13.274   2.853  1.00  0.00     0.133 A 
ATOM     31  C   UNL     1      21.336  15.084   4.192  1.00  0.00     0.138 A 
ATOM     32  C   UNL     1      21.141  13.902   3.455  1.00  0.00     0.102 A 
ATOM     33  O   UNL     1      20.254  15.707   4.832  1.00  0.00    -0.484 OA
ATOM     34  C   UNL     1      19.755  13.394   3.321  1.00  0.00     0.174 C 
ATOM     35  C   UNL     1      19.028  15.017   5.079  1.00  0.00     0.211 C 
ATOM     36  O   UNL     1      19.516  12.297   2.744  1.00  0.00    -0.294 OA
ATOM     37  C   UNL     1      18.611  14.230   3.815  1.00  0.00     0.131 C 
BRANCH  30  38
ATOM     38  O   UNL     1      22.091  12.097   2.120  1.00  0.00    -0.507 OA
ATOM     39  H   UNL     1      21.302  11.481   2.277  1.00  0.00     0.293 HD
ENDBRANCH  30  38
BRANCH  35  40
ATOM     40  C   UNL     1      17.996  16.002   5.610  1.00  0.00    -0.003 A 
ATOM     41  C   UNL     1      17.114  15.704   6.666  1.00  0.00     0.057 A 
ATOM     42  C   UNL     1      17.969  17.294   5.060  1.00  0.00     0.011 A 
ATOM     43  C   UNL     1      16.210  16.670   7.138  1.00  0.00     0.158 A 
ATOM     44  C   UNL     1      17.068  18.256   5.525  1.00  0.00     0.051 A 
ATOM     45  C   UNL     1      16.181  17.950   6.570  1.00  0.00     0.160 A 
BRANCH  43  46
ATOM     46  O   UNL     1      15.335  16.359   8.175  1.00  0.00    -0.504 OA
ATOM     47  H   UNL     1      14.330  16.411   8.059  1.00  0.00     0.293 HD
ENDBRANCH  43  46
BRANCH  45  48
ATOM     48  O   UNL     1      15.265  18.888   7.075  1.00  0.00    -0.493 OA
ATOM     49  C   UNL     1      15.512  19.731   8.196  1.00  0.00     0.278 C 
ENDBRANCH  45  48
ENDBRANCH  35  40
ENDBRANCH  26  27
ENDBRANCH   5  26
BRANCH   4  50
ATOM     50  O   UNL     1      26.106  18.495   2.321  1.00  0.00    -0.384 OA
ATOM     51  H   UNL     1      26.803  18.350   3.015  1.00  0.00     0.211 HD
ENDBRANCH   4  50
TORSDOF 15
ENDMDL
MODEL 3
REMARK VINA RESULT:    -1.746      2.219      8.261
REMARK INTER + INTRA:          -4.247
REMARK INTER:                  -2.482
REMARK INTRA:                  -1.765
REMARK UNBOUND:                -1.378
REMARK SMILES COc1ccc([C@H]2CC(=O)c3c(O)cc(O[C@@H]4O[C@H](CO[C@H]5O[C@@H](C)[C@H](O)[C@@H](O)[C@@H]5O)[C@@H](O)[C@H](O)[C@H]4O)cc3O2)cc1O
REMARK SMILES IDX 19 1 32 2 34 3 36 4 17 5 18 6 20 7 21 8 22 9 25 10 24 11
REMARK SMILES IDX 26 12 23 13 28 14 30 15 27 16 29 18 31 20 33 22 35 24 16 26
REMARK SMILES IDX 15 27 14 28 38 29 12 30 39 31 11 32 40 33 9 34 7 35 10 36
REMARK SMILES IDX 8 37 13 38 6 40 41 41 5 42 42 43 4 44 3 45 43 46 2 48 1 49
REMARK SMILES IDX 37 50
REMARK H PARENT 27 17 29 19 31 21 33 23 35 25 13 39 43 47 37 51
REMARK Flexibility Score: inf
ROOT
ATOM      1  C   UNL     1      19.998  19.370  10.782  1.00  0.00     0.180 C 
ATOM      2  C   UNL     1      20.285  19.888  12.203  1.00  0.00     0.177 C 
ATOM      3  C   UNL     1      21.804  19.836  12.553  1.00  0.00     0.180 C 
ATOM      4  C   UNL     1      22.685  19.123  11.489  1.00  0.00     0.214 C 
ATOM      5  C   UNL     1      22.171  19.241  10.018  1.00  0.00     0.339 C 
ATOM      6  O   UNL     1      20.942  19.933   9.893  1.00  0.00    -0.332 OA
ENDROOT
BRANCH   1   7
ATOM      7  C   UNL     1      18.574  19.666  10.279  1.00  0.00     0.198 C 
BRANCH   7   8
ATOM      8  O   UNL     1      17.702  18.566  10.464  1.00  0.00    -0.347 OA
BRANCH   8   9
ATOM      9  C   UNL     1      16.719  18.433   9.446  1.00  0.00     0.281 C 
ATOM     10  C   UNL     1      14.727  20.973   7.747  1.00  0.00     0.041 C 
ATOM     11  C   UNL     1      15.272  19.578   8.053  1.00  0.00     0.150 C 
ATOM     12  C   UNL     1      15.652  18.824   6.748  1.00  0.00     0.174 C 
ATOM     13  O   UNL     1      16.392  19.704   8.914  1.00  0.00    -0.344 OA
ATOM     14  C   UNL     1      16.957  17.990   6.914  1.00  0.00     0.179 C 
ATOM     15  C   UNL     1      17.090  17.389   8.330  1.00  0.00     0.202 C 
BRANCH  12  16
ATOM     16  O   UNL     1      14.585  17.987   6.387  1.00  0.00    -0.388 OA
ATOM     17  H   UNL     1      14.936  17.061   6.363  1.00  0.00     0.211 HD
ENDBRANCH  12  16
BRANCH  14  18
ATOM     18  O   UNL     1      18.103  18.736   6.572  1.00  0.00    -0.387 OA
ATOM     19  H   UNL     1      18.032  19.632   6.985  1.00  0.00     0.211 HD
ENDBRANCH  14  18
BRANCH  15  20
ATOM     20  O   UNL     1      16.239  16.275   8.424  1.00  0.00    -0.385 OA
ATOM     21  H   UNL     1      16.798  15.511   8.743  1.00  0.00     0.211 HD
ENDBRANCH  15  20
ENDBRANCH   8   9
ENDBRANCH   7   8
ENDBRANCH   1   7
BRANCH   2  22
ATOM     22  O   UNL     1      19.546  19.130  13.127  1.00  0.00    -0.387 OA
ATOM     23  H   UNL     1      19.567  18.189  12.809  1.00  0.00     0.211 HD
ENDBRANCH   2  22
BRANCH   3  24
ATOM     24  O   UNL     1      22.303  21.138  12.760  1.00  0.00    -0.387 OA
ATOM     25  H   UNL     1      23.091  21.060  13.357  1.00  0.00     0.211 HD
ENDBRANCH   3  24
BRANCH   5  26
ATOM     26  O   UNL     1      23.163  19.803   9.158  1.00  0.00    -0.462 OA
BRANCH  26  27
ATOM     27  C   UNL     1      23.313  19.626   7.771  1.00  0.00     0.130 A 
ATOM     28  C   UNL     1      23.963  20.547   6.929  1.00  0.00     0.093 A 
ATOM     29  C   UNL     1      22.758  18.468   7.213  1.00  0.00     0.094 A 
ATOM     30  C   UNL     1      24.015  20.331   5.541  1.00  0.00     0.133 A 
ATOM     31  C   UNL     1      22.835  18.229   5.842  1.00  0.00     0.138 A 
ATOM     32  C   UNL     1      23.445  19.167   4.990  1.00  0.00     0.102 A 
ATOM     33  O   UNL     1      22.294  17.044   5.320  1.00  0.00    -0.484 OA
ATOM     34  C   UNL     1      23.423  18.891   3.533  1.00  0.00     0.174 C 
ATOM     35  C   UNL     1      22.644  16.566   4.021  1.00  0.00     0.211 C 
ATOM     36  O   UNL     1      24.020  19.647   2.717  1.00  0.00    -0.294 OA
ATOM     37  C   UNL     1      22.618  17.737   3.011  1.00  0.00     0.131 C 
BRANCH  30  38
ATOM     38  O   UNL     1      24.633  21.278   4.723  1.00  0.00    -0.507 OA
ATOM     39  H   UNL     1      25.256  21.979   5.106  1.00  0.00     0.293 HD
ENDBRANCH  30  38
BRANCH  35  40
ATOM     40  C   UNL     1      21.761  15.376   3.670  1.00  0.00    -0.003 A 
ATOM     41  C   UNL     1      22.213  14.271   2.924  1.00  0.00     0.057 A 
ATOM     42  C   UNL     1      20.449  15.354   4.171  1.00  0.00     0.011 A 
ATOM     43  C   UNL     1      21.360  13.184   2.667  1.00  0.00     0.158 A 
ATOM     44  C   UNL     1      19.597  14.277   3.912  1.00  0.00     0.051 A 
ATOM     45  C   UNL     1      20.049  13.181   3.158  1.00  0.00     0.160 A 
BRANCH  43  46
ATOM     46  O   UNL     1      21.816  12.102   1.919  1.00  0.00    -0.504 OA
ATOM     47  H   UNL     1      21.209  11.602   1.280  1.00  0.00     0.293 HD
ENDBRANCH  43  46
BRANCH  45  48
ATOM     48  O   UNL     1      19.231  12.074   2.881  1.00  0.00    -0.493 OA
ATOM     49  C   UNL     1      17.947  12.154   2.270  1.00  0.00     0.278 C 
ENDBRANCH  45  48
ENDBRANCH  35  40
ENDBRANCH  26  27
ENDBRANCH   5  26
BRANCH   4  50
ATOM     50  O   UNL     1      22.855  17.769  11.831  1.00  0.00    -0.384 OA
ATOM     51  H   UNL     1      22.324  17.608  12.657  1.00  0.00     0.211 HD
ENDBRANCH   4  50
TORSDOF 15
ENDMDL
MODEL 4
REMARK VINA RESULT:    -1.591      3.370      8.484
REMARK INTER + INTRA:          -3.992
REMARK INTER:                  -2.749
REMARK INTRA:                  -1.243
REMARK UNBOUND:                -1.378
REMARK SMILES COc1ccc([C@H]2CC(=O)c3c(O)cc(O[C@@H]4O[C@H](CO[C@H]5O[C@@H](C)[C@H](O)[C@@H](O)[C@@H]5O)[C@@H](O)[C@H](O)[C@H]4O)cc3O2)cc1O
REMARK SMILES IDX 19 1 32 2 34 3 36 4 17 5 18 6 20 7 21 8 22 9 25 10 24 11
REMARK SMILES IDX 26 12 23 13 28 14 30 15 27 16 29 18 31 20 33 22 35 24 16 26
REMARK SMILES IDX 15 27 14 28 38 29 12 30 39 31 11 32 40 33 9 34 7 35 10 36
REMARK SMILES IDX 8 37 13 38 6 40 41 41 5 42 42 43 4 44 3 45 43 46 2 48 1 49
REMARK SMILES IDX 37 50
REMARK H PARENT 27 17 29 19 31 21 33 23 35 25 13 39 43 47 37 51
REMARK Flexibility Score: inf
ROOT
ATOM      1  C   UNL     1      21.877  20.034   9.457  1.00  0.00     0.180 C 
ATOM      2  C   UNL     1      22.572  18.888  10.212  1.00  0.00     0.177 C 
ATOM      3  C   UNL     1      21.870  18.566  11.568  1.00  0.00     0.180 C 
ATOM      4  C   UNL     1      20.743  19.562  11.960  1.00  0.00     0.214 C 
ATOM      5  C   UNL     1      19.980  20.204  10.757  1.00  0.00     0.339 C 
ATOM      6  O   UNL     1      20.479  19.821   9.489  1.00  0.00    -0.332 OA
ENDROOT
BRANCH   1   7
ATOM      7  C   UNL     1      22.340  20.200   7.998  1.00  0.00     0.198 C 
BRANCH   7   8
ATOM      8  O   UNL     1      23.461  19.390   7.697  1.00  0.00    -0.347 OA
BRANCH   8   9
ATOM      9  C   UNL     1      23.361  18.706   6.455  1.00  0.00     0.281 C 
ATOM     10  C   UNL     1      20.497  18.250   4.242  1.00  0.00     0.041 C 
ATOM     11  C   UNL     1      21.950  18.160   4.706  1.00  0.00     0.150 C 
ATOM     12  C   UNL     1      22.931  18.547   3.563  1.00  0.00     0.174 C 
ATOM     13  O   UNL     1      22.123  19.003   5.833  1.00  0.00    -0.344 OA
ATOM     14  C   UNL     1      24.139  19.377   4.087  1.00  0.00     0.179 C 
ATOM     15  C   UNL     1      24.586  18.933   5.497  1.00  0.00     0.202 C 
BRANCH  12  16
ATOM     16  O   UNL     1      23.383  17.371   2.944  1.00  0.00    -0.388 OA
ATOM     17  H   UNL     1      23.360  16.654   3.628  1.00  0.00     0.211 HD
ENDBRANCH  12  16
BRANCH  14  18
ATOM     18  O   UNL     1      23.878  20.762   4.052  1.00  0.00    -0.387 OA
ATOM     19  H   UNL     1      24.707  21.247   4.290  1.00  0.00     0.211 HD
ENDBRANCH  14  18
BRANCH  15  20
ATOM     20  O   UNL     1      25.321  17.741   5.378  1.00  0.00    -0.385 OA
ATOM     21  H   UNL     1      25.726  17.742   4.466  1.00  0.00     0.211 HD
ENDBRANCH  15  20
ENDBRANCH   8   9
ENDBRANCH   7   8
ENDBRANCH   1   7
BRANCH   2  22
ATOM     22  O   UNL     1      23.918  19.229  10.429  1.00  0.00    -0.387 OA
ATOM     23  H   UNL     1      23.986  20.213  10.320  1.00  0.00     0.211 HD
ENDBRANCH   2  22
BRANCH   3  24
ATOM     24  O   UNL     1      21.339  17.261  11.546  1.00  0.00    -0.387 OA
ATOM     25  H   UNL     1      22.106  16.632  11.513  1.00  0.00     0.211 HD
ENDBRANCH   3  24
BRANCH   5  26
ATOM     26  O   UNL     1      18.573  19.972  10.843  1.00  0.00    -0.462 OA
BRANCH  26  27
ATOM     27  C   UNL     1      17.883  19.127  11.730  1.00  0.00     0.130 A 
ATOM     28  C   UNL     1      18.065  17.734  11.788  1.00  0.00     0.093 A 
ATOM     29  C   UNL     1      16.949  19.727  12.585  1.00  0.00     0.094 A 
ATOM     30  C   UNL     1      17.290  16.947  12.658  1.00  0.00     0.133 A 
ATOM     31  C   UNL     1      16.200  18.959  13.475  1.00  0.00     0.138 A 
ATOM     32  C   UNL     1      16.347  17.561  13.506  1.00  0.00     0.102 A 
ATOM     33  O   UNL     1      15.294  19.596  14.337  1.00  0.00    -0.484 OA
ATOM     34  C   UNL     1      15.464  16.795  14.418  1.00  0.00     0.174 C 
ATOM     35  C   UNL     1      14.772  18.943  15.495  1.00  0.00     0.211 C 
ATOM     36  O   UNL     1      15.595  15.547  14.558  1.00  0.00    -0.294 OA
ATOM     37  C   UNL     1      14.348  17.501  15.132  1.00  0.00     0.131 C 
BRANCH  30  38
ATOM     38  O   UNL     1      17.464  15.563  12.669  1.00  0.00    -0.507 OA
ATOM     39  H   UNL     1      16.716  14.935  12.399  1.00  0.00     0.293 HD
ENDBRANCH  30  38
BRANCH  35  40
ATOM     40  C   UNL     1      13.685  19.812  16.113  1.00  0.00    -0.003 A 
ATOM     41  C   UNL     1      12.312  19.621  15.871  1.00  0.00     0.057 A 
ATOM     42  C   UNL     1      14.072  20.812  17.020  1.00  0.00     0.011 A 
ATOM     43  C   UNL     1      11.355  20.432  16.503  1.00  0.00     0.158 A 
ATOM     44  C   UNL     1      13.122  21.623  17.647  1.00  0.00     0.051 A 
ATOM     45  C   UNL     1      11.753  21.437  17.393  1.00  0.00     0.160 A 
BRANCH  43  46
ATOM     46  O   UNL     1       9.999  20.240  16.246  1.00  0.00    -0.504 OA
ATOM     47  H   UNL     1       9.632  20.228  15.302  1.00  0.00     0.293 HD
ENDBRANCH  43  46
BRANCH  45  48
ATOM     48  O   UNL     1      10.764  22.222  18.007  1.00  0.00    -0.493 OA
ATOM     49  C   UNL     1      10.243  21.985  19.311  1.00  0.00     0.278 C 
ENDBRANCH  45  48
ENDBRANCH  35  40
ENDBRANCH  26  27
ENDBRANCH   5  26
BRANCH   4  50
ATOM     50  O   UNL     1      21.257  20.569  12.797  1.00  0.00    -0.384 OA
ATOM     51  H   UNL     1      20.857  21.429  12.497  1.00  0.00     0.211 HD
ENDBRANCH   4  50
TORSDOF 15
ENDMDL
MODEL 5
REMARK VINA RESULT:    -1.011      4.826     13.500
REMARK INTER + INTRA:          -3.040
REMARK INTER:                  -2.262
REMARK INTRA:                  -0.778
REMARK UNBOUND:                -1.378
REMARK SMILES COc1ccc([C@H]2CC(=O)c3c(O)cc(O[C@@H]4O[C@H](CO[C@H]5O[C@@H](C)[C@H](O)[C@@H](O)[C@@H]5O)[C@@H](O)[C@H](O)[C@H]4O)cc3O2)cc1O
REMARK SMILES IDX 19 1 32 2 34 3 36 4 17 5 18 6 20 7 21 8 22 9 25 10 24 11
REMARK SMILES IDX 26 12 23 13 28 14 30 15 27 16 29 18 31 20 33 22 35 24 16 26
REMARK SMILES IDX 15 27 14 28 38 29 12 30 39 31 11 32 40 33 9 34 7 35 10 36
REMARK SMILES IDX 8 37 13 38 6 40 41 41 5 42 42 43 4 44 3 45 43 46 2 48 1 49
REMARK SMILES IDX 37 50
REMARK H PARENT 27 17 29 19 31 21 33 23 35 25 13 39 43 47 37 51
REMARK Flexibility Score: inf
ROOT
ATOM      1  C   UNL     1      13.504  20.016  15.355  1.00  0.00     0.180 C 
ATOM      2  C   UNL     1      14.211  19.577  16.650  1.00  0.00     0.177 C 
ATOM      3  C   UNL     1      15.217  18.410  16.403  1.00  0.00     0.180 C 
ATOM      4  C   UNL     1      15.174  17.817  14.967  1.00  0.00     0.214 C 
ATOM      5  C   UNL     1      14.781  18.831  13.844  1.00  0.00     0.339 C 
ATOM      6  O   UNL     1      14.465  20.125  14.324  1.00  0.00    -0.332 OA
ENDROOT
BRANCH   1   7
ATOM      7  C   UNL     1      12.727  21.340  15.479  1.00  0.00     0.198 C 
BRANCH   7   8
ATOM      8  O   UNL     1      12.551  21.732  16.828  1.00  0.00    -0.347 OA
BRANCH   8   9
ATOM      9  C   UNL     1      11.200  21.690  17.267  1.00  0.00     0.281 C 
ATOM     10  C   UNL     1       8.803  18.940  17.257  1.00  0.00     0.041 C 
ATOM     11  C   UNL     1       9.342  20.341  17.541  1.00  0.00     0.150 C 
ATOM     12  C   UNL     1       9.019  20.782  18.997  1.00  0.00     0.174 C 
ATOM     13  O   UNL     1      10.740  20.351  17.304  1.00  0.00    -0.344 OA
ATOM     14  C   UNL     1      10.195  21.573  19.643  1.00  0.00     0.179 C 
ATOM     15  C   UNL     1      10.939  22.455  18.616  1.00  0.00     0.202 C 
BRANCH  12  16
ATOM     16  O   UNL     1       7.857  21.571  18.979  1.00  0.00    -0.388 OA
ATOM     17  H   UNL     1       7.803  21.988  18.082  1.00  0.00     0.211 HD
ENDBRANCH  12  16
BRANCH  14  18
ATOM     18  O   UNL     1      11.090  20.719  20.319  1.00  0.00    -0.387 OA
ATOM     19  H   UNL     1      11.890  20.586  19.752  1.00  0.00     0.211 HD
ENDBRANCH  14  18
BRANCH  15  20
ATOM     20  O   UNL     1      10.165  23.600  18.368  1.00  0.00    -0.385 OA
ATOM     21  H   UNL     1      10.573  24.344  18.895  1.00  0.00     0.211 HD
ENDBRANCH  15  20
ENDBRANCH   8   9
ENDBRANCH   7   8
ENDBRANCH   1   7
BRANCH   2  22
ATOM     22  O   UNL     1      13.244  19.196  17.596  1.00  0.00    -0.387 OA
ATOM     23  H   UNL     1      13.215  18.203  17.594  1.00  0.00     0.211 HD
ENDBRANCH   2  22
BRANCH   3  24
ATOM     24  O   UNL     1      16.532  18.830  16.685  1.00  0.00    -0.387 OA
ATOM     25  H   UNL     1      16.468  19.578  17.334  1.00  0.00     0.211 HD
ENDBRANCH   3  24
BRANCH   5  26
ATOM     26  O   UNL     1      15.777  18.895  12.822  1.00  0.00    -0.462 OA
BRANCH  26  27
ATOM     27  C   UNL     1      17.152  19.151  12.962  1.00  0.00     0.130 A 
ATOM     28  C   UNL     1      17.788  19.365  14.198  1.00  0.00     0.093 A 
ATOM     29  C   UNL     1      17.911  19.214  11.786  1.00  0.00     0.094 A 
ATOM     30  C   UNL     1      19.157  19.681  14.251  1.00  0.00     0.133 A 
ATOM     31  C   UNL     1      19.276  19.493  11.832  1.00  0.00     0.138 A 
ATOM     32  C   UNL     1      19.908  19.750  13.062  1.00  0.00     0.102 A 
ATOM     33  O   UNL     1      20.012  19.518  10.637  1.00  0.00    -0.484 OA
ATOM     34  C   UNL     1      21.344  20.119  13.034  1.00  0.00     0.174 C 
ATOM     35  C   UNL     1      21.438  19.437  10.631  1.00  0.00     0.211 C 
ATOM     36  O   UNL     1      21.995  20.285  14.103  1.00  0.00    -0.294 OA
ATOM     37  C   UNL     1      22.017  20.372  11.717  1.00  0.00     0.131 C 
BRANCH  30  38
ATOM     38  O   UNL     1      19.756  19.925  15.488  1.00  0.00    -0.507 OA
ATOM     39  H   UNL     1      20.494  20.611  15.590  1.00  0.00     0.293 HD
ENDBRANCH  30  38
BRANCH  35  40
ATOM     40  C   UNL     1      21.947  19.678   9.216  1.00  0.00    -0.003 A 
ATOM     41  C   UNL     1      21.203  20.355   8.231  1.00  0.00     0.057 A 
ATOM     42  C   UNL     1      23.250  19.258   8.901  1.00  0.00     0.011 A 
ATOM     43  C   UNL     1      21.745  20.581   6.955  1.00  0.00     0.158 A 
ATOM     44  C   UNL     1      23.789  19.477   7.630  1.00  0.00     0.051 A 
ATOM     45  C   UNL     1      23.039  20.143   6.647  1.00  0.00     0.160 A 
BRANCH  43  46
ATOM     46  O   UNL     1      20.995  21.242   5.986  1.00  0.00    -0.504 OA
ATOM     47  H   UNL     1      20.324  21.961   6.230  1.00  0.00     0.293 HD
ENDBRANCH  43  46
BRANCH  45  48
ATOM     48  O   UNL     1      23.543  20.393   5.360  1.00  0.00    -0.493 OA
ATOM     49  C   UNL     1      23.922  19.380   4.434  1.00  0.00     0.278 C 
ENDBRANCH  45  48
ENDBRANCH  35  40
ENDBRANCH  26  27
ENDBRANCH   5  26
BRANCH   4  50
ATOM     50  O   UNL     1      14.317  16.702  14.929  1.00  0.00    -0.384 OA
ATOM     51  H   UNL     1      13.758  16.735  15.752  1.00  0.00     0.211 HD
ENDBRANCH   4  50
TORSDOF 15
ENDMDL
