MODEL 1
REMARK VINA RESULT:    -7.667      0.000      0.000
REMARK INTER + INTRA:          -9.302
REMARK INTER:                  -9.012
REMARK INTRA:                  -0.290
REMARK UNBOUND:                -0.290
REMARK SMILES O=c1cc(-c2ccc(O)c(O)c2)oc2cc(O)cc(O)c12
REMARK SMILES IDX 4 1 3 2 2 3 1 4 21 5 19 6 18 7 16 8 15 9 14 10 13 11 5 12
REMARK SMILES IDX 6 13 7 14 8 15 12 16 10 17 9 18 11 20 20 22 17 24
REMARK H PARENT 9 19 11 21 20 23 17 25
REMARK Flexibility Score: inf
ROOT
ATOM      1  C   UNL     1      17.634  22.698  40.420  1.00  0.00     0.138 A 
ATOM      2  C   UNL     1      17.352  23.770  39.558  1.00  0.00     0.100 A 
ATOM      3  C   UNL     1      16.231  24.566  39.796  1.00  0.00     0.197 A 
ATOM      4  O   UNL     1      15.987  25.528  39.016  1.00  0.00    -0.289 OA
ATOM      5  C   UNL     1      15.400  24.287  40.898  1.00  0.00     0.107 A 
ATOM      6  C   UNL     1      14.245  25.042  41.211  1.00  0.00     0.134 A 
ATOM      7  C   UNL     1      13.473  24.701  42.332  1.00  0.00     0.093 A 
ATOM      8  C   UNL     1      13.836  23.621  43.145  1.00  0.00     0.123 A 
ATOM      9  C   UNL     1      14.974  22.873  42.840  1.00  0.00     0.094 A 
ATOM     10  C   UNL     1      15.757  23.196  41.727  1.00  0.00     0.146 A 
ATOM     11  O   UNL     1      16.835  22.466  41.459  1.00  0.00    -0.456 OA
ENDROOT
BRANCH   1  12
ATOM     12  C   UNL     1      18.813  21.819  40.217  1.00  0.00     0.021 A 
ATOM     13  C   UNL     1      18.784  20.501  40.706  1.00  0.00     0.016 A 
ATOM     14  C   UNL     1      19.878  19.650  40.521  1.00  0.00     0.051 A 
ATOM     15  C   UNL     1      21.013  20.100  39.836  1.00  0.00     0.157 A 
ATOM     16  C   UNL     1      19.954  22.259  39.517  1.00  0.00     0.062 A 
ATOM     17  C   UNL     1      21.050  21.403  39.330  1.00  0.00     0.158 A 
BRANCH  15  18
ATOM     18  O   UNL     1      22.106  19.254  39.651  1.00  0.00    -0.504 OA
ATOM     19  H   UNL     1      22.796  19.429  38.930  1.00  0.00     0.293 HD
ENDBRANCH  15  18
BRANCH  17  20
ATOM     20  O   UNL     1      22.178  21.843  38.639  1.00  0.00    -0.504 OA
ATOM     21  H   UNL     1      22.909  21.202  38.352  1.00  0.00     0.293 HD
ENDBRANCH  17  20
ENDBRANCH   1  12
BRANCH   6  22
ATOM     22  O   UNL     1      13.860  26.125  40.418  1.00  0.00    -0.507 OA
ATOM     23  H   UNL     1      13.461  25.994  39.496  1.00  0.00     0.293 HD
ENDBRANCH   6  22
BRANCH   8  24
ATOM     24  O   UNL     1      13.069  23.282  44.258  1.00  0.00    -0.508 OA
ATOM     25  H   UNL     1      13.142  22.371  44.694  1.00  0.00     0.293 HD
ENDBRANCH   8  24
TORSDOF 5
ENDMDL
MODEL 2
REMARK VINA RESULT:    -7.316      2.224      7.315
REMARK INTER + INTRA:          -8.889
REMARK INTER:                  -8.577
REMARK INTRA:                  -0.312
REMARK UNBOUND:                -0.290
REMARK SMILES O=c1cc(-c2ccc(O)c(O)c2)oc2cc(O)cc(O)c12
REMARK SMILES IDX 4 1 3 2 2 3 1 4 21 5 19 6 18 7 16 8 15 9 14 10 13 11 5 12
REMARK SMILES IDX 6 13 7 14 8 15 12 16 10 17 9 18 11 20 20 22 17 24
REMARK H PARENT 9 19 11 21 20 23 17 25
REMARK Flexibility Score: inf
ROOT
ATOM      1  C   UNL     1      13.978  23.823  42.960  1.00  0.00     0.138 A 
ATOM      2  C   UNL     1      13.719  24.928  42.133  1.00  0.00     0.100 A 
ATOM      3  C   UNL     1      14.497  25.130  40.993  1.00  0.00     0.197 A 
ATOM      4  O   UNL     1      14.256  26.125  40.255  1.00  0.00    -0.289 OA
ATOM      5  C   UNL     1      15.530  24.223  40.685  1.00  0.00     0.107 A 
ATOM      6  C   UNL     1      16.366  24.354  39.551  1.00  0.00     0.134 A 
ATOM      7  C   UNL     1      17.369  23.403  39.313  1.00  0.00     0.093 A 
ATOM      8  C   UNL     1      17.550  22.324  40.186  1.00  0.00     0.123 A 
ATOM      9  C   UNL     1      16.729  22.191  41.306  1.00  0.00     0.094 A 
ATOM     10  C   UNL     1      15.723  23.129  41.562  1.00  0.00     0.146 A 
ATOM     11  O   UNL     1      14.955  22.979  42.636  1.00  0.00    -0.456 OA
ENDROOT
BRANCH   1  12
ATOM     12  C   UNL     1      13.182  23.557  44.184  1.00  0.00     0.021 A 
ATOM     13  C   UNL     1      12.452  24.604  44.775  1.00  0.00     0.016 A 
ATOM     14  C   UNL     1      11.689  24.379  45.924  1.00  0.00     0.051 A 
ATOM     15  C   UNL     1      11.635  23.102  46.495  1.00  0.00     0.157 A 
ATOM     16  C   UNL     1      13.111  22.273  44.758  1.00  0.00     0.062 A 
ATOM     17  C   UNL     1      12.343  22.047  45.910  1.00  0.00     0.158 A 
BRANCH  15  18
ATOM     18  O   UNL     1      10.875  22.874  47.641  1.00  0.00    -0.504 OA
ATOM     19  H   UNL     1      11.179  22.227  48.360  1.00  0.00     0.293 HD
ENDBRANCH  15  18
BRANCH  17  20
ATOM     20  O   UNL     1      12.278  20.774  46.476  1.00  0.00    -0.504 OA
ATOM     21  H   UNL     1      11.406  20.392  46.823  1.00  0.00     0.293 HD
ENDBRANCH  17  20
ENDBRANCH   1  12
BRANCH   6  22
ATOM     22  O   UNL     1      16.208  25.420  38.663  1.00  0.00    -0.507 OA
ATOM     23  H   UNL     1      15.297  25.685  38.308  1.00  0.00     0.293 HD
ENDBRANCH   6  22
BRANCH   8  24
ATOM     24  O   UNL     1      18.547  21.380  39.949  1.00  0.00    -0.508 OA
ATOM     25  H   UNL     1      19.187  21.470  39.169  1.00  0.00     0.293 HD
ENDBRANCH   8  24
TORSDOF 5
ENDMDL
MODEL 3
REMARK VINA RESULT:    -7.272      1.562      7.330
REMARK INTER + INTRA:          -8.837
REMARK INTER:                  -8.567
REMARK INTRA:                  -0.270
REMARK UNBOUND:                -0.290
REMARK SMILES O=c1cc(-c2ccc(O)c(O)c2)oc2cc(O)cc(O)c12
REMARK SMILES IDX 4 1 3 2 2 3 1 4 21 5 19 6 18 7 16 8 15 9 14 10 13 11 5 12
REMARK SMILES IDX 6 13 7 14 8 15 12 16 10 17 9 18 11 20 20 22 17 24
REMARK H PARENT 9 19 11 21 20 23 17 25
REMARK Flexibility Score: inf
ROOT
ATOM      1  C   UNL     1      16.723  22.388  41.397  1.00  0.00     0.138 A 
ATOM      2  C   UNL     1      16.779  20.987  41.334  1.00  0.00     0.100 A 
ATOM      3  C   UNL     1      17.924  20.367  40.831  1.00  0.00     0.197 A 
ATOM      4  O   UNL     1      17.966  19.107  40.780  1.00  0.00    -0.289 OA
ATOM      5  C   UNL     1      19.008  21.155  40.397  1.00  0.00     0.107 A 
ATOM      6  C   UNL     1      20.204  20.610  39.875  1.00  0.00     0.134 A 
ATOM      7  C   UNL     1      21.240  21.464  39.469  1.00  0.00     0.093 A 
ATOM      8  C   UNL     1      21.103  22.852  39.579  1.00  0.00     0.123 A 
ATOM      9  C   UNL     1      19.925  23.396  40.094  1.00  0.00     0.094 A 
ATOM     10  C   UNL     1      18.880  22.561  40.502  1.00  0.00     0.146 A 
ATOM     11  O   UNL     1      17.768  23.104  40.988  1.00  0.00    -0.456 OA
ENDROOT
BRANCH   1  12
ATOM     12  C   UNL     1      15.532  23.101  41.923  1.00  0.00     0.021 A 
ATOM     13  C   UNL     1      14.882  24.051  41.114  1.00  0.00     0.016 A 
ATOM     14  C   UNL     1      13.754  24.730  41.583  1.00  0.00     0.051 A 
ATOM     15  C   UNL     1      13.252  24.465  42.863  1.00  0.00     0.157 A 
ATOM     16  C   UNL     1      15.012  22.831  43.204  1.00  0.00     0.062 A 
ATOM     17  C   UNL     1      13.878  23.513  43.673  1.00  0.00     0.158 A 
BRANCH  15  18
ATOM     18  O   UNL     1      12.128  25.142  43.333  1.00  0.00    -0.504 OA
ATOM     19  H   UNL     1      12.106  26.153  43.401  1.00  0.00     0.293 HD
ENDBRANCH  15  18
BRANCH  17  20
ATOM     20  O   UNL     1      13.369  23.244  44.942  1.00  0.00    -0.504 OA
ATOM     21  H   UNL     1      12.686  22.510  45.096  1.00  0.00     0.293 HD
ENDBRANCH  17  20
ENDBRANCH   1  12
BRANCH   6  22
ATOM     22  O   UNL     1      20.370  19.228  39.754  1.00  0.00    -0.507 OA
ATOM     23  H   UNL     1      21.272  18.787  39.888  1.00  0.00     0.293 HD
ENDBRANCH   6  22
BRANCH   8  24
ATOM     24  O   UNL     1      22.132  23.701  39.177  1.00  0.00    -0.508 OA
ATOM     25  H   UNL     1      22.348  23.844  38.197  1.00  0.00     0.293 HD
ENDBRANCH   8  24
TORSDOF 5
ENDMDL
MODEL 4
REMARK VINA RESULT:    -6.828      1.472      6.891
REMARK INTER + INTRA:          -8.316
REMARK INTER:                  -8.002
REMARK INTRA:                  -0.314
REMARK UNBOUND:                -0.290
REMARK SMILES O=c1cc(-c2ccc(O)c(O)c2)oc2cc(O)cc(O)c12
REMARK SMILES IDX 4 1 3 2 2 3 1 4 21 5 19 6 18 7 16 8 15 9 14 10 13 11 5 12
REMARK SMILES IDX 6 13 7 14 8 15 12 16 10 17 9 18 11 20 20 22 17 24
REMARK H PARENT 9 19 11 21 20 23 17 25
REMARK Flexibility Score: inf
ROOT
ATOM      1  C   UNL     1      16.400  23.256  41.014  1.00  0.00     0.138 A 
ATOM      2  C   UNL     1      16.883  24.091  39.993  1.00  0.00     0.100 A 
ATOM      3  C   UNL     1      18.021  23.715  39.279  1.00  0.00     0.197 A 
ATOM      4  O   UNL     1      18.446  24.470  38.363  1.00  0.00    -0.289 OA
ATOM      5  C   UNL     1      18.668  22.502  39.588  1.00  0.00     0.107 A 
ATOM      6  C   UNL     1      19.826  22.046  38.916  1.00  0.00     0.134 A 
ATOM      7  C   UNL     1      20.407  20.823  39.281  1.00  0.00     0.093 A 
ATOM      8  C   UNL     1      19.850  20.048  40.305  1.00  0.00     0.123 A 
ATOM      9  C   UNL     1      18.708  20.493  40.973  1.00  0.00     0.094 A 
ATOM     10  C   UNL     1      18.114  21.710  40.624  1.00  0.00     0.146 A 
ATOM     11  O   UNL     1      17.028  22.112  41.276  1.00  0.00    -0.456 OA
ENDROOT
BRANCH   1  12
ATOM     12  C   UNL     1      15.194  23.605  41.805  1.00  0.00     0.021 A 
ATOM     13  C   UNL     1      14.291  24.560  41.305  1.00  0.00     0.016 A 
ATOM     14  C   UNL     1      13.144  24.901  42.027  1.00  0.00     0.051 A 
ATOM     15  C   UNL     1      12.875  24.286  43.256  1.00  0.00     0.157 A 
ATOM     16  C   UNL     1      14.908  22.981  43.036  1.00  0.00     0.062 A 
ATOM     17  C   UNL     1      13.756  23.323  43.759  1.00  0.00     0.158 A 
BRANCH  15  18
ATOM     18  O   UNL     1      11.733  24.625  43.979  1.00  0.00    -0.504 OA
ATOM     19  H   UNL     1      11.094  23.917  44.326  1.00  0.00     0.293 HD
ENDBRANCH  15  18
BRANCH  17  20
ATOM     20  O   UNL     1      13.479  22.705  44.978  1.00  0.00    -0.504 OA
ATOM     21  H   UNL     1      13.360  23.240  45.830  1.00  0.00     0.293 HD
ENDBRANCH  17  20
ENDBRANCH   1  12
BRANCH   6  22
ATOM     22  O   UNL     1      20.402  22.798  37.890  1.00  0.00    -0.507 OA
ATOM     23  H   UNL     1      20.368  22.494  36.924  1.00  0.00     0.293 HD
ENDBRANCH   6  22
BRANCH   8  24
ATOM     24  O   UNL     1      20.427  18.833  40.669  1.00  0.00    -0.508 OA
ATOM     25  H   UNL     1      19.929  17.957  40.564  1.00  0.00     0.293 HD
ENDBRANCH   8  24
TORSDOF 5
ENDMDL
MODEL 5
REMARK VINA RESULT:    -6.577      1.336      7.426
REMARK INTER + INTRA:          -8.020
REMARK INTER:                  -7.731
REMARK INTRA:                  -0.289
REMARK UNBOUND:                -0.290
REMARK SMILES O=c1cc(-c2ccc(O)c(O)c2)oc2cc(O)cc(O)c12
REMARK SMILES IDX 4 1 3 2 2 3 1 4 21 5 19 6 18 7 16 8 15 9 14 10 13 11 5 12
REMARK SMILES IDX 6 13 7 14 8 15 12 16 10 17 9 18 11 20 20 22 17 24
REMARK H PARENT 9 19 11 21 20 23 17 25
REMARK Flexibility Score: inf
ROOT
ATOM      1  C   UNL     1      17.266  22.298  40.726  1.00  0.00     0.138 A 
ATOM      2  C   UNL     1      17.162  20.988  41.222  1.00  0.00     0.100 A 
ATOM      3  C   UNL     1      18.217  20.096  41.033  1.00  0.00     0.197 A 
ATOM      4  O   UNL     1      18.114  18.922  41.484  1.00  0.00    -0.289 OA
ATOM      5  C   UNL     1      19.375  20.521  40.352  1.00  0.00     0.107 A 
ATOM      6  C   UNL     1      20.489  19.682  40.117  1.00  0.00     0.134 A 
ATOM      7  C   UNL     1      21.607  20.184  39.434  1.00  0.00     0.093 A 
ATOM      8  C   UNL     1      21.631  21.509  38.984  1.00  0.00     0.123 A 
ATOM      9  C   UNL     1      20.533  22.341  39.213  1.00  0.00     0.094 A 
ATOM     10  C   UNL     1      19.409  21.859  39.891  1.00  0.00     0.146 A 
ATOM     11  O   UNL     1      18.377  22.671  40.094  1.00  0.00    -0.456 OA
ENDROOT
BRANCH   1  12
ATOM     12  C   UNL     1      16.176  23.290  40.898  1.00  0.00     0.021 A 
ATOM     13  C   UNL     1      16.021  24.318  39.950  1.00  0.00     0.016 A 
ATOM     14  C   UNL     1      14.998  25.261  40.085  1.00  0.00     0.051 A 
ATOM     15  C   UNL     1      14.107  25.185  41.162  1.00  0.00     0.157 A 
ATOM     16  C   UNL     1      15.266  23.213  41.971  1.00  0.00     0.062 A 
ATOM     17  C   UNL     1      14.238  24.159  42.104  1.00  0.00     0.158 A 
BRANCH  15  18
ATOM     18  O   UNL     1      13.085  26.124  41.300  1.00  0.00    -0.504 OA
ATOM     19  H   UNL     1      12.588  26.489  40.496  1.00  0.00     0.293 HD
ENDBRANCH  15  18
BRANCH  17  20
ATOM     20  O   UNL     1      13.342  24.081  43.169  1.00  0.00    -0.504 OA
ATOM     21  H   UNL     1      12.715  23.292  43.278  1.00  0.00     0.293 HD
ENDBRANCH  17  20
ENDBRANCH   1  12
BRANCH   6  22
ATOM     22  O   UNL     1      20.494  18.356  40.555  1.00  0.00    -0.507 OA
ATOM     23  H   UNL     1      21.149  18.029  41.255  1.00  0.00     0.293 HD
ENDBRANCH   6  22
BRANCH   8  24
ATOM     24  O   UNL     1      22.741  22.008  38.306  1.00  0.00    -0.508 OA
ATOM     25  H   UNL     1      22.718  22.910  37.845  1.00  0.00     0.293 HD
ENDBRANCH   8  24
TORSDOF 5
ENDMDL
MODEL 6
REMARK VINA RESULT:    -6.134     18.035     19.734
REMARK INTER + INTRA:          -7.499
REMARK INTER:                  -7.203
REMARK INTRA:                  -0.297
REMARK UNBOUND:                -0.290
REMARK SMILES O=c1cc(-c2ccc(O)c(O)c2)oc2cc(O)cc(O)c12
REMARK SMILES IDX 4 1 3 2 2 3 1 4 21 5 19 6 18 7 16 8 15 9 14 10 13 11 5 12
REMARK SMILES IDX 6 13 7 14 8 15 12 16 10 17 9 18 11 20 20 22 17 24
REMARK H PARENT 9 19 11 21 20 23 17 25
REMARK Flexibility Score: inf
ROOT
ATOM      1  C   UNL     1      30.963   9.518  39.943  1.00  0.00     0.138 A 
ATOM      2  C   UNL     1      30.974   8.121  40.086  1.00  0.00     0.100 A 
ATOM      3  C   UNL     1      31.020   7.561  41.363  1.00  0.00     0.197 A 
ATOM      4  O   UNL     1      31.029   6.305  41.481  1.00  0.00    -0.289 OA
ATOM      5  C   UNL     1      31.051   8.404  42.492  1.00  0.00     0.107 A 
ATOM      6  C   UNL     1      31.099   7.921  43.820  1.00  0.00     0.134 A 
ATOM      7  C   UNL     1      31.122   8.828  44.890  1.00  0.00     0.093 A 
ATOM      8  C   UNL     1      31.096  10.207  44.656  1.00  0.00     0.123 A 
ATOM      9  C   UNL     1      31.049  10.689  43.347  1.00  0.00     0.094 A 
ATOM     10  C   UNL     1      31.027   9.802  42.266  1.00  0.00     0.146 A 
ATOM     11  O   UNL     1      30.983  10.287  41.030  1.00  0.00    -0.456 OA
ENDROOT
BRANCH   1  12
ATOM     12  C   UNL     1      30.914  10.168  38.610  1.00  0.00     0.021 A 
ATOM     13  C   UNL     1      30.803  11.568  38.527  1.00  0.00     0.016 A 
ATOM     14  C   UNL     1      30.762  12.205  37.284  1.00  0.00     0.051 A 
ATOM     15  C   UNL     1      30.841  11.456  36.104  1.00  0.00     0.157 A 
ATOM     16  C   UNL     1      31.006   9.423  37.417  1.00  0.00     0.062 A 
ATOM     17  C   UNL     1      30.967  10.064  36.170  1.00  0.00     0.158 A 
BRANCH  15  18
ATOM     18  O   UNL     1      30.799  12.089  34.863  1.00  0.00    -0.504 OA
ATOM     19  H   UNL     1      30.372  11.648  34.056  1.00  0.00     0.293 HD
ENDBRANCH  15  18
BRANCH  17  20
ATOM     20  O   UNL     1      31.056   9.323  34.993  1.00  0.00    -0.504 OA
ATOM     21  H   UNL     1      31.712   8.556  34.897  1.00  0.00     0.293 HD
ENDBRANCH  17  20
ENDBRANCH   1  12
BRANCH   6  22
ATOM     22  O   UNL     1      31.125   6.550  44.084  1.00  0.00    -0.507 OA
ATOM     23  H   UNL     1      31.982   6.013  44.025  1.00  0.00     0.293 HD
ENDBRANCH   6  22
BRANCH   8  24
ATOM     24  O   UNL     1      31.119  11.108  45.718  1.00  0.00    -0.508 OA
ATOM     25  H   UNL     1      30.520  11.925  45.733  1.00  0.00     0.293 HD
ENDBRANCH   8  24
TORSDOF 5
ENDMDL
MODEL 7
REMARK VINA RESULT:    -5.735     18.310     20.096
REMARK INTER + INTRA:          -7.030
REMARK INTER:                  -6.734
REMARK INTRA:                  -0.297
REMARK UNBOUND:                -0.290
REMARK SMILES O=c1cc(-c2ccc(O)c(O)c2)oc2cc(O)cc(O)c12
REMARK SMILES IDX 4 1 3 2 2 3 1 4 21 5 19 6 18 7 16 8 15 9 14 10 13 11 5 12
REMARK SMILES IDX 6 13 7 14 8 15 12 16 10 17 9 18 11 20 20 22 17 24
REMARK H PARENT 9 19 11 21 20 23 17 25
REMARK Flexibility Score: inf
ROOT
ATOM      1  C   UNL     1      30.988   9.295  41.502  1.00  0.00     0.138 A 
ATOM      2  C   UNL     1      31.075   7.934  41.168  1.00  0.00     0.100 A 
ATOM      3  C   UNL     1      31.031   7.551  39.827  1.00  0.00     0.197 A 
ATOM      4  O   UNL     1      31.111   6.326  39.537  1.00  0.00    -0.289 OA
ATOM      5  C   UNL     1      30.902   8.535  38.826  1.00  0.00     0.107 A 
ATOM      6  C   UNL     1      30.849   8.234  37.445  1.00  0.00     0.134 A 
ATOM      7  C   UNL     1      30.725   9.274  36.511  1.00  0.00     0.093 A 
ATOM      8  C   UNL     1      30.657  10.606  36.933  1.00  0.00     0.123 A 
ATOM      9  C   UNL     1      30.709  10.908  38.295  1.00  0.00     0.094 A 
ATOM     10  C   UNL     1      30.831   9.886  39.242  1.00  0.00     0.146 A 
ATOM     11  O   UNL     1      30.877  10.200  40.532  1.00  0.00    -0.456 OA
ENDROOT
BRANCH   1  12
ATOM     12  C   UNL     1      31.031   9.760  42.911  1.00  0.00     0.021 A 
ATOM     13  C   UNL     1      31.041  11.140  43.183  1.00  0.00     0.016 A 
ATOM     14  C   UNL     1      31.074  11.603  44.501  1.00  0.00     0.051 A 
ATOM     15  C   UNL     1      31.087  10.697  45.568  1.00  0.00     0.157 A 
ATOM     16  C   UNL     1      31.030   8.855  43.991  1.00  0.00     0.062 A 
ATOM     17  C   UNL     1      31.061   9.322  45.313  1.00  0.00     0.158 A 
BRANCH  15  18
ATOM     18  O   UNL     1      31.120  11.156  46.884  1.00  0.00    -0.504 OA
ATOM     19  H   UNL     1      30.901  10.548  47.664  1.00  0.00     0.293 HD
ENDBRANCH  15  18
BRANCH  17  20
ATOM     20  O   UNL     1      31.063   8.422  46.379  1.00  0.00    -0.504 OA
ATOM     21  H   UNL     1      31.089   7.420  46.227  1.00  0.00     0.293 HD
ENDBRANCH  17  20
ENDBRANCH   1  12
BRANCH   6  22
ATOM     22  O   UNL     1      30.916   6.914  36.995  1.00  0.00    -0.507 OA
ATOM     23  H   UNL     1      30.830   6.130  37.631  1.00  0.00     0.293 HD
ENDBRANCH   6  22
BRANCH   8  24
ATOM     24  O   UNL     1      30.535  11.639  36.005  1.00  0.00    -0.508 OA
ATOM     25  H   UNL     1      31.165  12.432  36.010  1.00  0.00     0.293 HD
ENDBRANCH   8  24
TORSDOF 5
ENDMDL
MODEL 8
REMARK VINA RESULT:    -4.815      1.701      7.062
REMARK INTER + INTRA:          -5.950
REMARK INTER:                  -5.632
REMARK INTRA:                  -0.318
REMARK UNBOUND:                -0.290
REMARK SMILES O=c1cc(-c2ccc(O)c(O)c2)oc2cc(O)cc(O)c12
REMARK SMILES IDX 4 1 3 2 2 3 1 4 21 5 19 6 18 7 16 8 15 9 14 10 13 11 5 12
REMARK SMILES IDX 6 13 7 14 8 15 12 16 10 17 9 18 11 20 20 22 17 24
REMARK H PARENT 9 19 11 21 20 23 17 25
REMARK Flexibility Score: inf
ROOT
ATOM      1  C   UNL     1      14.891  23.723  42.034  1.00  0.00     0.138 A 
ATOM      2  C   UNL     1      14.926  24.688  41.014  1.00  0.00     0.100 A 
ATOM      3  C   UNL     1      15.918  24.617  40.035  1.00  0.00     0.197 A 
ATOM      4  O   UNL     1      15.940  25.488  39.123  1.00  0.00    -0.289 OA
ATOM      5  C   UNL     1      16.867  23.577  40.080  1.00  0.00     0.107 A 
ATOM      6  C   UNL     1      17.905  23.432  39.130  1.00  0.00     0.134 A 
ATOM      7  C   UNL     1      18.808  22.364  39.243  1.00  0.00     0.093 A 
ATOM      8  C   UNL     1      18.690  21.440  40.287  1.00  0.00     0.123 A 
ATOM      9  C   UNL     1      17.669  21.579  41.228  1.00  0.00     0.094 A 
ATOM     10  C   UNL     1      16.759  22.637  41.134  1.00  0.00     0.146 A 
ATOM     11  O   UNL     1      15.797  22.748  42.043  1.00  0.00    -0.456 OA
ENDROOT
BRANCH   1  12
ATOM     12  C   UNL     1      13.859  23.748  43.100  1.00  0.00     0.021 A 
ATOM     13  C   UNL     1      12.798  24.669  43.015  1.00  0.00     0.016 A 
ATOM     14  C   UNL     1      11.810  24.708  44.002  1.00  0.00     0.051 A 
ATOM     15  C   UNL     1      11.859  23.822  45.085  1.00  0.00     0.157 A 
ATOM     16  C   UNL     1      13.892  22.851  44.186  1.00  0.00     0.062 A 
ATOM     17  C   UNL     1      12.899  22.891  45.176  1.00  0.00     0.158 A 
BRANCH  15  18
ATOM     18  O   UNL     1      10.875  23.859  46.072  1.00  0.00    -0.504 OA
ATOM     19  H   UNL     1      10.132  23.171  46.107  1.00  0.00     0.293 HD
ENDBRANCH  15  18
BRANCH  17  20
ATOM     20  O   UNL     1      12.938  22.003  46.250  1.00  0.00    -0.504 OA
ATOM     21  H   UNL     1      13.174  21.025  46.123  1.00  0.00     0.293 HD
ENDBRANCH  17  20
ENDBRANCH   1  12
BRANCH   6  22
ATOM     22  O   UNL     1      18.045  24.339  38.077  1.00  0.00    -0.507 OA
ATOM     23  H   UNL     1      18.506  25.232  38.202  1.00  0.00     0.293 HD
ENDBRANCH   6  22
BRANCH   8  24
ATOM     24  O   UNL     1      19.587  20.379  40.400  1.00  0.00    -0.508 OA
ATOM     25  H   UNL     1      20.149  20.075  39.613  1.00  0.00     0.293 HD
ENDBRANCH   8  24
TORSDOF 5
ENDMDL
