MODEL 1
REMARK VINA RESULT:    -6.218      0.000      0.000
REMARK INTER + INTRA:          -7.442
REMARK INTER:                  -7.127
REMARK INTRA:                  -0.316
REMARK UNBOUND:                -0.316
REMARK SMILES O=C1C[C@H](c2ccc(O)cc2)Oc2cc(O)cc(O)c21
REMARK SMILES IDX 3 1 4 2 12 3 13 4 14 5 15 6 17 7 18 8 20 9 2 10 1 11 5 12
REMARK SMILES IDX 6 13 11 14 7 15 10 16 8 17 9 18 19 20 16 22
REMARK H PARENT 9 19 19 21 16 23
REMARK Flexibility Score: inf
ROOT
ATOM      1  C   UNL     1     -17.940 -16.476  -9.156  1.00  0.00     0.131 C 
ATOM      2  C   UNL     1     -18.860 -16.942  -8.019  1.00  0.00     0.211 C 
ATOM      3  O   UNL     1     -18.508 -16.297  -6.791  1.00  0.00    -0.484 OA
ATOM      4  C   UNL     1     -17.179 -16.058  -6.415  1.00  0.00     0.138 A 
ATOM      5  C   UNL     1     -16.905 -15.684  -5.098  1.00  0.00     0.093 A 
ATOM      6  C   UNL     1     -15.587 -15.454  -4.690  1.00  0.00     0.123 A 
ATOM      7  C   UNL     1     -14.546 -15.571  -5.613  1.00  0.00     0.093 A 
ATOM      8  C   UNL     1     -14.802 -15.905  -6.948  1.00  0.00     0.133 A 
ATOM      9  C   UNL     1     -16.133 -16.187  -7.354  1.00  0.00     0.102 A 
ATOM     10  C   UNL     1     -16.511 -16.619  -8.722  1.00  0.00     0.174 C 
ATOM     11  O   UNL     1     -15.679 -17.150  -9.504  1.00  0.00    -0.294 OA
ENDROOT
BRANCH   2  12
ATOM     12  C   UNL     1     -20.305 -16.666  -8.354  1.00  0.00    -0.007 A 
ATOM     13  C   UNL     1     -20.802 -16.927  -9.643  1.00  0.00     0.011 A 
ATOM     14  C   UNL     1     -21.184 -16.197  -7.363  1.00  0.00     0.011 A 
ATOM     15  C   UNL     1     -22.149 -16.698  -9.941  1.00  0.00     0.046 A 
ATOM     16  C   UNL     1     -22.531 -15.969  -7.663  1.00  0.00     0.046 A 
ATOM     17  C   UNL     1     -23.016 -16.217  -8.950  1.00  0.00     0.115 A 
BRANCH  17  18
ATOM     18  O   UNL     1     -24.360 -15.985  -9.235  1.00  0.00    -0.508 OA
ATOM     19  H   UNL     1     -24.829 -15.142  -8.927  1.00  0.00     0.293 HD
ENDBRANCH  17  18
ENDBRANCH   2  12
BRANCH   8  20
ATOM     20  O   UNL     1     -13.718 -15.911  -7.827  1.00  0.00    -0.507 OA
ATOM     21  H   UNL     1     -13.659 -15.336  -8.655  1.00  0.00     0.293 HD
ENDBRANCH   8  20
BRANCH   6  22
ATOM     22  O   UNL     1     -15.304 -15.101  -3.372  1.00  0.00    -0.508 OA
ATOM     23  H   UNL     1     -14.591 -14.417  -3.148  1.00  0.00     0.293 HD
ENDBRANCH   6  22
TORSDOF 4
ENDMDL
MODEL 2
REMARK VINA RESULT:    -5.860     13.667     15.432
REMARK INTER + INTRA:          -7.032
REMARK INTER:                  -6.748
REMARK INTRA:                  -0.284
REMARK UNBOUND:                -0.316
REMARK SMILES O=C1C[C@H](c2ccc(O)cc2)Oc2cc(O)cc(O)c21
REMARK SMILES IDX 3 1 4 2 12 3 13 4 14 5 15 6 17 7 18 8 20 9 2 10 1 11 5 12
REMARK SMILES IDX 6 13 11 14 7 15 10 16 8 17 9 18 19 20 16 22
REMARK H PARENT 9 19 19 21 16 23
REMARK Flexibility Score: inf
ROOT
ATOM      1  C   UNL     1     -20.881 -10.033   7.017  1.00  0.00     0.131 C 
ATOM      2  C   UNL     1     -19.724  -9.370   6.256  1.00  0.00     0.211 C 
ATOM      3  O   UNL     1     -19.016 -10.338   5.476  1.00  0.00    -0.484 OA
ATOM      4  C   UNL     1     -18.754 -11.636   5.935  1.00  0.00     0.138 A 
ATOM      5  C   UNL     1     -17.829 -12.424   5.246  1.00  0.00     0.093 A 
ATOM      6  C   UNL     1     -17.536 -13.718   5.690  1.00  0.00     0.123 A 
ATOM      7  C   UNL     1     -18.194 -14.232   6.810  1.00  0.00     0.093 A 
ATOM      8  C   UNL     1     -19.153 -13.474   7.491  1.00  0.00     0.133 A 
ATOM      9  C   UNL     1     -19.418 -12.143   7.073  1.00  0.00     0.102 A 
ATOM     10  C   UNL     1     -20.360 -11.226   7.761  1.00  0.00     0.174 C 
ATOM     11  O   UNL     1     -20.689 -11.394   8.965  1.00  0.00    -0.294 OA
ENDROOT
BRANCH   2  12
ATOM     12  C   UNL     1     -20.234  -8.262   5.369  1.00  0.00    -0.007 A 
ATOM     13  C   UNL     1     -21.611  -8.116   5.127  1.00  0.00     0.011 A 
ATOM     14  C   UNL     1     -19.339  -7.327   4.819  1.00  0.00     0.011 A 
ATOM     15  C   UNL     1     -22.082  -7.069   4.328  1.00  0.00     0.046 A 
ATOM     16  C   UNL     1     -19.813  -6.281   4.020  1.00  0.00     0.046 A 
ATOM     17  C   UNL     1     -21.182  -6.150   3.772  1.00  0.00     0.115 A 
BRANCH  17  18
ATOM     18  O   UNL     1     -21.639  -5.102   2.975  1.00  0.00    -0.508 OA
ATOM     19  H   UNL     1     -22.594  -5.072   2.638  1.00  0.00     0.293 HD
ENDBRANCH  17  18
ENDBRANCH   2  12
BRANCH   8  20
ATOM     20  O   UNL     1     -19.832 -14.093   8.543  1.00  0.00    -0.507 OA
ATOM     21  H   UNL     1     -19.400 -14.356   9.416  1.00  0.00     0.293 HD
ENDBRANCH   8  20
BRANCH   6  22
ATOM     22  O   UNL     1     -16.599 -14.502   5.021  1.00  0.00    -0.508 OA
ATOM     23  H   UNL     1     -15.609 -14.434   5.223  1.00  0.00     0.293 HD
ENDBRANCH   6  22
TORSDOF 4
ENDMDL
MODEL 3
REMARK VINA RESULT:    -5.786      2.166      6.732
REMARK INTER + INTRA:          -6.947
REMARK INTER:                  -6.657
REMARK INTRA:                  -0.290
REMARK UNBOUND:                -0.316
REMARK SMILES O=C1C[C@H](c2ccc(O)cc2)Oc2cc(O)cc(O)c21
REMARK SMILES IDX 3 1 4 2 12 3 13 4 14 5 15 6 17 7 18 8 20 9 2 10 1 11 5 12
REMARK SMILES IDX 6 13 11 14 7 15 10 16 8 17 9 18 19 20 16 22
REMARK H PARENT 9 19 19 21 16 23
REMARK Flexibility Score: inf
ROOT
ATOM      1  C   UNL     1     -16.635 -17.351  -7.348  1.00  0.00     0.131 C 
ATOM      2  C   UNL     1     -16.152 -15.986  -6.834  1.00  0.00     0.211 C 
ATOM      3  O   UNL     1     -17.266 -15.134  -6.551  1.00  0.00    -0.484 OA
ATOM      4  C   UNL     1     -18.410 -15.089  -7.358  1.00  0.00     0.138 A 
ATOM      5  C   UNL     1     -19.324 -14.047  -7.182  1.00  0.00     0.093 A 
ATOM      6  C   UNL     1     -20.467 -13.969  -7.983  1.00  0.00     0.123 A 
ATOM      7  C   UNL     1     -20.709 -14.953  -8.943  1.00  0.00     0.093 A 
ATOM      8  C   UNL     1     -19.828 -16.028  -9.109  1.00  0.00     0.133 A 
ATOM      9  C   UNL     1     -18.642 -16.085  -8.331  1.00  0.00     0.102 A 
ATOM     10  C   UNL     1     -17.604 -17.137  -8.472  1.00  0.00     0.174 C 
ATOM     11  O   UNL     1     -17.484 -17.814  -9.528  1.00  0.00    -0.294 OA
ENDROOT
BRANCH   2  12
ATOM     12  C   UNL     1     -15.299 -16.152  -5.601  1.00  0.00    -0.007 A 
ATOM     13  C   UNL     1     -15.821 -16.763  -4.447  1.00  0.00     0.011 A 
ATOM     14  C   UNL     1     -13.953 -15.746  -5.613  1.00  0.00     0.011 A 
ATOM     15  C   UNL     1     -15.017 -16.941  -3.317  1.00  0.00     0.046 A 
ATOM     16  C   UNL     1     -13.151 -15.926  -4.481  1.00  0.00     0.046 A 
ATOM     17  C   UNL     1     -13.680 -16.521  -3.332  1.00  0.00     0.115 A 
BRANCH  17  18
ATOM     18  O   UNL     1     -12.869 -16.694  -2.211  1.00  0.00    -0.508 OA
ATOM     19  H   UNL     1     -12.212 -17.461  -2.147  1.00  0.00     0.293 HD
ENDBRANCH  17  18
ENDBRANCH   2  12
BRANCH   8  20
ATOM     20  O   UNL     1     -20.189 -17.018 -10.025  1.00  0.00    -0.507 OA
ATOM     21  H   UNL     1     -21.143 -17.267 -10.241  1.00  0.00     0.293 HD
ENDBRANCH   8  20
BRANCH   6  22
ATOM     22  O   UNL     1     -21.372 -12.921  -7.826  1.00  0.00    -0.508 OA
ATOM     23  H   UNL     1     -21.735 -12.666  -6.916  1.00  0.00     0.293 HD
ENDBRANCH   6  22
TORSDOF 4
ENDMDL
MODEL 4
REMARK VINA RESULT:    -5.770     15.803     17.573
REMARK INTER + INTRA:          -6.929
REMARK INTER:                  -6.643
REMARK INTRA:                  -0.286
REMARK UNBOUND:                -0.316
REMARK SMILES O=C1C[C@H](c2ccc(O)cc2)Oc2cc(O)cc(O)c21
REMARK SMILES IDX 3 1 4 2 12 3 13 4 14 5 15 6 17 7 18 8 20 9 2 10 1 11 5 12
REMARK SMILES IDX 6 13 11 14 7 15 10 16 8 17 9 18 19 20 16 22
REMARK H PARENT 9 19 19 21 16 23
REMARK Flexibility Score: inf
ROOT
ATOM      1  C   UNL     1     -21.086  -9.228   6.083  1.00  0.00     0.131 C 
ATOM      2  C   UNL     1     -20.878  -9.720   7.523  1.00  0.00     0.211 C 
ATOM      3  O   UNL     1     -21.111  -8.659   8.455  1.00  0.00    -0.484 OA
ATOM      4  C   UNL     1     -20.704  -7.340   8.217  1.00  0.00     0.138 A 
ATOM      5  C   UNL     1     -20.713  -6.427   9.274  1.00  0.00     0.093 A 
ATOM      6  C   UNL     1     -20.298  -5.107   9.070  1.00  0.00     0.123 A 
ATOM      7  C   UNL     1     -19.900  -4.695   7.797  1.00  0.00     0.093 A 
ATOM      8  C   UNL     1     -19.922  -5.582   6.714  1.00  0.00     0.133 A 
ATOM      9  C   UNL     1     -20.296  -6.935   6.927  1.00  0.00     0.102 A 
ATOM     10  C   UNL     1     -20.287  -7.977   5.871  1.00  0.00     0.174 C 
ATOM     11  O   UNL     1     -19.586  -7.862   4.831  1.00  0.00    -0.294 OA
ENDROOT
BRANCH   2  12
ATOM     12  C   UNL     1     -21.787 -10.885   7.826  1.00  0.00    -0.007 A 
ATOM     13  C   UNL     1     -23.156 -10.825   7.507  1.00  0.00     0.011 A 
ATOM     14  C   UNL     1     -21.264 -12.066   8.379  1.00  0.00     0.011 A 
ATOM     15  C   UNL     1     -23.989 -11.918   7.762  1.00  0.00     0.046 A 
ATOM     16  C   UNL     1     -22.100 -13.158   8.633  1.00  0.00     0.046 A 
ATOM     17  C   UNL     1     -23.462 -13.088   8.328  1.00  0.00     0.115 A 
BRANCH  17  18
ATOM     18  O   UNL     1     -24.283 -14.184   8.586  1.00  0.00    -0.508 OA
ATOM     19  H   UNL     1     -24.543 -14.439   9.531  1.00  0.00     0.293 HD
ENDBRANCH  17  18
ENDBRANCH   2  12
BRANCH   8  20
ATOM     20  O   UNL     1     -19.598  -5.068   5.457  1.00  0.00    -0.507 OA
ATOM     21  H   UNL     1     -20.199  -4.454   4.926  1.00  0.00     0.293 HD
ENDBRANCH   8  20
BRANCH   6  22
ATOM     22  O   UNL     1     -20.285  -4.197  10.125  1.00  0.00    -0.508 OA
ATOM     23  H   UNL     1     -20.690  -3.273  10.033  1.00  0.00     0.293 HD
ENDBRANCH   6  22
TORSDOF 4
ENDMDL
MODEL 5
REMARK VINA RESULT:    -5.746     15.810     17.324
REMARK INTER + INTRA:          -6.901
REMARK INTER:                  -6.616
REMARK INTRA:                  -0.285
REMARK UNBOUND:                -0.316
REMARK SMILES O=C1C[C@H](c2ccc(O)cc2)Oc2cc(O)cc(O)c21
REMARK SMILES IDX 3 1 4 2 12 3 13 4 14 5 15 6 17 7 18 8 20 9 2 10 1 11 5 12
REMARK SMILES IDX 6 13 11 14 7 15 10 16 8 17 9 18 19 20 16 22
REMARK H PARENT 9 19 19 21 16 23
REMARK Flexibility Score: inf
ROOT
ATOM      1  C   UNL     1     -22.513  -7.981   7.577  1.00  0.00     0.131 C 
ATOM      2  C   UNL     1     -21.048  -7.862   7.133  1.00  0.00     0.211 C 
ATOM      3  O   UNL     1     -20.506  -9.154   6.838  1.00  0.00    -0.484 OA
ATOM      4  C   UNL     1     -20.802 -10.291   7.602  1.00  0.00     0.138 A 
ATOM      5  C   UNL     1     -20.030 -11.442   7.429  1.00  0.00     0.093 A 
ATOM      6  C   UNL     1     -20.293 -12.587   8.188  1.00  0.00     0.123 A 
ATOM      7  C   UNL     1     -21.349 -12.586   9.101  1.00  0.00     0.093 A 
ATOM      8  C   UNL     1     -22.161 -11.457   9.261  1.00  0.00     0.133 A 
ATOM      9  C   UNL     1     -21.868 -10.277   8.528  1.00  0.00     0.102 A 
ATOM     10  C   UNL     1     -22.614  -9.003   8.670  1.00  0.00     0.174 C 
ATOM     11  O   UNL     1     -23.283  -8.737   9.703  1.00  0.00    -0.294 OA
ENDROOT
BRANCH   2  12
ATOM     12  C   UNL     1     -20.926  -6.962   5.928  1.00  0.00    -0.007 A 
ATOM     13  C   UNL     1     -21.814  -7.093   4.846  1.00  0.00     0.011 A 
ATOM     14  C   UNL     1     -19.957  -5.945   5.901  1.00  0.00     0.011 A 
ATOM     15  C   UNL     1     -21.716  -6.237   3.745  1.00  0.00     0.046 A 
ATOM     16  C   UNL     1     -19.861  -5.090   4.798  1.00  0.00     0.046 A 
ATOM     17  C   UNL     1     -20.738  -5.233   3.719  1.00  0.00     0.115 A 
BRANCH  17  18
ATOM     18  O   UNL     1     -20.631  -4.374   2.627  1.00  0.00    -0.508 OA
ATOM     19  H   UNL     1     -20.445  -4.724   1.694  1.00  0.00     0.293 HD
ENDBRANCH  17  18
ENDBRANCH   2  12
BRANCH   8  20
ATOM     20  O   UNL     1     -23.252 -11.568  10.125  1.00  0.00    -0.507 OA
ATOM     21  H   UNL     1     -23.200 -11.422  11.122  1.00  0.00     0.293 HD
ENDBRANCH   8  20
BRANCH   6  22
ATOM     22  O   UNL     1     -19.514 -13.732   8.036  1.00  0.00    -0.508 OA
ATOM     23  H   UNL     1     -19.873 -14.652   8.262  1.00  0.00     0.293 HD
ENDBRANCH   6  22
TORSDOF 4
ENDMDL
MODEL 6
REMARK VINA RESULT:    -5.740      1.607      3.279
REMARK INTER + INTRA:          -6.894
REMARK INTER:                  -6.607
REMARK INTRA:                  -0.287
REMARK UNBOUND:                -0.316
REMARK SMILES O=C1C[C@H](c2ccc(O)cc2)Oc2cc(O)cc(O)c21
REMARK SMILES IDX 3 1 4 2 12 3 13 4 14 5 15 6 17 7 18 8 20 9 2 10 1 11 5 12
REMARK SMILES IDX 6 13 11 14 7 15 10 16 8 17 9 18 19 20 16 22
REMARK H PARENT 9 19 19 21 16 23
REMARK Flexibility Score: inf
ROOT
ATOM      1  C   UNL     1     -17.548 -15.219  -5.531  1.00  0.00     0.131 C 
ATOM      2  C   UNL     1     -17.877 -14.827  -6.979  1.00  0.00     0.211 C 
ATOM      3  O   UNL     1     -16.985 -15.475  -7.890  1.00  0.00    -0.484 OA
ATOM      4  C   UNL     1     -15.620 -15.647  -7.621  1.00  0.00     0.138 A 
ATOM      5  C   UNL     1     -14.768 -16.030  -8.659  1.00  0.00     0.093 A 
ATOM      6  C   UNL     1     -13.399 -16.194  -8.423  1.00  0.00     0.123 A 
ATOM      7  C   UNL     1     -12.889 -16.001  -7.138  1.00  0.00     0.093 A 
ATOM      8  C   UNL     1     -13.732 -15.656  -6.074  1.00  0.00     0.133 A 
ATOM      9  C   UNL     1     -15.114 -15.441  -6.319  1.00  0.00     0.102 A 
ATOM     10  C   UNL     1     -16.084 -15.005  -5.285  1.00  0.00     0.174 C 
ATOM     11  O   UNL     1     -15.715 -14.413  -4.237  1.00  0.00    -0.294 OA
ENDROOT
BRANCH   2  12
ATOM     12  C   UNL     1     -19.306 -15.177  -7.315  1.00  0.00    -0.007 A 
ATOM     13  C   UNL     1     -19.790 -16.481  -7.107  1.00  0.00     0.011 A 
ATOM     14  C   UNL     1     -20.184 -14.188  -7.789  1.00  0.00     0.011 A 
ATOM     15  C   UNL     1     -21.123 -16.794  -7.391  1.00  0.00     0.046 A 
ATOM     16  C   UNL     1     -21.517 -14.503  -8.073  1.00  0.00     0.046 A 
ATOM     17  C   UNL     1     -21.989 -15.804  -7.877  1.00  0.00     0.115 A 
BRANCH  17  18
ATOM     18  O   UNL     1     -23.319 -16.104  -8.164  1.00  0.00    -0.508 OA
ATOM     19  H   UNL     1     -23.943 -15.412  -8.561  1.00  0.00     0.293 HD
ENDBRANCH  17  18
ENDBRANCH   2  12
BRANCH   8  20
ATOM     20  O   UNL     1     -13.160 -15.573  -4.803  1.00  0.00    -0.507 OA
ATOM     21  H   UNL     1     -13.592 -15.109  -4.018  1.00  0.00     0.293 HD
ENDBRANCH   8  20
BRANCH   6  22
ATOM     22  O   UNL     1     -12.540 -16.556  -9.458  1.00  0.00    -0.508 OA
ATOM     23  H   UNL     1     -11.730 -17.142  -9.294  1.00  0.00     0.293 HD
ENDBRANCH   6  22
TORSDOF 4
ENDMDL
MODEL 7
REMARK VINA RESULT:    -5.738     15.071     16.157
REMARK INTER + INTRA:          -6.892
REMARK INTER:                  -6.571
REMARK INTRA:                  -0.321
REMARK UNBOUND:                -0.316
REMARK SMILES O=C1C[C@H](c2ccc(O)cc2)Oc2cc(O)cc(O)c21
REMARK SMILES IDX 3 1 4 2 12 3 13 4 14 5 15 6 17 7 18 8 20 9 2 10 1 11 5 12
REMARK SMILES IDX 6 13 11 14 7 15 10 16 8 17 9 18 19 20 16 22
REMARK H PARENT 9 19 19 21 16 23
REMARK Flexibility Score: inf
ROOT
ATOM      1  C   UNL     1     -19.782 -10.681   6.857  1.00  0.00     0.131 C 
ATOM      2  C   UNL     1     -21.129 -10.170   7.390  1.00  0.00     0.211 C 
ATOM      3  O   UNL     1     -21.801  -9.394   6.394  1.00  0.00    -0.484 OA
ATOM      4  C   UNL     1     -21.128  -8.507   5.543  1.00  0.00     0.138 A 
ATOM      5  C   UNL     1     -21.871  -7.589   4.797  1.00  0.00     0.093 A 
ATOM      6  C   UNL     1     -21.225  -6.681   3.951  1.00  0.00     0.123 A 
ATOM      7  C   UNL     1     -19.835  -6.714   3.832  1.00  0.00     0.093 A 
ATOM      8  C   UNL     1     -19.074  -7.652   4.539  1.00  0.00     0.133 A 
ATOM      9  C   UNL     1     -19.721  -8.543   5.436  1.00  0.00     0.102 A 
ATOM     10  C   UNL     1     -19.010  -9.528   6.287  1.00  0.00     0.174 C 
ATOM     11  O   UNL     1     -17.795  -9.392   6.587  1.00  0.00    -0.294 OA
ENDROOT
BRANCH   2  12
ATOM     12  C   UNL     1     -22.001 -11.321   7.827  1.00  0.00    -0.007 A 
ATOM     13  C   UNL     1     -23.344 -11.396   7.415  1.00  0.00     0.011 A 
ATOM     14  C   UNL     1     -21.464 -12.361   8.604  1.00  0.00     0.011 A 
ATOM     15  C   UNL     1     -24.141 -12.479   7.798  1.00  0.00     0.046 A 
ATOM     16  C   UNL     1     -22.263 -13.444   8.985  1.00  0.00     0.046 A 
ATOM     17  C   UNL     1     -23.601 -13.505   8.585  1.00  0.00     0.115 A 
BRANCH  17  18
ATOM     18  O   UNL     1     -24.386 -14.590   8.972  1.00  0.00    -0.508 OA
ATOM     19  H   UNL     1     -25.397 -14.553   8.932  1.00  0.00     0.293 HD
ENDBRANCH  17  18
ENDBRANCH   2  12
BRANCH   8  20
ATOM     20  O   UNL     1     -17.700  -7.681   4.294  1.00  0.00    -0.507 OA
ATOM     21  H   UNL     1     -17.287  -7.979   3.422  1.00  0.00     0.293 HD
ENDBRANCH   8  20
BRANCH   6  22
ATOM     22  O   UNL     1     -21.958  -5.749   3.220  1.00  0.00    -0.508 OA
ATOM     23  H   UNL     1     -22.124  -4.813   3.570  1.00  0.00     0.293 HD
ENDBRANCH   6  22
TORSDOF 4
ENDMDL
MODEL 8
REMARK VINA RESULT:    -5.713      7.290      8.202
REMARK INTER + INTRA:          -6.863
REMARK INTER:                  -6.548
REMARK INTRA:                  -0.315
REMARK UNBOUND:                -0.316
REMARK SMILES O=C1C[C@H](c2ccc(O)cc2)Oc2cc(O)cc(O)c21
REMARK SMILES IDX 3 1 4 2 12 3 13 4 14 5 15 6 17 7 18 8 20 9 2 10 1 11 5 12
REMARK SMILES IDX 6 13 11 14 7 15 10 16 8 17 9 18 19 20 16 22
REMARK H PARENT 9 19 19 21 16 23
REMARK Flexibility Score: inf
ROOT
ATOM      1  C   UNL     1     -18.765  -8.280  -4.203  1.00  0.00     0.131 C 
ATOM      2  C   UNL     1     -19.277  -9.638  -4.703  1.00  0.00     0.211 C 
ATOM      3  O   UNL     1     -19.724 -10.442  -3.607  1.00  0.00    -0.484 OA
ATOM      4  C   UNL     1     -19.057 -10.480  -2.376  1.00  0.00     0.138 A 
ATOM      5  C   UNL     1     -19.381 -11.484  -1.460  1.00  0.00     0.093 A 
ATOM      6  C   UNL     1     -18.722 -11.556  -0.229  1.00  0.00     0.123 A 
ATOM      7  C   UNL     1     -17.755 -10.603   0.096  1.00  0.00     0.093 A 
ATOM      8  C   UNL     1     -17.443  -9.565  -0.790  1.00  0.00     0.133 A 
ATOM      9  C   UNL     1     -18.075  -9.516  -2.060  1.00  0.00     0.102 A 
ATOM     10  C   UNL     1     -17.771  -8.505  -3.103  1.00  0.00     0.174 C 
ATOM     11  O   UNL     1     -16.681  -7.874  -3.117  1.00  0.00    -0.294 OA
ENDROOT
BRANCH   2  12
ATOM     12  C   UNL     1     -20.395  -9.453  -5.699  1.00  0.00    -0.007 A 
ATOM     13  C   UNL     1     -21.358 -10.460  -5.888  1.00  0.00     0.011 A 
ATOM     14  C   UNL     1     -20.518  -8.246  -6.409  1.00  0.00     0.011 A 
ATOM     15  C   UNL     1     -22.410 -10.272  -6.790  1.00  0.00     0.046 A 
ATOM     16  C   UNL     1     -21.571  -8.061  -7.311  1.00  0.00     0.046 A 
ATOM     17  C   UNL     1     -22.517  -9.071  -7.505  1.00  0.00     0.115 A 
BRANCH  17  18
ATOM     18  O   UNL     1     -23.561  -8.873  -8.407  1.00  0.00    -0.508 OA
ATOM     19  H   UNL     1     -24.223  -9.609  -8.619  1.00  0.00     0.293 HD
ENDBRANCH  17  18
ENDBRANCH   2  12
BRANCH   8  20
ATOM     20  O   UNL     1     -16.533  -8.599  -0.352  1.00  0.00    -0.507 OA
ATOM     21  H   UNL     1     -15.878  -8.126  -0.956  1.00  0.00     0.293 HD
ENDBRANCH   8  20
BRANCH   6  22
ATOM     22  O   UNL     1     -19.026 -12.567   0.680  1.00  0.00    -0.508 OA
ATOM     23  H   UNL     1     -18.978 -13.545   0.420  1.00  0.00     0.293 HD
ENDBRANCH   6  22
TORSDOF 4
ENDMDL
MODEL 9
REMARK VINA RESULT:    -5.632      2.224      2.897
REMARK INTER + INTRA:          -6.771
REMARK INTER:                  -6.459
REMARK INTRA:                  -0.312
REMARK UNBOUND:                -0.316
REMARK SMILES O=C1C[C@H](c2ccc(O)cc2)Oc2cc(O)cc(O)c21
REMARK SMILES IDX 3 1 4 2 12 3 13 4 14 5 15 6 17 7 18 8 20 9 2 10 1 11 5 12
REMARK SMILES IDX 6 13 11 14 7 15 10 16 8 17 9 18 19 20 16 22
REMARK H PARENT 9 19 19 21 16 23
REMARK Flexibility Score: inf
ROOT
ATOM      1  C   UNL     1     -17.874 -13.519  -6.456  1.00  0.00     0.131 C 
ATOM      2  C   UNL     1     -18.061 -14.980  -6.892  1.00  0.00     0.211 C 
ATOM      3  O   UNL     1     -17.650 -15.872  -5.852  1.00  0.00    -0.484 OA
ATOM      4  C   UNL     1     -16.524 -15.634  -5.051  1.00  0.00     0.138 A 
ATOM      5  C   UNL     1     -16.028 -16.669  -4.255  1.00  0.00     0.093 A 
ATOM      6  C   UNL     1     -14.898 -16.465  -3.458  1.00  0.00     0.123 A 
ATOM      7  C   UNL     1     -14.281 -15.213  -3.437  1.00  0.00     0.093 A 
ATOM      8  C   UNL     1     -14.785 -14.150  -4.196  1.00  0.00     0.133 A 
ATOM      9  C   UNL     1     -15.904 -14.366  -5.044  1.00  0.00     0.102 A 
ATOM     10  C   UNL     1     -16.477 -13.335  -5.943  1.00  0.00     0.174 C 
ATOM     11  O   UNL     1     -15.805 -12.342  -6.328  1.00  0.00    -0.294 OA
ENDROOT
BRANCH   2  12
ATOM     12  C   UNL     1     -19.498 -15.246  -7.266  1.00  0.00    -0.007 A 
ATOM     13  C   UNL     1     -20.291 -14.229  -7.827  1.00  0.00     0.011 A 
ATOM     14  C   UNL     1     -20.043 -16.532  -7.109  1.00  0.00     0.011 A 
ATOM     15  C   UNL     1     -21.613 -14.489  -8.200  1.00  0.00     0.046 A 
ATOM     16  C   UNL     1     -21.366 -16.789  -7.482  1.00  0.00     0.046 A 
ATOM     17  C   UNL     1     -22.154 -15.770  -8.026  1.00  0.00     0.115 A 
BRANCH  17  18
ATOM     18  O   UNL     1     -23.471 -16.041  -8.394  1.00  0.00    -0.508 OA
ATOM     19  H   UNL     1     -24.205 -15.353  -8.278  1.00  0.00     0.293 HD
ENDBRANCH  17  18
ENDBRANCH   2  12
BRANCH   8  20
ATOM     20  O   UNL     1     -14.168 -12.907  -4.048  1.00  0.00    -0.507 OA
ATOM     21  H   UNL     1     -13.814 -12.552  -3.171  1.00  0.00     0.293 HD
ENDBRANCH   8  20
BRANCH   6  22
ATOM     22  O   UNL     1     -14.386 -17.499  -2.677  1.00  0.00    -0.508 OA
ATOM     23  H   UNL     1     -14.778 -18.433  -2.710  1.00  0.00     0.293 HD
ENDBRANCH   6  22
TORSDOF 4
ENDMDL
