MODEL 1
REMARK VINA RESULT:    -4.506      0.000      0.000
REMARK INTER + INTRA:         -17.799
REMARK INTER:                 -11.882
REMARK INTRA:                  -5.917
REMARK UNBOUND:                -5.917
REMARK SMILES CCCCCCCCCCCCCCCCCCCCCCCCCCCCCC(=O)[O-]
REMARK SMILES IDX 16 1 17 2 18 3 19 4 20 5 21 6 22 7 23 8 24 9 25 10 26 11
REMARK SMILES IDX 27 12 28 13 29 14 30 15 31 16 32 17 15 18 14 19 13 20 12 21
REMARK SMILES IDX 11 22 10 23 9 24 8 25 7 26 6 27 5 28 4 29 3 30 2 31 1 32
REMARK H PARENT
REMARK Flexibility Score: inf
ROOT
ATOM      1  C   UNL     1      50.558  26.070  32.971  1.00  0.00     0.000 C 
ENDROOT
BRANCH   1   2
ATOM      2  C   UNL     1      49.353  26.475  33.832  1.00  0.00     0.000 C 
BRANCH   2   3
ATOM      3  C   UNL     1      48.545  25.268  34.340  1.00  0.00     0.000 C 
BRANCH   3   4
ATOM      4  C   UNL     1      49.177  23.888  34.056  1.00  0.00     0.000 C 
BRANCH   4   5
ATOM      5  C   UNL     1      49.734  23.152  35.287  1.00  0.00     0.000 C 
BRANCH   5   6
ATOM      6  C   UNL     1      51.259  23.287  35.421  1.00  0.00     0.000 C 
BRANCH   6   7
ATOM      7  C   UNL     1      51.682  24.208  36.580  1.00  0.00     0.000 C 
BRANCH   7   8
ATOM      8  C   UNL     1      53.172  24.602  36.603  1.00  0.00     0.000 C 
BRANCH   8   9
ATOM      9  C   UNL     1      53.941  24.118  35.362  1.00  0.00     0.000 C 
BRANCH   9  10
ATOM     10  C   UNL     1      55.266  24.870  35.151  1.00  0.00     0.000 C 
BRANCH  10  11
ATOM     11  C   UNL     1      55.339  25.726  33.871  1.00  0.00     0.000 C 
BRANCH  11  12
ATOM     12  C   UNL     1      56.778  26.030  33.403  1.00  0.00     0.000 C 
BRANCH  12  13
ATOM     13  C   UNL     1      57.839  25.392  34.317  1.00  0.00     0.006 C 
BRANCH  13  14
ATOM     14  C   UNL     1      59.085  26.277  34.467  1.00  0.00     0.053 C 
BRANCH  14  15
ATOM     15  C   UNL     1      60.110  25.995  33.410  1.00  0.00     0.041 C 
ATOM     16  O   UNL     1      60.015  26.528  32.272  1.00  0.00    -0.550 OA
ATOM     17  O   UNL     1      61.166  25.133  33.679  1.00  0.00    -0.550 OA
ENDBRANCH  14  15
ENDBRANCH  13  14
ENDBRANCH  12  13
ENDBRANCH  11  12
ENDBRANCH  10  11
ENDBRANCH   9  10
ENDBRANCH   8   9
ENDBRANCH   7   8
ENDBRANCH   6   7
ENDBRANCH   5   6
ENDBRANCH   4   5
ENDBRANCH   3   4
ENDBRANCH   2   3
ENDBRANCH   1   2
BRANCH   1  18
ATOM     18  C   UNL     1      51.873  26.529  33.617  1.00  0.00     0.000 C 
BRANCH  18  19
ATOM     19  C   UNL     1      51.653  27.455  34.824  1.00  0.00     0.000 C 
BRANCH  19  20
ATOM     20  C   UNL     1      52.933  28.107  35.380  1.00  0.00     0.000 C 
BRANCH  20  21
ATOM     21  C   UNL     1      52.835  29.642  35.524  1.00  0.00     0.000 C 
BRANCH  21  22
ATOM     22  C   UNL     1      53.050  30.105  36.975  1.00  0.00     0.000 C 
BRANCH  22  23
ATOM     23  C   UNL     1      54.240  31.069  37.114  1.00  0.00     0.000 C 
BRANCH  23  24
ATOM     24  C   UNL     1      54.949  30.932  38.475  1.00  0.00    -0.000 C 
BRANCH  24  25
ATOM     25  C   UNL     1      54.425  29.749  39.307  1.00  0.00    -0.000 C 
BRANCH  25  26
ATOM     26  C   UNL     1      55.555  28.909  39.927  1.00  0.00    -0.000 C 
BRANCH  26  27
ATOM     27  C   UNL     1      55.427  27.413  39.594  1.00  0.00    -0.000 C 
BRANCH  27  28
ATOM     28  C   UNL     1      55.297  27.153  38.082  1.00  0.00    -0.000 C 
BRANCH  28  29
ATOM     29  C   UNL     1      56.627  27.333  37.328  1.00  0.00    -0.000 C 
BRANCH  29  30
ATOM     30  C   UNL     1      56.648  28.500  36.327  1.00  0.00    -0.000 C 
BRANCH  30  31
ATOM     31  C   UNL     1      57.839  29.446  36.538  1.00  0.00    -0.003 C 
ATOM     32  C   UNL     1      58.936  28.775  37.360  1.00  0.00     0.004 C 
ENDBRANCH  30  31
ENDBRANCH  29  30
ENDBRANCH  28  29
ENDBRANCH  27  28
ENDBRANCH  26  27
ENDBRANCH  25  26
ENDBRANCH  24  25
ENDBRANCH  23  24
ENDBRANCH  22  23
ENDBRANCH  21  22
ENDBRANCH  20  21
ENDBRANCH  19  20
ENDBRANCH  18  19
ENDBRANCH   1  18
TORSDOF 28
ENDMDL
MODEL 2
REMARK VINA RESULT:    -4.349      3.154      7.605
REMARK INTER + INTRA:         -17.386
REMARK INTER:                 -11.849
REMARK INTRA:                  -5.537
REMARK UNBOUND:                -5.917
REMARK SMILES CCCCCCCCCCCCCCCCCCCCCCCCCCCCCC(=O)[O-]
REMARK SMILES IDX 16 1 17 2 18 3 19 4 20 5 21 6 22 7 23 8 24 9 25 10 26 11
REMARK SMILES IDX 27 12 28 13 29 14 30 15 31 16 32 17 15 18 14 19 13 20 12 21
REMARK SMILES IDX 11 22 10 23 9 24 8 25 7 26 6 27 5 28 4 29 3 30 2 31 1 32
REMARK H PARENT
REMARK Flexibility Score: inf
ROOT
ATOM      1  C   UNL     1      54.120  28.349  34.101  1.00  0.00     0.000 C 
ENDROOT
BRANCH   1   2
ATOM      2  C   UNL     1      55.351  28.137  34.994  1.00  0.00     0.000 C 
BRANCH   2   3
ATOM      3  C   UNL     1      54.998  27.550  36.372  1.00  0.00     0.000 C 
BRANCH   3   4
ATOM      4  C   UNL     1      56.204  27.102  37.225  1.00  0.00     0.000 C 
BRANCH   4   5
ATOM      5  C   UNL     1      57.585  27.475  36.660  1.00  0.00     0.000 C 
BRANCH   5   6
ATOM      6  C   UNL     1      58.555  27.977  37.743  1.00  0.00     0.000 C 
BRANCH   6   7
ATOM      7  C   UNL     1      58.687  29.510  37.769  1.00  0.00     0.000 C 
BRANCH   7   8
ATOM      8  C   UNL     1      57.984  30.254  36.618  1.00  0.00     0.000 C 
BRANCH   8   9
ATOM      9  C   UNL     1      57.371  31.597  37.054  1.00  0.00     0.000 C 
BRANCH   9  10
ATOM     10  C   UNL     1      56.390  31.450  38.230  1.00  0.00     0.000 C 
BRANCH  10  11
ATOM     11  C   UNL     1      54.965  31.008  37.845  1.00  0.00     0.000 C 
BRANCH  11  12
ATOM     12  C   UNL     1      54.336  29.997  38.827  1.00  0.00     0.000 C 
BRANCH  12  13
ATOM     13  C   UNL     1      55.360  29.443  39.833  1.00  0.00     0.006 C 
BRANCH  13  14
ATOM     14  C   UNL     1      54.938  29.689  41.289  1.00  0.00     0.053 C 
BRANCH  14  15
ATOM     15  C   UNL     1      55.711  30.808  41.920  1.00  0.00     0.041 C 
ATOM     16  O   UNL     1      55.295  31.995  41.841  1.00  0.00    -0.550 OA
ATOM     17  O   UNL     1      56.900  30.540  42.588  1.00  0.00    -0.550 OA
ENDBRANCH  14  15
ENDBRANCH  13  14
ENDBRANCH  12  13
ENDBRANCH  11  12
ENDBRANCH  10  11
ENDBRANCH   9  10
ENDBRANCH   8   9
ENDBRANCH   7   8
ENDBRANCH   6   7
ENDBRANCH   5   6
ENDBRANCH   4   5
ENDBRANCH   3   4
ENDBRANCH   2   3
ENDBRANCH   1   2
BRANCH   1  18
ATOM     18  C   UNL     1      52.879  28.676  34.946  1.00  0.00     0.000 C 
BRANCH  18  19
ATOM     19  C   UNL     1      51.773  27.617  34.814  1.00  0.00     0.000 C 
BRANCH  19  20
ATOM     20  C   UNL     1      51.975  26.613  33.663  1.00  0.00     0.000 C 
BRANCH  20  21
ATOM     21  C   UNL     1      50.661  25.983  33.152  1.00  0.00     0.000 C 
BRANCH  21  22
ATOM     22  C   UNL     1      49.419  26.621  33.797  1.00  0.00     0.000 C 
BRANCH  22  23
ATOM     23  C   UNL     1      48.674  25.647  34.727  1.00  0.00     0.000 C 
BRANCH  23  24
ATOM     24  C   UNL     1      48.626  24.216  34.160  1.00  0.00    -0.000 C 
BRANCH  24  25
ATOM     25  C   UNL     1      49.016  23.147  35.194  1.00  0.00    -0.000 C 
BRANCH  25  26
ATOM     26  C   UNL     1      50.177  22.254  34.720  1.00  0.00    -0.000 C 
BRANCH  26  27
ATOM     27  C   UNL     1      51.550  22.913  34.929  1.00  0.00    -0.000 C 
BRANCH  27  28
ATOM     28  C   UNL     1      51.665  23.620  36.293  1.00  0.00    -0.000 C 
BRANCH  28  29
ATOM     29  C   UNL     1      52.919  24.506  36.402  1.00  0.00    -0.000 C 
BRANCH  29  30
ATOM     30  C   UNL     1      54.224  23.838  35.936  1.00  0.00    -0.000 C 
BRANCH  30  31
ATOM     31  C   UNL     1      54.755  24.420  34.618  1.00  0.00    -0.003 C 
ATOM     32  C   UNL     1      56.280  24.445  34.601  1.00  0.00     0.004 C 
ENDBRANCH  30  31
ENDBRANCH  29  30
ENDBRANCH  28  29
ENDBRANCH  27  28
ENDBRANCH  26  27
ENDBRANCH  25  26
ENDBRANCH  24  25
ENDBRANCH  23  24
ENDBRANCH  22  23
ENDBRANCH  21  22
ENDBRANCH  20  21
ENDBRANCH  19  20
ENDBRANCH  18  19
ENDBRANCH   1  18
TORSDOF 28
ENDMDL
MODEL 3
REMARK VINA RESULT:    -4.324      2.839      7.050
REMARK INTER + INTRA:         -17.320
REMARK INTER:                 -11.773
REMARK INTRA:                  -5.547
REMARK UNBOUND:                -5.917
REMARK SMILES CCCCCCCCCCCCCCCCCCCCCCCCCCCCCC(=O)[O-]
REMARK SMILES IDX 16 1 17 2 18 3 19 4 20 5 21 6 22 7 23 8 24 9 25 10 26 11
REMARK SMILES IDX 27 12 28 13 29 14 30 15 31 16 32 17 15 18 14 19 13 20 12 21
REMARK SMILES IDX 11 22 10 23 9 24 8 25 7 26 6 27 5 28 4 29 3 30 2 31 1 32
REMARK H PARENT
REMARK Flexibility Score: inf
ROOT
ATOM      1  C   UNL     1      52.776  30.317  35.497  1.00  0.00     0.000 C 
ENDROOT
BRANCH   1   2
ATOM      2  C   UNL     1      53.560  30.976  36.641  1.00  0.00     0.000 C 
BRANCH   2   3
ATOM      3  C   UNL     1      53.201  30.402  38.023  1.00  0.00     0.000 C 
BRANCH   3   4
ATOM      4  C   UNL     1      54.400  29.925  38.869  1.00  0.00     0.000 C 
BRANCH   4   5
ATOM      5  C   UNL     1      54.824  28.462  38.647  1.00  0.00     0.000 C 
BRANCH   5   6
ATOM      6  C   UNL     1      55.711  27.920  39.780  1.00  0.00     0.000 C 
BRANCH   6   7
ATOM      7  C   UNL     1      56.448  29.031  40.550  1.00  0.00     0.000 C 
BRANCH   7   8
ATOM      8  C   UNL     1      57.906  28.714  40.934  1.00  0.00     0.000 C 
BRANCH   8   9
ATOM      9  C   UNL     1      58.925  29.213  39.894  1.00  0.00     0.000 C 
BRANCH   9  10
ATOM     10  C   UNL     1      59.063  28.264  38.692  1.00  0.00     0.000 C 
BRANCH  10  11
ATOM     11  C   UNL     1      59.065  28.948  37.311  1.00  0.00     0.000 C 
BRANCH  11  12
ATOM     12  C   UNL     1      57.696  28.929  36.600  1.00  0.00     0.000 C 
BRANCH  12  13
ATOM     13  C   UNL     1      57.123  30.342  36.392  1.00  0.00     0.006 C 
BRANCH  13  14
ATOM     14  C   UNL     1      57.951  31.418  37.109  1.00  0.00     0.053 C 
BRANCH  14  15
ATOM     15  C   UNL     1      57.111  32.268  38.014  1.00  0.00     0.041 C 
ATOM     16  O   UNL     1      57.278  32.227  39.262  1.00  0.00    -0.550 OA
ATOM     17  O   UNL     1      56.136  33.099  37.477  1.00  0.00    -0.550 OA
ENDBRANCH  14  15
ENDBRANCH  13  14
ENDBRANCH  12  13
ENDBRANCH  11  12
ENDBRANCH  10  11
ENDBRANCH   9  10
ENDBRANCH   8   9
ENDBRANCH   7   8
ENDBRANCH   6   7
ENDBRANCH   5   6
ENDBRANCH   4   5
ENDBRANCH   3   4
ENDBRANCH   2   3
ENDBRANCH   1   2
BRANCH   1  18
ATOM     18  C   UNL     1      52.439  28.857  35.833  1.00  0.00     0.000 C 
BRANCH  18  19
ATOM     19  C   UNL     1      53.044  27.860  34.831  1.00  0.00     0.000 C 
BRANCH  19  20
ATOM     20  C   UNL     1      54.124  28.451  33.905  1.00  0.00     0.000 C 
BRANCH  20  21
ATOM     21  C   UNL     1      55.477  27.710  33.976  1.00  0.00     0.000 C 
BRANCH  21  22
ATOM     22  C   UNL     1      55.305  26.211  34.273  1.00  0.00     0.000 C 
BRANCH  22  23
ATOM     23  C   UNL     1      55.954  25.797  35.605  1.00  0.00     0.000 C 
BRANCH  23  24
ATOM     24  C   UNL     1      54.911  25.383  36.661  1.00  0.00    -0.000 C 
BRANCH  24  25
ATOM     25  C   UNL     1      53.867  24.394  36.116  1.00  0.00    -0.000 C 
BRANCH  25  26
ATOM     26  C   UNL     1      52.468  24.612  36.719  1.00  0.00    -0.000 C 
BRANCH  26  27
ATOM     27  C   UNL     1      51.374  24.725  35.644  1.00  0.00    -0.000 C 
BRANCH  27  28
ATOM     28  C   UNL     1      51.812  24.133  34.291  1.00  0.00    -0.000 C 
BRANCH  28  29
ATOM     29  C   UNL     1      51.317  24.959  33.090  1.00  0.00    -0.000 C 
BRANCH  29  30
ATOM     30  C   UNL     1      50.386  26.129  33.451  1.00  0.00    -0.000 C 
BRANCH  30  31
ATOM     31  C   UNL     1      48.954  25.933  32.936  1.00  0.00    -0.003 C 
ATOM     32  C   UNL     1      48.371  24.608  33.419  1.00  0.00     0.004 C 
ENDBRANCH  30  31
ENDBRANCH  29  30
ENDBRANCH  28  29
ENDBRANCH  27  28
ENDBRANCH  26  27
ENDBRANCH  25  26
ENDBRANCH  24  25
ENDBRANCH  23  24
ENDBRANCH  22  23
ENDBRANCH  21  22
ENDBRANCH  20  21
ENDBRANCH  19  20
ENDBRANCH  18  19
ENDBRANCH   1  18
TORSDOF 28
ENDMDL
MODEL 4
REMARK VINA RESULT:    -4.273      3.336      6.167
REMARK INTER + INTRA:         -17.185
REMARK INTER:                 -11.366
REMARK INTRA:                  -5.820
REMARK UNBOUND:                -5.917
REMARK SMILES CCCCCCCCCCCCCCCCCCCCCCCCCCCCCC(=O)[O-]
REMARK SMILES IDX 16 1 17 2 18 3 19 4 20 5 21 6 22 7 23 8 24 9 25 10 26 11
REMARK SMILES IDX 27 12 28 13 29 14 30 15 31 16 32 17 15 18 14 19 13 20 12 21
REMARK SMILES IDX 11 22 10 23 9 24 8 25 7 26 6 27 5 28 4 29 3 30 2 31 1 32
REMARK H PARENT
REMARK Flexibility Score: inf
ROOT
ATOM      1  C   UNL     1      54.641  31.083  37.547  1.00  0.00     0.000 C 
ENDROOT
BRANCH   1   2
ATOM      2  C   UNL     1      53.316  30.357  37.273  1.00  0.00     0.000 C 
BRANCH   2   3
ATOM      3  C   UNL     1      52.996  30.240  35.773  1.00  0.00     0.000 C 
BRANCH   3   4
ATOM      4  C   UNL     1      52.973  28.801  35.215  1.00  0.00     0.000 C 
BRANCH   4   5
ATOM      5  C   UNL     1      53.901  28.545  34.015  1.00  0.00     0.000 C 
BRANCH   5   6
ATOM      6  C   UNL     1      55.288  28.030  34.434  1.00  0.00     0.000 C 
BRANCH   6   7
ATOM      7  C   UNL     1      55.225  26.980  35.558  1.00  0.00     0.000 C 
BRANCH   7   8
ATOM      8  C   UNL     1      55.826  25.604  35.212  1.00  0.00     0.000 C 
BRANCH   8   9
ATOM      9  C   UNL     1      56.260  25.489  33.741  1.00  0.00     0.000 C 
BRANCH   9  10
ATOM     10  C   UNL     1      55.216  24.774  32.866  1.00  0.00     0.000 C 
BRANCH  10  11
ATOM     11  C   UNL     1      54.194  23.913  33.634  1.00  0.00     0.000 C 
BRANCH  11  12
ATOM     12  C   UNL     1      52.728  24.176  33.234  1.00  0.00     0.000 C 
BRANCH  12  13
ATOM     13  C   UNL     1      52.121  25.376  33.983  1.00  0.00     0.006 C 
BRANCH  13  14
ATOM     14  C   UNL     1      51.176  26.199  33.095  1.00  0.00     0.053 C 
BRANCH  14  15
ATOM     15  C   UNL     1      49.764  26.176  33.599  1.00  0.00     0.041 C 
ATOM     16  O   UNL     1      49.505  26.512  34.786  1.00  0.00    -0.550 OA
ATOM     17  O   UNL     1      48.734  25.770  32.759  1.00  0.00    -0.550 OA
ENDBRANCH  14  15
ENDBRANCH  13  14
ENDBRANCH  12  13
ENDBRANCH  11  12
ENDBRANCH  10  11
ENDBRANCH   9  10
ENDBRANCH   8   9
ENDBRANCH   7   8
ENDBRANCH   6   7
ENDBRANCH   5   6
ENDBRANCH   4   5
ENDBRANCH   3   4
ENDBRANCH   2   3
ENDBRANCH   1   2
BRANCH   1  18
ATOM     18  C   UNL     1      55.838  30.152  37.303  1.00  0.00     0.000 C 
BRANCH  18  19
ATOM     19  C   UNL     1      57.173  30.910  37.209  1.00  0.00     0.000 C 
BRANCH  19  20
ATOM     20  C   UNL     1      58.427  30.031  37.373  1.00  0.00     0.000 C 
BRANCH  20  21
ATOM     21  C   UNL     1      58.362  28.703  36.587  1.00  0.00     0.000 C 
BRANCH  21  22
ATOM     22  C   UNL     1      58.442  27.476  37.511  1.00  0.00     0.000 C 
BRANCH  22  23
ATOM     23  C   UNL     1      58.309  27.848  38.997  1.00  0.00     0.000 C 
BRANCH  23  24
ATOM     24  C   UNL     1      57.328  26.927  39.747  1.00  0.00    -0.000 C 
BRANCH  24  25
ATOM     25  C   UNL     1      55.886  27.034  39.223  1.00  0.00    -0.000 C 
BRANCH  25  26
ATOM     26  C   UNL     1      55.034  28.037  40.021  1.00  0.00    -0.000 C 
BRANCH  26  27
ATOM     27  C   UNL     1      55.356  28.018  41.524  1.00  0.00    -0.000 C 
BRANCH  27  28
ATOM     28  C   UNL     1      55.716  29.413  42.070  1.00  0.00    -0.000 C 
BRANCH  28  29
ATOM     29  C   UNL     1      55.354  30.547  41.095  1.00  0.00    -0.000 C 
BRANCH  29  30
ATOM     30  C   UNL     1      56.506  31.516  40.776  1.00  0.00    -0.000 C 
BRANCH  30  31
ATOM     31  C   UNL     1      57.702  31.353  41.723  1.00  0.00    -0.003 C 
ATOM     32  C   UNL     1      58.925  30.822  40.981  1.00  0.00     0.004 C 
ENDBRANCH  30  31
ENDBRANCH  29  30
ENDBRANCH  28  29
ENDBRANCH  27  28
ENDBRANCH  26  27
ENDBRANCH  25  26
ENDBRANCH  24  25
ENDBRANCH  23  24
ENDBRANCH  22  23
ENDBRANCH  21  22
ENDBRANCH  20  21
ENDBRANCH  19  20
ENDBRANCH  18  19
ENDBRANCH   1  18
TORSDOF 28
ENDMDL
MODEL 5
REMARK VINA RESULT:    -4.267      3.379      7.495
REMARK INTER + INTRA:         -17.169
REMARK INTER:                 -11.476
REMARK INTRA:                  -5.692
REMARK UNBOUND:                -5.917
REMARK SMILES CCCCCCCCCCCCCCCCCCCCCCCCCCCCCC(=O)[O-]
REMARK SMILES IDX 16 1 17 2 18 3 19 4 20 5 21 6 22 7 23 8 24 9 25 10 26 11
REMARK SMILES IDX 27 12 28 13 29 14 30 15 31 16 32 17 15 18 14 19 13 20 12 21
REMARK SMILES IDX 11 22 10 23 9 24 8 25 7 26 6 27 5 28 4 29 3 30 2 31 1 32
REMARK H PARENT
REMARK Flexibility Score: inf
ROOT
ATOM      1  C   UNL     1      53.463  30.678  36.708  1.00  0.00     0.000 C 
ENDROOT
BRANCH   1   2
ATOM      2  C   UNL     1      54.521  30.629  37.820  1.00  0.00     0.000 C 
BRANCH   2   3
ATOM      3  C   UNL     1      54.814  29.199  38.306  1.00  0.00     0.000 C 
BRANCH   3   4
ATOM      4  C   UNL     1      54.997  29.047  39.831  1.00  0.00     0.000 C 
BRANCH   4   5
ATOM      5  C   UNL     1      55.964  27.934  40.271  1.00  0.00     0.000 C 
BRANCH   5   6
ATOM      6  C   UNL     1      56.224  26.899  39.164  1.00  0.00     0.000 C 
BRANCH   6   7
ATOM      7  C   UNL     1      57.695  26.860  38.712  1.00  0.00     0.000 C 
BRANCH   7   8
ATOM      8  C   UNL     1      57.961  27.368  37.282  1.00  0.00     0.000 C 
BRANCH   8   9
ATOM      9  C   UNL     1      58.956  28.540  37.234  1.00  0.00     0.000 C 
BRANCH   9  10
ATOM     10  C   UNL     1      58.260  29.911  37.186  1.00  0.00     0.000 C 
BRANCH  10  11
ATOM     11  C   UNL     1      58.177  30.653  38.535  1.00  0.00     0.000 C 
BRANCH  11  12
ATOM     12  C   UNL     1      59.108  30.080  39.624  1.00  0.00     0.000 C 
BRANCH  12  13
ATOM     13  C   UNL     1      58.704  30.531  41.038  1.00  0.00     0.006 C 
BRANCH  13  14
ATOM     14  C   UNL     1      57.419  31.371  41.037  1.00  0.00     0.053 C 
BRANCH  14  15
ATOM     15  C   UNL     1      57.699  32.833  41.219  1.00  0.00     0.041 C 
ATOM     16  O   UNL     1      58.455  33.226  42.147  1.00  0.00    -0.550 OA
ATOM     17  O   UNL     1      57.115  33.763  40.367  1.00  0.00    -0.550 OA
ENDBRANCH  14  15
ENDBRANCH  13  14
ENDBRANCH  12  13
ENDBRANCH  11  12
ENDBRANCH  10  11
ENDBRANCH   9  10
ENDBRANCH   8   9
ENDBRANCH   7   8
ENDBRANCH   6   7
ENDBRANCH   5   6
ENDBRANCH   4   5
ENDBRANCH   3   4
ENDBRANCH   2   3
ENDBRANCH   1   2
BRANCH   1  18
ATOM     18  C   UNL     1      53.092  29.263  36.241  1.00  0.00     0.000 C 
BRANCH  18  19
ATOM     19  C   UNL     1      52.838  29.183  34.727  1.00  0.00     0.000 C 
BRANCH  19  20
ATOM     20  C   UNL     1      53.948  28.481  33.923  1.00  0.00     0.000 C 
BRANCH  20  21
ATOM     21  C   UNL     1      55.225  28.195  34.744  1.00  0.00     0.000 C 
BRANCH  21  22
ATOM     22  C   UNL     1      56.046  27.034  34.159  1.00  0.00     0.000 C 
BRANCH  22  23
ATOM     23  C   UNL     1      55.551  25.660  34.646  1.00  0.00     0.000 C 
BRANCH  23  24
ATOM     24  C   UNL     1      54.921  25.728  36.049  1.00  0.00    -0.000 C 
BRANCH  24  25
ATOM     25  C   UNL     1      53.399  25.514  36.034  1.00  0.00    -0.000 C 
BRANCH  25  26
ATOM     26  C   UNL     1      53.004  24.043  35.814  1.00  0.00    -0.000 C 
BRANCH  26  27
ATOM     27  C   UNL     1      52.014  23.867  34.652  1.00  0.00    -0.000 C 
BRANCH  27  28
ATOM     28  C   UNL     1      52.402  24.695  33.413  1.00  0.00    -0.000 C 
BRANCH  28  29
ATOM     29  C   UNL     1      51.407  25.831  33.118  1.00  0.00    -0.000 C 
BRANCH  29  30
ATOM     30  C   UNL     1      49.961  25.554  33.565  1.00  0.00    -0.000 C 
BRANCH  30  31
ATOM     31  C   UNL     1      49.367  26.695  34.403  1.00  0.00    -0.003 C 
ATOM     32  C   UNL     1      49.779  26.576  35.867  1.00  0.00     0.004 C 
ENDBRANCH  30  31
ENDBRANCH  29  30
ENDBRANCH  28  29
ENDBRANCH  27  28
ENDBRANCH  26  27
ENDBRANCH  25  26
ENDBRANCH  24  25
ENDBRANCH  23  24
ENDBRANCH  22  23
ENDBRANCH  21  22
ENDBRANCH  20  21
ENDBRANCH  19  20
ENDBRANCH  18  19
ENDBRANCH   1  18
TORSDOF 28
ENDMDL
MODEL 6
REMARK VINA RESULT:    -4.249      3.809      6.584
REMARK INTER + INTRA:         -17.123
REMARK INTER:                 -12.121
REMARK INTRA:                  -5.002
REMARK UNBOUND:                -5.917
REMARK SMILES CCCCCCCCCCCCCCCCCCCCCCCCCCCCCC(=O)[O-]
REMARK SMILES IDX 16 1 17 2 18 3 19 4 20 5 21 6 22 7 23 8 24 9 25 10 26 11
REMARK SMILES IDX 27 12 28 13 29 14 30 15 31 16 32 17 15 18 14 19 13 20 12 21
REMARK SMILES IDX 11 22 10 23 9 24 8 25 7 26 6 27 5 28 4 29 3 30 2 31 1 32
REMARK H PARENT
REMARK Flexibility Score: inf
ROOT
ATOM      1  C   UNL     1      53.158  29.008  36.277  1.00  0.00     0.000 C 
ENDROOT
BRANCH   1   2
ATOM      2  C   UNL     1      53.149  29.259  34.763  1.00  0.00     0.000 C 
BRANCH   2   3
ATOM      3  C   UNL     1      54.031  28.267  33.985  1.00  0.00     0.000 C 
BRANCH   3   4
ATOM      4  C   UNL     1      55.538  28.330  34.313  1.00  0.00     0.000 C 
BRANCH   4   5
ATOM      5  C   UNL     1      56.019  27.347  35.394  1.00  0.00     0.000 C 
BRANCH   5   6
ATOM      6  C   UNL     1      55.305  25.987  35.324  1.00  0.00     0.000 C 
BRANCH   6   7
ATOM      7  C   UNL     1      54.777  25.513  36.690  1.00  0.00     0.000 C 
BRANCH   7   8
ATOM      8  C   UNL     1      53.290  25.114  36.722  1.00  0.00     0.000 C 
BRANCH   8   9
ATOM      9  C   UNL     1      52.631  25.133  35.332  1.00  0.00     0.000 C 
BRANCH   9  10
ATOM     10  C   UNL     1      51.256  25.822  35.333  1.00  0.00     0.000 C 
BRANCH  10  11
ATOM     11  C   UNL     1      50.881  26.544  34.024  1.00  0.00     0.000 C 
BRANCH  11  12
ATOM     12  C   UNL     1      49.368  26.547  33.721  1.00  0.00     0.000 C 
BRANCH  12  13
ATOM     13  C   UNL     1      48.876  25.192  33.182  1.00  0.00     0.006 C 
BRANCH  13  14
ATOM     14  C   UNL     1      48.006  24.441  34.201  1.00  0.00     0.053 C 
BRANCH  14  15
ATOM     15  C   UNL     1      47.353  23.230  33.604  1.00  0.00     0.041 C 
ATOM     16  O   UNL     1      46.103  23.085  33.666  1.00  0.00    -0.550 OA
ATOM     17  O   UNL     1      48.129  22.256  32.988  1.00  0.00    -0.550 OA
ENDBRANCH  14  15
ENDBRANCH  13  14
ENDBRANCH  12  13
ENDBRANCH  11  12
ENDBRANCH  10  11
ENDBRANCH   9  10
ENDBRANCH   8   9
ENDBRANCH   7   8
ENDBRANCH   6   7
ENDBRANCH   5   6
ENDBRANCH   4   5
ENDBRANCH   3   4
ENDBRANCH   2   3
ENDBRANCH   1   2
BRANCH   1  18
ATOM     18  C   UNL     1      53.412  30.312  37.048  1.00  0.00     0.000 C 
BRANCH  18  19
ATOM     19  C   UNL     1      54.032  30.072  38.435  1.00  0.00     0.000 C 
BRANCH  19  20
ATOM     20  C   UNL     1      55.066  28.933  38.491  1.00  0.00     0.000 C 
BRANCH  20  21
ATOM     21  C   UNL     1      55.012  28.109  39.796  1.00  0.00     0.000 C 
BRANCH  21  22
ATOM     22  C   UNL     1      54.627  28.969  41.012  1.00  0.00     0.000 C 
BRANCH  22  23
ATOM     23  C   UNL     1      55.729  28.996  42.086  1.00  0.00     0.000 C 
BRANCH  23  24
ATOM     24  C   UNL     1      56.347  30.396  42.257  1.00  0.00    -0.000 C 
BRANCH  24  25
ATOM     25  C   UNL     1      57.639  30.584  41.445  1.00  0.00    -0.000 C 
BRANCH  25  26
ATOM     26  C   UNL     1      57.699  31.943  40.724  1.00  0.00    -0.000 C 
BRANCH  26  27
ATOM     27  C   UNL     1      56.454  32.206  39.861  1.00  0.00    -0.000 C 
BRANCH  27  28
ATOM     28  C   UNL     1      56.793  32.920  38.538  1.00  0.00    -0.000 C 
BRANCH  28  29
ATOM     29  C   UNL     1      56.902  31.951  37.348  1.00  0.00    -0.000 C 
BRANCH  29  30
ATOM     30  C   UNL     1      58.296  31.335  37.143  1.00  0.00    -0.000 C 
BRANCH  30  31
ATOM     31  C   UNL     1      58.253  29.812  36.948  1.00  0.00    -0.003 C 
ATOM     32  C   UNL     1      58.735  29.083  38.198  1.00  0.00     0.004 C 
ENDBRANCH  30  31
ENDBRANCH  29  30
ENDBRANCH  28  29
ENDBRANCH  27  28
ENDBRANCH  26  27
ENDBRANCH  25  26
ENDBRANCH  24  25
ENDBRANCH  23  24
ENDBRANCH  22  23
ENDBRANCH  21  22
ENDBRANCH  20  21
ENDBRANCH  19  20
ENDBRANCH  18  19
ENDBRANCH   1  18
TORSDOF 28
ENDMDL
MODEL 7
REMARK VINA RESULT:    -4.246      2.311      7.233
REMARK INTER + INTRA:         -17.113
REMARK INTER:                 -11.668
REMARK INTRA:                  -5.445
REMARK UNBOUND:                -5.917
REMARK SMILES CCCCCCCCCCCCCCCCCCCCCCCCCCCCCC(=O)[O-]
REMARK SMILES IDX 16 1 17 2 18 3 19 4 20 5 21 6 22 7 23 8 24 9 25 10 26 11
REMARK SMILES IDX 27 12 28 13 29 14 30 15 31 16 32 17 15 18 14 19 13 20 12 21
REMARK SMILES IDX 11 22 10 23 9 24 8 25 7 26 6 27 5 28 4 29 3 30 2 31 1 32
REMARK H PARENT
REMARK Flexibility Score: inf
ROOT
ATOM      1  C   UNL     1      55.080  27.851  34.829  1.00  0.00     0.000 C 
ENDROOT
BRANCH   1   2
ATOM      2  C   UNL     1      56.046  27.869  33.637  1.00  0.00     0.000 C 
BRANCH   2   3
ATOM      3  C   UNL     1      56.938  26.617  33.568  1.00  0.00     0.000 C 
BRANCH   3   4
ATOM      4  C   UNL     1      57.507  26.139  34.922  1.00  0.00     0.000 C 
BRANCH   4   5
ATOM      5  C   UNL     1      58.701  26.948  35.457  1.00  0.00     0.000 C 
BRANCH   5   6
ATOM      6  C   UNL     1      58.460  27.499  36.872  1.00  0.00     0.000 C 
BRANCH   6   7
ATOM      7  C   UNL     1      58.725  29.012  36.982  1.00  0.00     0.000 C 
BRANCH   7   8
ATOM      8  C   UNL     1      57.551  29.921  36.571  1.00  0.00     0.000 C 
BRANCH   8   9
ATOM      9  C   UNL     1      57.505  31.239  37.364  1.00  0.00     0.000 C 
BRANCH   9  10
ATOM     10  C   UNL     1      56.069  31.715  37.644  1.00  0.00     0.000 C 
BRANCH  10  11
ATOM     11  C   UNL     1      54.962  30.695  37.312  1.00  0.00     0.000 C 
BRANCH  11  12
ATOM     12  C   UNL     1      54.355  30.005  38.551  1.00  0.00     0.000 C 
BRANCH  12  13
ATOM     13  C   UNL     1      55.047  28.669  38.876  1.00  0.00     0.006 C 
BRANCH  13  14
ATOM     14  C   UNL     1      56.097  28.811  39.987  1.00  0.00     0.053 C 
BRANCH  14  15
ATOM     15  C   UNL     1      56.812  27.521  40.258  1.00  0.00     0.041 C 
ATOM     16  O   UNL     1      56.163  26.452  40.408  1.00  0.00    -0.550 OA
ATOM     17  O   UNL     1      58.198  27.504  40.354  1.00  0.00    -0.550 OA
ENDBRANCH  14  15
ENDBRANCH  13  14
ENDBRANCH  12  13
ENDBRANCH  11  12
ENDBRANCH  10  11
ENDBRANCH   9  10
ENDBRANCH   8   9
ENDBRANCH   7   8
ENDBRANCH   6   7
ENDBRANCH   5   6
ENDBRANCH   4   5
ENDBRANCH   3   4
ENDBRANCH   2   3
ENDBRANCH   1   2
BRANCH   1  18
ATOM     18  C   UNL     1      53.768  28.571  34.484  1.00  0.00     0.000 C 
BRANCH  18  19
ATOM     19  C   UNL     1      52.605  28.164  35.404  1.00  0.00     0.000 C 
BRANCH  19  20
ATOM     20  C   UNL     1      51.473  27.387  34.707  1.00  0.00     0.000 C 
BRANCH  20  21
ATOM     21  C   UNL     1      51.974  26.293  33.740  1.00  0.00     0.000 C 
BRANCH  21  22
ATOM     22  C   UNL     1      50.913  25.910  32.694  1.00  0.00     0.000 C 
BRANCH  22  23
ATOM     23  C   UNL     1      49.496  26.344  33.107  1.00  0.00     0.000 C 
BRANCH  23  24
ATOM     24  C   UNL     1      48.524  25.153  33.206  1.00  0.00    -0.000 C 
BRANCH  24  25
ATOM     25  C   UNL     1      48.464  24.544  34.618  1.00  0.00    -0.000 C 
BRANCH  25  26
ATOM     26  C   UNL     1      48.827  23.049  34.639  1.00  0.00    -0.000 C 
BRANCH  26  27
ATOM     27  C   UNL     1      50.272  22.802  35.105  1.00  0.00    -0.000 C 
BRANCH  27  28
ATOM     28  C   UNL     1      50.786  23.904  36.050  1.00  0.00    -0.000 C 
BRANCH  28  29
ATOM     29  C   UNL     1      52.168  23.582  36.647  1.00  0.00    -0.000 C 
BRANCH  29  30
ATOM     30  C   UNL     1      53.085  24.802  36.845  1.00  0.00    -0.000 C 
BRANCH  30  31
ATOM     31  C   UNL     1      54.491  24.591  36.266  1.00  0.00    -0.003 C 
ATOM     32  C   UNL     1      54.434  23.838  34.940  1.00  0.00     0.004 C 
ENDBRANCH  30  31
ENDBRANCH  29  30
ENDBRANCH  28  29
ENDBRANCH  27  28
ENDBRANCH  26  27
ENDBRANCH  25  26
ENDBRANCH  24  25
ENDBRANCH  23  24
ENDBRANCH  22  23
ENDBRANCH  21  22
ENDBRANCH  20  21
ENDBRANCH  19  20
ENDBRANCH  18  19
ENDBRANCH   1  18
TORSDOF 28
ENDMDL
MODEL 8
REMARK VINA RESULT:    -4.223      3.194      7.939
REMARK INTER + INTRA:         -17.052
REMARK INTER:                 -12.104
REMARK INTRA:                  -4.948
REMARK UNBOUND:                -5.917
REMARK SMILES CCCCCCCCCCCCCCCCCCCCCCCCCCCCCC(=O)[O-]
REMARK SMILES IDX 16 1 17 2 18 3 19 4 20 5 21 6 22 7 23 8 24 9 25 10 26 11
REMARK SMILES IDX 27 12 28 13 29 14 30 15 31 16 32 17 15 18 14 19 13 20 12 21
REMARK SMILES IDX 11 22 10 23 9 24 8 25 7 26 6 27 5 28 4 29 3 30 2 31 1 32
REMARK H PARENT
REMARK Flexibility Score: inf
ROOT
ATOM      1  C   UNL     1      52.264  28.592  35.729  1.00  0.00     0.000 C 
ENDROOT
BRANCH   1   2
ATOM      2  C   UNL     1      52.853  30.010  35.739  1.00  0.00     0.000 C 
BRANCH   2   3
ATOM      3  C   UNL     1      53.467  30.395  37.096  1.00  0.00     0.000 C 
BRANCH   3   4
ATOM      4  C   UNL     1      55.010  30.403  37.142  1.00  0.00     0.000 C 
BRANCH   4   5
ATOM      5  C   UNL     1      55.644  31.658  37.768  1.00  0.00     0.000 C 
BRANCH   5   6
ATOM      6  C   UNL     1      57.135  31.807  37.424  1.00  0.00     0.000 C 
BRANCH   6   7
ATOM      7  C   UNL     1      57.806  30.469  37.066  1.00  0.00     0.000 C 
BRANCH   7   8
ATOM      8  C   UNL     1      58.509  29.749  38.233  1.00  0.00     0.000 C 
BRANCH   8   9
ATOM      9  C   UNL     1      57.707  28.550  38.771  1.00  0.00     0.000 C 
BRANCH   9  10
ATOM     10  C   UNL     1      57.087  28.820  40.152  1.00  0.00     0.000 C 
BRANCH  10  11
ATOM     11  C   UNL     1      55.549  28.740  40.208  1.00  0.00     0.000 C 
BRANCH  11  12
ATOM     12  C   UNL     1      54.916  29.620  41.306  1.00  0.00     0.000 C 
BRANCH  12  13
ATOM     13  C   UNL     1      55.961  30.464  42.056  1.00  0.00     0.006 C 
BRANCH  13  14
ATOM     14  C   UNL     1      55.851  31.959  41.722  1.00  0.00     0.053 C 
BRANCH  14  15
ATOM     15  C   UNL     1      57.125  32.506  41.152  1.00  0.00     0.041 C 
ATOM     16  O   UNL     1      57.106  33.531  40.417  1.00  0.00    -0.550 OA
ATOM     17  O   UNL     1      58.333  31.877  41.423  1.00  0.00    -0.550 OA
ENDBRANCH  14  15
ENDBRANCH  13  14
ENDBRANCH  12  13
ENDBRANCH  11  12
ENDBRANCH  10  11
ENDBRANCH   9  10
ENDBRANCH   8   9
ENDBRANCH   7   8
ENDBRANCH   6   7
ENDBRANCH   5   6
ENDBRANCH   4   5
ENDBRANCH   3   4
ENDBRANCH   2   3
ENDBRANCH   1   2
BRANCH   1  18
ATOM     18  C   UNL     1      53.106  27.653  34.853  1.00  0.00     0.000 C 
BRANCH  18  19
ATOM     19  C   UNL     1      54.070  28.410  33.925  1.00  0.00     0.000 C 
BRANCH  19  20
ATOM     20  C   UNL     1      55.466  27.773  33.786  1.00  0.00     0.000 C 
BRANCH  20  21
ATOM     21  C   UNL     1      56.282  27.774  35.096  1.00  0.00     0.000 C 
BRANCH  21  22
ATOM     22  C   UNL     1      56.494  26.355  35.651  1.00  0.00     0.000 C 
BRANCH  22  23
ATOM     23  C   UNL     1      56.333  25.271  34.572  1.00  0.00     0.000 C 
BRANCH  23  24
ATOM     24  C   UNL     1      55.242  24.245  34.929  1.00  0.00    -0.000 C 
BRANCH  24  25
ATOM     25  C   UNL     1      54.033  24.300  33.980  1.00  0.00    -0.000 C 
BRANCH  25  26
ATOM     26  C   UNL     1      52.705  23.973  34.685  1.00  0.00    -0.000 C 
BRANCH  26  27
ATOM     27  C   UNL     1      51.654  23.397  33.723  1.00  0.00    -0.000 C 
BRANCH  27  28
ATOM     28  C   UNL     1      51.465  24.265  32.464  1.00  0.00    -0.000 C 
BRANCH  28  29
ATOM     29  C   UNL     1      50.891  25.658  32.780  1.00  0.00    -0.000 C 
BRANCH  29  30
ATOM     30  C   UNL     1      49.402  25.669  33.168  1.00  0.00    -0.000 C 
BRANCH  30  31
ATOM     31  C   UNL     1      49.111  26.548  34.392  1.00  0.00    -0.003 C 
ATOM     32  C   UNL     1      49.622  25.896  35.673  1.00  0.00     0.004 C 
ENDBRANCH  30  31
ENDBRANCH  29  30
ENDBRANCH  28  29
ENDBRANCH  27  28
ENDBRANCH  26  27
ENDBRANCH  25  26
ENDBRANCH  24  25
ENDBRANCH  23  24
ENDBRANCH  22  23
ENDBRANCH  21  22
ENDBRANCH  20  21
ENDBRANCH  19  20
ENDBRANCH  18  19
ENDBRANCH   1  18
TORSDOF 28
ENDMDL
MODEL 9
REMARK VINA RESULT:    -4.200      3.506      8.149
REMARK INTER + INTRA:         -16.993
REMARK INTER:                 -11.905
REMARK INTRA:                  -5.088
REMARK UNBOUND:                -5.917
REMARK SMILES CCCCCCCCCCCCCCCCCCCCCCCCCCCCCC(=O)[O-]
REMARK SMILES IDX 16 1 17 2 18 3 19 4 20 5 21 6 22 7 23 8 24 9 25 10 26 11
REMARK SMILES IDX 27 12 28 13 29 14 30 15 31 16 32 17 15 18 14 19 13 20 12 21
REMARK SMILES IDX 11 22 10 23 9 24 8 25 7 26 6 27 5 28 4 29 3 30 2 31 1 32
REMARK H PARENT
REMARK Flexibility Score: inf
ROOT
ATOM      1  C   UNL     1      53.572  30.267  38.105  1.00  0.00     0.000 C 
ENDROOT
BRANCH   1   2
ATOM      2  C   UNL     1      54.547  29.665  39.127  1.00  0.00     0.000 C 
BRANCH   2   3
ATOM      3  C   UNL     1      55.030  28.257  38.738  1.00  0.00     0.000 C 
BRANCH   3   4
ATOM      4  C   UNL     1      56.262  27.746  39.514  1.00  0.00     0.000 C 
BRANCH   4   5
ATOM      5  C   UNL     1      56.988  28.801  40.366  1.00  0.00     0.000 C 
BRANCH   5   6
ATOM      6  C   UNL     1      58.348  29.210  39.777  1.00  0.00     0.000 C 
BRANCH   6   7
ATOM      7  C   UNL     1      58.696  28.451  38.484  1.00  0.00     0.000 C 
BRANCH   7   8
ATOM      8  C   UNL     1      58.899  29.329  37.235  1.00  0.00     0.000 C 
BRANCH   8   9
ATOM      9  C   UNL     1      57.652  30.153  36.869  1.00  0.00     0.000 C 
BRANCH   9  10
ATOM     10  C   UNL     1      57.827  31.655  37.152  1.00  0.00     0.000 C 
BRANCH  10  11
ATOM     11  C   UNL     1      56.547  32.395  37.586  1.00  0.00     0.000 C 
BRANCH  11  12
ATOM     12  C   UNL     1      56.722  33.261  38.851  1.00  0.00     0.000 C 
BRANCH  12  13
ATOM     13  C   UNL     1      56.529  32.452  40.146  1.00  0.00     0.006 C 
BRANCH  13  14
ATOM     14  C   UNL     1      57.586  32.792  41.208  1.00  0.00     0.053 C 
BRANCH  14  15
ATOM     15  C   UNL     1      57.420  31.973  42.453  1.00  0.00     0.041 C 
ATOM     16  O   UNL     1      58.400  31.349  42.941  1.00  0.00    -0.550 OA
ATOM     17  O   UNL     1      56.177  31.891  43.069  1.00  0.00    -0.550 OA
ENDBRANCH  14  15
ENDBRANCH  13  14
ENDBRANCH  12  13
ENDBRANCH  11  12
ENDBRANCH  10  11
ENDBRANCH   9  10
ENDBRANCH   8   9
ENDBRANCH   7   8
ENDBRANCH   6   7
ENDBRANCH   5   6
ENDBRANCH   4   5
ENDBRANCH   3   4
ENDBRANCH   2   3
ENDBRANCH   1   2
BRANCH   1  18
ATOM     18  C   UNL     1      53.951  29.853  36.675  1.00  0.00     0.000 C 
BRANCH  18  19
ATOM     19  C   UNL     1      52.748  29.847  35.718  1.00  0.00     0.000 C 
BRANCH  19  20
ATOM     20  C   UNL     1      52.248  28.446  35.318  1.00  0.00     0.000 C 
BRANCH  20  21
ATOM     21  C   UNL     1      53.276  27.323  35.574  1.00  0.00     0.000 C 
BRANCH  21  22
ATOM     22  C   UNL     1      54.030  26.923  34.294  1.00  0.00     0.000 C 
BRANCH  22  23
ATOM     23  C   UNL     1      53.395  25.710  33.593  1.00  0.00     0.000 C 
BRANCH  23  24
ATOM     24  C   UNL     1      54.366  24.519  33.488  1.00  0.00    -0.000 C 
BRANCH  24  25
ATOM     25  C   UNL     1      53.840  23.253  34.186  1.00  0.00    -0.000 C 
BRANCH  25  26
ATOM     26  C   UNL     1      53.809  23.386  35.719  1.00  0.00    -0.000 C 
BRANCH  26  27
ATOM     27  C   UNL     1      52.435  23.038  36.313  1.00  0.00    -0.000 C 
BRANCH  27  28
ATOM     28  C   UNL     1      51.592  24.289  36.627  1.00  0.00    -0.000 C 
BRANCH  28  29
ATOM     29  C   UNL     1      50.518  24.569  35.561  1.00  0.00    -0.000 C 
BRANCH  29  30
ATOM     30  C   UNL     1      49.684  25.838  35.804  1.00  0.00    -0.000 C 
BRANCH  30  31
ATOM     31  C   UNL     1      48.937  26.311  34.549  1.00  0.00    -0.003 C 
ATOM     32  C   UNL     1      49.825  26.218  33.312  1.00  0.00     0.004 C 
ENDBRANCH  30  31
ENDBRANCH  29  30
ENDBRANCH  28  29
ENDBRANCH  27  28
ENDBRANCH  26  27
ENDBRANCH  25  26
ENDBRANCH  24  25
ENDBRANCH  23  24
ENDBRANCH  22  23
ENDBRANCH  21  22
ENDBRANCH  20  21
ENDBRANCH  19  20
ENDBRANCH  18  19
ENDBRANCH   1  18
TORSDOF 28
ENDMDL
