MODEL 1
REMARK VINA RESULT:    -2.904      0.000      0.000
REMARK INTER + INTRA:          -3.073
REMARK INTER:                  -3.584
REMARK INTRA:                   0.510
REMARK UNBOUND:                 0.510
REMARK SMILES O=c1c(O)c(-c2cc(O)c(O)c(O)c2)oc2cc(O)cc(O)c12
REMARK SMILES IDX 5 1 3 2 2 3 1 4 23 5 21 6 20 7 18 8 17 9 16 10 15 11 6 12
REMARK SMILES IDX 7 13 8 14 14 15 10 16 12 17 9 18 11 20 13 22 4 24 22 26
REMARK SMILES IDX 19 28
REMARK H PARENT 9 19 11 21 13 23 4 25 22 27 19 29
REMARK Flexibility Score: inf
ROOT
ATOM      1  C   UNL     1    -108.895 -37.027   8.350  1.00  0.00     0.180 A 
ATOM      2  C   UNL     1    -110.189 -36.895   7.818  1.00  0.00     0.208 A 
ATOM      3  C   UNL     1    -111.287 -36.882   8.693  1.00  0.00     0.238 A 
ATOM      4  O   UNL     1    -112.439 -36.710   8.216  1.00  0.00    -0.285 OA
ATOM      5  C   UNL     1    -111.079 -37.019  10.087  1.00  0.00     0.111 A 
ATOM      6  C   UNL     1    -112.121 -37.060  11.062  1.00  0.00     0.134 A 
ATOM      7  C   UNL     1    -111.792 -37.066  12.424  1.00  0.00     0.093 A 
ATOM      8  C   UNL     1    -110.460 -37.098  12.843  1.00  0.00     0.123 A 
ATOM      9  C   UNL     1    -109.437 -37.118  11.899  1.00  0.00     0.094 A 
ATOM     10  C   UNL     1    -109.732 -37.076  10.533  1.00  0.00     0.146 A 
ATOM     11  O   UNL     1    -108.727 -37.085   9.666  1.00  0.00    -0.452 OA
ENDROOT
BRANCH   1  12
ATOM     12  C   UNL     1    -107.690 -37.072   7.490  1.00  0.00     0.029 A 
ATOM     13  C   UNL     1    -107.837 -37.052   6.095  1.00  0.00     0.062 A 
ATOM     14  C   UNL     1    -106.717 -37.074   5.258  1.00  0.00     0.162 A 
ATOM     15  C   UNL     1    -106.398 -37.078   8.041  1.00  0.00     0.062 A 
ATOM     16  C   UNL     1    -105.427 -37.100   5.814  1.00  0.00     0.200 A 
ATOM     17  C   UNL     1    -105.269 -37.097   7.211  1.00  0.00     0.162 A 
BRANCH  14  18
ATOM     18  O   UNL     1    -106.906 -37.067   3.877  1.00  0.00    -0.504 OA
ATOM     19  H   UNL     1    -107.703 -37.513   3.439  1.00  0.00     0.293 HD
ENDBRANCH  14  18
BRANCH  16  20
ATOM     20  O   UNL     1    -104.313 -37.124   4.972  1.00  0.00    -0.502 OA
ATOM     21  H   UNL     1    -104.197 -37.824   4.250  1.00  0.00     0.293 HD
ENDBRANCH  16  20
BRANCH  17  22
ATOM     22  O   UNL     1    -103.992 -37.109   7.769  1.00  0.00    -0.504 OA
ATOM     23  H   UNL     1    -103.226 -36.591   7.354  1.00  0.00     0.293 HD
ENDBRANCH  17  22
ENDBRANCH   1  12
BRANCH   2  24
ATOM     24  O   UNL     1    -110.370 -36.740   6.442  1.00  0.00    -0.502 OA
ATOM     25  H   UNL     1    -109.937 -37.356   5.764  1.00  0.00     0.293 HD
ENDBRANCH   2  24
BRANCH   6  26
ATOM     26  O   UNL     1    -113.481 -37.125  10.748  1.00  0.00    -0.507 OA
ATOM     27  H   UNL     1    -114.142 -36.378  10.897  1.00  0.00     0.293 HD
ENDBRANCH   6  26
BRANCH   8  28
ATOM     28  O   UNL     1    -110.143 -37.119  14.200  1.00  0.00    -0.508 OA
ATOM     29  H   UNL     1    -109.184 -37.185  14.519  1.00  0.00     0.293 HD
ENDBRANCH   8  28
TORSDOF 7
ENDMDL
MODEL 2
REMARK VINA RESULT:    -2.342      0.248      1.772
REMARK INTER + INTRA:          -2.380
REMARK INTER:                  -2.812
REMARK INTRA:                   0.432
REMARK UNBOUND:                 0.510
REMARK SMILES O=c1c(O)c(-c2cc(O)c(O)c(O)c2)oc2cc(O)cc(O)c12
REMARK SMILES IDX 5 1 3 2 2 3 1 4 23 5 21 6 20 7 18 8 17 9 16 10 15 11 6 12
REMARK SMILES IDX 7 13 8 14 14 15 10 16 12 17 9 18 11 20 13 22 4 24 22 26
REMARK SMILES IDX 19 28
REMARK H PARENT 9 19 11 21 13 23 4 25 22 27 19 29
REMARK Flexibility Score: inf
ROOT
ATOM      1  C   UNL     1    -109.035 -36.925   8.448  1.00  0.00     0.180 A 
ATOM      2  C   UNL     1    -110.360 -36.796   7.993  1.00  0.00     0.208 A 
ATOM      3  C   UNL     1    -111.405 -36.809   8.930  1.00  0.00     0.238 A 
ATOM      4  O   UNL     1    -112.584 -36.640   8.522  1.00  0.00    -0.285 OA
ATOM      5  C   UNL     1    -111.116 -36.966  10.308  1.00  0.00     0.111 A 
ATOM      6  C   UNL     1    -112.100 -37.033  11.340  1.00  0.00     0.134 A 
ATOM      7  C   UNL     1    -111.693 -37.058  12.680  1.00  0.00     0.093 A 
ATOM      8  C   UNL     1    -110.339 -37.084  13.021  1.00  0.00     0.123 A 
ATOM      9  C   UNL     1    -109.372 -37.079  12.020  1.00  0.00     0.094 A 
ATOM     10  C   UNL     1    -109.746 -37.018  10.674  1.00  0.00     0.146 A 
ATOM     11  O   UNL     1    -108.792 -37.003   9.751  1.00  0.00    -0.452 OA
ENDROOT
BRANCH   1  12
ATOM     12  C   UNL     1    -107.882 -36.945   7.519  1.00  0.00     0.029 A 
ATOM     13  C   UNL     1    -106.580 -37.001   8.037  1.00  0.00     0.062 A 
ATOM     14  C   UNL     1    -105.472 -37.042   7.184  1.00  0.00     0.162 A 
ATOM     15  C   UNL     1    -108.066 -36.967   6.127  1.00  0.00     0.062 A 
ATOM     16  C   UNL     1    -105.661 -37.042   5.791  1.00  0.00     0.200 A 
ATOM     17  C   UNL     1    -106.963 -37.010   5.263  1.00  0.00     0.162 A 
BRANCH  14  18
ATOM     18  O   UNL     1    -104.194 -37.083   7.737  1.00  0.00    -0.504 OA
ATOM     19  H   UNL     1    -103.554 -37.850   7.563  1.00  0.00     0.293 HD
ENDBRANCH  14  18
BRANCH  16  20
ATOM     20  O   UNL     1    -104.550 -37.081   4.945  1.00  0.00    -0.502 OA
ATOM     21  H   UNL     1    -103.603 -37.003   5.295  1.00  0.00     0.293 HD
ENDBRANCH  16  20
BRANCH  17  22
ATOM     22  O   UNL     1    -107.157 -37.024   3.883  1.00  0.00    -0.504 OA
ATOM     23  H   UNL     1    -106.447 -37.375   3.250  1.00  0.00     0.293 HD
ENDBRANCH  17  22
ENDBRANCH   1  12
BRANCH   2  24
ATOM     24  O   UNL     1    -110.621 -36.621   6.632  1.00  0.00    -0.502 OA
ATOM     25  H   UNL     1    -109.883 -36.505   5.948  1.00  0.00     0.293 HD
ENDBRANCH   2  24
BRANCH   6  26
ATOM     26  O   UNL     1    -113.475 -37.106  11.103  1.00  0.00    -0.507 OA
ATOM     27  H   UNL     1    -114.162 -36.491  11.512  1.00  0.00     0.293 HD
ENDBRANCH   6  26
BRANCH   8  28
ATOM     28  O   UNL     1    -109.944 -37.125  14.357  1.00  0.00    -0.508 OA
ATOM     29  H   UNL     1    -109.533 -37.957  14.763  1.00  0.00     0.293 HD
ENDBRANCH   8  28
TORSDOF 7
ENDMDL
MODEL 3
REMARK VINA RESULT:    -0.787      1.162      2.771
REMARK INTER + INTRA:          -0.461
REMARK INTER:                  -0.902
REMARK INTRA:                   0.442
REMARK UNBOUND:                 0.510
REMARK SMILES O=c1c(O)c(-c2cc(O)c(O)c(O)c2)oc2cc(O)cc(O)c12
REMARK SMILES IDX 5 1 3 2 2 3 1 4 23 5 21 6 20 7 18 8 17 9 16 10 15 11 6 12
REMARK SMILES IDX 7 13 8 14 14 15 10 16 12 17 9 18 11 20 13 22 4 24 22 26
REMARK SMILES IDX 19 28
REMARK H PARENT 9 19 11 21 13 23 4 25 22 27 19 29
REMARK Flexibility Score: inf
ROOT
ATOM      1  C   UNL     1    -108.560 -37.070   8.922  1.00  0.00     0.180 A 
ATOM      2  C   UNL     1    -108.179 -37.051  10.275  1.00  0.00     0.208 A 
ATOM      3  C   UNL     1    -109.176 -36.995  11.262  1.00  0.00     0.238 A 
ATOM      4  O   UNL     1    -108.831 -37.032  12.472  1.00  0.00    -0.285 OA
ATOM      5  C   UNL     1    -110.540 -36.943  10.884  1.00  0.00     0.111 A 
ATOM      6  C   UNL     1    -111.631 -36.844  11.800  1.00  0.00     0.134 A 
ATOM      7  C   UNL     1    -112.944 -36.931  11.320  1.00  0.00     0.093 A 
ATOM      8  C   UNL     1    -113.205 -37.049   9.953  1.00  0.00     0.123 A 
ATOM      9  C   UNL     1    -112.148 -37.086   9.047  1.00  0.00     0.094 A 
ATOM     10  C   UNL     1    -110.826 -37.037   9.498  1.00  0.00     0.146 A 
ATOM     11  O   UNL     1    -109.848 -37.087   8.601  1.00  0.00    -0.452 OA
ENDROOT
BRANCH   1  12
ATOM     12  C   UNL     1    -107.566 -37.104   7.824  1.00  0.00     0.029 A 
ATOM     13  C   UNL     1    -108.007 -37.078   6.493  1.00  0.00     0.062 A 
ATOM     14  C   UNL     1    -107.091 -37.088   5.436  1.00  0.00     0.162 A 
ATOM     15  C   UNL     1    -106.187 -37.103   8.088  1.00  0.00     0.062 A 
ATOM     16  C   UNL     1    -105.712 -37.109   5.705  1.00  0.00     0.200 A 
ATOM     17  C   UNL     1    -105.260 -37.111   7.036  1.00  0.00     0.162 A 
BRANCH  14  18
ATOM     18  O   UNL     1    -107.570 -37.077   4.127  1.00  0.00    -0.504 OA
ATOM     19  H   UNL     1    -106.950 -37.032   3.326  1.00  0.00     0.293 HD
ENDBRANCH  14  18
BRANCH  16  20
ATOM     20  O   UNL     1    -104.803 -37.121   4.645  1.00  0.00    -0.502 OA
ATOM     21  H   UNL     1    -103.971 -36.543   4.640  1.00  0.00     0.293 HD
ENDBRANCH  16  20
BRANCH  17  22
ATOM     22  O   UNL     1    -103.893 -37.116   7.309  1.00  0.00    -0.504 OA
ATOM     23  H   UNL     1    -103.488 -37.758   7.980  1.00  0.00     0.293 HD
ENDBRANCH  17  22
ENDBRANCH   1  12
BRANCH   2  24
ATOM     24  O   UNL     1    -106.829 -37.125  10.626  1.00  0.00    -0.502 OA
ATOM     25  H   UNL     1    -106.118 -37.453   9.983  1.00  0.00     0.293 HD
ENDBRANCH   2  24
BRANCH   6  26
ATOM     26  O   UNL     1    -111.480 -36.632  13.173  1.00  0.00    -0.507 OA
ATOM     27  H   UNL     1    -111.311 -35.735  13.601  1.00  0.00     0.293 HD
ENDBRANCH   6  26
BRANCH   8  28
ATOM     28  O   UNL     1    -114.515 -37.119   9.484  1.00  0.00    -0.508 OA
ATOM     29  H   UNL     1    -115.307 -37.057  10.112  1.00  0.00     0.293 HD
ENDBRANCH   8  28
TORSDOF 7
ENDMDL
