MODEL 1
REMARK VINA RESULT:    -3.625      0.000      0.000
REMARK INTER + INTRA:          -4.519
REMARK INTER:                  -4.473
REMARK INTRA:                  -0.047
REMARK UNBOUND:                -0.047
REMARK SMILES CCCCCC(=O)[O-]
REMARK SMILES IDX 4 1 5 2 6 3 7 4 8 5 3 6 2 7 1 8
REMARK H PARENT
REMARK Flexibility Score: inf
ROOT
ATOM      1  C   UNL     1      31.937   5.996  47.686  1.00  0.00     0.006 C 
ENDROOT
BRANCH   1   2
ATOM      2  C   UNL     1      33.042   6.946  47.193  1.00  0.00     0.053 C 
BRANCH   2   3
ATOM      3  C   UNL     1      33.881   6.341  46.109  1.00  0.00     0.041 C 
ATOM      4  O   UNL     1      33.765   6.739  44.920  1.00  0.00    -0.550 OA
ATOM      5  O   UNL     1      34.819   5.362  46.417  1.00  0.00    -0.550 OA
ENDBRANCH   2   3
ENDBRANCH   1   2
BRANCH   1   6
ATOM      6  C   UNL     1      30.551   6.655  47.798  1.00  0.00     0.000 C 
BRANCH   6   7
ATOM      7  C   UNL     1      29.585   5.877  48.703  1.00  0.00    -0.003 C 
ATOM      8  C   UNL     1      28.317   5.488  47.949  1.00  0.00     0.004 C 
ENDBRANCH   6   7
ENDBRANCH   1   6
TORSDOF 4
ENDMDL
MODEL 2
REMARK VINA RESULT:    -3.606      0.141      1.153
REMARK INTER + INTRA:          -4.495
REMARK INTER:                  -4.449
REMARK INTRA:                  -0.046
REMARK UNBOUND:                -0.047
REMARK SMILES CCCCCC(=O)[O-]
REMARK SMILES IDX 4 1 5 2 6 3 7 4 8 5 3 6 2 7 1 8
REMARK H PARENT
REMARK Flexibility Score: inf
ROOT
ATOM      1  C   UNL     1      31.871   5.907  47.759  1.00  0.00     0.006 C 
ENDROOT
BRANCH   1   2
ATOM      2  C   UNL     1      33.023   6.846  47.360  1.00  0.00     0.053 C 
BRANCH   2   3
ATOM      3  C   UNL     1      33.892   6.268  46.286  1.00  0.00     0.041 C 
ATOM      4  O   UNL     1      34.737   5.377  46.566  1.00  0.00    -0.550 OA
ATOM      5  O   UNL     1      33.746   6.687  44.969  1.00  0.00    -0.550 OA
ENDBRANCH   2   3
ENDBRANCH   1   2
BRANCH   1   6
ATOM      6  C   UNL     1      30.509   6.612  47.894  1.00  0.00     0.000 C 
BRANCH   6   7
ATOM      7  C   UNL     1      29.497   5.814  48.727  1.00  0.00    -0.003 C 
ATOM      8  C   UNL     1      28.274   5.438  47.895  1.00  0.00     0.004 C 
ENDBRANCH   6   7
ENDBRANCH   1   6
TORSDOF 4
ENDMDL
MODEL 3
REMARK VINA RESULT:    -3.513      3.247      4.923
REMARK INTER + INTRA:          -4.381
REMARK INTER:                  -4.317
REMARK INTRA:                  -0.064
REMARK UNBOUND:                -0.047
REMARK SMILES CCCCCC(=O)[O-]
REMARK SMILES IDX 4 1 5 2 6 3 7 4 8 5 3 6 2 7 1 8
REMARK H PARENT
REMARK Flexibility Score: inf
ROOT
ATOM      1  C   UNL     1      31.517   6.225  47.390  1.00  0.00     0.006 C 
ENDROOT
BRANCH   1   2
ATOM      2  C   UNL     1      30.418   7.003  48.133  1.00  0.00     0.053 C 
BRANCH   2   3
ATOM      3  C   UNL     1      29.322   6.114  48.637  1.00  0.00     0.041 C 
ATOM      4  O   UNL     1      29.308   5.746  49.841  1.00  0.00    -0.550 OA
ATOM      5  O   UNL     1      28.295   5.721  47.786  1.00  0.00    -0.550 OA
ENDBRANCH   2   3
ENDBRANCH   1   2
BRANCH   1   6
ATOM      6  C   UNL     1      32.918   6.851  47.513  1.00  0.00     0.000 C 
BRANCH   6   7
ATOM      7  C   UNL     1      33.951   6.205  46.580  1.00  0.00    -0.003 C 
ATOM      8  C   UNL     1      33.812   6.733  45.155  1.00  0.00     0.004 C 
ENDBRANCH   6   7
ENDBRANCH   1   6
TORSDOF 4
ENDMDL
MODEL 4
REMARK VINA RESULT:    -3.459      1.443      1.748
REMARK INTER + INTRA:          -4.315
REMARK INTER:                  -4.271
REMARK INTRA:                  -0.043
REMARK UNBOUND:                -0.047
REMARK SMILES CCCCCC(=O)[O-]
REMARK SMILES IDX 4 1 5 2 6 3 7 4 8 5 3 6 2 7 1 8
REMARK H PARENT
REMARK Flexibility Score: inf
ROOT
ATOM      1  C   UNL     1      32.568   5.444  47.993  1.00  0.00     0.006 C 
ENDROOT
BRANCH   1   2
ATOM      2  C   UNL     1      33.844   5.923  47.279  1.00  0.00     0.053 C 
BRANCH   2   3
ATOM      3  C   UNL     1      34.925   4.886  47.272  1.00  0.00     0.041 C 
ATOM      4  O   UNL     1      35.261   4.329  46.193  1.00  0.00    -0.550 OA
ATOM      5  O   UNL     1      35.588   4.559  48.449  1.00  0.00    -0.550 OA
ENDBRANCH   2   3
ENDBRANCH   1   2
BRANCH   1   6
ATOM      6  C   UNL     1      31.309   6.250  47.630  1.00  0.00     0.000 C 
BRANCH   6   7
ATOM      7  C   UNL     1      30.323   6.388  48.798  1.00  0.00    -0.003 C 
ATOM      8  C   UNL     1      28.984   5.733  48.469  1.00  0.00     0.004 C 
ENDBRANCH   6   7
ENDBRANCH   1   6
TORSDOF 4
ENDMDL
MODEL 5
REMARK VINA RESULT:    -3.415     16.212     17.324
REMARK INTER + INTRA:          -4.260
REMARK INTER:                  -4.102
REMARK INTRA:                  -0.158
REMARK UNBOUND:                -0.047
REMARK SMILES CCCCCC(=O)[O-]
REMARK SMILES IDX 4 1 5 2 6 3 7 4 8 5 3 6 2 7 1 8
REMARK H PARENT
REMARK Flexibility Score: inf
ROOT
ATOM      1  C   UNL     1      21.388  12.259  34.209  1.00  0.00     0.006 C 
ENDROOT
BRANCH   1   2
ATOM      2  C   UNL     1      21.081  12.856  35.594  1.00  0.00     0.053 C 
BRANCH   2   3
ATOM      3  C   UNL     1      19.724  12.472  36.099  1.00  0.00     0.041 C 
ATOM      4  O   UNL     1      18.898  13.362  36.434  1.00  0.00    -0.550 OA
ATOM      5  O   UNL     1      19.356  11.134  36.167  1.00  0.00    -0.550 OA
ENDBRANCH   2   3
ENDBRANCH   1   2
BRANCH   1   6
ATOM      6  C   UNL     1      22.344  11.053  34.246  1.00  0.00     0.000 C 
BRANCH   6   7
ATOM      7  C   UNL     1      22.868  10.743  35.655  1.00  0.00    -0.003 C 
ATOM      8  C   UNL     1      24.384  10.902  35.725  1.00  0.00     0.004 C 
ENDBRANCH   6   7
ENDBRANCH   1   6
TORSDOF 4
ENDMDL
MODEL 6
REMARK VINA RESULT:    -3.394      1.805      2.386
REMARK INTER + INTRA:          -4.234
REMARK INTER:                  -4.065
REMARK INTRA:                  -0.170
REMARK UNBOUND:                -0.047
REMARK SMILES CCCCCC(=O)[O-]
REMARK SMILES IDX 4 1 5 2 6 3 7 4 8 5 3 6 2 7 1 8
REMARK H PARENT
REMARK Flexibility Score: inf
ROOT
ATOM      1  C   UNL     1      31.201   6.349  47.493  1.00  0.00     0.006 C 
ENDROOT
BRANCH   1   2
ATOM      2  C   UNL     1      32.097   5.210  48.010  1.00  0.00     0.053 C 
BRANCH   2   3
ATOM      3  C   UNL     1      33.552   5.563  47.985  1.00  0.00     0.041 C 
ATOM      4  O   UNL     1      33.924   6.736  48.254  1.00  0.00    -0.550 OA
ATOM      5  O   UNL     1      34.503   4.591  47.698  1.00  0.00    -0.550 OA
ENDBRANCH   2   3
ENDBRANCH   1   2
BRANCH   1   6
ATOM      6  C   UNL     1      29.878   6.502  48.265  1.00  0.00     0.000 C 
BRANCH   6   7
ATOM      7  C   UNL     1      29.894   7.668  49.263  1.00  0.00    -0.003 C 
ATOM      8  C   UNL     1      31.009   8.657  48.936  1.00  0.00     0.004 C 
ENDBRANCH   6   7
ENDBRANCH   1   6
TORSDOF 4
ENDMDL
MODEL 7
REMARK VINA RESULT:    -3.344     16.099     17.065
REMARK INTER + INTRA:          -4.173
REMARK INTER:                  -3.929
REMARK INTRA:                  -0.244
REMARK UNBOUND:                -0.047
REMARK SMILES CCCCCC(=O)[O-]
REMARK SMILES IDX 4 1 5 2 6 3 7 4 8 5 3 6 2 7 1 8
REMARK H PARENT
REMARK Flexibility Score: inf
ROOT
ATOM      1  C   UNL     1      22.140  11.890  35.867  1.00  0.00     0.006 C 
ENDROOT
BRANCH   1   2
ATOM      2  C   UNL     1      22.375  10.415  35.498  1.00  0.00     0.053 C 
BRANCH   2   3
ATOM      3  C   UNL     1      21.097   9.665  35.276  1.00  0.00     0.041 C 
ATOM      4  O   UNL     1      20.823   9.204  34.137  1.00  0.00    -0.550 OA
ATOM      5  O   UNL     1      20.224   9.445  36.335  1.00  0.00    -0.550 OA
ENDBRANCH   2   3
ENDBRANCH   1   2
BRANCH   1   6
ATOM      6  C   UNL     1      21.282  12.660  34.846  1.00  0.00     0.000 C 
BRANCH   6   7
ATOM      7  C   UNL     1      20.289  13.629  35.503  1.00  0.00    -0.003 C 
ATOM      8  C   UNL     1      19.222  12.874  36.290  1.00  0.00     0.004 C 
ENDBRANCH   6   7
ENDBRANCH   1   6
TORSDOF 4
ENDMDL
MODEL 8
REMARK VINA RESULT:    -3.328     16.905     17.960
REMARK INTER + INTRA:          -4.153
REMARK INTER:                  -3.963
REMARK INTRA:                  -0.190
REMARK UNBOUND:                -0.047
REMARK SMILES CCCCCC(=O)[O-]
REMARK SMILES IDX 4 1 5 2 6 3 7 4 8 5 3 6 2 7 1 8
REMARK H PARENT
REMARK Flexibility Score: inf
ROOT
ATOM      1  C   UNL     1      21.249  12.978  35.640  1.00  0.00     0.006 C 
ENDROOT
BRANCH   1   2
ATOM      2  C   UNL     1      20.387  13.834  34.697  1.00  0.00     0.053 C 
BRANCH   2   3
ATOM      3  C   UNL     1      21.037  14.057  33.366  1.00  0.00     0.041 C 
ATOM      4  O   UNL     1      21.093  15.215  32.874  1.00  0.00    -0.550 OA
ATOM      5  O   UNL     1      21.612  12.992  32.682  1.00  0.00    -0.550 OA
ENDBRANCH   2   3
ENDBRANCH   1   2
BRANCH   1   6
ATOM      6  C   UNL     1      20.732  11.539  35.825  1.00  0.00     0.000 C 
BRANCH   6   7
ATOM      7  C   UNL     1      21.851  10.489  35.801  1.00  0.00    -0.003 C 
ATOM      8  C   UNL     1      23.209  11.138  35.548  1.00  0.00     0.004 C 
ENDBRANCH   6   7
ENDBRANCH   1   6
TORSDOF 4
ENDMDL
MODEL 9
REMARK VINA RESULT:    -3.275     16.119     17.222
REMARK INTER + INTRA:          -4.087
REMARK INTER:                  -3.856
REMARK INTRA:                  -0.232
REMARK UNBOUND:                -0.047
REMARK SMILES CCCCCC(=O)[O-]
REMARK SMILES IDX 4 1 5 2 6 3 7 4 8 5 3 6 2 7 1 8
REMARK H PARENT
REMARK Flexibility Score: inf
ROOT
ATOM      1  C   UNL     1      20.172  11.163  35.553  1.00  0.00     0.006 C 
ENDROOT
BRANCH   1   2
ATOM      2  C   UNL     1      21.535  10.540  35.900  1.00  0.00     0.053 C 
BRANCH   2   3
ATOM      3  C   UNL     1      22.629  11.004  34.987  1.00  0.00     0.041 C 
ATOM      4  O   UNL     1      23.816  11.070  35.404  1.00  0.00    -0.550 OA
ATOM      5  O   UNL     1      22.346  11.329  33.666  1.00  0.00    -0.550 OA
ENDBRANCH   2   3
ENDBRANCH   1   2
BRANCH   1   6
ATOM      6  C   UNL     1      20.001  12.610  36.052  1.00  0.00     0.000 C 
BRANCH   6   7
ATOM      7  C   UNL     1      19.560  13.580  34.948  1.00  0.00    -0.003 C 
ATOM      8  C   UNL     1      20.748  14.366  34.399  1.00  0.00     0.004 C 
ENDBRANCH   6   7
ENDBRANCH   1   6
TORSDOF 4
ENDMDL
