MODEL 1
REMARK VINA RESULT:    73.969      0.000      0.000
REMARK INTER + INTRA:         103.598
REMARK INTER:                  99.914
REMARK INTRA:                   3.684
REMARK UNBOUND:                 3.684
REMARK SMILES O=c1c(-c2ccc(O)cc2)coc2c([C@@H]3O[C@H](CO)[C@H](O)[C@@H](O)[C@@H]3O)c(O)ccc12
REMARK SMILES IDX 3 1 11 2 12 3 13 4 30 5 2 6 1 7 29 8 28 9 26 10 14 11 4 12
REMARK SMILES IDX 5 13 6 14 7 15 10 16 9 17 8 18 15 20 24 21 16 22 22 23 17 24
REMARK SMILES IDX 20 25 25 26 23 28 18 30 19 31 21 33 27 35
REMARK H PARENT 8 19 25 27 23 29 19 32 21 34 27 36
REMARK Flexibility Score: inf
ROOT
ATOM      1  C   UNL     1       7.655  -3.304  17.566  1.00  0.00     0.065 A 
ATOM      2  C   UNL     1       8.477  -2.765  18.564  1.00  0.00     0.208 A 
ATOM      3  O   UNL     1       9.367  -1.823  18.280  1.00  0.00    -0.463 OA
ATOM      4  C   UNL     1       9.547  -1.317  17.068  1.00  0.00     0.147 A 
ATOM      5  C   UNL     1       8.763  -1.812  15.996  1.00  0.00     0.066 A 
ATOM      6  C   UNL     1       7.818  -2.824  16.254  1.00  0.00     0.200 A 
ATOM      7  O   UNL     1       7.132  -3.307  15.309  1.00  0.00    -0.288 OA
ATOM      8  C   UNL     1       8.938  -1.291  14.707  1.00  0.00     0.020 A 
ATOM      9  C   UNL     1       9.875  -0.292  14.477  1.00  0.00     0.047 A 
ATOM     10  C   UNL     1      10.657   0.205  15.521  1.00  0.00     0.125 A 
ATOM     11  C   UNL     1      10.516  -0.296  16.840  1.00  0.00     0.069 A 
ENDROOT
BRANCH   1  12
ATOM     12  C   UNL     1       6.647  -4.342  17.914  1.00  0.00    -0.011 A 
ATOM     13  C   UNL     1       7.056  -5.594  18.407  1.00  0.00     0.013 A 
ATOM     14  C   UNL     1       6.112  -6.567  18.748  1.00  0.00     0.047 A 
ATOM     15  C   UNL     1       4.747  -6.302  18.608  1.00  0.00     0.115 A 
ATOM     16  C   UNL     1       5.269  -4.075  17.801  1.00  0.00     0.013 A 
ATOM     17  C   UNL     1       4.328  -5.050  18.144  1.00  0.00     0.047 A 
BRANCH  15  18
ATOM     18  O   UNL     1       3.819  -7.287  18.935  1.00  0.00    -0.508 OA
ATOM     19  H   UNL     1       3.026  -7.086  19.529  1.00  0.00     0.293 HD
ENDBRANCH  15  18
ENDBRANCH   1  12
BRANCH  11  20
ATOM     20  C   UNL     1      11.443   0.313  17.911  1.00  0.00     0.188 C 
ATOM     21  C   UNL     1      12.173   1.670  17.695  1.00  0.00     0.179 C 
ATOM     22  O   UNL     1      10.881   0.179  19.214  1.00  0.00    -0.362 OA
ATOM     23  C   UNL     1      11.320   2.878  18.141  1.00  0.00     0.177 C 
ATOM     24  C   UNL     1      10.055   1.261  19.627  1.00  0.00     0.176 C 
ATOM     25  C   UNL     1      10.782   2.626  19.553  1.00  0.00     0.177 C 
BRANCH  21  26
ATOM     26  O   UNL     1      12.623   1.796  16.370  1.00  0.00    -0.387 OA
ATOM     27  H   UNL     1      12.632   0.883  15.975  1.00  0.00     0.211 HD
ENDBRANCH  21  26
BRANCH  23  28
ATOM     28  O   UNL     1      12.071   4.068  18.109  1.00  0.00    -0.387 OA
ATOM     29  H   UNL     1      12.155   4.350  17.159  1.00  0.00     0.211 HD
ENDBRANCH  23  28
BRANCH  24  30
ATOM     30  C   UNL     1       8.663   1.239  18.963  1.00  0.00     0.191 C 
BRANCH  30  31
ATOM     31  O   UNL     1       7.926   0.143  19.443  1.00  0.00    -0.394 OA
ATOM     32  H   UNL     1       7.992  -0.578  18.765  1.00  0.00     0.210 HD
ENDBRANCH  30  31
ENDBRANCH  24  30
BRANCH  25  33
ATOM     33  O   UNL     1       9.928   3.677  19.928  1.00  0.00    -0.388 OA
ATOM     34  H   UNL     1       9.311   3.826  19.164  1.00  0.00     0.211 HD
ENDBRANCH  25  33
ENDBRANCH  11  20
BRANCH  10  35
ATOM     35  O   UNL     1      11.590   1.208  15.248  1.00  0.00    -0.507 OA
ATOM     36  H   UNL     1      11.368   2.189  15.365  1.00  0.00     0.293 HD
ENDBRANCH  10  35
TORSDOF 9
ENDMDL
