MODEL 1
REMARK VINA RESULT:    -6.612      0.000      0.000
REMARK INTER + INTRA:         -10.236
REMARK INTER:                  -8.931
REMARK INTRA:                  -1.304
REMARK UNBOUND:                -1.304
REMARK SMILES CC[C@H](CC[C@H](C)[C@@H]1CC[C@H]2[C@H]3CC(=O)C4=CC(=O)CC[C@@]4(C)[C@@H]3CC[C@]21C)C(C)C
REMARK SMILES IDX 4 1 3 2 2 3 1 4 29 5 30 6 31 7 5 8 6 9 7 10 8 11 9 12 27 13
REMARK SMILES IDX 10 14 11 15 26 16 28 17 12 18 25 19 24 20 13 21 22 22 14 23
REMARK SMILES IDX 16 24 21 25 23 26 15 27 17 28 20 29 18 30 19 31
REMARK H PARENT
REMARK Flexibility Score: inf
ROOT
ATOM      1  C   UNL     1       4.103  34.217  66.956  1.00  0.00     0.004 C 
ENDROOT
BRANCH   1   2
ATOM      2  C   UNL     1       5.444  34.394  67.729  1.00  0.00    -0.009 C 
BRANCH   2   3
ATOM      3  C   UNL     1       6.656  34.053  66.816  1.00  0.00     0.000 C 
ATOM      4  C   UNL     1       6.708  34.886  65.528  1.00  0.00     0.004 C 
ENDBRANCH   2   3
BRANCH   2   5
ATOM      5  C   UNL     1       5.520  35.828  68.395  1.00  0.00    -0.014 C 
ATOM      6  C   UNL     1       4.462  35.978  69.500  1.00  0.00     0.007 C 
ATOM      7  C   UNL     1       6.897  36.247  68.944  1.00  0.00     0.007 C 
ENDBRANCH   2   5
ENDBRANCH   1   2
BRANCH   1   8
ATOM      8  C   UNL     1       3.850  32.785  66.421  1.00  0.00     0.004 C 
BRANCH   8   9
ATOM      9  C   UNL     1       3.134  31.806  67.400  1.00  0.00    -0.011 C 
ATOM     10  C   UNL     1       2.279  32.609  68.406  1.00  0.00     0.008 C 
BRANCH   9  11
ATOM     11  C   UNL     1       4.092  30.810  68.186  1.00  0.00    -0.002 C 
ATOM     12  C   UNL     1       5.510  30.684  67.582  1.00  0.00     0.005 C 
ATOM     13  C   UNL     1       3.604  29.313  68.220  1.00  0.00    -0.026 C 
ATOM     14  C   UNL     1       5.487  29.475  66.650  1.00  0.00     0.005 C 
ATOM     15  C   UNL     1       4.143  28.756  66.884  1.00  0.00    -0.001 C 
ATOM     16  C   UNL     1       4.275  28.580  69.428  1.00  0.00     0.007 C 
ATOM     17  C   UNL     1       2.064  29.122  68.331  1.00  0.00     0.012 C 
ATOM     18  C   UNL     1       4.188  27.198  66.795  1.00  0.00     0.004 C 
ATOM     19  C   UNL     1       4.218  27.052  69.328  1.00  0.00     0.005 C 
ATOM     20  C   UNL     1       4.876  26.532  68.023  1.00  0.00     0.003 C 
ATOM     21  C   UNL     1       4.827  26.757  65.465  1.00  0.00     0.085 C 
ATOM     22  C   UNL     1       4.903  24.948  67.942  1.00  0.00    -0.000 C 
ATOM     23  C   UNL     1       4.935  25.274  65.368  1.00  0.00     0.159 C 
ATOM     24  C   UNL     1       5.355  24.493  66.549  1.00  0.00     0.005 C 
ATOM     25  C   UNL     1       5.903  24.402  69.012  1.00  0.00     0.020 C 
ATOM     26  C   UNL     1       3.499  24.336  68.193  1.00  0.00     0.017 C 
ATOM     27  O   UNL     1       4.758  24.711  64.252  1.00  0.00    -0.295 OA
ATOM     28  C   UNL     1       6.024  23.340  66.365  1.00  0.00     0.055 C 
ATOM     29  C   UNL     1       6.146  22.892  68.900  1.00  0.00     0.081 C 
ATOM     30  C   UNL     1       6.461  22.504  67.491  1.00  0.00     0.156 C 
ATOM     31  O   UNL     1       7.073  21.426  67.264  1.00  0.00    -0.295 OA
ENDBRANCH   9  11
ENDBRANCH   8   9
ENDBRANCH   1   8
TORSDOF 6
ENDMDL
MODEL 2
REMARK VINA RESULT:    -6.430      1.249      1.685
REMARK INTER + INTRA:          -9.990
REMARK INTER:                  -8.628
REMARK INTRA:                  -1.363
REMARK UNBOUND:                -1.304
REMARK SMILES CC[C@H](CC[C@H](C)[C@@H]1CC[C@H]2[C@H]3CC(=O)C4=CC(=O)CC[C@@]4(C)[C@@H]3CC[C@]21C)C(C)C
REMARK SMILES IDX 4 1 3 2 2 3 1 4 29 5 30 6 31 7 5 8 6 9 7 10 8 11 9 12 27 13
REMARK SMILES IDX 10 14 11 15 26 16 28 17 12 18 25 19 24 20 13 21 22 22 14 23
REMARK SMILES IDX 16 24 21 25 23 26 15 27 17 28 20 29 18 30 19 31
REMARK H PARENT
REMARK Flexibility Score: inf
ROOT
ATOM      1  C   UNL     1       5.467  34.903  65.697  1.00  0.00     0.004 C 
ENDROOT
BRANCH   1   2
ATOM      2  C   UNL     1       6.889  34.780  66.319  1.00  0.00    -0.009 C 
BRANCH   2   3
ATOM      3  C   UNL     1       7.984  35.057  65.249  1.00  0.00     0.000 C 
ATOM      4  C   UNL     1       7.541  36.036  64.155  1.00  0.00     0.004 C 
ENDBRANCH   2   3
BRANCH   2   5
ATOM      5  C   UNL     1       7.011  35.680  67.616  1.00  0.00    -0.014 C 
ATOM      6  C   UNL     1       5.712  35.643  68.436  1.00  0.00     0.007 C 
ATOM      7  C   UNL     1       8.208  35.379  68.539  1.00  0.00     0.007 C 
ENDBRANCH   2   5
ENDBRANCH   1   2
BRANCH   1   8
ATOM      8  C   UNL     1       4.862  33.566  65.199  1.00  0.00     0.004 C 
BRANCH   8   9
ATOM      9  C   UNL     1       3.716  32.968  66.069  1.00  0.00    -0.011 C 
ATOM     10  C   UNL     1       2.798  34.103  66.573  1.00  0.00     0.008 C 
BRANCH   9  11
ATOM     11  C   UNL     1       4.190  32.076  67.296  1.00  0.00    -0.002 C 
ATOM     12  C   UNL     1       5.707  31.775  67.314  1.00  0.00     0.005 C 
ATOM     13  C   UNL     1       3.558  30.635  67.349  1.00  0.00    -0.026 C 
ATOM     14  C   UNL     1       5.897  30.425  66.626  1.00  0.00     0.005 C 
ATOM     15  C   UNL     1       4.491  29.827  66.420  1.00  0.00    -0.001 C 
ATOM     16  C   UNL     1       3.640  30.089  68.813  1.00  0.00     0.007 C 
ATOM     17  C   UNL     1       2.077  30.544  66.879  1.00  0.00     0.012 C 
ATOM     18  C   UNL     1       4.389  28.277  66.575  1.00  0.00     0.004 C 
ATOM     19  C   UNL     1       3.451  28.572  68.915  1.00  0.00     0.005 C 
ATOM     20  C   UNL     1       4.486  27.801  68.054  1.00  0.00     0.003 C 
ATOM     21  C   UNL     1       5.424  27.579  65.674  1.00  0.00     0.085 C 
ATOM     22  C   UNL     1       4.361  26.227  68.214  1.00  0.00    -0.000 C 
ATOM     23  C   UNL     1       5.391  26.099  65.836  1.00  0.00     0.159 C 
ATOM     24  C   UNL     1       5.247  25.515  67.185  1.00  0.00     0.005 C 
ATOM     25  C   UNL     1       4.819  25.825  69.653  1.00  0.00     0.020 C 
ATOM     26  C   UNL     1       2.905  25.740  67.985  1.00  0.00     0.017 C 
ATOM     27  O   UNL     1       5.582  25.360  64.830  1.00  0.00    -0.295 OA
ATOM     28  C   UNL     1       5.801  24.315  67.439  1.00  0.00     0.055 C 
ATOM     29  C   UNL     1       4.913  24.309  69.858  1.00  0.00     0.081 C 
ATOM     30  C   UNL     1       5.686  23.666  68.752  1.00  0.00     0.156 C 
ATOM     31  O   UNL     1       6.212  22.535  68.934  1.00  0.00    -0.295 OA
ENDBRANCH   9  11
ENDBRANCH   8   9
ENDBRANCH   1   8
TORSDOF 6
ENDMDL
MODEL 3
REMARK VINA RESULT:    -6.423      0.584      1.502
REMARK INTER + INTRA:          -9.981
REMARK INTER:                  -8.589
REMARK INTRA:                  -1.391
REMARK UNBOUND:                -1.304
REMARK SMILES CC[C@H](CC[C@H](C)[C@@H]1CC[C@H]2[C@H]3CC(=O)C4=CC(=O)CC[C@@]4(C)[C@@H]3CC[C@]21C)C(C)C
REMARK SMILES IDX 4 1 3 2 2 3 1 4 29 5 30 6 31 7 5 8 6 9 7 10 8 11 9 12 27 13
REMARK SMILES IDX 10 14 11 15 26 16 28 17 12 18 25 19 24 20 13 21 22 22 14 23
REMARK SMILES IDX 16 24 21 25 23 26 15 27 17 28 20 29 18 30 19 31
REMARK H PARENT
REMARK Flexibility Score: inf
ROOT
ATOM      1  C   UNL     1       3.494  34.197  66.513  1.00  0.00     0.004 C 
ENDROOT
BRANCH   1   2
ATOM      2  C   UNL     1       4.813  35.023  66.581  1.00  0.00    -0.009 C 
BRANCH   2   3
ATOM      3  C   UNL     1       4.744  36.077  67.722  1.00  0.00     0.000 C 
ATOM      4  C   UNL     1       3.867  35.648  68.905  1.00  0.00     0.004 C 
ENDBRANCH   2   3
BRANCH   2   5
ATOM      5  C   UNL     1       6.069  34.063  66.664  1.00  0.00    -0.014 C 
ATOM      6  C   UNL     1       6.766  33.949  65.298  1.00  0.00     0.007 C 
ATOM      7  C   UNL     1       7.112  34.404  67.745  1.00  0.00     0.007 C 
ENDBRANCH   2   5
ENDBRANCH   1   2
BRANCH   1   8
ATOM      8  C   UNL     1       3.694  32.675  66.310  1.00  0.00     0.004 C 
BRANCH   8   9
ATOM      9  C   UNL     1       3.047  31.750  67.385  1.00  0.00    -0.011 C 
ATOM     10  C   UNL     1       2.283  32.608  68.417  1.00  0.00     0.008 C 
BRANCH   9  11
ATOM     11  C   UNL     1       4.054  30.776  68.137  1.00  0.00    -0.002 C 
ATOM     12  C   UNL     1       5.444  30.659  67.467  1.00  0.00     0.005 C 
ATOM     13  C   UNL     1       3.587  29.274  68.214  1.00  0.00    -0.026 C 
ATOM     14  C   UNL     1       5.391  29.437  66.553  1.00  0.00     0.005 C 
ATOM     15  C   UNL     1       4.069  28.705  66.860  1.00  0.00    -0.001 C 
ATOM     16  C   UNL     1       4.324  28.565  69.397  1.00  0.00     0.007 C 
ATOM     17  C   UNL     1       2.056  29.066  68.400  1.00  0.00     0.012 C 
ATOM     18  C   UNL     1       4.129  27.147  66.789  1.00  0.00     0.004 C 
ATOM     19  C   UNL     1       4.282  27.036  69.320  1.00  0.00     0.005 C 
ATOM     20  C   UNL     1       4.883  26.506  67.991  1.00  0.00     0.003 C 
ATOM     21  C   UNL     1       4.710  26.696  65.436  1.00  0.00     0.085 C 
ATOM     22  C   UNL     1       4.926  24.921  67.929  1.00  0.00    -0.000 C 
ATOM     23  C   UNL     1       4.832  25.213  65.353  1.00  0.00     0.159 C 
ATOM     24  C   UNL     1       5.317  24.453  66.522  1.00  0.00     0.005 C 
ATOM     25  C   UNL     1       5.983  24.402  68.957  1.00  0.00     0.020 C 
ATOM     26  C   UNL     1       3.543  24.296  68.256  1.00  0.00     0.017 C 
ATOM     27  O   UNL     1       4.609  24.633  64.254  1.00  0.00    -0.295 OA
ATOM     28  C   UNL     1       5.991  23.306  66.322  1.00  0.00     0.055 C 
ATOM     29  C   UNL     1       6.239  22.894  68.853  1.00  0.00     0.081 C 
ATOM     30  C   UNL     1       6.491  22.490  67.436  1.00  0.00     0.156 C 
ATOM     31  O   UNL     1       7.106  21.417  67.194  1.00  0.00    -0.295 OA
ENDBRANCH   9  11
ENDBRANCH   8   9
ENDBRANCH   1   8
TORSDOF 6
ENDMDL
MODEL 4
REMARK VINA RESULT:    -6.280      3.521      9.163
REMARK INTER + INTRA:          -9.787
REMARK INTER:                  -8.201
REMARK INTRA:                  -1.585
REMARK UNBOUND:                -1.304
REMARK SMILES CC[C@H](CC[C@H](C)[C@@H]1CC[C@H]2[C@H]3CC(=O)C4=CC(=O)CC[C@@]4(C)[C@@H]3CC[C@]21C)C(C)C
REMARK SMILES IDX 4 1 3 2 2 3 1 4 29 5 30 6 31 7 5 8 6 9 7 10 8 11 9 12 27 13
REMARK SMILES IDX 10 14 11 15 26 16 28 17 12 18 25 19 24 20 13 21 22 22 14 23
REMARK SMILES IDX 16 24 21 25 23 26 15 27 17 28 20 29 18 30 19 31
REMARK H PARENT
REMARK Flexibility Score: inf
ROOT
ATOM      1  C   UNL     1       2.315  24.993  68.043  1.00  0.00     0.004 C 
ENDROOT
BRANCH   1   2
ATOM      2  C   UNL     1       3.305  24.793  69.229  1.00  0.00    -0.009 C 
BRANCH   2   3
ATOM      3  C   UNL     1       2.554  24.284  70.492  1.00  0.00     0.000 C 
ATOM      4  C   UNL     1       2.309  25.374  71.543  1.00  0.00     0.004 C 
ENDBRANCH   2   3
BRANCH   2   5
ATOM      5  C   UNL     1       4.525  23.884  68.792  1.00  0.00    -0.014 C 
ATOM      6  C   UNL     1       5.619  24.721  68.110  1.00  0.00     0.007 C 
ATOM      7  C   UNL     1       5.156  23.020  69.901  1.00  0.00     0.007 C 
ENDBRANCH   2   5
ENDBRANCH   1   2
BRANCH   1   8
ATOM      8  C   UNL     1       1.978  26.471  67.725  1.00  0.00     0.004 C 
BRANCH   8   9
ATOM      9  C   UNL     1       2.781  27.120  66.557  1.00  0.00    -0.011 C 
ATOM     10  C   UNL     1       3.199  26.031  65.544  1.00  0.00     0.008 C 
BRANCH   9  11
ATOM     11  C   UNL     1       4.056  27.961  66.996  1.00  0.00    -0.002 C 
ATOM     12  C   UNL     1       4.140  28.242  68.515  1.00  0.00     0.005 C 
ATOM     13  C   UNL     1       4.137  29.408  66.380  1.00  0.00    -0.026 C 
ATOM     14  C   UNL     1       3.508  29.613  68.746  1.00  0.00     0.005 C 
ATOM     15  C   UNL     1       3.272  30.236  67.356  1.00  0.00    -0.001 C 
ATOM     16  C   UNL     1       5.622  29.901  66.415  1.00  0.00     0.007 C 
ATOM     17  C   UNL     1       3.618  29.535  64.919  1.00  0.00     0.012 C 
ATOM     18  C   UNL     1       3.478  31.781  67.267  1.00  0.00     0.004 C 
ATOM     19  C   UNL     1       5.770  31.415  66.240  1.00  0.00     0.005 C 
ATOM     20  C   UNL     1       4.976  32.203  67.315  1.00  0.00     0.003 C 
ATOM     21  C   UNL     1       2.641  32.496  68.343  1.00  0.00     0.085 C 
ATOM     22  C   UNL     1       5.187  33.772  67.203  1.00  0.00    -0.000 C 
ATOM     23  C   UNL     1       2.855  33.970  68.322  1.00  0.00     0.159 C 
ATOM     24  C   UNL     1       4.217  34.508  68.135  1.00  0.00     0.005 C 
ATOM     25  C   UNL     1       6.656  34.117  67.612  1.00  0.00     0.020 C 
ATOM     26  C   UNL     1       4.923  34.286  65.763  1.00  0.00     0.017 C 
ATOM     27  O   UNL     1       1.884  34.741  68.559  1.00  0.00    -0.295 OA
ATOM     28  C   UNL     1       4.534  35.691  68.693  1.00  0.00     0.055 C 
ATOM     29  C   UNL     1       6.918  35.624  67.717  1.00  0.00     0.081 C 
ATOM     30  C   UNL     1       5.864  36.295  68.537  1.00  0.00     0.156 C 
ATOM     31  O   UNL     1       6.106  37.411  69.070  1.00  0.00    -0.295 OA
ENDBRANCH   9  11
ENDBRANCH   8   9
ENDBRANCH   1   8
TORSDOF 6
ENDMDL
MODEL 5
REMARK VINA RESULT:    -6.215      3.381      6.424
REMARK INTER + INTRA:          -9.700
REMARK INTER:                  -7.392
REMARK INTRA:                  -2.308
REMARK UNBOUND:                -1.304
REMARK SMILES CC[C@H](CC[C@H](C)[C@@H]1CC[C@H]2[C@H]3CC(=O)C4=CC(=O)CC[C@@]4(C)[C@@H]3CC[C@]21C)C(C)C
REMARK SMILES IDX 4 1 3 2 2 3 1 4 29 5 30 6 31 7 5 8 6 9 7 10 8 11 9 12 27 13
REMARK SMILES IDX 10 14 11 15 26 16 28 17 12 18 25 19 24 20 13 21 22 22 14 23
REMARK SMILES IDX 16 24 21 25 23 26 15 27 17 28 20 29 18 30 19 31
REMARK H PARENT
REMARK Flexibility Score: inf
ROOT
ATOM      1  C   UNL     1       5.443  39.720  67.921  1.00  0.00     0.004 C 
ENDROOT
BRANCH   1   2
ATOM      2  C   UNL     1       6.120  38.689  66.969  1.00  0.00    -0.009 C 
BRANCH   2   3
ATOM      3  C   UNL     1       5.532  38.796  65.533  1.00  0.00     0.000 C 
ATOM      4  C   UNL     1       4.098  38.265  65.414  1.00  0.00     0.004 C 
ENDBRANCH   2   3
BRANCH   2   5
ATOM      5  C   UNL     1       7.696  38.821  67.034  1.00  0.00    -0.014 C 
ATOM      6  C   UNL     1       8.115  40.272  67.319  1.00  0.00     0.007 C 
ATOM      7  C   UNL     1       8.415  37.878  68.017  1.00  0.00     0.007 C 
ENDBRANCH   2   5
ENDBRANCH   1   2
BRANCH   1   8
ATOM      8  C   UNL     1       4.879  39.116  69.231  1.00  0.00     0.004 C 
BRANCH   8   9
ATOM      9  C   UNL     1       3.567  38.285  69.093  1.00  0.00    -0.011 C 
ATOM     10  C   UNL     1       2.418  38.998  69.838  1.00  0.00     0.008 C 
BRANCH   9  11
ATOM     11  C   UNL     1       3.666  36.775  69.579  1.00  0.00    -0.002 C 
ATOM     12  C   UNL     1       5.109  36.289  69.855  1.00  0.00     0.005 C 
ATOM     13  C   UNL     1       3.144  35.711  68.541  1.00  0.00    -0.026 C 
ATOM     14  C   UNL     1       5.599  35.612  68.577  1.00  0.00     0.005 C 
ATOM     15  C   UNL     1       4.380  35.488  67.641  1.00  0.00    -0.001 C 
ATOM     16  C   UNL     1       2.774  34.392  69.297  1.00  0.00     0.007 C 
ATOM     17  C   UNL     1       1.909  36.154  67.704  1.00  0.00     0.012 C 
ATOM     18  C   UNL     1       4.330  34.195  66.768  1.00  0.00     0.004 C 
ATOM     19  C   UNL     1       2.658  33.171  68.380  1.00  0.00     0.005 C 
ATOM     20  C   UNL     1       3.964  32.919  67.582  1.00  0.00     0.003 C 
ATOM     21  C   UNL     1       5.646  34.025  65.988  1.00  0.00     0.085 C 
ATOM     22  C   UNL     1       3.893  31.608  66.691  1.00  0.00    -0.000 C 
ATOM     23  C   UNL     1       5.655  32.771  65.183  1.00  0.00     0.159 C 
ATOM     24  C   UNL     1       5.111  31.527  65.764  1.00  0.00     0.005 C 
ATOM     25  C   UNL     1       3.876  30.357  67.629  1.00  0.00     0.020 C 
ATOM     26  C   UNL     1       2.628  31.592  65.793  1.00  0.00     0.017 C 
ATOM     27  O   UNL     1       6.212  32.765  64.051  1.00  0.00    -0.295 OA
ATOM     28  C   UNL     1       5.625  30.346  65.373  1.00  0.00     0.055 C 
ATOM     29  C   UNL     1       3.993  29.030  66.872  1.00  0.00     0.081 C 
ATOM     30  C   UNL     1       5.125  29.067  65.896  1.00  0.00     0.156 C 
ATOM     31  O   UNL     1       5.632  27.988  65.488  1.00  0.00    -0.295 OA
ENDBRANCH   9  11
ENDBRANCH   8   9
ENDBRANCH   1   8
TORSDOF 6
ENDMDL
MODEL 6
REMARK VINA RESULT:    -5.985      4.473     10.615
REMARK INTER + INTRA:          -9.389
REMARK INTER:                  -8.194
REMARK INTRA:                  -1.195
REMARK UNBOUND:                -1.304
REMARK SMILES CC[C@H](CC[C@H](C)[C@@H]1CC[C@H]2[C@H]3CC(=O)C4=CC(=O)CC[C@@]4(C)[C@@H]3CC[C@]21C)C(C)C
REMARK SMILES IDX 4 1 3 2 2 3 1 4 29 5 30 6 31 7 5 8 6 9 7 10 8 11 9 12 27 13
REMARK SMILES IDX 10 14 11 15 26 16 28 17 12 18 25 19 24 20 13 21 22 22 14 23
REMARK SMILES IDX 16 24 21 25 23 26 15 27 17 28 20 29 18 30 19 31
REMARK H PARENT
REMARK Flexibility Score: inf
ROOT
ATOM      1  C   UNL     1       4.424  29.447  68.946  1.00  0.00     0.004 C 
ENDROOT
BRANCH   1   2
ATOM      2  C   UNL     1       4.507  27.955  68.509  1.00  0.00    -0.009 C 
BRANCH   2   3
ATOM      3  C   UNL     1       3.894  27.028  69.597  1.00  0.00     0.000 C 
ATOM      4  C   UNL     1       4.760  25.805  69.922  1.00  0.00     0.004 C 
ENDBRANCH   2   3
BRANCH   2   5
ATOM      5  C   UNL     1       3.883  27.759  67.067  1.00  0.00    -0.014 C 
ATOM      6  C   UNL     1       4.868  27.037  66.134  1.00  0.00     0.007 C 
ATOM      7  C   UNL     1       2.515  27.053  67.012  1.00  0.00     0.007 C 
ENDBRANCH   2   5
ENDBRANCH   1   2
BRANCH   1   8
ATOM      8  C   UNL     1       4.635  30.469  67.800  1.00  0.00     0.004 C 
BRANCH   8   9
ATOM      9  C   UNL     1       3.648  31.675  67.769  1.00  0.00    -0.011 C 
ATOM     10  C   UNL     1       2.212  31.167  67.512  1.00  0.00     0.008 C 
BRANCH   9  11
ATOM     11  C   UNL     1       4.008  32.819  66.725  1.00  0.00    -0.002 C 
ATOM     12  C   UNL     1       5.348  32.603  65.983  1.00  0.00     0.005 C 
ATOM     13  C   UNL     1       4.194  34.251  67.352  1.00  0.00    -0.026 C 
ATOM     14  C   UNL     1       6.412  33.373  66.761  1.00  0.00     0.005 C 
ATOM     15  C   UNL     1       5.670  34.225  67.810  1.00  0.00    -0.001 C 
ATOM     16  C   UNL     1       3.987  35.332  66.240  1.00  0.00     0.007 C 
ATOM     17  C   UNL     1       3.242  34.584  68.537  1.00  0.00     0.012 C 
ATOM     18  C   UNL     1       6.291  35.627  68.100  1.00  0.00     0.004 C 
ATOM     19  C   UNL     1       4.544  36.710  66.612  1.00  0.00     0.005 C 
ATOM     20  C   UNL     1       6.056  36.652  66.952  1.00  0.00     0.003 C 
ATOM     21  C   UNL     1       7.783  35.488  68.455  1.00  0.00     0.085 C 
ATOM     22  C   UNL     1       6.669  38.083  67.256  1.00  0.00    -0.000 C 
ATOM     23  C   UNL     1       8.422  36.814  68.687  1.00  0.00     0.159 C 
ATOM     24  C   UNL     1       8.097  37.947  67.798  1.00  0.00     0.005 C 
ATOM     25  C   UNL     1       6.698  38.915  65.932  1.00  0.00     0.020 C 
ATOM     26  C   UNL     1       5.842  38.848  68.323  1.00  0.00     0.017 C 
ATOM     27  O   UNL     1       9.305  36.929  69.582  1.00  0.00    -0.295 OA
ATOM     28  C   UNL     1       9.029  38.894  67.579  1.00  0.00     0.055 C 
ATOM     29  C   UNL     1       7.439  40.249  66.071  1.00  0.00     0.081 C 
ATOM     30  C   UNL     1       8.772  40.056  66.719  1.00  0.00     0.156 C 
ATOM     31  O   UNL     1       9.675  40.921  66.558  1.00  0.00    -0.295 OA
ENDBRANCH   9  11
ENDBRANCH   8   9
ENDBRANCH   1   8
TORSDOF 6
ENDMDL
MODEL 7
REMARK VINA RESULT:    -5.894      3.295      9.454
REMARK INTER + INTRA:          -9.266
REMARK INTER:                  -8.030
REMARK INTRA:                  -1.236
REMARK UNBOUND:                -1.304
REMARK SMILES CC[C@H](CC[C@H](C)[C@@H]1CC[C@H]2[C@H]3CC(=O)C4=CC(=O)CC[C@@]4(C)[C@@H]3CC[C@]21C)C(C)C
REMARK SMILES IDX 4 1 3 2 2 3 1 4 29 5 30 6 31 7 5 8 6 9 7 10 8 11 9 12 27 13
REMARK SMILES IDX 10 14 11 15 26 16 28 17 12 18 25 19 24 20 13 21 22 22 14 23
REMARK SMILES IDX 16 24 21 25 23 26 15 27 17 28 20 29 18 30 19 31
REMARK H PARENT
REMARK Flexibility Score: inf
ROOT
ATOM      1  C   UNL     1       5.500  24.631  65.954  1.00  0.00     0.004 C 
ENDROOT
BRANCH   1   2
ATOM      2  C   UNL     1       6.734  23.725  66.242  1.00  0.00    -0.009 C 
BRANCH   2   3
ATOM      3  C   UNL     1       7.109  23.768  67.751  1.00  0.00     0.000 C 
ATOM      4  C   UNL     1       6.233  22.865  68.628  1.00  0.00     0.004 C 
ENDBRANCH   2   3
BRANCH   2   5
ATOM      5  C   UNL     1       6.499  22.266  65.676  1.00  0.00    -0.014 C 
ATOM      6  C   UNL     1       5.050  22.089  65.193  1.00  0.00     0.007 C 
ATOM      7  C   UNL     1       7.467  21.805  64.569  1.00  0.00     0.007 C 
ENDBRANCH   2   5
ENDBRANCH   1   2
BRANCH   1   8
ATOM      8  C   UNL     1       5.638  26.090  66.459  1.00  0.00     0.004 C 
BRANCH   8   9
ATOM      9  C   UNL     1       4.482  26.612  67.364  1.00  0.00    -0.011 C 
ATOM     10  C   UNL     1       3.609  25.426  67.830  1.00  0.00     0.008 C 
BRANCH   9  11
ATOM     11  C   UNL     1       3.562  27.732  66.710  1.00  0.00    -0.002 C 
ATOM     12  C   UNL     1       4.095  28.288  65.368  1.00  0.00     0.005 C 
ATOM     13  C   UNL     1       3.394  29.037  67.575  1.00  0.00    -0.026 C 
ATOM     14  C   UNL     1       4.898  29.543  65.699  1.00  0.00     0.005 C 
ATOM     15  C   UNL     1       4.644  29.857  67.187  1.00  0.00    -0.001 C 
ATOM     16  C   UNL     1       2.092  29.784  67.133  1.00  0.00     0.007 C 
ATOM     17  C   UNL     1       3.324  28.808  69.112  1.00  0.00     0.012 C 
ATOM     18  C   UNL     1       4.572  31.374  67.552  1.00  0.00     0.004 C 
ATOM     19  C   UNL     1       2.038  31.245  67.589  1.00  0.00     0.005 C 
ATOM     20  C   UNL     1       3.256  32.057  67.077  1.00  0.00     0.003 C 
ATOM     21  C   UNL     1       5.824  32.108  67.038  1.00  0.00     0.085 C 
ATOM     22  C   UNL     1       3.174  33.594  67.467  1.00  0.00    -0.000 C 
ATOM     23  C   UNL     1       5.765  33.569  67.322  1.00  0.00     0.159 C 
ATOM     24  C   UNL     1       4.495  34.299  67.135  1.00  0.00     0.005 C 
ATOM     25  C   UNL     1       2.016  34.261  66.657  1.00  0.00     0.020 C 
ATOM     26  C   UNL     1       2.916  33.788  68.985  1.00  0.00     0.017 C 
ATOM     27  O   UNL     1       6.823  34.184  67.629  1.00  0.00    -0.295 OA
ATOM     28  C   UNL     1       4.534  35.599  66.791  1.00  0.00     0.055 C 
ATOM     29  C   UNL     1       1.964  35.785  66.818  1.00  0.00     0.081 C 
ATOM     30  C   UNL     1       3.312  36.393  66.602  1.00  0.00     0.156 C 
ATOM     31  O   UNL     1       3.404  37.611  66.292  1.00  0.00    -0.295 OA
ENDBRANCH   9  11
ENDBRANCH   8   9
ENDBRANCH   1   8
TORSDOF 6
ENDMDL
MODEL 8
REMARK VINA RESULT:    -5.746      4.014      9.914
REMARK INTER + INTRA:          -9.066
REMARK INTER:                  -7.657
REMARK INTRA:                  -1.408
REMARK UNBOUND:                -1.304
REMARK SMILES CC[C@H](CC[C@H](C)[C@@H]1CC[C@H]2[C@H]3CC(=O)C4=CC(=O)CC[C@@]4(C)[C@@H]3CC[C@]21C)C(C)C
REMARK SMILES IDX 4 1 3 2 2 3 1 4 29 5 30 6 31 7 5 8 6 9 7 10 8 11 9 12 27 13
REMARK SMILES IDX 10 14 11 15 26 16 28 17 12 18 25 19 24 20 13 21 22 22 14 23
REMARK SMILES IDX 16 24 21 25 23 26 15 27 17 28 20 29 18 30 19 31
REMARK H PARENT
REMARK Flexibility Score: inf
ROOT
ATOM      1  C   UNL     1       4.070  27.943  69.269  1.00  0.00     0.004 C 
ENDROOT
BRANCH   1   2
ATOM      2  C   UNL     1       4.033  26.787  68.226  1.00  0.00    -0.009 C 
BRANCH   2   3
ATOM      3  C   UNL     1       4.741  27.211  66.908  1.00  0.00     0.000 C 
ATOM      4  C   UNL     1       3.782  27.393  65.725  1.00  0.00     0.004 C 
ENDBRANCH   2   3
BRANCH   2   5
ATOM      5  C   UNL     1       4.592  25.447  68.858  1.00  0.00    -0.014 C 
ATOM      6  C   UNL     1       5.653  24.810  67.947  1.00  0.00     0.007 C 
ATOM      7  C   UNL     1       5.145  25.554  70.292  1.00  0.00     0.007 C 
ENDBRANCH   2   5
ENDBRANCH   1   2
BRANCH   1   8
ATOM      8  C   UNL     1       4.625  29.285  68.726  1.00  0.00     0.004 C 
BRANCH   8   9
ATOM      9  C   UNL     1       3.572  30.403  68.462  1.00  0.00    -0.011 C 
ATOM     10  C   UNL     1       2.150  29.800  68.506  1.00  0.00     0.008 C 
BRANCH   9  11
ATOM     11  C   UNL     1       3.769  31.216  67.110  1.00  0.00    -0.002 C 
ATOM     12  C   UNL     1       5.125  30.965  66.411  1.00  0.00     0.005 C 
ATOM     13  C   UNL     1       3.755  32.782  67.273  1.00  0.00    -0.026 C 
ATOM     14  C   UNL     1       6.073  32.068  66.879  1.00  0.00     0.005 C 
ATOM     15  C   UNL     1       5.220  33.090  67.655  1.00  0.00    -0.001 C 
ATOM     16  C   UNL     1       3.400  33.440  65.899  1.00  0.00     0.007 C 
ATOM     17  C   UNL     1       2.765  33.328  68.343  1.00  0.00     0.012 C 
ATOM     18  C   UNL     1       5.640  34.584  67.487  1.00  0.00     0.004 C 
ATOM     19  C   UNL     1       3.759  34.926  65.818  1.00  0.00     0.005 C 
ATOM     20  C   UNL     1       5.265  35.174  66.096  1.00  0.00     0.003 C 
ATOM     21  C   UNL     1       7.137  34.758  67.804  1.00  0.00     0.085 C 
ATOM     22  C   UNL     1       5.674  36.699  65.932  1.00  0.00    -0.000 C 
ATOM     23  C   UNL     1       7.586  36.164  67.602  1.00  0.00     0.159 C 
ATOM     24  C   UNL     1       7.107  36.923  66.430  1.00  0.00     0.005 C 
ATOM     25  C   UNL     1       5.587  37.088  64.421  1.00  0.00     0.020 C 
ATOM     26  C   UNL     1       4.749  37.633  66.757  1.00  0.00     0.017 C 
ATOM     27  O   UNL     1       8.445  36.659  68.384  1.00  0.00    -0.295 OA
ATOM     28  C   UNL     1       7.898  37.874  65.900  1.00  0.00     0.055 C 
ATOM     29  C   UNL     1       6.136  38.488  64.123  1.00  0.00     0.081 C 
ATOM     30  C   UNL     1       7.483  38.678  64.743  1.00  0.00     0.156 C 
ATOM     31  O   UNL     1       8.256  39.566  64.293  1.00  0.00    -0.295 OA
ENDBRANCH   9  11
ENDBRANCH   8   9
ENDBRANCH   1   8
TORSDOF 6
ENDMDL
