MODEL 1
REMARK VINA RESULT:    -4.848      0.000      0.000
REMARK INTER + INTRA:          -7.675
REMARK INTER:                  -7.398
REMARK INTRA:                  -0.276
REMARK UNBOUND:                -0.276
REMARK SMILES CC1=CCC[C@@H](C)C(=O)C[C@H](C(C)C)C(=O)C1
REMARK SMILES IDX 8 1 9 2 6 3 7 4 5 5 4 6 3 7 2 8 1 9 10 11 11 12 15 13 16 14
REMARK SMILES IDX 17 15 12 17 13 18 14 19
REMARK H PARENT
REMARK Flexibility Score: 70.00
ROOT
ATOM      1  C   UNL     1      27.327 -12.961  27.741  1.00  0.00     0.136 C 
ATOM      2  O   UNL     1      26.699 -13.781  27.086  1.00  0.00    -0.299 OA
ENDROOT
BRANCH   1   3
ATOM      3  C   UNL     1      28.649 -12.443  27.223  1.00  0.00     0.053 C 
ATOM      4  C   UNL     1      28.521 -11.934  25.782  1.00  0.00     0.016 C 
BRANCH   3   5
ATOM      5  C   UNL     1      29.708 -13.567  27.336  1.00  0.00     0.015 C 
BRANCH   5   6
ATOM      6  C   UNL     1      30.644 -13.492  28.558  1.00  0.00     0.028 C 
BRANCH   6   7
ATOM      7  C   UNL     1      30.688 -12.181  29.314  1.00  0.00    -0.028 C 
ATOM      8  C   UNL     1      30.284 -11.960  30.588  1.00  0.00    -0.070 CG0
ATOM      9  C   UNL     1      30.531 -10.591  31.173  1.00  0.00     0.039 C 
ATOM     10  G   UNL     1      29.526 -12.972  31.431  1.00  0.00     0.000 G0
ENDBRANCH   6   7
ENDBRANCH   5   6
ENDBRANCH   3   5
ENDBRANCH   1   3
BRANCH   1  11
ATOM     11  C   UNL     1      26.799 -12.537  29.093  1.00  0.00     0.087 C 
BRANCH  11  12
ATOM     12  C   UNL     1      27.217 -13.517  30.231  1.00  0.00     0.066 C 
BRANCH  12  13
ATOM     13  C   UNL     1      28.023 -12.798  31.305  1.00  0.00     0.140 C 
ATOM     14  O   UNL     1      27.442 -12.076  32.102  1.00  0.00    -0.299 OA
BRANCH  13  15
ATOM     15  C   UNL     1      29.522 -12.975  31.443  1.00  0.00     0.106 CG0
ATOM     16  G   UNL     1      30.266 -11.959  30.594  1.00  0.00     0.000 G0
ENDBRANCH  13  15
ENDBRANCH  12  13
BRANCH  12  17
ATOM     17  C   UNL     1      26.012 -14.280  30.869  1.00  0.00    -0.006 C 
ATOM     18  C   UNL     1      26.458 -15.154  32.053  1.00  0.00     0.008 C 
ATOM     19  C   UNL     1      25.201 -15.125  29.869  1.00  0.00     0.008 C 
ENDBRANCH  12  17
ENDBRANCH  11  12
ENDBRANCH   1  11
TORSDOF 1
ENDMDL
MODEL 2
REMARK VINA RESULT:    -4.697      2.047      4.725
REMARK INTER + INTRA:          -7.445
REMARK INTER:                  -7.920
REMARK INTRA:                   0.475
REMARK UNBOUND:                -0.276
REMARK SMILES CC1=CCC[C@@H](C)C(=O)C[C@H](C(C)C)C(=O)C1
REMARK SMILES IDX 8 1 9 2 6 3 7 4 5 5 4 6 3 7 2 8 1 9 10 11 11 12 15 13 16 14
REMARK SMILES IDX 17 15 12 17 13 18 14 19
REMARK H PARENT
REMARK Flexibility Score: 70.00
ROOT
ATOM      1  C   UNL     1      27.809 -12.485  31.648  1.00  0.00     0.136 C 
ATOM      2  O   UNL     1      27.469 -11.453  32.209  1.00  0.00    -0.299 OA
ENDROOT
BRANCH   1   3
ATOM      3  C   UNL     1      26.771 -13.533  31.315  1.00  0.00     0.053 C 
ATOM      4  C   UNL     1      26.825 -14.703  32.304  1.00  0.00     0.016 C 
BRANCH   3   5
ATOM      5  C   UNL     1      26.989 -14.010  29.858  1.00  0.00     0.015 C 
BRANCH   5   6
ATOM      6  C   UNL     1      26.319 -13.159  28.762  1.00  0.00     0.028 C 
BRANCH   6   7
ATOM      7  C   UNL     1      27.185 -12.731  27.596  1.00  0.00    -0.028 C 
ATOM      8  C   UNL     1      28.027 -11.670  27.552  1.00  0.00    -0.070 CG0
ATOM      9  C   UNL     1      28.880 -11.504  26.319  1.00  0.00     0.039 C 
ATOM     10  G   UNL     1      28.104 -10.596  28.624  1.00  0.00     0.000 G0
ENDBRANCH   6   7
ENDBRANCH   5   6
ENDBRANCH   3   5
ENDBRANCH   1   3
BRANCH   1  11
ATOM     11  C   UNL     1      29.275 -12.723  31.364  1.00  0.00     0.087 C 
BRANCH  11  12
ATOM     12  C   UNL     1      29.679 -12.298  29.920  1.00  0.00     0.066 C 
BRANCH  12  13
ATOM     13  C   UNL     1      29.217 -10.878  29.617  1.00  0.00     0.140 C 
ATOM     14  O   UNL     1      29.775  -9.940  30.168  1.00  0.00    -0.299 OA
BRANCH  13  15
ATOM     15  C   UNL     1      28.109 -10.585  28.626  1.00  0.00     0.106 CG0
ATOM     16  G   UNL     1      28.034 -11.667  27.563  1.00  0.00     0.000 G0
ENDBRANCH  13  15
ENDBRANCH  12  13
BRANCH  12  17
ATOM     17  C   UNL     1      31.207 -12.449  29.631  1.00  0.00    -0.006 C 
ATOM     18  C   UNL     1      31.494 -13.646  28.710  1.00  0.00     0.008 C 
ATOM     19  C   UNL     1      32.082 -12.539  30.896  1.00  0.00     0.008 C 
ENDBRANCH  12  17
ENDBRANCH  11  12
ENDBRANCH   1  11
TORSDOF 1
ENDMDL
MODEL 3
REMARK VINA RESULT:    -3.983      1.805      3.807
REMARK INTER + INTRA:          -6.354
REMARK INTER:                  -6.889
REMARK INTRA:                   0.535
REMARK UNBOUND:                -0.276
REMARK SMILES CC1=CCC[C@@H](C)C(=O)C[C@H](C(C)C)C(=O)C1
REMARK SMILES IDX 8 1 9 2 6 3 7 4 5 5 4 6 3 7 2 8 1 9 10 11 11 12 15 13 16 14
REMARK SMILES IDX 17 15 12 17 13 18 14 19
REMARK H PARENT
REMARK Flexibility Score: 70.00
ROOT
ATOM      1  C   UNL     1      29.347 -12.822  31.265  1.00  0.00     0.136 C 
ATOM      2  O   UNL     1      29.597 -13.905  31.775  1.00  0.00    -0.299 OA
ENDROOT
BRANCH   1   3
ATOM      3  C   UNL     1      30.435 -12.073  30.529  1.00  0.00     0.053 C 
ATOM      4  C   UNL     1      31.826 -12.474  31.035  1.00  0.00     0.016 C 
BRANCH   3   5
ATOM      5  C   UNL     1      30.191 -10.552  30.684  1.00  0.00     0.015 C 
BRANCH   5   6
ATOM      6  C   UNL     1      29.404  -9.875  29.544  1.00  0.00     0.028 C 
BRANCH   6   7
ATOM      7  C   UNL     1      29.447 -10.544  28.186  1.00  0.00    -0.028 C 
ATOM      8  C   UNL     1      28.440 -11.216  27.576  1.00  0.00    -0.070 CG0
ATOM      9  C   UNL     1      28.676 -11.700  26.167  1.00  0.00     0.039 C 
ATOM     10  G   UNL     1      27.129 -11.584  28.249  1.00  0.00     0.000 G0
ENDBRANCH   6   7
ENDBRANCH   5   6
ENDBRANCH   3   5
ENDBRANCH   1   3
BRANCH   1  11
ATOM     11  C   UNL     1      27.971 -12.220  31.445  1.00  0.00     0.087 C 
BRANCH  11  12
ATOM     12  C   UNL     1      26.896 -12.916  30.556  1.00  0.00     0.066 C 
BRANCH  12  13
ATOM     13  C   UNL     1      27.280 -12.856  29.084  1.00  0.00     0.140 C 
ATOM     14  O   UNL     1      27.700 -13.864  28.536  1.00  0.00    -0.299 OA
BRANCH  13  15
ATOM     15  C   UNL     1      27.127 -11.592  28.261  1.00  0.00     0.106 CG0
ATOM     16  G   UNL     1      28.438 -11.224  27.587  1.00  0.00     0.000 G0
ENDBRANCH  13  15
ENDBRANCH  12  13
BRANCH  12  17
ATOM     17  C   UNL     1      26.594 -14.389  30.983  1.00  0.00    -0.006 C 
ATOM     18  C   UNL     1      25.389 -14.963  30.221  1.00  0.00     0.008 C 
ATOM     19  C   UNL     1      26.396 -14.577  32.499  1.00  0.00     0.008 C 
ENDBRANCH  12  17
ENDBRANCH  11  12
ENDBRANCH   1  11
TORSDOF 1
ENDMDL
MODEL 4
REMARK VINA RESULT:    -3.849      1.516      3.995
REMARK INTER + INTRA:          -6.151
REMARK INTER:                  -6.451
REMARK INTRA:                   0.300
REMARK UNBOUND:                -0.276
REMARK SMILES CC1=CCC[C@@H](C)C(=O)C[C@H](C(C)C)C(=O)C1
REMARK SMILES IDX 8 1 9 2 6 3 7 4 5 5 4 6 3 7 2 8 1 9 10 11 11 12 15 13 16 14
REMARK SMILES IDX 17 15 12 17 13 18 14 19
REMARK H PARENT
REMARK Flexibility Score: 70.00
ROOT
ATOM      1  C   UNL     1      26.415 -13.569  28.358  1.00  0.00     0.136 C 
ATOM      2  O   UNL     1      25.759 -12.537  28.338  1.00  0.00    -0.299 OA
ENDROOT
BRANCH   1   3
ATOM      3  C   UNL     1      25.937 -14.743  29.182  1.00  0.00     0.053 C 
ATOM      4  C   UNL     1      24.527 -15.178  28.766  1.00  0.00     0.016 C 
BRANCH   3   5
ATOM      5  C   UNL     1      25.993 -14.360  30.681  1.00  0.00     0.015 C 
BRANCH   5   6
ATOM      6  C   UNL     1      27.399 -14.109  31.261  1.00  0.00     0.028 C 
BRANCH   6   7
ATOM      7  C   UNL     1      27.843 -12.668  31.393  1.00  0.00    -0.028 C 
ATOM      8  C   UNL     1      28.978 -12.116  30.899  1.00  0.00    -0.070 CG0
ATOM      9  C   UNL     1      29.156 -10.625  31.054  1.00  0.00     0.039 C 
ATOM     10  G   UNL     1      30.114 -12.910  30.278  1.00  0.00     0.000 G0
ENDBRANCH   6   7
ENDBRANCH   5   6
ENDBRANCH   3   5
ENDBRANCH   1   3
BRANCH   1  11
ATOM     11  C   UNL     1      27.729 -13.624  27.612  1.00  0.00     0.087 C 
BRANCH  11  12
ATOM     12  C   UNL     1      28.709 -12.494  28.050  1.00  0.00     0.066 C 
BRANCH  12  13
ATOM     13  C   UNL     1      29.919 -13.069  28.774  1.00  0.00     0.140 C 
ATOM     14  O   UNL     1      30.778 -13.653  28.130  1.00  0.00    -0.299 OA
BRANCH  13  15
ATOM     15  C   UNL     1      30.114 -12.912  30.269  1.00  0.00     0.106 CG0
ATOM     16  G   UNL     1      28.975 -12.115  30.882  1.00  0.00     0.000 G0
ENDBRANCH  13  15
ENDBRANCH  12  13
BRANCH  12  17
ATOM     17  C   UNL     1      29.164 -11.574  26.872  1.00  0.00    -0.006 C 
ATOM     18  C   UNL     1      29.351 -10.118  27.330  1.00  0.00     0.008 C 
ATOM     19  C   UNL     1      28.239 -11.623  25.641  1.00  0.00     0.008 C 
ENDBRANCH  12  17
ENDBRANCH  11  12
ENDBRANCH   1  11
TORSDOF 1
ENDMDL
MODEL 5
REMARK VINA RESULT:    -3.819      2.140      4.930
REMARK INTER + INTRA:          -6.105
REMARK INTER:                  -7.382
REMARK INTRA:                   1.276
REMARK UNBOUND:                -0.276
REMARK SMILES CC1=CCC[C@@H](C)C(=O)C[C@H](C(C)C)C(=O)C1
REMARK SMILES IDX 8 1 9 2 6 3 7 4 5 5 4 6 3 7 2 8 1 9 10 11 11 12 15 13 16 14
REMARK SMILES IDX 17 15 12 17 13 18 14 19
REMARK H PARENT
REMARK Flexibility Score: 70.00
ROOT
ATOM      1  C   UNL     1      30.576 -13.182  28.832  1.00  0.00     0.136 C 
ATOM      2  O   UNL     1      31.703 -13.084  28.368  1.00  0.00    -0.299 OA
ENDROOT
BRANCH   1   3
ATOM      3  C   UNL     1      30.246 -12.506  30.144  1.00  0.00     0.053 C 
ATOM      4  C   UNL     1      31.518 -12.169  30.931  1.00  0.00     0.016 C 
BRANCH   3   5
ATOM      5  C   UNL     1      29.301 -13.423  30.958  1.00  0.00     0.015 C 
BRANCH   5   6
ATOM      6  C   UNL     1      27.840 -12.947  31.082  1.00  0.00     0.028 C 
BRANCH   6   7
ATOM      7  C   UNL     1      26.759 -13.922  30.665  1.00  0.00    -0.028 C 
ATOM      8  C   UNL     1      26.165 -14.010  29.450  1.00  0.00    -0.070 CG0
ATOM      9  C   UNL     1      25.191 -15.141  29.228  1.00  0.00     0.039 C 
ATOM     10  G   UNL     1      26.352 -12.998  28.333  1.00  0.00     0.000 G0
ENDBRANCH   6   7
ENDBRANCH   5   6
ENDBRANCH   3   5
ENDBRANCH   1   3
BRANCH   1  11
ATOM     11  C   UNL     1      29.555 -14.038  28.118  1.00  0.00     0.087 C 
BRANCH  11  12
ATOM     12  C   UNL     1      28.705 -13.225  27.096  1.00  0.00     0.066 C 
BRANCH  12  13
ATOM     13  C   UNL     1      27.226 -13.562  27.221  1.00  0.00     0.140 C 
ATOM     14  O   UNL     1      26.721 -14.335  26.420  1.00  0.00    -0.299 OA
BRANCH  13  15
ATOM     15  C   UNL     1      26.361 -12.998  28.330  1.00  0.00     0.106 CG0
ATOM     16  G   UNL     1      26.173 -14.018  29.440  1.00  0.00     0.000 G0
ENDBRANCH  13  15
ENDBRANCH  12  13
BRANCH  12  17
ATOM     17  C   UNL     1      28.924 -11.680  27.194  1.00  0.00    -0.006 C 
ATOM     18  C   UNL     1      27.834 -11.007  28.045  1.00  0.00     0.008 C 
ATOM     19  C   UNL     1      29.037 -10.972  25.831  1.00  0.00     0.008 C 
ENDBRANCH  12  17
ENDBRANCH  11  12
ENDBRANCH   1  11
TORSDOF 1
ENDMDL
MODEL 6
REMARK VINA RESULT:    -3.793      1.724      4.196
REMARK INTER + INTRA:          -6.064
REMARK INTER:                  -6.295
REMARK INTRA:                   0.230
REMARK UNBOUND:                -0.276
REMARK SMILES CC1=CCC[C@@H](C)C(=O)C[C@H](C(C)C)C(=O)C1
REMARK SMILES IDX 8 1 9 2 6 3 7 4 5 5 4 6 3 7 2 8 1 9 10 11 11 12 15 13 16 14
REMARK SMILES IDX 17 15 12 17 13 18 14 19
REMARK H PARENT
REMARK Flexibility Score: 70.00
ROOT
ATOM      1  C   UNL     1      28.940 -12.420  27.788  1.00  0.00     0.136 C 
ATOM      2  O   UNL     1      29.686 -11.885  26.980  1.00  0.00    -0.299 OA
ENDROOT
BRANCH   1   3
ATOM      3  C   UNL     1      27.443 -12.332  27.596  1.00  0.00     0.053 C 
ATOM      4  C   UNL     1      26.820 -11.301  28.545  1.00  0.00     0.016 C 
BRANCH   3   5
ATOM      5  C   UNL     1      26.826 -13.738  27.801  1.00  0.00     0.015 C 
BRANCH   5   6
ATOM      6  C   UNL     1      25.663 -13.824  28.809  1.00  0.00     0.028 C 
BRANCH   6   7
ATOM      7  C   UNL     1      25.844 -14.753  29.992  1.00  0.00    -0.028 C 
ATOM      8  C   UNL     1      26.351 -14.436  31.207  1.00  0.00    -0.070 CG0
ATOM      9  C   UNL     1      26.327 -15.502  32.275  1.00  0.00     0.039 C 
ATOM     10  G   UNL     1      27.016 -13.110  31.536  1.00  0.00     0.000 G0
ENDBRANCH   6   7
ENDBRANCH   5   6
ENDBRANCH   3   5
ENDBRANCH   1   3
BRANCH   1  11
ATOM     11  C   UNL     1      29.531 -13.099  29.003  1.00  0.00     0.087 C 
BRANCH  11  12
ATOM     12  C   UNL     1      29.231 -12.325  30.322  1.00  0.00     0.066 C 
BRANCH  12  13
ATOM     13  C   UNL     1      28.504 -13.212  31.324  1.00  0.00     0.140 C 
ATOM     14  O   UNL     1      29.148 -14.003  31.997  1.00  0.00    -0.299 OA
BRANCH  13  15
ATOM     15  C   UNL     1      27.006 -13.124  31.540  1.00  0.00     0.106 CG0
ATOM     16  G   UNL     1      26.333 -14.444  31.204  1.00  0.00     0.000 G0
ENDBRANCH  13  15
ENDBRANCH  12  13
BRANCH  12  17
ATOM     17  C   UNL     1      30.502 -11.692  30.975  1.00  0.00    -0.006 C 
ATOM     18  C   UNL     1      30.630 -10.198  30.634  1.00  0.00     0.008 C 
ATOM     19  C   UNL     1      31.815 -12.422  30.635  1.00  0.00     0.008 C 
ENDBRANCH  12  17
ENDBRANCH  11  12
ENDBRANCH   1  11
TORSDOF 1
ENDMDL
MODEL 7
REMARK VINA RESULT:    -3.736      1.503      2.280
REMARK INTER + INTRA:          -5.978
REMARK INTER:                  -6.035
REMARK INTRA:                   0.056
REMARK UNBOUND:                -0.276
REMARK SMILES CC1=CCC[C@@H](C)C(=O)C[C@H](C(C)C)C(=O)C1
REMARK SMILES IDX 8 1 9 2 6 3 7 4 5 5 4 6 3 7 2 8 1 9 10 11 11 12 15 13 16 14
REMARK SMILES IDX 17 15 12 17 13 18 14 19
REMARK H PARENT
REMARK Flexibility Score: 70.00
ROOT
ATOM      1  C   UNL     1      27.388 -13.371  27.252  1.00  0.00     0.136 C 
ATOM      2  O   UNL     1      27.162 -14.237  26.418  1.00  0.00    -0.299 OA
ENDROOT
BRANCH   1   3
ATOM      3  C   UNL     1      28.664 -12.566  27.168  1.00  0.00     0.053 C 
ATOM      4  C   UNL     1      29.852 -13.344  27.745  1.00  0.00     0.016 C 
BRANCH   3   5
ATOM      5  C   UNL     1      28.458 -11.219  27.903  1.00  0.00     0.015 C 
BRANCH   5   6
ATOM      6  C   UNL     1      29.179 -11.071  29.257  1.00  0.00     0.028 C 
BRANCH   6   7
ATOM      7  C   UNL     1      28.310 -10.932  30.490  1.00  0.00    -0.028 C 
ATOM      8  C   UNL     1      27.901 -11.925  31.315  1.00  0.00    -0.070 CG0
ATOM      9  C   UNL     1      27.133 -11.533  32.554  1.00  0.00     0.039 C 
ATOM     10  G   UNL     1      28.093 -13.405  31.031  1.00  0.00     0.000 G0
ENDBRANCH   6   7
ENDBRANCH   5   6
ENDBRANCH   3   5
ENDBRANCH   1   3
BRANCH   1  11
ATOM     11  C   UNL     1      26.416 -13.175  28.394  1.00  0.00     0.087 C 
BRANCH  11  12
ATOM     12  C   UNL     1      26.318 -14.428  29.315  1.00  0.00     0.066 C 
BRANCH  12  13
ATOM     13  C   UNL     1      26.749 -14.097  30.738  1.00  0.00     0.140 C 
ATOM     14  O   UNL     1      26.017 -14.401  31.668  1.00  0.00    -0.299 OA
BRANCH  13  15
ATOM     15  C   UNL     1      28.076 -13.432  31.045  1.00  0.00     0.106 CG0
ATOM     16  G   UNL     1      27.888 -11.947  31.307  1.00  0.00     0.000 G0
ENDBRANCH  13  15
ENDBRANCH  12  13
BRANCH  12  17
ATOM     17  C   UNL     1      24.904 -15.094  29.313  1.00  0.00    -0.006 C 
ATOM     18  C   UNL     1      24.982 -16.590  29.657  1.00  0.00     0.008 C 
ATOM     19  C   UNL     1      24.117 -14.896  28.004  1.00  0.00     0.008 C 
ENDBRANCH  12  17
ENDBRANCH  11  12
ENDBRANCH   1  11
TORSDOF 1
ENDMDL
MODEL 8
REMARK VINA RESULT:    -3.730      1.648      2.685
REMARK INTER + INTRA:          -5.968
REMARK INTER:                  -7.678
REMARK INTRA:                   1.710
REMARK UNBOUND:                -0.276
REMARK SMILES CC1=CCC[C@@H](C)C(=O)C[C@H](C(C)C)C(=O)C1
REMARK SMILES IDX 8 1 9 2 6 3 7 4 5 5 4 6 3 7 2 8 1 9 10 11 11 12 15 13 16 14
REMARK SMILES IDX 17 15 12 17 13 18 14 19
REMARK H PARENT
REMARK Flexibility Score: 70.00
ROOT
ATOM      1  C   UNL     1      29.209 -12.317  27.343  1.00  0.00     0.136 C 
ATOM      2  O   UNL     1      29.135 -11.372  26.570  1.00  0.00    -0.299 OA
ENDROOT
BRANCH   1   3
ATOM      3  C   UNL     1      30.497 -12.572  28.092  1.00  0.00     0.053 C 
ATOM      4  C   UNL     1      30.712 -14.071  28.334  1.00  0.00     0.016 C 
BRANCH   3   5
ATOM      5  C   UNL     1      30.471 -11.780  29.422  1.00  0.00     0.015 C 
BRANCH   5   6
ATOM      6  C   UNL     1      30.743 -12.598  30.700  1.00  0.00     0.028 C 
BRANCH   6   7
ATOM      7  C   UNL     1      29.555 -12.905  31.588  1.00  0.00    -0.028 C 
ATOM      8  C   UNL     1      28.313 -12.370  31.502  1.00  0.00    -0.070 CG0
ATOM      9  C   UNL     1      27.251 -12.915  32.426  1.00  0.00     0.039 C 
ATOM     10  G   UNL     1      27.945 -11.207  30.597  1.00  0.00     0.000 G0
ENDBRANCH   6   7
ENDBRANCH   5   6
ENDBRANCH   3   5
ENDBRANCH   1   3
BRANCH   1  11
ATOM     11  C   UNL     1      28.029 -13.252  27.480  1.00  0.00     0.087 C 
BRANCH  11  12
ATOM     12  C   UNL     1      27.335 -13.137  28.871  1.00  0.00     0.066 C 
BRANCH  12  13
ATOM     13  C   UNL     1      27.264 -11.686  29.329  1.00  0.00     0.140 C 
ATOM     14  O   UNL     1      26.623 -10.883  28.667  1.00  0.00    -0.299 OA
BRANCH  13  15
ATOM     15  C   UNL     1      27.935 -11.208  30.601  1.00  0.00     0.106 CG0
ATOM     16  G   UNL     1      28.310 -12.383  31.488  1.00  0.00     0.000 G0
ENDBRANCH  13  15
ENDBRANCH  12  13
BRANCH  12  17
ATOM     17  C   UNL     1      25.917 -13.794  28.915  1.00  0.00    -0.006 C 
ATOM     18  C   UNL     1      25.764 -14.728  30.127  1.00  0.00     0.008 C 
ATOM     19  C   UNL     1      25.528 -14.540  27.625  1.00  0.00     0.008 C 
ENDBRANCH  12  17
ENDBRANCH  11  12
ENDBRANCH   1  11
TORSDOF 1
ENDMDL
MODEL 9
REMARK VINA RESULT:    -3.544      2.235      4.102
REMARK INTER + INTRA:          -5.684
REMARK INTER:                  -5.713
REMARK INTRA:                   0.028
REMARK UNBOUND:                -0.276
REMARK SMILES CC1=CCC[C@@H](C)C(=O)C[C@H](C(C)C)C(=O)C1
REMARK SMILES IDX 8 1 9 2 6 3 7 4 5 5 4 6 3 7 2 8 1 9 10 11 11 12 15 13 16 14
REMARK SMILES IDX 17 15 12 17 13 18 14 19
REMARK H PARENT
REMARK Flexibility Score: 70.00
ROOT
ATOM      1  C   UNL     1      30.306 -13.090  30.325  1.00  0.00     0.136 C 
ATOM      2  O   UNL     1      31.324 -12.724  30.895  1.00  0.00    -0.299 OA
ENDROOT
BRANCH   1   3
ATOM      3  C   UNL     1      30.316 -13.282  28.825  1.00  0.00     0.053 C 
ATOM      4  C   UNL     1      31.607 -13.966  28.361  1.00  0.00     0.016 C 
BRANCH   3   5
ATOM      5  C   UNL     1      30.125 -11.906  28.142  1.00  0.00     0.015 C 
BRANCH   5   6
ATOM      6  C   UNL     1      29.173 -11.880  26.930  1.00  0.00     0.028 C 
BRANCH   6   7
ATOM      7  C   UNL     1      28.319 -13.109  26.699  1.00  0.00    -0.028 C 
ATOM      8  C   UNL     1      27.117 -13.384  27.262  1.00  0.00    -0.070 CG0
ATOM      9  C   UNL     1      26.391 -14.621  26.791  1.00  0.00     0.039 C 
ATOM     10  G   UNL     1      26.498 -12.578  28.391  1.00  0.00     0.000 G0
ENDBRANCH   6   7
ENDBRANCH   5   6
ENDBRANCH   3   5
ENDBRANCH   1   3
BRANCH   1  11
ATOM     11  C   UNL     1      29.037 -13.275  31.126  1.00  0.00     0.087 C 
BRANCH  11  12
ATOM     12  C   UNL     1      27.882 -12.352  30.634  1.00  0.00     0.066 C 
BRANCH  12  13
ATOM     13  C   UNL     1      26.914 -13.115  29.740  1.00  0.00     0.140 C 
ATOM     14  O   UNL     1      26.448 -14.174  30.134  1.00  0.00    -0.299 OA
BRANCH  13  15
ATOM     15  C   UNL     1      26.479 -12.588  28.387  1.00  0.00     0.106 CG0
ATOM     16  G   UNL     1      27.121 -13.387  27.265  1.00  0.00     0.000 G0
ENDBRANCH  13  15
ENDBRANCH  12  13
BRANCH  12  17
ATOM     17  C   UNL     1      27.112 -11.645  31.796  1.00  0.00    -0.006 C 
ATOM     18  C   UNL     1      27.664 -10.235  32.066  1.00  0.00     0.008 C 
ATOM     19  C   UNL     1      27.071 -12.453  33.107  1.00  0.00     0.008 C 
ENDBRANCH  12  17
ENDBRANCH  11  12
ENDBRANCH   1  11
TORSDOF 1
ENDMDL
