MODEL 1
REMARK VINA RESULT:    -3.743      0.000      0.000
REMARK INTER + INTRA:          -4.363
REMARK INTER:                  -4.290
REMARK INTRA:                  -0.073
REMARK UNBOUND:                -0.073
REMARK SMILES COc1cc(C=O)ccc1O
REMARK SMILES IDX 3 1 10 2 9 3 8 4 5 5 4 6 2 7 1 8 11 9 6 11 7 12
REMARK H PARENT 11 10
REMARK Flexibility Score: inf
ROOT
ATOM      1  C   UNL     1     135.956 138.952 128.351  1.00  0.00     0.161 A 
ATOM      2  C   UNL     1     135.649 140.090 129.119  1.00  0.00     0.157 A 
ATOM      3  C   UNL     1     136.672 140.938 129.556  1.00  0.00     0.051 A 
ATOM      4  C   UNL     1     138.002 140.665 129.236  1.00  0.00     0.015 A 
ATOM      5  C   UNL     1     138.327 139.533 128.470  1.00  0.00     0.018 A 
ATOM      6  C   UNL     1     137.302 138.682 128.031  1.00  0.00     0.062 A 
ENDROOT
BRANCH   1   7
ATOM      7  O   UNL     1     134.909 138.119 127.926  1.00  0.00    -0.493 OA
ATOM      8  C   UNL     1     134.455 136.968 128.631  1.00  0.00     0.278 C 
ENDBRANCH   1   7
BRANCH   2   9
ATOM      9  O   UNL     1     134.331 140.395 129.458  1.00  0.00    -0.504 OA
ATOM     10  H   UNL     1     133.741 140.971 128.871  1.00  0.00     0.293 HD
ENDBRANCH   2   9
BRANCH   5  11
ATOM     11  C   UNL     1     139.728 139.229 128.121  1.00  0.00     0.260 C 
ATOM     12  O   UNL     1     140.682 139.870 128.637  1.00  0.00    -0.298 OA
ENDBRANCH   5  11
TORSDOF 3
ENDMDL
MODEL 2
REMARK VINA RESULT:    -3.735      2.589      4.240
REMARK INTER + INTRA:          -4.355
REMARK INTER:                  -4.279
REMARK INTRA:                  -0.076
REMARK UNBOUND:                -0.073
REMARK SMILES COc1cc(C=O)ccc1O
REMARK SMILES IDX 3 1 10 2 9 3 8 4 5 5 4 6 2 7 1 8 11 9 6 11 7 12
REMARK H PARENT 11 10
REMARK Flexibility Score: inf
ROOT
ATOM      1  C   UNL     1     138.911 139.220 128.287  1.00  0.00     0.161 A 
ATOM      2  C   UNL     1     140.031 139.493 129.093  1.00  0.00     0.157 A 
ATOM      3  C   UNL     1     140.860 138.449 129.517  1.00  0.00     0.051 A 
ATOM      4  C   UNL     1     140.585 137.133 129.148  1.00  0.00     0.015 A 
ATOM      5  C   UNL     1     139.471 136.841 128.344  1.00  0.00     0.018 A 
ATOM      6  C   UNL     1     138.639 137.886 127.917  1.00  0.00     0.062 A 
ENDROOT
BRANCH   1   7
ATOM      7  O   UNL     1     138.097 140.286 127.876  1.00  0.00    -0.493 OA
ATOM      8  C   UNL     1     136.916 140.709 128.551  1.00  0.00     0.278 C 
ENDBRANCH   1   7
BRANCH   2   9
ATOM      9  O   UNL     1     140.337 140.796 129.483  1.00  0.00    -0.504 OA
ATOM     10  H   UNL     1     141.276 141.172 129.424  1.00  0.00     0.293 HD
ENDBRANCH   2   9
BRANCH   5  11
ATOM     11  C   UNL     1     139.166 135.455 127.943  1.00  0.00     0.260 C 
ATOM     12  O   UNL     1     139.846 134.487 128.375  1.00  0.00    -0.298 OA
ENDBRANCH   5  11
TORSDOF 3
ENDMDL
MODEL 3
REMARK VINA RESULT:    -3.721      2.574      4.319
REMARK INTER + INTRA:          -4.338
REMARK INTER:                  -4.268
REMARK INTRA:                  -0.070
REMARK UNBOUND:                -0.073
REMARK SMILES COc1cc(C=O)ccc1O
REMARK SMILES IDX 3 1 10 2 9 3 8 4 5 5 4 6 2 7 1 8 11 9 6 11 7 12
REMARK H PARENT 11 10
REMARK Flexibility Score: inf
ROOT
ATOM      1  C   UNL     1     136.311 135.849 128.500  1.00  0.00     0.161 A 
ATOM      2  C   UNL     1     135.133 135.560 129.212  1.00  0.00     0.157 A 
ATOM      3  C   UNL     1     134.258 136.592 129.567  1.00  0.00     0.051 A 
ATOM      4  C   UNL     1     134.544 137.912 129.221  1.00  0.00     0.015 A 
ATOM      5  C   UNL     1     135.715 138.220 128.511  1.00  0.00     0.018 A 
ATOM      6  C   UNL     1     136.594 137.187 128.153  1.00  0.00     0.062 A 
ENDROOT
BRANCH   1   7
ATOM      7  O   UNL     1     137.171 134.794 128.156  1.00  0.00    -0.493 OA
ATOM      8  C   UNL     1     138.264 134.350 128.953  1.00  0.00     0.278 C 
ENDBRANCH   1   7
BRANCH   2   9
ATOM      9  O   UNL     1     134.814 134.252 129.575  1.00  0.00    -0.504 OA
ATOM     10  H   UNL     1     134.670 133.520 128.890  1.00  0.00     0.293 HD
ENDBRANCH   2   9
BRANCH   5  11
ATOM     11  C   UNL     1     136.034 139.611 128.136  1.00  0.00     0.260 C 
ATOM     12  O   UNL     1     135.288 140.565 128.481  1.00  0.00    -0.298 OA
ENDBRANCH   5  11
TORSDOF 3
ENDMDL
MODEL 4
REMARK VINA RESULT:    -3.705      3.319      5.983
REMARK INTER + INTRA:          -4.320
REMARK INTER:                  -4.243
REMARK INTRA:                  -0.077
REMARK UNBOUND:                -0.073
REMARK SMILES COc1cc(C=O)ccc1O
REMARK SMILES IDX 3 1 10 2 9 3 8 4 5 5 4 6 2 7 1 8 11 9 6 11 7 12
REMARK H PARENT 11 10
REMARK Flexibility Score: inf
ROOT
ATOM      1  C   UNL     1     139.183 136.295 128.391  1.00  0.00     0.161 A 
ATOM      2  C   UNL     1     139.468 135.108 129.090  1.00  0.00     0.157 A 
ATOM      3  C   UNL     1     138.426 134.285 129.527  1.00  0.00     0.051 A 
ATOM      4  C   UNL     1     137.098 134.630 129.276  1.00  0.00     0.015 A 
ATOM      5  C   UNL     1     136.794 135.811 128.580  1.00  0.00     0.018 A 
ATOM      6  C   UNL     1     137.838 136.638 128.140  1.00  0.00     0.062 A 
ENDROOT
BRANCH   1   7
ATOM      7  O   UNL     1     140.248 137.102 127.964  1.00  0.00    -0.493 OA
ATOM      8  C   UNL     1     140.741 138.233 128.675  1.00  0.00     0.278 C 
ENDBRANCH   1   7
BRANCH   2   9
ATOM      9  O   UNL     1     140.783 134.730 129.360  1.00  0.00    -0.504 OA
ATOM     10  H   UNL     1     141.341 135.185 130.072  1.00  0.00     0.293 HD
ENDBRANCH   2   9
BRANCH   5  11
ATOM     11  C   UNL     1     135.395 136.193 128.304  1.00  0.00     0.260 C 
ATOM     12  O   UNL     1     134.460 135.355 128.404  1.00  0.00    -0.298 OA
ENDBRANCH   5  11
TORSDOF 3
ENDMDL
MODEL 5
REMARK VINA RESULT:    -3.596      2.856      4.301
REMARK INTER + INTRA:          -4.195
REMARK INTER:                  -4.130
REMARK INTRA:                  -0.065
REMARK UNBOUND:                -0.073
REMARK SMILES COc1cc(C=O)ccc1O
REMARK SMILES IDX 3 1 10 2 9 3 8 4 5 5 4 6 2 7 1 8 11 9 6 11 7 12
REMARK H PARENT 11 10
REMARK Flexibility Score: inf
ROOT
ATOM      1  C   UNL     1     135.082 137.545 129.495  1.00  0.00     0.161 A 
ATOM      2  C   UNL     1     134.250 136.508 129.039  1.00  0.00     0.157 A 
ATOM      3  C   UNL     1     134.707 135.186 129.047  1.00  0.00     0.051 A 
ATOM      4  C   UNL     1     135.990 134.885 129.506  1.00  0.00     0.015 A 
ATOM      5  C   UNL     1     136.836 135.908 129.965  1.00  0.00     0.018 A 
ATOM      6  C   UNL     1     136.378 137.234 129.958  1.00  0.00     0.062 A 
ENDROOT
BRANCH   1   7
ATOM      7  O   UNL     1     134.597 138.862 129.475  1.00  0.00    -0.493 OA
ATOM      8  C   UNL     1     135.298 139.974 128.927  1.00  0.00     0.278 C 
ENDBRANCH   1   7
BRANCH   2   9
ATOM      9  O   UNL     1     132.962 136.771 128.573  1.00  0.00    -0.504 OA
ATOM     10  H   UNL     1     132.459 136.123 127.977  1.00  0.00     0.293 HD
ENDBRANCH   2   9
BRANCH   5  11
ATOM     11  C   UNL     1     138.195 135.607 130.454  1.00  0.00     0.260 C 
ATOM     12  O   UNL     1     138.694 134.458 130.326  1.00  0.00    -0.298 OA
ENDBRANCH   5  11
TORSDOF 3
ENDMDL
MODEL 6
REMARK VINA RESULT:    -3.587      3.877      4.949
REMARK INTER + INTRA:          -4.185
REMARK INTER:                  -4.116
REMARK INTRA:                  -0.069
REMARK UNBOUND:                -0.073
REMARK SMILES COc1cc(C=O)ccc1O
REMARK SMILES IDX 3 1 10 2 9 3 8 4 5 5 4 6 2 7 1 8 11 9 6 11 7 12
REMARK H PARENT 11 10
REMARK Flexibility Score: inf
ROOT
ATOM      1  C   UNL     1     137.569 135.023 129.576  1.00  0.00     0.161 A 
ATOM      2  C   UNL     1     138.527 134.226 128.924  1.00  0.00     0.157 A 
ATOM      3  C   UNL     1     139.870 134.615 128.909  1.00  0.00     0.051 A 
ATOM      4  C   UNL     1     140.272 135.794 129.538  1.00  0.00     0.015 A 
ATOM      5  C   UNL     1     139.330 136.603 130.194  1.00  0.00     0.018 A 
ATOM      6  C   UNL     1     137.982 136.213 130.210  1.00  0.00     0.062 A 
ENDROOT
BRANCH   1   7
ATOM      7  O   UNL     1     136.229 134.608 129.576  1.00  0.00    -0.493 OA
ATOM      8  C   UNL     1     135.155 135.341 128.995  1.00  0.00     0.278 C 
ENDBRANCH   1   7
BRANCH   2   9
ATOM      9  O   UNL     1     138.163 133.041 128.285  1.00  0.00    -0.504 OA
ATOM     10  H   UNL     1     137.244 132.905 127.881  1.00  0.00     0.293 HD
ENDBRANCH   2   9
BRANCH   5  11
ATOM     11  C   UNL     1     139.736 137.853 130.864  1.00  0.00     0.260 C 
ATOM     12  O   UNL     1     140.465 138.698 130.280  1.00  0.00    -0.298 OA
ENDBRANCH   5  11
TORSDOF 3
ENDMDL
MODEL 7
REMARK VINA RESULT:    -3.573      1.866      4.128
REMARK INTER + INTRA:          -4.168
REMARK INTER:                  -4.107
REMARK INTRA:                  -0.061
REMARK UNBOUND:                -0.073
REMARK SMILES COc1cc(C=O)ccc1O
REMARK SMILES IDX 3 1 10 2 9 3 8 4 5 5 4 6 2 7 1 8 11 9 6 11 7 12
REMARK H PARENT 11 10
REMARK Flexibility Score: inf
ROOT
ATOM      1  C   UNL     1     137.655 140.180 129.489  1.00  0.00     0.161 A 
ATOM      2  C   UNL     1     136.617 141.010 129.028  1.00  0.00     0.157 A 
ATOM      3  C   UNL     1     135.301 140.537 129.000  1.00  0.00     0.051 A 
ATOM      4  C   UNL     1     135.006 139.242 129.425  1.00  0.00     0.015 A 
ATOM      5  C   UNL     1     136.029 138.398 129.887  1.00  0.00     0.018 A 
ATOM      6  C   UNL     1     137.349 138.871 129.917  1.00  0.00     0.062 A 
ENDROOT
BRANCH   1   7
ATOM      7  O   UNL     1     138.965 140.681 129.506  1.00  0.00    -0.493 OA
ATOM      8  C   UNL     1     140.122 139.933 129.143  1.00  0.00     0.278 C 
ENDBRANCH   1   7
BRANCH   2   9
ATOM      9  O   UNL     1     136.874 142.311 128.595  1.00  0.00    -0.504 OA
ATOM     10  H   UNL     1     136.133 142.979 128.420  1.00  0.00     0.293 HD
ENDBRANCH   2   9
BRANCH   5  11
ATOM     11  C   UNL     1     135.735 137.026 130.341  1.00  0.00     0.260 C 
ATOM     12  O   UNL     1     134.567 136.558 130.286  1.00  0.00    -0.298 OA
ENDBRANCH   5  11
TORSDOF 3
ENDMDL
MODEL 8
REMARK VINA RESULT:    -3.571      2.407      4.771
REMARK INTER + INTRA:          -4.166
REMARK INTER:                  -4.104
REMARK INTRA:                  -0.061
REMARK UNBOUND:                -0.073
REMARK SMILES COc1cc(C=O)ccc1O
REMARK SMILES IDX 3 1 10 2 9 3 8 4 5 5 4 6 2 7 1 8 11 9 6 11 7 12
REMARK H PARENT 11 10
REMARK Flexibility Score: inf
ROOT
ATOM      1  C   UNL     1     140.127 137.567 129.470  1.00  0.00     0.161 A 
ATOM      2  C   UNL     1     140.947 138.634 129.062  1.00  0.00     0.157 A 
ATOM      3  C   UNL     1     140.460 139.944 129.093  1.00  0.00     0.051 A 
ATOM      4  C   UNL     1     139.161 140.206 129.527  1.00  0.00     0.015 A 
ATOM      5  C   UNL     1     138.327 139.153 129.938  1.00  0.00     0.018 A 
ATOM      6  C   UNL     1     138.814 137.838 129.908  1.00  0.00     0.062 A 
ENDROOT
BRANCH   1   7
ATOM      7  O   UNL     1     140.642 136.262 129.429  1.00  0.00    -0.493 OA
ATOM      8  C   UNL     1     139.906 135.115 129.015  1.00  0.00     0.278 C 
ENDBRANCH   1   7
BRANCH   2   9
ATOM      9  O   UNL     1     142.252 138.411 128.621  1.00  0.00    -0.504 OA
ATOM     10  H   UNL     1     142.801 137.620 128.935  1.00  0.00     0.293 HD
ENDBRANCH   2   9
BRANCH   5  11
ATOM     11  C   UNL     1     136.950 139.411 130.401  1.00  0.00     0.260 C 
ATOM     12  O   UNL     1     136.490 140.582 130.457  1.00  0.00    -0.298 OA
ENDBRANCH   5  11
TORSDOF 3
ENDMDL
MODEL 9
REMARK VINA RESULT:    -3.570      1.874      2.680
REMARK INTER + INTRA:          -4.165
REMARK INTER:                  -4.115
REMARK INTRA:                  -0.050
REMARK UNBOUND:                -0.073
REMARK SMILES COc1cc(C=O)ccc1O
REMARK SMILES IDX 3 1 10 2 9 3 8 4 5 5 4 6 2 7 1 8 11 9 6 11 7 12
REMARK H PARENT 11 10
REMARK Flexibility Score: inf
ROOT
ATOM      1  C   UNL     1     136.008 140.032 130.765  1.00  0.00     0.161 A 
ATOM      2  C   UNL     1     135.255 140.379 129.629  1.00  0.00     0.157 A 
ATOM      3  C   UNL     1     135.895 140.606 128.406  1.00  0.00     0.051 A 
ATOM      4  C   UNL     1     137.281 140.491 128.302  1.00  0.00     0.015 A 
ATOM      5  C   UNL     1     138.049 140.146 129.425  1.00  0.00     0.018 A 
ATOM      6  C   UNL     1     137.409 139.918 130.652  1.00  0.00     0.062 A 
ENDROOT
BRANCH   1   7
ATOM      7  O   UNL     1     135.339 139.811 131.979  1.00  0.00    -0.493 OA
ATOM      8  C   UNL     1     135.022 140.827 132.925  1.00  0.00     0.278 C 
ENDBRANCH   1   7
BRANCH   2   9
ATOM      9  O   UNL     1     133.867 140.504 129.695  1.00  0.00    -0.504 OA
ATOM     10  H   UNL     1     133.265 139.724 129.933  1.00  0.00     0.293 HD
ENDBRANCH   2   9
BRANCH   5  11
ATOM     11  C   UNL     1     139.516 140.020 129.333  1.00  0.00     0.260 C 
ATOM     12  O   UNL     1     140.278 140.840 129.909  1.00  0.00    -0.298 OA
ENDBRANCH   5  11
TORSDOF 3
ENDMDL
