MODEL 1
REMARK VINA RESULT:    -4.029      0.000      0.000
REMARK INTER + INTRA:          -3.973
REMARK INTER:                  -4.971
REMARK INTRA:                   0.998
REMARK UNBOUND:                 0.998
REMARK SMILES C=C1[C@@H]2CC[C@H]3[C@@H]2C(C)(C)CCC[C@@]13C
REMARK SMILES IDX 14 1 6 2 7 3 3 4 2 5 1 6 4 7 5 8 15 9 8 10 9 11 10 12 11 13
REMARK SMILES IDX 13 15 12 16
REMARK H PARENT
REMARK Flexibility Score: 80.00
ROOT
ATOM      1  C   UNL     1     163.895 168.606 199.134  1.00  0.00    -0.008 C 
ATOM      2  C   UNL     1     164.750 169.812 199.684  1.00  0.00     0.003 C 
ATOM      3  C   UNL     1     166.195 169.267 199.749  1.00  0.00     0.006 C 
ATOM      4  C   UNL     1     165.808 168.031 200.550  1.00  0.00     0.019 C 
ATOM      5  C   UNL     1     164.694 167.463 199.719  1.00  0.00    -0.068 C 
ATOM      6  C   UNL     1     164.408 166.158 199.618  1.00  0.00     0.009 C 
ATOM      7  C   UNL     1     165.152 168.685 201.788  1.00  0.00     0.008 C 
ATOM      8  C   UNL     1     164.506 169.968 201.209  1.00  0.00     0.005 C 
ATOM      9  C   UNL     1     162.439 168.565 199.673  1.00  0.00     0.016 C 
ENDROOT
BRANCH   3  10
ATOM     10  C   UNL     1     167.046 169.083 198.434  1.00  0.00    -0.032 C 
ATOM     11  C   UNL     1     167.550 170.480 197.980  1.00  0.00     0.011 C 
ATOM     12  C   UNL     1     168.305 168.245 198.765  1.00  0.00     0.011 C 
BRANCH  10  13
ATOM     13  C   UNL     1     166.322 168.375 197.256  1.00  0.00     0.007 CG0
ATOM     14  G   UNL     1     165.018 169.044 196.817  1.00  0.00     0.000 G0
ENDBRANCH  10  13
ENDBRANCH   3  10
BRANCH   1  15
ATOM     15  C   UNL     1     163.808 168.553 197.580  1.00  0.00     0.011 C 
BRANCH  15  16
ATOM     16  C   UNL     1     165.027 169.037 196.799  1.00  0.00     0.001 CG0
ATOM     17  G   UNL     1     166.330 168.381 197.256  1.00  0.00     0.000 G0
ENDBRANCH  15  16
ENDBRANCH   1  15
TORSDOF 0
ENDMDL
MODEL 2
REMARK VINA RESULT:    -4.003      1.746      3.863
REMARK INTER + INTRA:          -3.941
REMARK INTER:                  -4.963
REMARK INTRA:                   1.022
REMARK UNBOUND:                 0.998
REMARK SMILES C=C1[C@@H]2CC[C@H]3[C@@H]2C(C)(C)CCC[C@@]13C
REMARK SMILES IDX 14 1 6 2 7 3 3 4 2 5 1 6 4 7 5 8 15 9 8 10 9 11 10 12 11 13
REMARK SMILES IDX 13 15 12 16
REMARK H PARENT
REMARK Flexibility Score: 80.00
ROOT
ATOM      1  C   UNL     1     166.399 168.097 200.788  1.00  0.00    -0.008 C 
ATOM      2  C   UNL     1     165.181 167.773 201.738  1.00  0.00     0.003 C 
ATOM      3  C   UNL     1     163.943 168.304 200.979  1.00  0.00     0.006 C 
ATOM      4  C   UNL     1     164.538 169.688 200.758  1.00  0.00     0.019 C 
ATOM      5  C   UNL     1     165.868 169.358 200.143  1.00  0.00    -0.068 C 
ATOM      6  C   UNL     1     166.508 170.127 199.253  1.00  0.00     0.009 C 
ATOM      7  C   UNL     1     164.817 170.118 202.217  1.00  0.00     0.008 C 
ATOM      8  C   UNL     1     165.163 168.781 202.919  1.00  0.00     0.005 C 
ATOM      9  C   UNL     1     167.723 168.403 201.538  1.00  0.00     0.016 C 
ENDROOT
BRANCH   3  10
ATOM     10  C   UNL     1     163.363 167.520 199.740  1.00  0.00    -0.032 C 
ATOM     11  C   UNL     1     162.582 166.286 200.265  1.00  0.00     0.011 C 
ATOM     12  C   UNL     1     162.331 168.421 199.017  1.00  0.00     0.011 C 
BRANCH  10  13
ATOM     13  C   UNL     1     164.403 167.074 198.677  1.00  0.00     0.007 CG0
ATOM     14  G   UNL     1     165.510 166.165 199.213  1.00  0.00     0.000 G0
ENDBRANCH  10  13
ENDBRANCH   3  10
BRANCH   1  15
ATOM     15  C   UNL     1     166.708 166.972 199.757  1.00  0.00     0.011 C 
BRANCH  15  16
ATOM     16  C   UNL     1     165.520 166.185 199.210  1.00  0.00     0.001 CG0
ATOM     17  G   UNL     1     164.400 167.082 198.681  1.00  0.00     0.000 G0
ENDBRANCH  15  16
ENDBRANCH   1  15
TORSDOF 0
ENDMDL
MODEL 3
REMARK VINA RESULT:    -3.986      4.109      5.999
REMARK INTER + INTRA:          -3.920
REMARK INTER:                  -4.924
REMARK INTRA:                   1.004
REMARK UNBOUND:                 0.998
REMARK SMILES C=C1[C@@H]2CC[C@H]3[C@@H]2C(C)(C)CCC[C@@]13C
REMARK SMILES IDX 14 1 6 2 7 3 3 4 2 5 1 6 4 7 5 8 15 9 8 10 9 11 10 12 11 13
REMARK SMILES IDX 13 15 12 16
REMARK H PARENT
REMARK Flexibility Score: 80.00
ROOT
ATOM      1  C   UNL     1     164.388 164.277 199.328  1.00  0.00    -0.008 C 
ATOM      2  C   UNL     1     164.619 162.809 199.858  1.00  0.00     0.003 C 
ATOM      3  C   UNL     1     166.035 162.435 199.364  1.00  0.00     0.006 C 
ATOM      4  C   UNL     1     165.746 162.808 197.916  1.00  0.00     0.019 C 
ATOM      5  C   UNL     1     165.207 164.202 198.059  1.00  0.00    -0.068 C 
ATOM      6  C   UNL     1     165.350 165.172 197.145  1.00  0.00     0.009 C 
ATOM      7  C   UNL     1     164.535 161.892 197.620  1.00  0.00     0.008 C 
ATOM      8  C   UNL     1     163.811 161.810 198.986  1.00  0.00     0.005 C 
ATOM      9  C   UNL     1     162.908 164.601 198.985  1.00  0.00     0.016 C 
ENDROOT
BRANCH   3  10
ATOM     10  C   UNL     1     167.315 163.037 200.061  1.00  0.00    -0.032 C 
ATOM     11  C   UNL     1     167.538 162.288 201.403  1.00  0.00     0.011 C 
ATOM     12  C   UNL     1     168.552 162.738 199.178  1.00  0.00     0.011 C 
BRANCH  10  13
ATOM     13  C   UNL     1     167.291 164.570 200.309  1.00  0.00     0.007 CG0
ATOM     14  G   UNL     1     166.111 165.058 201.151  1.00  0.00     0.000 G0
ENDBRANCH  10  13
ENDBRANCH   3  10
BRANCH   1  15
ATOM     15  C   UNL     1     164.882 165.384 200.305  1.00  0.00     0.011 C 
BRANCH  15  16
ATOM     16  C   UNL     1     166.115 165.068 201.148  1.00  0.00     0.001 CG0
ATOM     17  G   UNL     1     167.292 164.555 200.317  1.00  0.00     0.000 G0
ENDBRANCH  15  16
ENDBRANCH   1  15
TORSDOF 0
ENDMDL
MODEL 4
REMARK VINA RESULT:    -3.981      2.528      4.032
REMARK INTER + INTRA:          -3.914
REMARK INTER:                  -4.930
REMARK INTRA:                   1.016
REMARK UNBOUND:                 0.998
REMARK SMILES C=C1[C@@H]2CC[C@H]3[C@@H]2C(C)(C)CCC[C@@]13C
REMARK SMILES IDX 14 1 6 2 7 3 3 4 2 5 1 6 4 7 5 8 15 9 8 10 9 11 10 12 11 13
REMARK SMILES IDX 13 15 12 16
REMARK H PARENT
REMARK Flexibility Score: 80.00
ROOT
ATOM      1  C   UNL     1     164.337 166.689 199.188  1.00  0.00    -0.008 C 
ATOM      2  C   UNL     1     164.609 168.238 199.309  1.00  0.00     0.003 C 
ATOM      3  C   UNL     1     163.973 168.641 200.659  1.00  0.00     0.006 C 
ATOM      4  C   UNL     1     162.625 168.012 200.335  1.00  0.00     0.019 C 
ATOM      5  C   UNL     1     163.023 166.620 199.934  1.00  0.00    -0.068 C 
ATOM      6  C   UNL     1     162.269 165.528 200.120  1.00  0.00     0.009 C 
ATOM      7  C   UNL     1     162.262 168.763 199.033  1.00  0.00     0.008 C 
ATOM      8  C   UNL     1     163.641 169.010 198.372  1.00  0.00     0.005 C 
ATOM      9  C   UNL     1     164.144 166.192 197.729  1.00  0.00     0.016 C 
ENDROOT
BRANCH   3  10
ATOM     10  C   UNL     1     164.675 168.270 202.022  1.00  0.00    -0.032 C 
ATOM     11  C   UNL     1     165.867 169.242 202.236  1.00  0.00     0.011 C 
ATOM     12  C   UNL     1     163.682 168.526 203.182  1.00  0.00     0.011 C 
BRANCH  10  13
ATOM     13  C   UNL     1     165.161 166.801 202.152  1.00  0.00     0.007 CG0
ATOM     14  G   UNL     1     166.139 166.356 201.063  1.00  0.00     0.000 G0
ENDBRANCH  10  13
ENDBRANCH   3  10
BRANCH   1  15
ATOM     15  C   UNL     1     165.446 165.803 199.828  1.00  0.00     0.011 C 
BRANCH  15  16
ATOM     16  C   UNL     1     166.142 166.351 201.071  1.00  0.00     0.001 CG0
ATOM     17  G   UNL     1     165.162 166.799 202.157  1.00  0.00     0.000 G0
ENDBRANCH  15  16
ENDBRANCH   1  15
TORSDOF 0
ENDMDL
MODEL 5
REMARK VINA RESULT:    -3.969      3.917      5.298
REMARK INTER + INTRA:          -3.899
REMARK INTER:                  -4.915
REMARK INTRA:                   1.016
REMARK UNBOUND:                 0.998
REMARK SMILES C=C1[C@@H]2CC[C@H]3[C@@H]2C(C)(C)CCC[C@@]13C
REMARK SMILES IDX 14 1 6 2 7 3 3 4 2 5 1 6 4 7 5 8 15 9 8 10 9 11 10 12 11 13
REMARK SMILES IDX 13 15 12 16
REMARK H PARENT
REMARK Flexibility Score: 80.00
ROOT
ATOM      1  C   UNL     1     165.638 164.107 201.029  1.00  0.00    -0.008 C 
ATOM      2  C   UNL     1     166.988 164.343 201.811  1.00  0.00     0.003 C 
ATOM      3  C   UNL     1     168.075 163.712 200.911  1.00  0.00     0.006 C 
ATOM      4  C   UNL     1     167.354 162.376 200.792  1.00  0.00     0.019 C 
ATOM      5  C   UNL     1     165.985 162.804 200.345  1.00  0.00    -0.068 C 
ATOM      6  C   UNL     1     165.180 162.079 199.557  1.00  0.00     0.009 C 
ATOM      7  C   UNL     1     167.231 161.981 202.282  1.00  0.00     0.008 C 
ATOM      8  C   UNL     1     167.080 163.346 202.998  1.00  0.00     0.005 C 
ATOM      9  C   UNL     1     164.400 163.911 201.946  1.00  0.00     0.016 C 
ENDROOT
BRANCH   3  10
ATOM     10  C   UNL     1     168.550 164.438 199.595  1.00  0.00    -0.032 C 
ATOM     11  C   UNL     1     169.489 165.608 199.994  1.00  0.00     0.011 C 
ATOM     12  C   UNL     1     169.404 163.452 198.760  1.00  0.00     0.011 C 
BRANCH  10  13
ATOM     13  C   UNL     1     167.419 164.961 198.667  1.00  0.00     0.007 CG0
ATOM     14  G   UNL     1     166.457 165.947 199.332  1.00  0.00     0.000 G0
ENDBRANCH  10  13
ENDBRANCH   3  10
BRANCH   1  15
ATOM     15  C   UNL     1     165.285 165.245 200.025  1.00  0.00     0.011 C 
BRANCH  15  16
ATOM     16  C   UNL     1     166.451 165.940 199.326  1.00  0.00     0.001 CG0
ATOM     17  G   UNL     1     167.425 164.962 198.669  1.00  0.00     0.000 G0
ENDBRANCH  15  16
ENDBRANCH   1  15
TORSDOF 0
ENDMDL
MODEL 6
REMARK VINA RESULT:    -3.948      1.770      4.175
REMARK INTER + INTRA:          -3.873
REMARK INTER:                  -4.878
REMARK INTRA:                   1.004
REMARK UNBOUND:                 0.998
REMARK SMILES C=C1[C@@H]2CC[C@H]3[C@@H]2C(C)(C)CCC[C@@]13C
REMARK SMILES IDX 14 1 6 2 7 3 3 4 2 5 1 6 4 7 5 8 15 9 8 10 9 11 10 12 11 13
REMARK SMILES IDX 13 15 12 16
REMARK H PARENT
REMARK Flexibility Score: 80.00
ROOT
ATOM      1  C   UNL     1     167.660 167.675 199.421  1.00  0.00    -0.008 C 
ATOM      2  C   UNL     1     167.499 169.148 199.963  1.00  0.00     0.003 C 
ATOM      3  C   UNL     1     166.068 169.561 199.552  1.00  0.00     0.006 C 
ATOM      4  C   UNL     1     166.262 169.182 198.091  1.00  0.00     0.019 C 
ATOM      5  C   UNL     1     166.770 167.773 198.202  1.00  0.00    -0.068 C 
ATOM      6  C   UNL     1     166.547 166.809 197.298  1.00  0.00     0.009 C 
ATOM      7  C   UNL     1     167.477 170.065 197.723  1.00  0.00     0.008 C 
ATOM      8  C   UNL     1     168.282 170.126 199.046  1.00  0.00     0.005 C 
ATOM      9  C   UNL     1     169.107 167.312 198.992  1.00  0.00     0.016 C 
ENDROOT
BRANCH   3  10
ATOM     10  C   UNL     1     164.815 168.993 200.324  1.00  0.00    -0.032 C 
ATOM     11  C   UNL     1     164.690 169.748 201.674  1.00  0.00     0.011 C 
ATOM     12  C   UNL     1     163.537 169.324 199.513  1.00  0.00     0.011 C 
BRANCH  10  13
ATOM     13  C   UNL     1     164.813 167.460 200.573  1.00  0.00     0.007 CG0
ATOM     14  G   UNL     1     166.027 166.941 201.346  1.00  0.00     0.000 G0
ENDBRANCH  10  13
ENDBRANCH   3  10
BRANCH   1  15
ATOM     15  C   UNL     1     167.194 166.580 200.426  1.00  0.00     0.011 C 
BRANCH  15  16
ATOM     16  C   UNL     1     166.019 166.928 201.336  1.00  0.00     0.001 CG0
ATOM     17  G   UNL     1     164.811 167.474 200.574  1.00  0.00     0.000 G0
ENDBRANCH  15  16
ENDBRANCH   1  15
TORSDOF 0
ENDMDL
MODEL 7
REMARK VINA RESULT:    -3.910      3.453      5.961
REMARK INTER + INTRA:          -3.826
REMARK INTER:                  -4.837
REMARK INTRA:                   1.011
REMARK UNBOUND:                 0.998
REMARK SMILES C=C1[C@@H]2CC[C@H]3[C@@H]2C(C)(C)CCC[C@@]13C
REMARK SMILES IDX 14 1 6 2 7 3 3 4 2 5 1 6 4 7 5 8 15 9 8 10 9 11 10 12 11 13
REMARK SMILES IDX 13 15 12 16
REMARK H PARENT
REMARK Flexibility Score: 80.00
ROOT
ATOM      1  C   UNL     1     166.479 163.841 198.355  1.00  0.00    -0.008 C 
ATOM      2  C   UNL     1     165.008 164.078 197.835  1.00  0.00     0.003 C 
ATOM      3  C   UNL     1     164.111 163.786 199.060  1.00  0.00     0.006 C 
ATOM      4  C   UNL     1     164.735 162.424 199.328  1.00  0.00     0.019 C 
ATOM      5  C   UNL     1     166.198 162.759 199.374  1.00  0.00    -0.068 C 
ATOM      6  C   UNL     1     167.104 162.116 200.123  1.00  0.00     0.009 C 
ATOM      7  C   UNL     1     164.482 161.719 197.975  1.00  0.00     0.008 C 
ATOM      8  C   UNL     1     164.570 162.879 196.952  1.00  0.00     0.005 C 
ATOM      9  C   UNL     1     167.454 163.306 197.271  1.00  0.00     0.016 C 
ENDROOT
BRANCH   3  10
ATOM     10  C   UNL     1     164.006 164.821 200.245  1.00  0.00    -0.032 C 
ATOM     11  C   UNL     1     163.092 165.991 199.793  1.00  0.00     0.011 C 
ATOM     12  C   UNL     1     163.296 164.141 201.441  1.00  0.00     0.011 C 
BRANCH  10  13
ATOM     13  C   UNL     1     165.356 165.379 200.774  1.00  0.00     0.007 CG0
ATOM     14  G   UNL     1     166.216 166.070 199.714  1.00  0.00     0.000 G0
ENDBRANCH  10  13
ENDBRANCH   3  10
BRANCH   1  15
ATOM     15  C   UNL     1     167.138 165.106 198.978  1.00  0.00     0.011 C 
BRANCH  15  16
ATOM     16  C   UNL     1     166.219 166.075 199.718  1.00  0.00     0.001 CG0
ATOM     17  G   UNL     1     165.352 165.390 200.774  1.00  0.00     0.000 G0
ENDBRANCH  15  16
ENDBRANCH   1  15
TORSDOF 0
ENDMDL
MODEL 8
REMARK VINA RESULT:    -3.906      4.236      6.271
REMARK INTER + INTRA:          -3.822
REMARK INTER:                  -4.838
REMARK INTRA:                   1.017
REMARK UNBOUND:                 0.998
REMARK SMILES C=C1[C@@H]2CC[C@H]3[C@@H]2C(C)(C)CCC[C@@]13C
REMARK SMILES IDX 14 1 6 2 7 3 3 4 2 5 1 6 4 7 5 8 15 9 8 10 9 11 10 12 11 13
REMARK SMILES IDX 13 15 12 16
REMARK H PARENT
REMARK Flexibility Score: 80.00
ROOT
ATOM      1  C   UNL     1     167.400 165.079 199.136  1.00  0.00    -0.008 C 
ATOM      2  C   UNL     1     167.329 163.535 199.453  1.00  0.00     0.003 C 
ATOM      3  C   UNL     1     168.121 163.370 200.771  1.00  0.00     0.006 C 
ATOM      4  C   UNL     1     169.350 164.101 200.249  1.00  0.00     0.019 C 
ATOM      5  C   UNL     1     168.754 165.382 199.738  1.00  0.00    -0.068 C 
ATOM      6  C   UNL     1     169.383 166.565 199.729  1.00  0.00     0.009 C 
ATOM      7  C   UNL     1     169.691 163.243 199.008  1.00  0.00     0.008 C 
ATOM      8  C   UNL     1     168.301 162.768 198.516  1.00  0.00     0.005 C 
ATOM      9  C   UNL     1     167.408 165.414 197.620  1.00  0.00     0.016 C 
ENDROOT
BRANCH   3  10
ATOM     10  C   UNL     1     167.496 163.822 202.146  1.00  0.00    -0.032 C 
ATOM     11  C   UNL     1     166.453 162.757 202.582  1.00  0.00     0.011 C 
ATOM     12  C   UNL     1     168.606 163.820 203.225  1.00  0.00     0.011 C 
BRANCH  10  13
ATOM     13  C   UNL     1     166.847 165.233 202.161  1.00  0.00     0.007 CG0
ATOM     14  G   UNL     1     165.728 165.429 201.137  1.00  0.00     0.000 G0
ENDBRANCH  10  13
ENDBRANCH   3  10
BRANCH   1  15
ATOM     15  C   UNL     1     166.250 165.907 199.781  1.00  0.00     0.011 C 
BRANCH  15  16
ATOM     16  C   UNL     1     165.731 165.437 201.137  1.00  0.00     0.001 CG0
ATOM     17  G   UNL     1     166.845 165.221 202.162  1.00  0.00     0.000 G0
ENDBRANCH  15  16
ENDBRANCH   1  15
TORSDOF 0
ENDMDL
MODEL 9
REMARK VINA RESULT:    -3.860      4.211      6.326
REMARK INTER + INTRA:          -3.764
REMARK INTER:                  -4.781
REMARK INTRA:                   1.016
REMARK UNBOUND:                 0.998
REMARK SMILES C=C1[C@@H]2CC[C@H]3[C@@H]2C(C)(C)CCC[C@@]13C
REMARK SMILES IDX 14 1 6 2 7 3 3 4 2 5 1 6 4 7 5 8 15 9 8 10 9 11 10 12 11 13
REMARK SMILES IDX 13 15 12 16
REMARK H PARENT
REMARK Flexibility Score: 80.00
ROOT
ATOM      1  C   UNL     1     167.840 163.296 198.879  1.00  0.00    -0.008 C 
ATOM      2  C   UNL     1     166.975 162.336 199.783  1.00  0.00     0.003 C 
ATOM      3  C   UNL     1     165.764 163.194 200.215  1.00  0.00     0.006 C 
ATOM      4  C   UNL     1     166.623 164.341 200.729  1.00  0.00     0.019 C 
ATOM      5  C   UNL     1     167.513 164.612 199.550  1.00  0.00    -0.068 C 
ATOM      6  C   UNL     1     168.010 165.814 199.230  1.00  0.00     0.009 C 
ATOM      7  C   UNL     1     167.488 163.606 201.779  1.00  0.00     0.008 C 
ATOM      8  C   UNL     1     167.647 162.188 201.175  1.00  0.00     0.005 C 
ATOM      9  C   UNL     1     169.368 163.030 198.954  1.00  0.00     0.016 C 
ENDROOT
BRANCH   3  10
ATOM     10  C   UNL     1     164.600 163.512 199.200  1.00  0.00    -0.032 C 
ATOM     11  C   UNL     1     163.716 162.244 199.058  1.00  0.00     0.011 C 
ATOM     12  C   UNL     1     163.697 164.616 199.803  1.00  0.00     0.011 C 
BRANCH  10  13
ATOM     13  C   UNL     1     165.047 164.005 197.796  1.00  0.00     0.007 CG0
ATOM     14  G   UNL     1     165.975 163.044 197.051  1.00  0.00     0.000 G0
ENDBRANCH  10  13
ENDBRANCH   3  10
BRANCH   1  15
ATOM     15  C   UNL     1     167.446 163.268 197.373  1.00  0.00     0.011 C 
BRANCH  15  16
ATOM     16  C   UNL     1     165.971 163.048 197.045  1.00  0.00     0.001 CG0
ATOM     17  G   UNL     1     165.042 163.999 197.801  1.00  0.00     0.000 G0
ENDBRANCH  15  16
ENDBRANCH   1  15
TORSDOF 0
ENDMDL
