MODEL 1
REMARK VINA RESULT:    -4.889      0.000      0.000
REMARK INTER + INTRA:          -4.889
REMARK INTER:                  -4.889
REMARK INTRA:                   0.000
REMARK UNBOUND:                 0.000
REMARK SMILES CC1=CC[C@]2(C)CCCC(C)(C)[C@@]23C[C@@H]13
REMARK SMILES IDX 1 1 2 2 3 3 4 4 5 5 7 6 8 7 9 8 10 9 13 10 15 11 14 12 11 13
REMARK SMILES IDX 12 14 6 15
REMARK H PARENT
REMARK Flexibility Score: inf
ROOT
ATOM      1  C   UNL     1       1.752  12.821   0.157  1.00  0.00     0.039 C 
ATOM      2  C   UNL     1       1.982  12.819   1.641  1.00  0.00    -0.074 C 
ATOM      3  C   UNL     1       3.107  12.285   2.145  1.00  0.00    -0.027 C 
ATOM      4  C   UNL     1       3.408  12.362   3.618  1.00  0.00     0.034 C 
ATOM      5  C   UNL     1       2.972  13.732   4.202  1.00  0.00    -0.022 C 
ATOM      6  C   UNL     1       3.336  13.789   5.717  1.00  0.00     0.008 C 
ATOM      7  C   UNL     1       2.324  13.127   6.636  1.00  0.00     0.001 C 
ATOM      8  C   UNL     1       0.975  13.816   6.478  1.00  0.00     0.007 C 
ATOM      9  C   UNL     1       0.353  13.571   5.083  1.00  0.00    -0.029 C 
ATOM     10  C   UNL     1       1.405  13.931   3.935  1.00  0.00    -0.012 C 
ATOM     11  C   UNL     1       0.928  13.399   2.554  1.00  0.00     0.022 C 
ATOM     12  C   UNL     1       1.001  14.894   2.782  1.00  0.00     0.017 C 
ATOM     13  C   UNL     1      -0.102  12.085   5.002  1.00  0.00     0.012 C 
ATOM     14  C   UNL     1      -0.926  14.445   5.017  1.00  0.00     0.012 C 
ATOM     15  C   UNL     1       3.848  14.842   3.546  1.00  0.00     0.012 C 
ENDROOT
TORSDOF 0
ENDMDL
MODEL 2
REMARK VINA RESULT:    -4.664      2.913      5.035
REMARK INTER + INTRA:          -4.664
REMARK INTER:                  -4.664
REMARK INTRA:                   0.000
REMARK UNBOUND:                 0.000
REMARK SMILES CC1=CC[C@]2(C)CCCC(C)(C)[C@@]23C[C@@H]13
REMARK SMILES IDX 1 1 2 2 3 3 4 4 5 5 7 6 8 7 9 8 10 9 13 10 15 11 14 12 11 13
REMARK SMILES IDX 12 14 6 15
REMARK H PARENT
REMARK Flexibility Score: inf
ROOT
ATOM      1  C   UNL     1      -2.363  12.245  -1.394  1.00  0.00     0.039 C 
ATOM      2  C   UNL     1      -1.133  13.059  -1.112  1.00  0.00    -0.074 C 
ATOM      3  C   UNL     1      -0.341  13.451  -2.122  1.00  0.00    -0.027 C 
ATOM      4  C   UNL     1       0.840  14.351  -1.877  1.00  0.00     0.034 C 
ATOM      5  C   UNL     1       0.507  15.423  -0.805  1.00  0.00    -0.022 C 
ATOM      6  C   UNL     1       1.739  16.359  -0.607  1.00  0.00     0.008 C 
ATOM      7  C   UNL     1       2.801  15.816   0.332  1.00  0.00     0.001 C 
ATOM      8  C   UNL     1       2.189  15.593   1.708  1.00  0.00     0.007 C 
ATOM      9  C   UNL     1       1.145  14.450   1.706  1.00  0.00    -0.029 C 
ATOM     10  C   UNL     1       0.070  14.682   0.546  1.00  0.00    -0.012 C 
ATOM     11  C   UNL     1      -0.787  13.406   0.318  1.00  0.00     0.022 C 
ATOM     12  C   UNL     1      -1.449  14.648   0.875  1.00  0.00     0.017 C 
ATOM     13  C   UNL     1       1.898  13.098   1.533  1.00  0.00     0.012 C 
ATOM     14  C   UNL     1       0.508  14.440   3.119  1.00  0.00     0.012 C 
ATOM     15  C   UNL     1      -0.606  16.354  -1.376  1.00  0.00     0.012 C 
ENDROOT
TORSDOF 0
ENDMDL
MODEL 3
REMARK VINA RESULT:    -4.615      2.719      5.358
REMARK INTER + INTRA:          -4.615
REMARK INTER:                  -4.615
REMARK INTRA:                   0.000
REMARK UNBOUND:                 0.000
REMARK SMILES CC1=CC[C@]2(C)CCCC(C)(C)[C@@]23C[C@@H]13
REMARK SMILES IDX 1 1 2 2 3 3 4 4 5 5 7 6 8 7 9 8 10 9 13 10 15 11 14 12 11 13
REMARK SMILES IDX 12 14 6 15
REMARK H PARENT
REMARK Flexibility Score: inf
ROOT
ATOM      1  C   UNL     1      -2.337  12.760  -0.245  1.00  0.00     0.039 C 
ATOM      2  C   UNL     1      -1.247  13.710   0.163  1.00  0.00    -0.074 C 
ATOM      3  C   UNL     1      -1.381  14.446   1.277  1.00  0.00    -0.027 C 
ATOM      4  C   UNL     1      -0.263  15.329   1.762  1.00  0.00     0.034 C 
ATOM      5  C   UNL     1       1.115  14.647   1.547  1.00  0.00    -0.022 C 
ATOM      6  C   UNL     1       2.243  15.573   2.096  1.00  0.00     0.008 C 
ATOM      7  C   UNL     1       2.687  16.665   1.140  1.00  0.00     0.001 C 
ATOM      8  C   UNL     1       3.218  16.029  -0.137  1.00  0.00     0.007 C 
ATOM      9  C   UNL     1       2.104  15.324  -0.948  1.00  0.00    -0.029 C 
ATOM     10  C   UNL     1       1.289  14.317  -0.010  1.00  0.00    -0.012 C 
ATOM     11  C   UNL     1      -0.018  13.843  -0.706  1.00  0.00     0.022 C 
ATOM     12  C   UNL     1       1.085  12.839  -0.448  1.00  0.00     0.017 C 
ATOM     13  C   UNL     1       1.179  16.414  -1.563  1.00  0.00     0.012 C 
ATOM     14  C   UNL     1       2.811  14.605  -2.125  1.00  0.00     0.012 C 
ATOM     15  C   UNL     1       1.175  13.376   2.449  1.00  0.00     0.012 C 
ENDROOT
TORSDOF 0
ENDMDL
MODEL 4
REMARK VINA RESULT:    -4.586      3.061      5.232
REMARK INTER + INTRA:          -4.586
REMARK INTER:                  -4.586
REMARK INTRA:                   0.000
REMARK UNBOUND:                 0.000
REMARK SMILES CC1=CC[C@]2(C)CCCC(C)(C)[C@@]23C[C@@H]13
REMARK SMILES IDX 1 1 2 2 3 3 4 4 5 5 7 6 8 7 9 8 10 9 13 10 15 11 14 12 11 13
REMARK SMILES IDX 12 14 6 15
REMARK H PARENT
REMARK Flexibility Score: inf
ROOT
ATOM      1  C   UNL     1       3.279  16.536   0.906  1.00  0.00     0.039 C 
ATOM      2  C   UNL     1       2.034  15.870   0.393  1.00  0.00    -0.074 C 
ATOM      3  C   UNL     1       1.952  15.501  -0.896  1.00  0.00    -0.027 C 
ATOM      4  C   UNL     1       0.758  14.743  -1.411  1.00  0.00     0.034 C 
ATOM      5  C   UNL     1       0.265  13.709  -0.363  1.00  0.00    -0.022 C 
ATOM      6  C   UNL     1      -0.946  12.918  -0.947  1.00  0.00     0.008 C 
ATOM      7  C   UNL     1      -2.285  13.622  -0.816  1.00  0.00     0.001 C 
ATOM      8  C   UNL     1      -2.583  13.864   0.658  1.00  0.00     0.007 C 
ATOM      9  C   UNL     1      -1.614  14.892   1.290  1.00  0.00    -0.029 C 
ATOM     10  C   UNL     1      -0.098  14.482   0.992  1.00  0.00    -0.012 C 
ATOM     11  C   UNL     1       0.872  15.648   1.333  1.00  0.00     0.022 C 
ATOM     12  C   UNL     1       0.925  14.380   2.159  1.00  0.00     0.017 C 
ATOM     13  C   UNL     1      -1.952  16.300   0.720  1.00  0.00     0.012 C 
ATOM     14  C   UNL     1      -1.938  14.921   2.805  1.00  0.00     0.012 C 
ATOM     15  C   UNL     1       1.380  12.637  -0.174  1.00  0.00     0.012 C 
ENDROOT
TORSDOF 0
ENDMDL
MODEL 5
REMARK VINA RESULT:    -4.577      2.986      5.709
REMARK INTER + INTRA:          -4.577
REMARK INTER:                  -4.577
REMARK INTRA:                   0.000
REMARK UNBOUND:                 0.000
REMARK SMILES CC1=CC[C@]2(C)CCCC(C)(C)[C@@]23C[C@@H]13
REMARK SMILES IDX 1 1 2 2 3 3 4 4 5 5 7 6 8 7 9 8 10 9 13 10 15 11 14 12 11 13
REMARK SMILES IDX 12 14 6 15
REMARK H PARENT
REMARK Flexibility Score: inf
ROOT
ATOM      1  C   UNL     1       2.734  13.553   2.821  1.00  0.00     0.039 C 
ATOM      2  C   UNL     1       1.940  14.309   1.794  1.00  0.00    -0.074 C 
ATOM      3  C   UNL     1       2.158  15.621   1.609  1.00  0.00    -0.027 C 
ATOM      4  C   UNL     1       1.449  16.378   0.519  1.00  0.00     0.034 C 
ATOM      5  C   UNL     1       1.319  15.512  -0.763  1.00  0.00    -0.022 C 
ATOM      6  C   UNL     1       0.616  16.342  -1.880  1.00  0.00     0.008 C 
ATOM      7  C   UNL     1      -0.899  16.362  -1.796  1.00  0.00     0.001 C 
ATOM      8  C   UNL     1      -1.427  14.938  -1.904  1.00  0.00     0.007 C 
ATOM      9  C   UNL     1      -1.046  14.078  -0.675  1.00  0.00    -0.029 C 
ATOM     10  C   UNL     1       0.526  14.169  -0.399  1.00  0.00    -0.012 C 
ATOM     11  C   UNL     1       0.882  13.583   0.996  1.00  0.00     0.022 C 
ATOM     12  C   UNL     1       1.366  12.870  -0.248  1.00  0.00     0.017 C 
ATOM     13  C   UNL     1      -1.875  14.572   0.547  1.00  0.00     0.012 C 
ATOM     14  C   UNL     1      -1.515  12.635  -0.992  1.00  0.00     0.012 C 
ATOM     15  C   UNL     1       2.752  15.242  -1.316  1.00  0.00     0.012 C 
ENDROOT
TORSDOF 0
ENDMDL
MODEL 6
REMARK VINA RESULT:    -4.342      1.529      3.131
REMARK INTER + INTRA:          -4.342
REMARK INTER:                  -4.342
REMARK INTRA:                   0.000
REMARK UNBOUND:                 0.000
REMARK SMILES CC1=CC[C@]2(C)CCCC(C)(C)[C@@]23C[C@@H]13
REMARK SMILES IDX 1 1 2 2 3 3 4 4 5 5 7 6 8 7 9 8 10 9 13 10 15 11 14 12 11 13
REMARK SMILES IDX 12 14 6 15
REMARK H PARENT
REMARK Flexibility Score: inf
ROOT
ATOM      1  C   UNL     1      -0.608  13.376  -0.470  1.00  0.00     0.039 C 
ATOM      2  C   UNL     1       0.655  13.744   0.256  1.00  0.00    -0.074 C 
ATOM      3  C   UNL     1       1.651  14.360  -0.400  1.00  0.00    -0.027 C 
ATOM      4  C   UNL     1       2.883  14.830   0.326  1.00  0.00     0.034 C 
ATOM      5  C   UNL     1       2.519  15.401   1.723  1.00  0.00    -0.022 C 
ATOM      6  C   UNL     1       3.814  15.913   2.426  1.00  0.00     0.008 C 
ATOM      7  C   UNL     1       4.621  14.836   3.128  1.00  0.00     0.001 C 
ATOM      8  C   UNL     1       3.761  14.183   4.202  1.00  0.00     0.007 C 
ATOM      9  C   UNL     1       2.590  13.369   3.600  1.00  0.00    -0.029 C 
ATOM     10  C   UNL     1       1.767  14.265   2.564  1.00  0.00    -0.012 C 
ATOM     11  C   UNL     1       0.798  13.391   1.719  1.00  0.00     0.022 C 
ATOM     12  C   UNL     1       0.222  14.391   2.699  1.00  0.00     0.017 C 
ATOM     13  C   UNL     1       3.174  12.095   2.923  1.00  0.00     0.012 C 
ATOM     14  C   UNL     1       1.728  12.896   4.798  1.00  0.00     0.012 C 
ATOM     15  C   UNL     1       1.653  16.681   1.515  1.00  0.00     0.012 C 
ENDROOT
TORSDOF 0
ENDMDL
MODEL 7
REMARK VINA RESULT:    -4.137      3.442      6.247
REMARK INTER + INTRA:          -4.137
REMARK INTER:                  -4.137
REMARK INTRA:                   0.000
REMARK UNBOUND:                 0.000
REMARK SMILES CC1=CC[C@]2(C)CCCC(C)(C)[C@@]23C[C@@H]13
REMARK SMILES IDX 1 1 2 2 3 3 4 4 5 5 7 6 8 7 9 8 10 9 13 10 15 11 14 12 11 13
REMARK SMILES IDX 12 14 6 15
REMARK H PARENT
REMARK Flexibility Score: inf
ROOT
ATOM      1  C   UNL     1      -3.996  16.000   2.088  1.00  0.00     0.039 C 
ATOM      2  C   UNL     1      -3.014  15.118   1.371  1.00  0.00    -0.074 C 
ATOM      3  C   UNL     1      -3.410  13.934   0.879  1.00  0.00    -0.027 C 
ATOM      4  C   UNL     1      -2.473  13.077   0.070  1.00  0.00     0.034 C 
ATOM      5  C   UNL     1      -1.588  13.950  -0.859  1.00  0.00    -0.022 C 
ATOM      6  C   UNL     1      -0.660  13.028  -1.707  1.00  0.00     0.008 C 
ATOM      7  C   UNL     1       0.606  12.579  -0.999  1.00  0.00     0.001 C 
ATOM      8  C   UNL     1       1.428  13.803  -0.616  1.00  0.00     0.007 C 
ATOM      9  C   UNL     1       0.734  14.657   0.472  1.00  0.00    -0.029 C 
ATOM     10  C   UNL     1      -0.768  14.992   0.040  1.00  0.00    -0.012 C 
ATOM     11  C   UNL     1      -1.577  15.567   1.237  1.00  0.00     0.022 C 
ATOM     12  C   UNL     1      -1.273  16.463   0.055  1.00  0.00     0.017 C 
ATOM     13  C   UNL     1       0.786  13.876   1.817  1.00  0.00     0.012 C 
ATOM     14  C   UNL     1       1.603  15.928   0.646  1.00  0.00     0.012 C 
ATOM     15  C   UNL     1      -2.514  14.644  -1.904  1.00  0.00     0.012 C 
ENDROOT
TORSDOF 0
ENDMDL
MODEL 8
REMARK VINA RESULT:    -4.053      2.687      5.614
REMARK INTER + INTRA:          -4.053
REMARK INTER:                  -4.053
REMARK INTRA:                   0.000
REMARK UNBOUND:                 0.000
REMARK SMILES CC1=CC[C@]2(C)CCCC(C)(C)[C@@]23C[C@@H]13
REMARK SMILES IDX 1 1 2 2 3 3 4 4 5 5 7 6 8 7 9 8 10 9 13 10 15 11 14 12 11 13
REMARK SMILES IDX 12 14 6 15
REMARK H PARENT
REMARK Flexibility Score: inf
ROOT
ATOM      1  C   UNL     1       4.066  15.769   2.962  1.00  0.00     0.039 C 
ATOM      2  C   UNL     1       3.145  15.066   2.006  1.00  0.00    -0.074 C 
ATOM      3  C   UNL     1       2.736  13.814   2.266  1.00  0.00    -0.027 C 
ATOM      4  C   UNL     1       1.735  13.125   1.378  1.00  0.00     0.034 C 
ATOM      5  C   UNL     1       0.646  14.121   0.894  1.00  0.00    -0.022 C 
ATOM      6  C   UNL     1      -0.392  13.364   0.010  1.00  0.00     0.008 C 
ATOM      7  C   UNL     1       0.022  13.183  -1.439  1.00  0.00     0.001 C 
ATOM      8  C   UNL     1       0.233  14.550  -2.076  1.00  0.00     0.007 C 
ATOM      9  C   UNL     1       1.454  15.291  -1.481  1.00  0.00    -0.029 C 
ATOM     10  C   UNL     1       1.360  15.325   0.114  1.00  0.00    -0.012 C 
ATOM     11  C   UNL     1       2.709  15.772   0.743  1.00  0.00     0.022 C 
ATOM     12  C   UNL     1       1.501  16.674   0.874  1.00  0.00     0.017 C 
ATOM     13  C   UNL     1       2.748  14.574  -1.967  1.00  0.00     0.012 C 
ATOM     14  C   UNL     1       1.452  16.708  -2.110  1.00  0.00     0.012 C 
ATOM     15  C   UNL     1      -0.166  14.596   2.136  1.00  0.00     0.012 C 
ENDROOT
TORSDOF 0
ENDMDL
MODEL 9
REMARK VINA RESULT:    -4.032      3.387      5.905
REMARK INTER + INTRA:          -4.032
REMARK INTER:                  -4.032
REMARK INTRA:                   0.000
REMARK UNBOUND:                 0.000
REMARK SMILES CC1=CC[C@]2(C)CCCC(C)(C)[C@@]23C[C@@H]13
REMARK SMILES IDX 1 1 2 2 3 3 4 4 5 5 7 6 8 7 9 8 10 9 13 10 15 11 14 12 11 13
REMARK SMILES IDX 12 14 6 15
REMARK H PARENT
REMARK Flexibility Score: inf
ROOT
ATOM      1  C   UNL     1       0.062  13.795   3.838  1.00  0.00     0.039 C 
ATOM      2  C   UNL     1       0.126  14.450   2.487  1.00  0.00    -0.074 C 
ATOM      3  C   UNL     1       1.306  14.866   1.999  1.00  0.00    -0.027 C 
ATOM      4  C   UNL     1       1.413  15.432   0.608  1.00  0.00     0.034 C 
ATOM      5  C   UNL     1       0.489  14.664  -0.375  1.00  0.00    -0.022 C 
ATOM      6  C   UNL     1       0.657  15.253  -1.810  1.00  0.00     0.008 C 
ATOM      7  C   UNL     1      -0.166  16.499  -2.082  1.00  0.00     0.001 C 
ATOM      8  C   UNL     1      -1.644  16.174  -1.906  1.00  0.00     0.007 C 
ATOM      9  C   UNL     1      -2.004  15.865  -0.433  1.00  0.00    -0.029 C 
ATOM     10  C   UNL     1      -1.018  14.754   0.157  1.00  0.00    -0.012 C 
ATOM     11  C   UNL     1      -1.149  14.658   1.704  1.00  0.00     0.022 C 
ATOM     12  C   UNL     1      -1.599  13.490   0.853  1.00  0.00     0.017 C 
ATOM     13  C   UNL     1      -1.929  17.191   0.379  1.00  0.00     0.012 C 
ATOM     14  C   UNL     1      -3.486  15.412  -0.433  1.00  0.00     0.012 C 
ATOM     15  C   UNL     1       1.010  13.199  -0.489  1.00  0.00     0.012 C 
ENDROOT
TORSDOF 0
ENDMDL
