MODEL 1
REMARK VINA RESULT:    -3.455      0.000      0.000
REMARK INTER + INTRA:          -4.006
REMARK INTER:                  -3.960
REMARK INTRA:                  -0.045
REMARK UNBOUND:                -0.045
REMARK SMILES CC(C)[C@@H]([NH3+])C(=O)[O-]
REMARK SMILES IDX 4 1 5 2 6 6 7 7 8 8 2 9 1 10 3 11
REMARK H PARENT 5 3 5 4 5 5
REMARK Flexibility Score: inf
ROOT
ATOM      1  C   UNL     1      27.958  26.756  21.793  1.00  0.00     0.230 C 
ENDROOT
BRANCH   1   2
ATOM      2  N   UNL     1      27.842  26.247  20.418  1.00  0.00    -0.350 N 
ATOM      3  H   UNL     1      28.514  25.463  20.255  1.00  0.00     0.345 HD
ATOM      4  H   UNL     1      28.025  27.015  19.732  1.00  0.00     0.345 HD
ATOM      5  H   UNL     1      26.869  25.904  20.242  1.00  0.00     0.345 HD
ENDBRANCH   1   2
BRANCH   1   6
ATOM      6  C   UNL     1      26.802  26.244  22.616  1.00  0.00     0.099 C 
ATOM      7  O   UNL     1      25.895  27.031  23.002  1.00  0.00    -0.544 OA
ATOM      8  O   UNL     1      26.726  24.898  22.946  1.00  0.00    -0.544 OA
ENDBRANCH   1   6
BRANCH   1   9
ATOM      9  C   UNL     1      29.320  26.366  22.444  1.00  0.00     0.047 C 
ATOM     10  C   UNL     1      30.036  25.257  21.655  1.00  0.00     0.014 C 
ATOM     11  C   UNL     1      30.253  27.583  22.560  1.00  0.00     0.014 C 
ENDBRANCH   1   9
TORSDOF 3
ENDMDL
MODEL 2
REMARK VINA RESULT:    -3.425     10.840     12.061
REMARK INTER + INTRA:          -3.971
REMARK INTER:                  -3.976
REMARK INTRA:                   0.005
REMARK UNBOUND:                -0.045
REMARK SMILES CC(C)[C@@H]([NH3+])C(=O)[O-]
REMARK SMILES IDX 4 1 5 2 6 6 7 7 8 8 2 9 1 10 3 11
REMARK H PARENT 5 3 5 4 5 5
REMARK Flexibility Score: inf
ROOT
ATOM      1  C   UNL     1      20.092  17.170  22.896  1.00  0.00     0.230 C 
ENDROOT
BRANCH   1   2
ATOM      2  N   UNL     1      21.527  16.855  22.838  1.00  0.00    -0.350 N 
ATOM      3  H   UNL     1      21.904  17.019  21.876  1.00  0.00     0.345 HD
ATOM      4  H   UNL     1      21.690  15.860  23.114  1.00  0.00     0.345 HD
ATOM      5  H   UNL     1      22.054  17.452  23.517  1.00  0.00     0.345 HD
ENDBRANCH   1   2
BRANCH   1   6
ATOM      6  C   UNL     1      19.679  17.365  24.334  1.00  0.00     0.099 C 
ATOM      7  O   UNL     1      19.628  16.382  25.122  1.00  0.00    -0.544 OA
ATOM      8  O   UNL     1      19.361  18.633  24.800  1.00  0.00    -0.544 OA
ENDBRANCH   1   6
BRANCH   1   9
ATOM      9  C   UNL     1      19.737  18.426  22.042  1.00  0.00     0.047 C 
ATOM     10  C   UNL     1      20.926  19.394  21.924  1.00  0.00     0.014 C 
ATOM     11  C   UNL     1      19.271  18.027  20.631  1.00  0.00     0.014 C 
ENDBRANCH   1   9
TORSDOF 3
ENDMDL
MODEL 3
REMARK VINA RESULT:    -3.372      2.351      3.284
REMARK INTER + INTRA:          -3.910
REMARK INTER:                  -3.911
REMARK INTRA:                   0.001
REMARK UNBOUND:                -0.045
REMARK SMILES CC(C)[C@@H]([NH3+])C(=O)[O-]
REMARK SMILES IDX 4 1 5 2 6 6 7 7 8 8 2 9 1 10 3 11
REMARK H PARENT 5 3 5 4 5 5
REMARK Flexibility Score: inf
ROOT
ATOM      1  C   UNL     1      28.245  26.050  21.601  1.00  0.00     0.230 C 
ENDROOT
BRANCH   1   2
ATOM      2  N   UNL     1      27.788  26.247  20.217  1.00  0.00    -0.350 N 
ATOM      3  H   UNL     1      28.602  26.387  19.575  1.00  0.00     0.345 HD
ATOM      4  H   UNL     1      27.151  27.074  20.162  1.00  0.00     0.345 HD
ATOM      5  H   UNL     1      27.241  25.415  19.897  1.00  0.00     0.345 HD
ENDBRANCH   1   2
BRANCH   1   6
ATOM      6  C   UNL     1      29.722  26.346  21.689  1.00  0.00     0.099 C 
ATOM      7  O   UNL     1      30.529  25.457  22.075  1.00  0.00    -0.544 OA
ATOM      8  O   UNL     1      30.202  27.600  21.335  1.00  0.00    -0.544 OA
ENDBRANCH   1   6
BRANCH   1   9
ATOM      9  C   UNL     1      27.442  26.927  22.610  1.00  0.00     0.047 C 
ATOM     10  C   UNL     1      26.014  26.396  22.821  1.00  0.00     0.014 C 
ATOM     11  C   UNL     1      28.155  27.009  23.970  1.00  0.00     0.014 C 
ENDBRANCH   1   9
TORSDOF 3
ENDMDL
MODEL 4
REMARK VINA RESULT:    -3.339      2.321      3.515
REMARK INTER + INTRA:          -3.872
REMARK INTER:                  -3.833
REMARK INTRA:                  -0.039
REMARK UNBOUND:                -0.045
REMARK SMILES CC(C)[C@@H]([NH3+])C(=O)[O-]
REMARK SMILES IDX 4 1 5 2 6 6 7 7 8 8 2 9 1 10 3 11
REMARK H PARENT 5 3 5 4 5 5
REMARK Flexibility Score: inf
ROOT
ATOM      1  C   UNL     1      28.303  25.647  21.621  1.00  0.00     0.230 C 
ENDROOT
BRANCH   1   2
ATOM      2  N   UNL     1      27.677  26.370  20.504  1.00  0.00    -0.350 N 
ATOM      3  H   UNL     1      27.798  25.844  19.608  1.00  0.00     0.345 HD
ATOM      4  H   UNL     1      28.096  27.323  20.410  1.00  0.00     0.345 HD
ATOM      5  H   UNL     1      26.655  26.500  20.687  1.00  0.00     0.345 HD
ENDBRANCH   1   2
BRANCH   1   6
ATOM      6  C   UNL     1      29.742  26.081  21.756  1.00  0.00     0.099 C 
ATOM      7  O   UNL     1      30.623  25.261  22.128  1.00  0.00    -0.544 OA
ATOM      8  O   UNL     1      30.103  27.389  21.461  1.00  0.00    -0.544 OA
ENDBRANCH   1   6
BRANCH   1   9
ATOM      9  C   UNL     1      27.530  25.862  22.959  1.00  0.00     0.047 C 
ATOM     10  C   UNL     1      27.017  27.305  23.099  1.00  0.00     0.014 C 
ATOM     11  C   UNL     1      26.342  24.892  23.079  1.00  0.00     0.014 C 
ENDBRANCH   1   9
TORSDOF 3
ENDMDL
MODEL 5
REMARK VINA RESULT:    -3.258      8.546      9.431
REMARK INTER + INTRA:          -3.779
REMARK INTER:                  -3.734
REMARK INTRA:                  -0.045
REMARK UNBOUND:                -0.045
REMARK SMILES CC(C)[C@@H]([NH3+])C(=O)[O-]
REMARK SMILES IDX 4 1 5 2 6 6 7 7 8 8 2 9 1 10 3 11
REMARK H PARENT 5 3 5 4 5 5
REMARK Flexibility Score: inf
ROOT
ATOM      1  C   UNL     1      21.507  20.162  23.105  1.00  0.00     0.230 C 
ENDROOT
BRANCH   1   2
ATOM      2  N   UNL     1      21.031  20.684  24.395  1.00  0.00    -0.350 N 
ATOM      3  H   UNL     1      21.460  20.156  25.189  1.00  0.00     0.345 HD
ATOM      4  H   UNL     1      19.989  20.615  24.450  1.00  0.00     0.345 HD
ATOM      5  H   UNL     1      21.277  21.697  24.486  1.00  0.00     0.345 HD
ENDBRANCH   1   2
BRANCH   1   6
ATOM      6  C   UNL     1      20.499  19.180  22.558  1.00  0.00     0.099 C 
ATOM      7  O   UNL     1      20.438  18.952  21.320  1.00  0.00    -0.544 OA
ATOM      8  O   UNL     1      19.639  18.515  23.421  1.00  0.00    -0.544 OA
ENDBRANCH   1   6
BRANCH   1   9
ATOM      9  C   UNL     1      21.782  21.304  22.080  1.00  0.00     0.047 C 
ATOM     10  C   UNL     1      21.668  22.695  22.728  1.00  0.00     0.014 C 
ATOM     11  C   UNL     1      23.174  21.159  21.442  1.00  0.00     0.014 C 
ENDBRANCH   1   9
TORSDOF 3
ENDMDL
MODEL 6
REMARK VINA RESULT:    -3.177      1.967      2.204
REMARK INTER + INTRA:          -3.686
REMARK INTER:                  -3.630
REMARK INTRA:                  -0.056
REMARK UNBOUND:                -0.045
REMARK SMILES CC(C)[C@@H]([NH3+])C(=O)[O-]
REMARK SMILES IDX 4 1 5 2 6 6 7 7 8 8 2 9 1 10 3 11
REMARK H PARENT 5 3 5 4 5 5
REMARK Flexibility Score: inf
ROOT
ATOM      1  C   UNL     1      27.929  26.452  22.156  1.00  0.00     0.230 C 
ENDROOT
BRANCH   1   2
ATOM      2  N   UNL     1      27.377  25.112  22.408  1.00  0.00    -0.350 N 
ATOM      3  H   UNL     1      28.119  24.381  22.307  1.00  0.00     0.345 HD
ATOM      4  H   UNL     1      26.595  24.913  21.744  1.00  0.00     0.345 HD
ATOM      5  H   UNL     1      26.980  25.063  23.375  1.00  0.00     0.345 HD
ENDBRANCH   1   2
BRANCH   1   6
ATOM      6  C   UNL     1      28.138  27.164  23.469  1.00  0.00     0.099 C 
ATOM      7  O   UNL     1      28.933  28.139  23.547  1.00  0.00    -0.544 OA
ATOM      8  O   UNL     1      27.445  26.754  24.600  1.00  0.00    -0.544 OA
ENDBRANCH   1   6
BRANCH   1   9
ATOM      9  C   UNL     1      29.257  26.390  21.341  1.00  0.00     0.047 C 
ATOM     10  C   UNL     1      30.203  25.298  21.869  1.00  0.00     0.014 C 
ATOM     11  C   UNL     1      28.985  26.140  19.847  1.00  0.00     0.014 C 
ENDBRANCH   1   9
TORSDOF 3
ENDMDL
MODEL 7
REMARK VINA RESULT:    -3.039      3.061      3.820
REMARK INTER + INTRA:          -3.529
REMARK INTER:                  -3.472
REMARK INTRA:                  -0.057
REMARK UNBOUND:                -0.045
REMARK SMILES CC(C)[C@@H]([NH3+])C(=O)[O-]
REMARK SMILES IDX 4 1 5 2 6 6 7 7 8 8 2 9 1 10 3 11
REMARK H PARENT 5 3 5 4 5 5
REMARK Flexibility Score: inf
ROOT
ATOM      1  C   UNL     1      30.208  26.976  22.063  1.00  0.00     0.230 C 
ENDROOT
BRANCH   1   2
ATOM      2  N   UNL     1      29.370  27.965  22.758  1.00  0.00    -0.350 N 
ATOM      3  H   UNL     1      29.538  28.925  22.379  1.00  0.00     0.345 HD
ATOM      4  H   UNL     1      29.572  27.952  23.784  1.00  0.00     0.345 HD
ATOM      5  H   UNL     1      28.358  27.725  22.641  1.00  0.00     0.345 HD
ENDBRANCH   1   2
BRANCH   1   6
ATOM      6  C   UNL     1      31.173  26.357  23.044  1.00  0.00     0.099 C 
ATOM      7  O   UNL     1      31.818  25.320  22.736  1.00  0.00    -0.544 OA
ATOM      8  O   UNL     1      31.361  26.936  24.293  1.00  0.00    -0.544 OA
ENDBRANCH   1   6
BRANCH   1   9
ATOM      9  C   UNL     1      29.351  25.879  21.359  1.00  0.00     0.047 C 
ATOM     10  C   UNL     1      28.040  25.604  22.115  1.00  0.00     0.014 C 
ATOM     11  C   UNL     1      29.023  26.273  19.909  1.00  0.00     0.014 C 
ENDBRANCH   1   9
TORSDOF 3
ENDMDL
MODEL 8
REMARK VINA RESULT:    -3.022      1.927      2.507
REMARK INTER + INTRA:          -3.510
REMARK INTER:                  -3.461
REMARK INTRA:                  -0.048
REMARK UNBOUND:                -0.045
REMARK SMILES CC(C)[C@@H]([NH3+])C(=O)[O-]
REMARK SMILES IDX 4 1 5 2 6 6 7 7 8 8 2 9 1 10 3 11
REMARK H PARENT 5 3 5 4 5 5
REMARK Flexibility Score: inf
ROOT
ATOM      1  C   UNL     1      29.254  26.714  22.884  1.00  0.00     0.230 C 
ENDROOT
BRANCH   1   2
ATOM      2  N   UNL     1      28.807  28.075  23.217  1.00  0.00    -0.350 N 
ATOM      3  H   UNL     1      28.957  28.722  22.409  1.00  0.00     0.345 HD
ATOM      4  H   UNL     1      29.326  28.430  24.053  1.00  0.00     0.345 HD
ATOM      5  H   UNL     1      27.791  28.069  23.465  1.00  0.00     0.345 HD
ENDBRANCH   1   2
BRANCH   1   6
ATOM      6  C   UNL     1      28.225  26.051  22.001  1.00  0.00     0.099 C 
ATOM      7  O   UNL     1      27.382  25.253  22.493  1.00  0.00    -0.544 OA
ATOM      8  O   UNL     1      28.197  26.325  20.640  1.00  0.00    -0.544 OA
ENDBRANCH   1   6
BRANCH   1   9
ATOM      9  C   UNL     1      30.656  26.712  22.200  1.00  0.00     0.047 C 
ATOM     10  C   UNL     1      31.349  28.081  22.313  1.00  0.00     0.014 C 
ATOM     11  C   UNL     1      31.570  25.633  22.805  1.00  0.00     0.014 C 
ENDBRANCH   1   9
TORSDOF 3
ENDMDL
MODEL 9
REMARK VINA RESULT:    -2.983     10.800     12.070
REMARK INTER + INTRA:          -3.464
REMARK INTER:                  -3.504
REMARK INTRA:                   0.040
REMARK UNBOUND:                -0.045
REMARK SMILES CC(C)[C@@H]([NH3+])C(=O)[O-]
REMARK SMILES IDX 4 1 5 2 6 6 7 7 8 8 2 9 1 10 3 11
REMARK H PARENT 5 3 5 4 5 5
REMARK Flexibility Score: inf
ROOT
ATOM      1  C   UNL     1      19.630  18.391  23.332  1.00  0.00     0.230 C 
ENDROOT
BRANCH   1   2
ATOM      2  N   UNL     1      20.006  19.251  24.464  1.00  0.00    -0.350 N 
ATOM      3  H   UNL     1      19.483  18.976  25.327  1.00  0.00     0.345 HD
ATOM      4  H   UNL     1      19.808  20.252  24.237  1.00  0.00     0.345 HD
ATOM      5  H   UNL     1      21.033  19.174  24.649  1.00  0.00     0.345 HD
ENDBRANCH   1   2
BRANCH   1   6
ATOM      6  C   UNL     1      20.345  18.857  22.088  1.00  0.00     0.099 C 
ATOM      7  O   UNL     1      20.149  18.280  20.985  1.00  0.00    -0.544 OA
ATOM      8  O   UNL     1      21.218  19.935  22.152  1.00  0.00    -0.544 OA
ENDBRANCH   1   6
BRANCH   1   9
ATOM      9  C   UNL     1      19.935  16.888  23.617  1.00  0.00     0.047 C 
ATOM     10  C   UNL     1      20.010  16.595  25.125  1.00  0.00     0.014 C 
ATOM     11  C   UNL     1      18.875  15.973  22.978  1.00  0.00     0.014 C 
ENDBRANCH   1   9
TORSDOF 3
ENDMDL
