MODEL 1
REMARK VINA RESULT:    -3.785      0.000      0.000
REMARK INTER + INTRA:          -6.210
REMARK INTER:                  -5.776
REMARK INTRA:                  -0.434
REMARK UNBOUND:                -0.434
REMARK SMILES O=C([O-])CCCCCCCCC(=O)[O-]
REMARK SMILES IDX 7 1 6 2 5 3 4 4 2 5 1 6 3 7 8 8 9 9 10 10 11 11 12 12 13 13
REMARK SMILES IDX 14 14
REMARK H PARENT
REMARK Flexibility Score: inf
ROOT
ATOM      1  C   UNL     1      15.924  32.800  11.433  1.00  0.00     0.000 C 
ENDROOT
BRANCH   1   2
ATOM      2  C   UNL     1      16.126  33.503  10.081  1.00  0.00     0.000 C 
BRANCH   2   3
ATOM      3  C   UNL     1      16.872  34.840  10.214  1.00  0.00     0.006 C 
BRANCH   3   4
ATOM      4  C   UNL     1      18.379  34.647  10.021  1.00  0.00     0.053 C 
BRANCH   4   5
ATOM      5  C   UNL     1      19.095  35.954  10.145  1.00  0.00     0.041 C 
ATOM      6  O   UNL     1      20.326  36.028   9.894  1.00  0.00    -0.550 OA
ATOM      7  O   UNL     1      18.393  37.102  10.490  1.00  0.00    -0.550 OA
ENDBRANCH   4   5
ENDBRANCH   3   4
ENDBRANCH   2   3
ENDBRANCH   1   2
BRANCH   1   8
ATOM      8  C   UNL     1      14.583  33.158  12.092  1.00  0.00     0.000 C 
BRANCH   8   9
ATOM      9  C   UNL     1      13.411  32.877  11.138  1.00  0.00     0.000 C 
BRANCH   9  10
ATOM     10  C   UNL     1      13.126  31.375  10.978  1.00  0.00     0.006 C 
BRANCH  10  11
ATOM     11  C   UNL     1      12.901  30.669  12.321  1.00  0.00     0.053 C 
BRANCH  11  12
ATOM     12  C   UNL     1      13.539  29.316  12.312  1.00  0.00     0.041 C 
ATOM     13  O   UNL     1      14.344  28.988  13.223  1.00  0.00    -0.550 OA
ATOM     14  O   UNL     1      13.206  28.398  11.324  1.00  0.00    -0.550 OA
ENDBRANCH  11  12
ENDBRANCH  10  11
ENDBRANCH   9  10
ENDBRANCH   8   9
ENDBRANCH   1   8
TORSDOF 9
ENDMDL
MODEL 2
REMARK VINA RESULT:    -3.757     20.892     22.511
REMARK INTER + INTRA:          -6.167
REMARK INTER:                  -5.603
REMARK INTRA:                  -0.564
REMARK UNBOUND:                -0.434
REMARK SMILES O=C([O-])CCCCCCCCC(=O)[O-]
REMARK SMILES IDX 7 1 6 2 5 3 4 4 2 5 1 6 3 7 8 8 9 9 10 10 11 11 12 12 13 13
REMARK SMILES IDX 14 14
REMARK H PARENT
REMARK Flexibility Score: inf
ROOT
ATOM      1  C   UNL     1      25.732  20.602  26.066  1.00  0.00     0.000 C 
ENDROOT
BRANCH   1   2
ATOM      2  C   UNL     1      25.265  19.138  26.051  1.00  0.00     0.000 C 
BRANCH   2   3
ATOM      3  C   UNL     1      23.814  18.974  26.528  1.00  0.00     0.006 C 
BRANCH   3   4
ATOM      4  C   UNL     1      22.909  20.040  25.903  1.00  0.00     0.053 C 
BRANCH   4   5
ATOM      5  C   UNL     1      22.357  20.943  26.961  1.00  0.00     0.041 C 
ATOM      6  O   UNL     1      22.543  22.186  26.893  1.00  0.00    -0.550 OA
ATOM      7  O   UNL     1      21.593  20.417  27.995  1.00  0.00    -0.550 OA
ENDBRANCH   4   5
ENDBRANCH   3   4
ENDBRANCH   2   3
ENDBRANCH   1   2
BRANCH   1   8
ATOM      8  C   UNL     1      26.675  20.936  24.900  1.00  0.00     0.000 C 
BRANCH   8   9
ATOM      9  C   UNL     1      26.399  20.025  23.694  1.00  0.00     0.000 C 
BRANCH   9  10
ATOM     10  C   UNL     1      27.665  19.320  23.181  1.00  0.00     0.006 C 
BRANCH  10  11
ATOM     11  C   UNL     1      28.845  19.442  24.154  1.00  0.00     0.053 C 
BRANCH  11  12
ATOM     12  C   UNL     1      30.132  19.557  23.401  1.00  0.00     0.041 C 
ATOM     13  O   UNL     1      31.132  18.876  23.746  1.00  0.00    -0.550 OA
ATOM     14  O   UNL     1      30.212  20.381  22.285  1.00  0.00    -0.550 OA
ENDBRANCH  11  12
ENDBRANCH  10  11
ENDBRANCH   9  10
ENDBRANCH   8   9
ENDBRANCH   1   8
TORSDOF 9
ENDMDL
MODEL 3
REMARK VINA RESULT:    -3.690     21.102     22.026
REMARK INTER + INTRA:          -6.066
REMARK INTER:                  -5.625
REMARK INTRA:                  -0.441
REMARK UNBOUND:                -0.434
REMARK SMILES O=C([O-])CCCCCCCCC(=O)[O-]
REMARK SMILES IDX 7 1 6 2 5 3 4 4 2 5 1 6 3 7 8 8 9 9 10 10 11 11 12 12 13 13
REMARK SMILES IDX 14 14
REMARK H PARENT
REMARK Flexibility Score: inf
ROOT
ATOM      1  C   UNL     1      27.754  20.915  25.214  1.00  0.00     0.000 C 
ENDROOT
BRANCH   1   2
ATOM      2  C   UNL     1      27.830  19.997  23.983  1.00  0.00     0.000 C 
BRANCH   2   3
ATOM      3  C   UNL     1      28.916  18.918  24.114  1.00  0.00     0.006 C 
BRANCH   3   4
ATOM      4  C   UNL     1      30.301  19.497  23.814  1.00  0.00     0.053 C 
BRANCH   4   5
ATOM      5  C   UNL     1      30.445  19.779  22.352  1.00  0.00     0.041 C 
ATOM      6  O   UNL     1      30.218  18.875  21.507  1.00  0.00    -0.550 OA
ATOM      7  O   UNL     1      30.782  21.056  21.920  1.00  0.00    -0.550 OA
ENDBRANCH   4   5
ENDBRANCH   3   4
ENDBRANCH   2   3
ENDBRANCH   1   2
BRANCH   1   8
ATOM      8  C   UNL     1      26.445  20.745  26.000  1.00  0.00     0.000 C 
BRANCH   8   9
ATOM      9  C   UNL     1      25.832  19.358  25.750  1.00  0.00     0.000 C 
BRANCH   9  10
ATOM     10  C   UNL     1      24.490  19.165  26.475  1.00  0.00     0.006 C 
BRANCH  10  11
ATOM     11  C   UNL     1      23.356  19.985  25.847  1.00  0.00     0.053 C 
BRANCH  11  12
ATOM     12  C   UNL     1      22.795  20.947  26.845  1.00  0.00     0.041 C 
ATOM     13  O   UNL     1      23.145  22.156  26.827  1.00  0.00    -0.550 OA
ATOM     14  O   UNL     1      21.845  20.520  27.764  1.00  0.00    -0.550 OA
ENDBRANCH  11  12
ENDBRANCH  10  11
ENDBRANCH   9  10
ENDBRANCH   8   9
ENDBRANCH   1   8
TORSDOF 9
ENDMDL
MODEL 4
REMARK VINA RESULT:    -3.659     20.558     22.294
REMARK INTER + INTRA:          -6.017
REMARK INTER:                  -5.594
REMARK INTRA:                  -0.423
REMARK UNBOUND:                -0.434
REMARK SMILES O=C([O-])CCCCCCCCC(=O)[O-]
REMARK SMILES IDX 7 1 6 2 5 3 4 4 2 5 1 6 3 7 8 8 9 9 10 10 11 11 12 12 13 13
REMARK SMILES IDX 14 14
REMARK H PARENT
REMARK Flexibility Score: inf
ROOT
ATOM      1  C   UNL     1      25.881  19.895  24.183  1.00  0.00     0.000 C 
ENDROOT
BRANCH   1   2
ATOM      2  C   UNL     1      25.439  19.209  25.486  1.00  0.00     0.000 C 
BRANCH   2   3
ATOM      3  C   UNL     1      24.452  20.061  26.298  1.00  0.00     0.006 C 
BRANCH   3   4
ATOM      4  C   UNL     1      24.878  21.531  26.310  1.00  0.00     0.053 C 
BRANCH   4   5
ATOM      5  C   UNL     1      23.722  22.410  26.670  1.00  0.00     0.041 C 
ATOM      6  O   UNL     1      23.888  23.649  26.810  1.00  0.00    -0.550 OA
ATOM      7  O   UNL     1      22.451  21.865  26.803  1.00  0.00    -0.550 OA
ENDBRANCH   4   5
ENDBRANCH   3   4
ENDBRANCH   2   3
ENDBRANCH   1   2
BRANCH   1   8
ATOM      8  C   UNL     1      27.390  19.764  23.926  1.00  0.00     0.000 C 
BRANCH   8   9
ATOM      9  C   UNL     1      28.187  20.687  24.860  1.00  0.00     0.000 C 
BRANCH   9  10
ATOM     10  C   UNL     1      29.673  20.775  24.479  1.00  0.00     0.006 C 
BRANCH  10  11
ATOM     11  C   UNL     1      30.180  19.508  23.780  1.00  0.00     0.053 C 
BRANCH  11  12
ATOM     12  C   UNL     1      30.470  19.787  22.339  1.00  0.00     0.041 C 
ATOM     13  O   UNL     1      30.349  18.877  21.479  1.00  0.00    -0.550 OA
ATOM     14  O   UNL     1      30.827  21.069  21.939  1.00  0.00    -0.550 OA
ENDBRANCH  11  12
ENDBRANCH  10  11
ENDBRANCH   9  10
ENDBRANCH   8   9
ENDBRANCH   1   8
TORSDOF 9
ENDMDL
MODEL 5
REMARK VINA RESULT:    -3.658     20.445     21.930
REMARK INTER + INTRA:          -6.017
REMARK INTER:                  -5.476
REMARK INTRA:                  -0.541
REMARK UNBOUND:                -0.434
REMARK SMILES O=C([O-])CCCCCCCCC(=O)[O-]
REMARK SMILES IDX 7 1 6 2 5 3 4 4 2 5 1 6 3 7 8 8 9 9 10 10 11 11 12 12 13 13
REMARK SMILES IDX 14 14
REMARK H PARENT
REMARK Flexibility Score: inf
ROOT
ATOM      1  C   UNL     1      28.225  20.772  24.849  1.00  0.00     0.000 C 
ENDROOT
BRANCH   1   2
ATOM      2  C   UNL     1      27.469  20.104  23.689  1.00  0.00     0.000 C 
BRANCH   2   3
ATOM      3  C   UNL     1      28.349  19.132  22.888  1.00  0.00     0.006 C 
BRANCH   3   4
ATOM      4  C   UNL     1      29.775  19.100  23.447  1.00  0.00     0.053 C 
BRANCH   4   5
ATOM      5  C   UNL     1      30.743  19.642  22.443  1.00  0.00     0.041 C 
ATOM      6  O   UNL     1      30.599  20.806  21.988  1.00  0.00    -0.550 OA
ATOM      7  O   UNL     1      31.834  18.878  22.048  1.00  0.00    -0.550 OA
ENDBRANCH   4   5
ENDBRANCH   3   4
ENDBRANCH   2   3
ENDBRANCH   1   2
BRANCH   1   8
ATOM      8  C   UNL     1      27.398  20.824  26.142  1.00  0.00     0.000 C 
BRANCH   8   9
ATOM      9  C   UNL     1      26.170  19.905  26.046  1.00  0.00     0.000 C 
BRANCH   9  10
ATOM     10  C   UNL     1      24.849  20.686  25.974  1.00  0.00     0.006 C 
BRANCH  10  11
ATOM     11  C   UNL     1      25.023  22.174  26.307  1.00  0.00     0.053 C 
BRANCH  11  12
ATOM     12  C   UNL     1      23.717  22.771  26.725  1.00  0.00     0.041 C 
ATOM     13  O   UNL     1      22.685  22.054  26.798  1.00  0.00    -0.550 OA
ATOM     14  O   UNL     1      23.649  24.112  27.081  1.00  0.00    -0.550 OA
ENDBRANCH  11  12
ENDBRANCH  10  11
ENDBRANCH   9  10
ENDBRANCH   8   9
ENDBRANCH   1   8
TORSDOF 9
ENDMDL
MODEL 6
REMARK VINA RESULT:    -3.603     19.897     21.556
REMARK INTER + INTRA:          -5.932
REMARK INTER:                  -5.305
REMARK INTRA:                  -0.627
REMARK UNBOUND:                -0.434
REMARK SMILES O=C([O-])CCCCCCCCC(=O)[O-]
REMARK SMILES IDX 7 1 6 2 5 3 4 4 2 5 1 6 3 7 8 8 9 9 10 10 11 11 12 12 13 13
REMARK SMILES IDX 14 14
REMARK H PARENT
REMARK Flexibility Score: inf
ROOT
ATOM      1  C   UNL     1      24.183  19.940  26.435  1.00  0.00     0.000 C 
ENDROOT
BRANCH   1   2
ATOM      2  C   UNL     1      22.779  20.540  26.611  1.00  0.00     0.000 C 
BRANCH   2   3
ATOM      3  C   UNL     1      22.802  22.069  26.765  1.00  0.00     0.006 C 
BRANCH   3   4
ATOM      4  C   UNL     1      24.208  22.622  26.510  1.00  0.00     0.053 C 
BRANCH   4   5
ATOM      5  C   UNL     1      24.239  24.099  26.743  1.00  0.00     0.041 C 
ATOM      6  O   UNL     1      23.928  24.571  27.868  1.00  0.00    -0.550 OA
ATOM      7  O   UNL     1      24.661  24.954  25.732  1.00  0.00    -0.550 OA
ENDBRANCH   4   5
ENDBRANCH   3   4
ENDBRANCH   2   3
ENDBRANCH   1   2
BRANCH   1   8
ATOM      8  C   UNL     1      24.291  19.040  25.194  1.00  0.00     0.000 C 
BRANCH   8   9
ATOM      9  C   UNL     1      25.734  19.005  24.666  1.00  0.00     0.000 C 
BRANCH   9  10
ATOM     10  C   UNL     1      26.344  20.407  24.516  1.00  0.00     0.006 C 
BRANCH  10  11
ATOM     11  C   UNL     1      27.679  20.554  25.257  1.00  0.00     0.053 C 
BRANCH  11  12
ATOM     12  C   UNL     1      28.818  20.545  24.287  1.00  0.00     0.041 C 
ATOM     13  O   UNL     1      28.650  20.118  23.115  1.00  0.00    -0.550 OA
ATOM     14  O   UNL     1      30.054  21.057  24.662  1.00  0.00    -0.550 OA
ENDBRANCH  11  12
ENDBRANCH  10  11
ENDBRANCH   9  10
ENDBRANCH   8   9
ENDBRANCH   1   8
TORSDOF 9
ENDMDL
MODEL 7
REMARK VINA RESULT:    -3.597     21.173     22.795
REMARK INTER + INTRA:          -5.924
REMARK INTER:                  -5.526
REMARK INTRA:                  -0.398
REMARK UNBOUND:                -0.434
REMARK SMILES O=C([O-])CCCCCCCCC(=O)[O-]
REMARK SMILES IDX 7 1 6 2 5 3 4 4 2 5 1 6 3 7 8 8 9 9 10 10 11 11 12 12 13 13
REMARK SMILES IDX 14 14
REMARK H PARENT
REMARK Flexibility Score: inf
ROOT
ATOM      1  C   UNL     1      25.556  19.638  25.684  1.00  0.00     0.000 C 
ENDROOT
BRANCH   1   2
ATOM      2  C   UNL     1      24.476  19.145  24.707  1.00  0.00     0.000 C 
BRANCH   2   3
ATOM      3  C   UNL     1      23.069  19.159  25.323  1.00  0.00     0.006 C 
BRANCH   3   4
ATOM      4  C   UNL     1      23.140  19.287  26.847  1.00  0.00     0.053 C 
BRANCH   4   5
ATOM      5  C   UNL     1      22.375  20.488  27.308  1.00  0.00     0.041 C 
ATOM      6  O   UNL     1      21.535  20.385  28.238  1.00  0.00    -0.550 OA
ATOM      7  O   UNL     1      22.628  21.732  26.743  1.00  0.00    -0.550 OA
ENDBRANCH   4   5
ENDBRANCH   3   4
ENDBRANCH   2   3
ENDBRANCH   1   2
BRANCH   1   8
ATOM      8  C   UNL     1      26.971  19.562  25.091  1.00  0.00     0.000 C 
BRANCH   8   9
ATOM      9  C   UNL     1      27.818  20.763  25.540  1.00  0.00     0.000 C 
BRANCH   9  10
ATOM     10  C   UNL     1      29.179  20.827  24.827  1.00  0.00     0.006 C 
BRANCH  10  11
ATOM     11  C   UNL     1      29.111  20.330  23.377  1.00  0.00     0.053 C 
BRANCH  11  12
ATOM     12  C   UNL     1      30.367  19.603  23.015  1.00  0.00     0.041 C 
ATOM     13  O   UNL     1      30.834  19.684  21.850  1.00  0.00    -0.550 OA
ATOM     14  O   UNL     1      31.050  18.875  23.981  1.00  0.00    -0.550 OA
ENDBRANCH  11  12
ENDBRANCH  10  11
ENDBRANCH   9  10
ENDBRANCH   8   9
ENDBRANCH   1   8
TORSDOF 9
ENDMDL
MODEL 8
REMARK VINA RESULT:    -3.581     19.930     21.416
REMARK INTER + INTRA:          -5.898
REMARK INTER:                  -5.266
REMARK INTRA:                  -0.633
REMARK UNBOUND:                -0.434
REMARK SMILES O=C([O-])CCCCCCCCC(=O)[O-]
REMARK SMILES IDX 7 1 6 2 5 3 4 4 2 5 1 6 3 7 8 8 9 9 10 10 11 11 12 12 13 13
REMARK SMILES IDX 14 14
REMARK H PARENT
REMARK Flexibility Score: inf
ROOT
ATOM      1  C   UNL     1      24.393  19.125  25.110  1.00  0.00     0.000 C 
ENDROOT
BRANCH   1   2
ATOM      2  C   UNL     1      25.834  19.066  24.576  1.00  0.00     0.000 C 
BRANCH   2   3
ATOM      3  C   UNL     1      26.474  20.457  24.446  1.00  0.00     0.006 C 
BRANCH   3   4
ATOM      4  C   UNL     1      27.770  20.540  25.258  1.00  0.00     0.053 C 
BRANCH   4   5
ATOM      5  C   UNL     1      28.957  20.580  24.348  1.00  0.00     0.041 C 
ATOM      6  O   UNL     1      30.026  21.127  24.725  1.00  0.00    -0.550 OA
ATOM      7  O   UNL     1      28.899  19.969  23.102  1.00  0.00    -0.550 OA
ENDBRANCH   4   5
ENDBRANCH   3   4
ENDBRANCH   2   3
ENDBRANCH   1   2
BRANCH   1   8
ATOM      8  C   UNL     1      24.277  19.930  26.413  1.00  0.00     0.000 C 
BRANCH   8   9
ATOM      9  C   UNL     1      22.868  20.524  26.567  1.00  0.00     0.000 C 
BRANCH   9  10
ATOM     10  C   UNL     1      22.887  22.048  26.761  1.00  0.00     0.006 C 
BRANCH  10  11
ATOM     11  C   UNL     1      24.261  22.665  26.470  1.00  0.00     0.053 C 
BRANCH  11  12
ATOM     12  C   UNL     1      24.244  24.134  26.751  1.00  0.00     0.041 C 
ATOM     13  O   UNL     1      23.757  24.569  27.827  1.00  0.00    -0.550 OA
ATOM     14  O   UNL     1      24.811  25.021  25.845  1.00  0.00    -0.550 OA
ENDBRANCH  11  12
ENDBRANCH  10  11
ENDBRANCH   9  10
ENDBRANCH   8   9
ENDBRANCH   1   8
TORSDOF 9
ENDMDL
MODEL 9
REMARK VINA RESULT:    -3.507     19.989     21.425
REMARK INTER + INTRA:          -5.786
REMARK INTER:                  -5.277
REMARK INTRA:                  -0.510
REMARK UNBOUND:                -0.434
REMARK SMILES O=C([O-])CCCCCCCCC(=O)[O-]
REMARK SMILES IDX 7 1 6 2 5 3 4 4 2 5 1 6 3 7 8 8 9 9 10 10 11 11 12 12 13 13
REMARK SMILES IDX 14 14
REMARK H PARENT
REMARK Flexibility Score: inf
ROOT
ATOM      1  C   UNL     1      24.389  19.108  26.412  1.00  0.00     0.000 C 
ENDROOT
BRANCH   1   2
ATOM      2  C   UNL     1      25.485  18.974  25.342  1.00  0.00     0.000 C 
BRANCH   2   3
ATOM      3  C   UNL     1      26.355  20.235  25.225  1.00  0.00     0.006 C 
BRANCH   3   4
ATOM      4  C   UNL     1      27.175  20.214  23.932  1.00  0.00     0.053 C 
BRANCH   4   5
ATOM      5  C   UNL     1      28.604  20.557  24.212  1.00  0.00     0.041 C 
ATOM      6  O   UNL     1      29.487  20.358  23.337  1.00  0.00    -0.550 OA
ATOM      7  O   UNL     1      28.954  21.142  25.423  1.00  0.00    -0.550 OA
ENDBRANCH   4   5
ENDBRANCH   3   4
ENDBRANCH   2   3
ENDBRANCH   1   2
BRANCH   1   8
ATOM      8  C   UNL     1      23.171  19.901  25.916  1.00  0.00     0.000 C 
BRANCH   8   9
ATOM      9  C   UNL     1      22.539  20.709  27.061  1.00  0.00     0.000 C 
BRANCH   9  10
ATOM     10  C   UNL     1      22.619  22.226  26.828  1.00  0.00     0.006 C 
BRANCH  10  11
ATOM     11  C   UNL     1      24.048  22.708  26.550  1.00  0.00     0.053 C 
BRANCH  11  12
ATOM     12  C   UNL     1      24.179  24.164  26.868  1.00  0.00     0.041 C 
ATOM     13  O   UNL     1      23.684  24.629  27.927  1.00  0.00    -0.550 OA
ATOM     14  O   UNL     1      24.892  24.999  26.017  1.00  0.00    -0.550 OA
ENDBRANCH  11  12
ENDBRANCH  10  11
ENDBRANCH   9  10
ENDBRANCH   8   9
ENDBRANCH   1   8
TORSDOF 9
ENDMDL
