MODEL 1
REMARK VINA RESULT:     0.000      0.000      0.000
REMARK INTER + INTRA:           0.000
REMARK INTER:                   0.000
REMARK INTRA:                   0.000
REMARK UNBOUND:                 0.000
REMARK SMILES O=c1ccc2ccccc2o1
REMARK SMILES IDX 7 1 8 2 9 3 10 4 5 5 6 6 4 7 3 8 2 9 1 10 11 11
REMARK H PARENT
REMARK Flexibility Score: inf
ROOT
ATOM      1  C   UNL     1     186.935 187.463 176.043  1.00  0.00     0.001 A 
ATOM      2  C   UNL     1     186.240 186.305 176.405  1.00  0.00     0.004 A 
ATOM      3  C   UNL     1     185.590 185.540 175.430  1.00  0.00     0.048 A 
ATOM      4  C   UNL     1     185.633 185.933 174.088  1.00  0.00     0.138 A 
ATOM      5  C   UNL     1     186.335 187.103 173.722  1.00  0.00     0.018 A 
ATOM      6  C   UNL     1     186.985 187.865 174.705  1.00  0.00     0.012 A 
ATOM      7  C   UNL     1     186.362 187.471 172.373  1.00  0.00     0.019 A 
ATOM      8  C   UNL     1     185.699 186.679 171.436  1.00  0.00     0.094 A 
ATOM      9  C   UNL     1     185.024 185.534 171.871  1.00  0.00     0.336 A 
ATOM     10  O   UNL     1     184.419 184.806 171.040  1.00  0.00    -0.246 OA
ATOM     11  O   UNL     1     185.014 185.206 173.161  1.00  0.00    -0.423 OA
ENDROOT
TORSDOF 0
ENDMDL
MODEL 2
REMARK VINA RESULT:     0.000      2.547      4.021
REMARK INTER + INTRA:           0.000
REMARK INTER:                   0.000
REMARK INTRA:                   0.000
REMARK UNBOUND:                 0.000
REMARK SMILES O=c1ccc2ccccc2o1
REMARK SMILES IDX 7 1 8 2 9 3 10 4 5 5 6 6 4 7 3 8 2 9 1 10 11 11
REMARK H PARENT
REMARK Flexibility Score: inf
ROOT
ATOM      1  C   UNL     1     187.312 187.217 173.880  1.00  0.00     0.001 A 
ATOM      2  C   UNL     1     186.234 186.605 173.232  1.00  0.00     0.004 A 
ATOM      3  C   UNL     1     185.827 185.319 173.603  1.00  0.00     0.048 A 
ATOM      4  C   UNL     1     186.499 184.640 174.625  1.00  0.00     0.138 A 
ATOM      5  C   UNL     1     187.589 185.256 175.280  1.00  0.00     0.018 A 
ATOM      6  C   UNL     1     187.991 186.547 174.903  1.00  0.00     0.012 A 
ATOM      7  C   UNL     1     188.241 184.554 176.297  1.00  0.00     0.019 A 
ATOM      8  C   UNL     1     187.801 183.273 176.634  1.00  0.00     0.094 A 
ATOM      9  C   UNL     1     186.715 182.725 175.942  1.00  0.00     0.336 A 
ATOM     10  O   UNL     1     186.304 181.571 176.231  1.00  0.00    -0.246 OA
ATOM     11  O   UNL     1     186.112 183.416 174.978  1.00  0.00    -0.423 OA
ENDROOT
TORSDOF 0
ENDMDL
MODEL 3
REMARK VINA RESULT:     0.000      2.848      3.929
REMARK INTER + INTRA:           0.000
REMARK INTER:                   0.000
REMARK INTRA:                   0.000
REMARK UNBOUND:                 0.000
REMARK SMILES O=c1ccc2ccccc2o1
REMARK SMILES IDX 7 1 8 2 9 3 10 4 5 5 6 6 4 7 3 8 2 9 1 10 11 11
REMARK H PARENT
REMARK Flexibility Score: inf
ROOT
ATOM      1  C   UNL     1     187.415 188.525 172.626  1.00  0.00     0.001 A 
ATOM      2  C   UNL     1     186.697 187.730 171.728  1.00  0.00     0.004 A 
ATOM      3  C   UNL     1     186.860 186.340 171.731  1.00  0.00     0.048 A 
ATOM      4  C   UNL     1     187.745 185.742 172.634  1.00  0.00     0.138 A 
ATOM      5  C   UNL     1     188.472 186.545 173.542  1.00  0.00     0.018 A 
ATOM      6  C   UNL     1     188.302 187.937 173.534  1.00  0.00     0.012 A 
ATOM      7  C   UNL     1     189.348 185.918 174.433  1.00  0.00     0.019 A 
ATOM      8  C   UNL     1     189.480 184.530 174.399  1.00  0.00     0.094 A 
ATOM      9  C   UNL     1     188.729 183.799 173.473  1.00  0.00     0.336 A 
ATOM     10  O   UNL     1     188.835 182.545 173.427  1.00  0.00    -0.246 OA
ATOM     11  O   UNL     1     187.901 184.420 172.636  1.00  0.00    -0.423 OA
ENDROOT
TORSDOF 0
ENDMDL
MODEL 4
REMARK VINA RESULT:     0.000      9.324     10.734
REMARK INTER + INTRA:           0.000
REMARK INTER:                   0.000
REMARK INTRA:                   0.000
REMARK UNBOUND:                 0.000
REMARK SMILES O=c1ccc2ccccc2o1
REMARK SMILES IDX 7 1 8 2 9 3 10 4 5 5 6 6 4 7 3 8 2 9 1 10 11 11
REMARK H PARENT
REMARK Flexibility Score: inf
ROOT
ATOM      1  C   UNL     1     179.708 181.828 179.598  1.00  0.00     0.001 A 
ATOM      2  C   UNL     1     178.995 181.470 180.746  1.00  0.00     0.004 A 
ATOM      3  C   UNL     1     179.403 181.933 182.002  1.00  0.00     0.048 A 
ATOM      4  C   UNL     1     180.527 182.758 182.112  1.00  0.00     0.138 A 
ATOM      5  C   UNL     1     181.248 183.121 180.953  1.00  0.00     0.018 A 
ATOM      6  C   UNL     1     180.833 182.653 179.697  1.00  0.00     0.012 A 
ATOM      7  C   UNL     1     182.367 183.947 181.094  1.00  0.00     0.019 A 
ATOM      8  C   UNL     1     182.738 184.385 182.366  1.00  0.00     0.094 A 
ATOM      9  C   UNL     1     181.976 183.985 183.469  1.00  0.00     0.336 A 
ATOM     10  O   UNL     1     182.295 184.370 184.625  1.00  0.00    -0.246 OA
ATOM     11  O   UNL     1     180.915 183.198 183.307  1.00  0.00    -0.423 OA
ENDROOT
TORSDOF 0
ENDMDL
MODEL 5
REMARK VINA RESULT:     0.000      7.591      8.960
REMARK INTER + INTRA:           0.000
REMARK INTER:                   0.000
REMARK INTRA:                   0.000
REMARK UNBOUND:                 0.000
REMARK SMILES O=c1ccc2ccccc2o1
REMARK SMILES IDX 7 1 8 2 9 3 10 4 5 5 6 6 4 7 3 8 2 9 1 10 11 11
REMARK H PARENT
REMARK Flexibility Score: inf
ROOT
ATOM      1  C   UNL     1     179.824 183.598 179.017  1.00  0.00     0.001 A 
ATOM      2  C   UNL     1     179.678 183.288 180.372  1.00  0.00     0.004 A 
ATOM      3  C   UNL     1     180.349 184.039 181.343  1.00  0.00     0.048 A 
ATOM      4  C   UNL     1     181.172 185.104 180.959  1.00  0.00     0.138 A 
ATOM      5  C   UNL     1     181.321 185.417 179.589  1.00  0.00     0.018 A 
ATOM      6  C   UNL     1     180.643 184.660 178.622  1.00  0.00     0.012 A 
ATOM      7  C   UNL     1     182.149 186.487 179.236  1.00  0.00     0.019 A 
ATOM      8  C   UNL     1     182.800 187.207 180.237  1.00  0.00     0.094 A 
ATOM      9  C   UNL     1     182.605 186.840 181.573  1.00  0.00     0.336 A 
ATOM     10  O   UNL     1     183.184 187.479 182.491  1.00  0.00    -0.246 OA
ATOM     11  O   UNL     1     181.811 185.818 181.883  1.00  0.00    -0.423 OA
ENDROOT
TORSDOF 0
ENDMDL
MODEL 6
REMARK VINA RESULT:     0.000      9.214     10.429
REMARK INTER + INTRA:           0.000
REMARK INTER:                   0.000
REMARK INTRA:                   0.000
REMARK UNBOUND:                 0.000
REMARK SMILES O=c1ccc2ccccc2o1
REMARK SMILES IDX 7 1 8 2 9 3 10 4 5 5 6 6 4 7 3 8 2 9 1 10 11 11
REMARK H PARENT
REMARK Flexibility Score: inf
ROOT
ATOM      1  C   UNL     1     179.276 184.771 179.291  1.00  0.00     0.001 A 
ATOM      2  C   UNL     1     179.007 184.065 180.467  1.00  0.00     0.004 A 
ATOM      3  C   UNL     1     179.280 184.640 181.713  1.00  0.00     0.048 A 
ATOM      4  C   UNL     1     179.824 185.927 181.785  1.00  0.00     0.138 A 
ATOM      5  C   UNL     1     180.096 186.642 180.597  1.00  0.00     0.018 A 
ATOM      6  C   UNL     1     179.820 186.059 179.352  1.00  0.00     0.012 A 
ATOM      7  C   UNL     1     180.639 187.926 180.701  1.00  0.00     0.019 A 
ATOM      8  C   UNL     1     180.895 188.461 181.963  1.00  0.00     0.094 A 
ATOM      9  C   UNL     1     180.600 187.695 183.096  1.00  0.00     0.336 A 
ATOM     10  O   UNL     1     180.825 188.160 184.245  1.00  0.00    -0.246 OA
ATOM     11  O   UNL     1     180.083 186.475 182.971  1.00  0.00    -0.423 OA
ENDROOT
TORSDOF 0
ENDMDL
MODEL 7
REMARK VINA RESULT:     0.000     11.791     13.240
REMARK INTER + INTRA:           0.000
REMARK INTER:                   0.000
REMARK INTRA:                   0.000
REMARK UNBOUND:                 0.000
REMARK SMILES O=c1ccc2ccccc2o1
REMARK SMILES IDX 7 1 8 2 9 3 10 4 5 5 6 6 4 7 3 8 2 9 1 10 11 11
REMARK H PARENT
REMARK Flexibility Score: inf
ROOT
ATOM      1  C   UNL     1     179.798 178.031 178.425  1.00  0.00     0.001 A 
ATOM      2  C   UNL     1     178.571 177.426 178.714  1.00  0.00     0.004 A 
ATOM      3  C   UNL     1     178.026 177.517 180.000  1.00  0.00     0.048 A 
ATOM      4  C   UNL     1     178.710 178.214 181.001  1.00  0.00     0.138 A 
ATOM      5  C   UNL     1     179.949 178.826 180.710  1.00  0.00     0.018 A 
ATOM      6  C   UNL     1     180.489 178.731 179.418  1.00  0.00     0.012 A 
ATOM      7  C   UNL     1     180.609 179.517 181.731  1.00  0.00     0.019 A 
ATOM      8  C   UNL     1     180.029 179.581 182.998  1.00  0.00     0.094 A 
ATOM      9  C   UNL     1     178.799 178.951 183.214  1.00  0.00     0.336 A 
ATOM     10  O   UNL     1     178.260 178.998 184.351  1.00  0.00    -0.246 OA
ATOM     11  O   UNL     1     178.191 178.300 182.225  1.00  0.00    -0.423 OA
ENDROOT
TORSDOF 0
ENDMDL
MODEL 8
REMARK VINA RESULT:     0.000     12.880     14.566
REMARK INTER + INTRA:           0.000
REMARK INTER:                   0.000
REMARK INTRA:                   0.000
REMARK UNBOUND:                 0.000
REMARK SMILES O=c1ccc2ccccc2o1
REMARK SMILES IDX 7 1 8 2 9 3 10 4 5 5 6 6 4 7 3 8 2 9 1 10 11 11
REMARK H PARENT
REMARK Flexibility Score: inf
ROOT
ATOM      1  C   UNL     1     179.909 177.433 178.596  1.00  0.00     0.001 A 
ATOM      2  C   UNL     1     178.644 176.837 178.607  1.00  0.00     0.004 A 
ATOM      3  C   UNL     1     178.216 176.111 179.724  1.00  0.00     0.048 A 
ATOM      4  C   UNL     1     179.056 175.979 180.836  1.00  0.00     0.138 A 
ATOM      5  C   UNL     1     180.334 176.581 180.826  1.00  0.00     0.018 A 
ATOM      6  C   UNL     1     180.755 177.307 179.702  1.00  0.00     0.012 A 
ATOM      7  C   UNL     1     181.150 176.432 181.951  1.00  0.00     0.019 A 
ATOM      8  C   UNL     1     180.684 175.699 183.042  1.00  0.00     0.094 A 
ATOM      9  C   UNL     1     179.406 175.132 182.982  1.00  0.00     0.336 A 
ATOM     10  O   UNL     1     178.968 174.466 183.957  1.00  0.00    -0.246 OA
ATOM     11  O   UNL     1     178.649 175.288 181.899  1.00  0.00    -0.423 OA
ENDROOT
TORSDOF 0
ENDMDL
MODEL 9
REMARK VINA RESULT:     0.000     13.093     13.590
REMARK INTER + INTRA:           0.000
REMARK INTER:                   0.000
REMARK INTRA:                   0.000
REMARK UNBOUND:                 0.000
REMARK SMILES O=c1ccc2ccccc2o1
REMARK SMILES IDX 7 1 8 2 9 3 10 4 5 5 6 6 4 7 3 8 2 9 1 10 11 11
REMARK H PARENT
REMARK Flexibility Score: inf
ROOT
ATOM      1  C   UNL     1     189.313 174.182 180.080  1.00  0.00     0.001 A 
ATOM      2  C   UNL     1     188.717 175.170 180.870  1.00  0.00     0.004 A 
ATOM      3  C   UNL     1     187.349 175.439 180.748  1.00  0.00     0.048 A 
ATOM      4  C   UNL     1     186.574 174.720 179.832  1.00  0.00     0.138 A 
ATOM      5  C   UNL     1     187.176 173.722 179.033  1.00  0.00     0.018 A 
ATOM      6  C   UNL     1     188.547 173.457 179.162  1.00  0.00     0.012 A 
ATOM      7  C   UNL     1     186.375 173.019 178.128  1.00  0.00     0.019 A 
ATOM      8  C   UNL     1     185.017 173.322 178.038  1.00  0.00     0.094 A 
ATOM      9  C   UNL     1     184.489 174.323 178.861  1.00  0.00     0.336 A 
ATOM     10  O   UNL     1     183.265 174.611 178.795  1.00  0.00    -0.246 OA
ATOM     11  O   UNL     1     185.273 174.977 179.715  1.00  0.00    -0.423 OA
ENDROOT
TORSDOF 0
ENDMDL
