MODEL 1
REMARK VINA RESULT:    -4.510      0.000      0.000
REMARK INTER + INTRA:          -6.214
REMARK INTER:                  -5.828
REMARK INTRA:                  -0.386
REMARK UNBOUND:                -0.386
REMARK SMILES CCCCCCC(=O)[O-]
REMARK SMILES IDX 5 1 6 2 7 3 8 4 9 5 4 6 3 7 2 8 1 9
REMARK H PARENT
REMARK Flexibility Score: inf
ROOT
ATOM      1  C   UNL     1      -3.257  36.719  97.447  1.00  0.00     0.006 C 
ENDROOT
BRANCH   1   2
ATOM      2  C   UNL     1      -4.652  36.711  96.809  1.00  0.00     0.053 C 
BRANCH   2   3
ATOM      3  C   UNL     1      -5.538  37.713  97.479  1.00  0.00     0.041 C 
ATOM      4  O   UNL     1      -6.704  37.916  97.048  1.00  0.00    -0.550 OA
ATOM      5  O   UNL     1      -5.095  38.387  98.611  1.00  0.00    -0.550 OA
ENDBRANCH   2   3
ENDBRANCH   1   2
BRANCH   1   6
ATOM      6  C   UNL     1      -2.894  35.372  98.093  1.00  0.00     0.000 C 
BRANCH   6   7
ATOM      7  C   UNL     1      -2.917  35.428  99.628  1.00  0.00    -0.000 C 
BRANCH   7   8
ATOM      8  C   UNL     1      -4.014  34.518 100.193  1.00  0.00    -0.003 C 
ATOM      9  C   UNL     1      -5.353  35.247 100.265  1.00  0.00     0.004 C 
ENDBRANCH   7   8
ENDBRANCH   6   7
ENDBRANCH   1   6
TORSDOF 5
ENDMDL
MODEL 2
REMARK VINA RESULT:    -4.381      2.126      3.559
REMARK INTER + INTRA:          -6.046
REMARK INTER:                  -5.616
REMARK INTRA:                  -0.431
REMARK UNBOUND:                -0.386
REMARK SMILES CCCCCCC(=O)[O-]
REMARK SMILES IDX 5 1 6 2 7 3 8 4 9 5 4 6 3 7 2 8 1 9
REMARK H PARENT
REMARK Flexibility Score: inf
ROOT
ATOM      1  C   UNL     1      -3.668  34.561 100.289  1.00  0.00     0.006 C 
ENDROOT
BRANCH   1   2
ATOM      2  C   UNL     1      -2.975  35.806 100.859  1.00  0.00     0.053 C 
BRANCH   2   3
ATOM      3  C   UNL     1      -3.967  36.909 101.058  1.00  0.00     0.041 C 
ATOM      4  O   UNL     1      -5.159  36.641 101.364  1.00  0.00    -0.550 OA
ATOM      5  O   UNL     1      -3.564  38.234 100.956  1.00  0.00    -0.550 OA
ENDBRANCH   2   3
ENDBRANCH   1   2
BRANCH   1   6
ATOM      6  C   UNL     1      -3.728  34.567  98.753  1.00  0.00     0.000 C 
BRANCH   6   7
ATOM      7  C   UNL     1      -5.121  34.933  98.218  1.00  0.00    -0.000 C 
BRANCH   7   8
ATOM      8  C   UNL     1      -5.092  36.285  97.495  1.00  0.00    -0.003 C 
ATOM      9  C   UNL     1      -3.659  36.752  97.256  1.00  0.00     0.004 C 
ENDBRANCH   7   8
ENDBRANCH   6   7
ENDBRANCH   1   6
TORSDOF 5
ENDMDL
MODEL 3
REMARK VINA RESULT:    -4.356      2.451      3.890
REMARK INTER + INTRA:          -6.015
REMARK INTER:                  -5.650
REMARK INTRA:                  -0.365
REMARK UNBOUND:                -0.386
REMARK SMILES CCCCCCC(=O)[O-]
REMARK SMILES IDX 5 1 6 2 7 3 8 4 9 5 4 6 3 7 2 8 1 9
REMARK H PARENT
REMARK Flexibility Score: inf
ROOT
ATOM      1  C   UNL     1      -4.799  36.637 101.295  1.00  0.00     0.006 C 
ENDROOT
BRANCH   1   2
ATOM      2  C   UNL     1      -3.467  37.080 101.914  1.00  0.00     0.053 C 
BRANCH   2   3
ATOM      3  C   UNL     1      -3.151  38.488 101.519  1.00  0.00     0.041 C 
ATOM      4  O   UNL     1      -3.148  38.819 100.304  1.00  0.00    -0.550 OA
ATOM      5  O   UNL     1      -2.910  39.447 102.495  1.00  0.00    -0.550 OA
ENDBRANCH   2   3
ENDBRANCH   1   2
BRANCH   1   6
ATOM      6  C   UNL     1      -4.632  35.487 100.289  1.00  0.00     0.000 C 
BRANCH   6   7
ATOM      7  C   UNL     1      -3.161  35.098 100.075  1.00  0.00    -0.000 C 
BRANCH   7   8
ATOM      8  C   UNL     1      -2.828  35.020  98.581  1.00  0.00    -0.003 C 
ATOM      9  C   UNL     1      -3.272  36.283  97.849  1.00  0.00     0.004 C 
ENDBRANCH   7   8
ENDBRANCH   6   7
ENDBRANCH   1   6
TORSDOF 5
ENDMDL
MODEL 4
REMARK VINA RESULT:    -4.312      1.966      2.925
REMARK INTER + INTRA:          -5.958
REMARK INTER:                  -5.554
REMARK INTRA:                  -0.405
REMARK UNBOUND:                -0.386
REMARK SMILES CCCCCCC(=O)[O-]
REMARK SMILES IDX 5 1 6 2 7 3 8 4 9 5 4 6 3 7 2 8 1 9
REMARK H PARENT
REMARK Flexibility Score: inf
ROOT
ATOM      1  C   UNL     1      -3.522  36.969 100.785  1.00  0.00     0.006 C 
ENDROOT
BRANCH   1   2
ATOM      2  C   UNL     1      -3.220  38.276 100.041  1.00  0.00     0.053 C 
BRANCH   2   3
ATOM      3  C   UNL     1      -3.659  38.176  98.613  1.00  0.00     0.041 C 
ATOM      4  O   UNL     1      -3.187  37.278  97.867  1.00  0.00    -0.550 OA
ATOM      5  O   UNL     1      -4.627  39.042  98.120  1.00  0.00    -0.550 OA
ENDBRANCH   2   3
ENDBRANCH   1   2
BRANCH   1   6
ATOM      6  C   UNL     1      -5.029  36.705 100.931  1.00  0.00     0.000 C 
BRANCH   6   7
ATOM      7  C   UNL     1      -5.417  35.269 100.549  1.00  0.00    -0.000 C 
BRANCH   7   8
ATOM      8  C   UNL     1      -5.769  35.175  99.060  1.00  0.00    -0.003 C 
ATOM      9  C   UNL     1      -4.849  34.196  98.336  1.00  0.00     0.004 C 
ENDBRANCH   7   8
ENDBRANCH   6   7
ENDBRANCH   1   6
TORSDOF 5
ENDMDL
MODEL 5
REMARK VINA RESULT:    -4.312      1.751      2.301
REMARK INTER + INTRA:          -5.957
REMARK INTER:                  -5.581
REMARK INTRA:                  -0.377
REMARK UNBOUND:                -0.386
REMARK SMILES CCCCCCC(=O)[O-]
REMARK SMILES IDX 5 1 6 2 7 3 8 4 9 5 4 6 3 7 2 8 1 9
REMARK H PARENT
REMARK Flexibility Score: inf
ROOT
ATOM      1  C   UNL     1      -4.649  34.531  98.569  1.00  0.00     0.006 C 
ENDROOT
BRANCH   1   2
ATOM      2  C   UNL     1      -5.433  35.819  98.285  1.00  0.00     0.053 C 
BRANCH   2   3
ATOM      3  C   UNL     1      -4.864  36.523  97.093  1.00  0.00     0.041 C 
ATOM      4  O   UNL     1      -5.630  37.013  96.222  1.00  0.00    -0.550 OA
ATOM      5  O   UNL     1      -3.490  36.682  96.969  1.00  0.00    -0.550 OA
ENDBRANCH   2   3
ENDBRANCH   1   2
BRANCH   1   6
ATOM      6  C   UNL     1      -4.030  34.513  99.976  1.00  0.00     0.000 C 
BRANCH   6   7
ATOM      7  C   UNL     1      -2.739  35.341 100.065  1.00  0.00    -0.000 C 
BRANCH   7   8
ATOM      8  C   UNL     1      -2.859  36.429 101.138  1.00  0.00    -0.003 C 
ATOM      9  C   UNL     1      -3.117  37.796 100.511  1.00  0.00     0.004 C 
ENDBRANCH   7   8
ENDBRANCH   6   7
ENDBRANCH   1   6
TORSDOF 5
ENDMDL
MODEL 6
REMARK VINA RESULT:    -4.295      2.388      2.879
REMARK INTER + INTRA:          -5.936
REMARK INTER:                  -5.560
REMARK INTRA:                  -0.376
REMARK UNBOUND:                -0.386
REMARK SMILES CCCCCCC(=O)[O-]
REMARK SMILES IDX 5 1 6 2 7 3 8 4 9 5 4 6 3 7 2 8 1 9
REMARK H PARENT
REMARK Flexibility Score: inf
ROOT
ATOM      1  C   UNL     1      -3.151  37.697  98.232  1.00  0.00     0.006 C 
ENDROOT
BRANCH   1   2
ATOM      2  C   UNL     1      -4.182  38.146  99.276  1.00  0.00     0.053 C 
BRANCH   2   3
ATOM      3  C   UNL     1      -3.660  37.910 100.659  1.00  0.00     0.041 C 
ATOM      4  O   UNL     1      -2.696  38.593 101.097  1.00  0.00    -0.550 OA
ATOM      5  O   UNL     1      -4.269  36.972 101.483  1.00  0.00    -0.550 OA
ENDBRANCH   2   3
ENDBRANCH   1   2
BRANCH   1   6
ATOM      6  C   UNL     1      -3.449  36.298  97.670  1.00  0.00     0.000 C 
BRANCH   6   7
ATOM      7  C   UNL     1      -2.866  35.175  98.541  1.00  0.00    -0.000 C 
BRANCH   7   8
ATOM      8  C   UNL     1      -3.982  34.300  99.125  1.00  0.00    -0.003 C 
ATOM      9  C   UNL     1      -5.338  34.665  98.529  1.00  0.00     0.004 C 
ENDBRANCH   7   8
ENDBRANCH   6   7
ENDBRANCH   1   6
TORSDOF 5
ENDMDL
MODEL 7
REMARK VINA RESULT:    -4.267      2.066      3.738
REMARK INTER + INTRA:          -5.900
REMARK INTER:                  -5.515
REMARK INTRA:                  -0.385
REMARK UNBOUND:                -0.386
REMARK SMILES CCCCCCC(=O)[O-]
REMARK SMILES IDX 5 1 6 2 7 3 8 4 9 5 4 6 3 7 2 8 1 9
REMARK H PARENT
REMARK Flexibility Score: inf
ROOT
ATOM      1  C   UNL     1      -2.810  35.098  98.549  1.00  0.00     0.006 C 
ENDROOT
BRANCH   1   2
ATOM      2  C   UNL     1      -3.777  34.787  99.699  1.00  0.00     0.053 C 
BRANCH   2   3
ATOM      3  C   UNL     1      -3.723  35.868 100.732  1.00  0.00     0.041 C 
ATOM      4  O   UNL     1      -2.613  36.274 101.166  1.00  0.00    -0.550 OA
ATOM      5  O   UNL     1      -4.897  36.461 101.180  1.00  0.00    -0.550 OA
ENDBRANCH   2   3
ENDBRANCH   1   2
BRANCH   1   6
ATOM      6  C   UNL     1      -3.233  36.332  97.737  1.00  0.00     0.000 C 
BRANCH   6   7
ATOM      7  C   UNL     1      -4.732  36.334  97.402  1.00  0.00    -0.000 C 
BRANCH   7   8
ATOM      8  C   UNL     1      -5.337  37.728  97.605  1.00  0.00    -0.003 C 
ATOM      9  C   UNL     1      -4.390  38.631  98.390  1.00  0.00     0.004 C 
ENDBRANCH   7   8
ENDBRANCH   6   7
ENDBRANCH   1   6
TORSDOF 5
ENDMDL
MODEL 8
REMARK VINA RESULT:    -4.235      2.508      3.553
REMARK INTER + INTRA:          -5.859
REMARK INTER:                  -5.408
REMARK INTRA:                  -0.451
REMARK UNBOUND:                -0.386
REMARK SMILES CCCCCCC(=O)[O-]
REMARK SMILES IDX 5 1 6 2 7 3 8 4 9 5 4 6 3 7 2 8 1 9
REMARK H PARENT
REMARK Flexibility Score: inf
ROOT
ATOM      1  C   UNL     1      -5.012  35.182 100.195  1.00  0.00     0.006 C 
ENDROOT
BRANCH   1   2
ATOM      2  C   UNL     1      -4.912  35.182  98.664  1.00  0.00     0.053 C 
BRANCH   2   3
ATOM      3  C   UNL     1      -3.540  35.597  98.232  1.00  0.00     0.041 C 
ATOM      4  O   UNL     1      -2.534  34.937  98.604  1.00  0.00    -0.550 OA
ATOM      5  O   UNL     1      -3.377  36.681  97.379  1.00  0.00    -0.550 OA
ENDBRANCH   2   3
ENDBRANCH   1   2
BRANCH   1   6
ATOM      6  C   UNL     1      -5.004  36.600 100.790  1.00  0.00     0.000 C 
BRANCH   6   7
ATOM      7  C   UNL     1      -3.903  36.792 101.844  1.00  0.00    -0.000 C 
BRANCH   7   8
ATOM      8  C   UNL     1      -2.679  37.486 101.237  1.00  0.00    -0.003 C 
ATOM      9  C   UNL     1      -3.088  38.695 100.400  1.00  0.00     0.004 C 
ENDBRANCH   7   8
ENDBRANCH   6   7
ENDBRANCH   1   6
TORSDOF 5
ENDMDL
MODEL 9
REMARK VINA RESULT:    -4.168      1.769      2.186
REMARK INTER + INTRA:          -5.772
REMARK INTER:                  -5.398
REMARK INTRA:                  -0.374
REMARK UNBOUND:                -0.386
REMARK SMILES CCCCCCC(=O)[O-]
REMARK SMILES IDX 5 1 6 2 7 3 8 4 9 5 4 6 3 7 2 8 1 9
REMARK H PARENT
REMARK Flexibility Score: inf
ROOT
ATOM      1  C   UNL     1      -3.744  38.095  99.268  1.00  0.00     0.006 C 
ENDROOT
BRANCH   1   2
ATOM      2  C   UNL     1      -4.772  38.263  98.142  1.00  0.00     0.053 C 
BRANCH   2   3
ATOM      3  C   UNL     1      -4.544  37.244  97.070  1.00  0.00     0.041 C 
ATOM      4  O   UNL     1      -5.491  36.895  96.317  1.00  0.00    -0.550 OA
ATOM      5  O   UNL     1      -3.274  36.716  96.871  1.00  0.00    -0.550 OA
ENDBRANCH   2   3
ENDBRANCH   1   2
BRANCH   1   6
ATOM      6  C   UNL     1      -4.293  37.288 100.455  1.00  0.00     0.000 C 
BRANCH   6   7
ATOM      7  C   UNL     1      -3.257  36.315 101.039  1.00  0.00    -0.000 C 
BRANCH   7   8
ATOM      8  C   UNL     1      -2.766  35.332  99.970  1.00  0.00    -0.003 C 
ATOM      9  C   UNL     1      -3.883  34.388  99.534  1.00  0.00     0.004 C 
ENDBRANCH   7   8
ENDBRANCH   6   7
ENDBRANCH   1   6
TORSDOF 5
ENDMDL
