MODEL 1
REMARK VINA RESULT:    13.598      0.000      0.000
REMARK INTER + INTRA:          22.534
REMARK INTER:                  20.752
REMARK INTRA:                   1.782
REMARK UNBOUND:                 1.782
REMARK SMILES CC1=CCC[C@@H](C)C(=O)C[C@H](C(C)C)C(=O)C1
REMARK SMILES IDX 8 1 9 2 6 3 7 4 5 5 4 6 3 7 2 8 1 9 10 11 11 12 15 13 16 14
REMARK SMILES IDX 17 15 12 17 13 18 14 19
REMARK H PARENT
REMARK Flexibility Score: 70.00
ROOT
ATOM      1  C   UNL     1     146.205  57.469  16.476  1.00  0.00     0.136 C 
ATOM      2  O   UNL     1     147.091  57.603  15.642  1.00  0.00    -0.299 OA
ENDROOT
BRANCH   1   3
ATOM      3  C   UNL     1     144.883  58.186  16.279  1.00  0.00     0.053 C 
ATOM      4  C   UNL     1     144.766  59.373  17.246  1.00  0.00     0.016 C 
BRANCH   3   5
ATOM      5  C   UNL     1     143.702  57.206  16.464  1.00  0.00     0.015 C 
BRANCH   5   6
ATOM      6  C   UNL     1     143.192  56.668  15.112  1.00  0.00     0.028 C 
BRANCH   6   7
ATOM      7  C   UNL     1     144.295  56.451  14.105  1.00  0.00    -0.028 C 
ATOM      8  C   UNL     1     145.219  55.460  14.153  1.00  0.00    -0.070 CG0
ATOM      9  C   UNL     1     146.305  55.467  13.107  1.00  0.00     0.039 C 
ATOM     10  G   UNL     1     145.188  54.325  15.168  1.00  0.00     0.000 G0
ENDBRANCH   6   7
ENDBRANCH   5   6
ENDBRANCH   3   5
ENDBRANCH   1   3
BRANCH   1  11
ATOM     11  C   UNL     1     146.451  56.577  17.672  1.00  0.00     0.087 C 
BRANCH  11  12
ATOM     12  C   UNL     1     145.701  55.223  17.559  1.00  0.00     0.066 C 
BRANCH  12  13
ATOM     13  C   UNL     1     146.135  54.454  16.318  1.00  0.00     0.140 C 
ATOM     14  O   UNL     1     147.234  53.919  16.272  1.00  0.00    -0.299 OA
BRANCH  13  15
ATOM     15  C   UNL     1     145.183  54.299  15.155  1.00  0.00     0.106 CG0
ATOM     16  G   UNL     1     145.236  55.446  14.155  1.00  0.00     0.000 G0
ENDBRANCH  13  15
ENDBRANCH  12  13
BRANCH  12  17
ATOM     17  C   UNL     1     145.801  54.346  18.850  1.00  0.00    -0.006 C 
ATOM     18  C   UNL     1     144.452  54.126  19.560  1.00  0.00     0.008 C 
ATOM     19  C   UNL     1     146.462  52.988  18.560  1.00  0.00     0.008 C 
ENDBRANCH  12  17
ENDBRANCH  11  12
ENDBRANCH   1  11
TORSDOF 1
ENDMDL
MODEL 2
REMARK VINA RESULT:    14.321      1.930      3.168
REMARK INTER + INTRA:          23.638
REMARK INTER:                  19.481
REMARK INTRA:                   4.157
REMARK UNBOUND:                 1.782
REMARK SMILES CC1=CCC[C@@H](C)C(=O)C[C@H](C(C)C)C(=O)C1
REMARK SMILES IDX 8 1 9 2 6 3 7 4 5 5 4 6 3 7 2 8 1 9 10 11 11 12 15 13 16 14
REMARK SMILES IDX 17 15 12 17 13 18 14 19
REMARK H PARENT
REMARK Flexibility Score: 70.00
ROOT
ATOM      1  C   UNL     1     145.077  55.757  14.743  1.00  0.00     0.136 C 
ATOM      2  O   UNL     1     145.736  56.172  13.798  1.00  0.00    -0.299 OA
ENDROOT
BRANCH   1   3
ATOM      3  C   UNL     1     143.893  56.566  15.238  1.00  0.00     0.053 C 
ATOM      4  C   UNL     1     143.129  57.177  14.056  1.00  0.00     0.016 C 
BRANCH   3   5
ATOM      5  C   UNL     1     144.360  57.664  16.221  1.00  0.00     0.015 C 
BRANCH   5   6
ATOM      6  C   UNL     1     145.322  58.660  15.544  1.00  0.00     0.028 C 
BRANCH   6   7
ATOM      7  C   UNL     1     146.744  58.158  15.471  1.00  0.00    -0.028 C 
ATOM      8  C   UNL     1     147.378  57.454  16.441  1.00  0.00    -0.070 CG0
ATOM      9  C   UNL     1     148.835  57.126  16.225  1.00  0.00     0.039 C 
ATOM     10  G   UNL     1     146.692  56.941  17.699  1.00  0.00     0.000 G0
ENDBRANCH   6   7
ENDBRANCH   5   6
ENDBRANCH   3   5
ENDBRANCH   1   3
BRANCH   1  11
ATOM     11  C   UNL     1     145.456  54.438  15.378  1.00  0.00     0.087 C 
BRANCH  11  12
ATOM     12  C   UNL     1     146.507  54.609  16.508  1.00  0.00     0.066 C 
BRANCH  12  13
ATOM     13  C   UNL     1     146.024  55.594  17.565  1.00  0.00     0.140 C 
ATOM     14  O   UNL     1     145.122  55.287  18.332  1.00  0.00    -0.299 OA
BRANCH  13  15
ATOM     15  C   UNL     1     146.700  56.937  17.710  1.00  0.00     0.106 CG0
ATOM     16  G   UNL     1     147.363  57.435  16.433  1.00  0.00     0.000 G0
ENDBRANCH  13  15
ENDBRANCH  12  13
BRANCH  12  17
ATOM     17  C   UNL     1     146.967  53.256  17.141  1.00  0.00    -0.006 C 
ATOM     18  C   UNL     1     148.477  52.984  17.000  1.00  0.00     0.008 C 
ATOM     19  C   UNL     1     146.558  53.157  18.620  1.00  0.00     0.008 C 
ENDBRANCH  12  17
ENDBRANCH  11  12
ENDBRANCH   1  11
TORSDOF 1
ENDMDL
MODEL 3
REMARK VINA RESULT:    14.329      2.034      4.506
REMARK INTER + INTRA:          23.651
REMARK INTER:                  21.007
REMARK INTRA:                   2.644
REMARK UNBOUND:                 1.782
REMARK SMILES CC1=CCC[C@@H](C)C(=O)C[C@H](C(C)C)C(=O)C1
REMARK SMILES IDX 8 1 9 2 6 3 7 4 5 5 4 6 3 7 2 8 1 9 10 11 11 12 15 13 16 14
REMARK SMILES IDX 17 15 12 17 13 18 14 19
REMARK H PARENT
REMARK Flexibility Score: 70.00
ROOT
ATOM      1  C   UNL     1     145.872  54.320  15.895  1.00  0.00     0.136 C 
ATOM      2  O   UNL     1     146.122  53.211  15.441  1.00  0.00    -0.299 OA
ENDROOT
BRANCH   1   3
ATOM      3  C   UNL     1     146.482  54.739  17.220  1.00  0.00     0.053 C 
ATOM      4  C   UNL     1     146.611  53.530  18.157  1.00  0.00     0.016 C 
BRANCH   3   5
ATOM      5  C   UNL     1     145.640  55.857  17.874  1.00  0.00     0.015 C 
BRANCH   5   6
ATOM      6  C   UNL     1     146.348  57.224  17.793  1.00  0.00     0.028 C 
BRANCH   6   7
ATOM      7  C   UNL     1     147.813  57.115  17.448  1.00  0.00    -0.028 C 
ATOM      8  C   UNL     1     148.362  57.425  16.247  1.00  0.00    -0.070 CG0
ATOM      9  C   UNL     1     149.834  57.154  16.062  1.00  0.00     0.039 C 
ATOM     10  G   UNL     1     147.587  58.069  15.105  1.00  0.00     0.000 G0
ENDBRANCH   6   7
ENDBRANCH   5   6
ENDBRANCH   3   5
ENDBRANCH   1   3
BRANCH   1  11
ATOM     11  C   UNL     1     144.972  55.248  15.110  1.00  0.00     0.087 C 
BRANCH  11  12
ATOM     12  C   UNL     1     145.326  56.742  15.339  1.00  0.00     0.066 C 
BRANCH  12  13
ATOM     13  C   UNL     1     146.532  57.157  14.506  1.00  0.00     0.140 C 
ATOM     14  O   UNL     1     146.631  56.805  13.339  1.00  0.00    -0.299 OA
BRANCH  13  15
ATOM     15  C   UNL     1     147.586  58.059  15.104  1.00  0.00     0.106 CG0
ATOM     16  G   UNL     1     148.362  57.426  16.252  1.00  0.00     0.000 G0
ENDBRANCH  13  15
ENDBRANCH  12  13
BRANCH  12  17
ATOM     17  C   UNL     1     144.114  57.708  15.128  1.00  0.00    -0.006 C 
ATOM     18  C   UNL     1     142.932  57.069  14.374  1.00  0.00     0.008 C 
ATOM     19  C   UNL     1     143.621  58.294  16.462  1.00  0.00     0.008 C 
ENDBRANCH  12  17
ENDBRANCH  11  12
ENDBRANCH   1  11
TORSDOF 1
ENDMDL
MODEL 4
REMARK VINA RESULT:    14.533      1.838      4.304
REMARK INTER + INTRA:          23.961
REMARK INTER:                  21.020
REMARK INTRA:                   2.941
REMARK UNBOUND:                 1.782
REMARK SMILES CC1=CCC[C@@H](C)C(=O)C[C@H](C(C)C)C(=O)C1
REMARK SMILES IDX 8 1 9 2 6 3 7 4 5 5 4 6 3 7 2 8 1 9 10 11 11 12 15 13 16 14
REMARK SMILES IDX 17 15 12 17 13 18 14 19
REMARK H PARENT
REMARK Flexibility Score: 70.00
ROOT
ATOM      1  C   UNL     1     144.416  56.778  14.935  1.00  0.00     0.136 C 
ATOM      2  O   UNL     1     143.373  56.851  14.300  1.00  0.00    -0.299 OA
ENDROOT
BRANCH   1   3
ATOM      3  C   UNL     1     145.543  55.904  14.419  1.00  0.00     0.053 C 
ATOM      4  C   UNL     1     145.538  55.871  12.884  1.00  0.00     0.016 C 
BRANCH   3   5
ATOM      5  C   UNL     1     145.431  54.476  15.001  1.00  0.00     0.015 C 
BRANCH   5   6
ATOM      6  C   UNL     1     146.778  53.988  15.573  1.00  0.00     0.028 C 
BRANCH   6   7
ATOM      7  C   UNL     1     146.660  53.415  16.964  1.00  0.00    -0.028 C 
ATOM      8  C   UNL     1     146.082  54.036  18.022  1.00  0.00    -0.070 CG0
ATOM      9  C   UNL     1     146.151  53.343  19.360  1.00  0.00     0.039 C 
ATOM     10  G   UNL     1     145.334  55.358  17.921  1.00  0.00     0.000 G0
ENDBRANCH   6   7
ENDBRANCH   5   6
ENDBRANCH   3   5
ENDBRANCH   1   3
BRANCH   1  11
ATOM     11  C   UNL     1     144.557  57.579  16.211  1.00  0.00     0.087 C 
BRANCH  11  12
ATOM     12  C   UNL     1     146.020  57.607  16.729  1.00  0.00     0.066 C 
BRANCH  12  13
ATOM     13  C   UNL     1     146.234  56.581  17.833  1.00  0.00     0.140 C 
ATOM     14  O   UNL     1     147.097  56.754  18.681  1.00  0.00    -0.299 OA
BRANCH  13  15
ATOM     15  C   UNL     1     145.336  55.369  17.921  1.00  0.00     0.106 CG0
ATOM     16  G   UNL     1     146.088  54.048  18.012  1.00  0.00     0.000 G0
ENDBRANCH  13  15
ENDBRANCH  12  13
BRANCH  12  17
ATOM     17  C   UNL     1     147.085  57.469  15.592  1.00  0.00    -0.006 C 
ATOM     18  C   UNL     1     147.059  58.622  14.570  1.00  0.00     0.008 C 
ATOM     19  C   UNL     1     148.504  57.316  16.165  1.00  0.00     0.008 C 
ENDBRANCH  12  17
ENDBRANCH  11  12
ENDBRANCH   1  11
TORSDOF 1
ENDMDL
MODEL 5
REMARK VINA RESULT:    14.556      1.484      2.417
REMARK INTER + INTRA:          23.996
REMARK INTER:                  18.914
REMARK INTRA:                   5.082
REMARK UNBOUND:                 1.782
REMARK SMILES CC1=CCC[C@@H](C)C(=O)C[C@H](C(C)C)C(=O)C1
REMARK SMILES IDX 8 1 9 2 6 3 7 4 5 5 4 6 3 7 2 8 1 9 10 11 11 12 15 13 16 14
REMARK SMILES IDX 17 15 12 17 13 18 14 19
REMARK H PARENT
REMARK Flexibility Score: 70.00
ROOT
ATOM      1  C   UNL     1     146.872  57.019  17.253  1.00  0.00     0.136 C 
ATOM      2  O   UNL     1     147.393  57.349  18.311  1.00  0.00    -0.299 OA
ENDROOT
BRANCH   1   3
ATOM      3  C   UNL     1     147.633  57.214  15.955  1.00  0.00     0.053 C 
ATOM      4  C   UNL     1     149.050  57.733  16.236  1.00  0.00     0.016 C 
BRANCH   3   5
ATOM      5  C   UNL     1     146.869  58.177  15.019  1.00  0.00     0.015 C 
BRANCH   5   6
ATOM      6  C   UNL     1     145.608  58.750  15.698  1.00  0.00     0.028 C 
BRANCH   6   7
ATOM      7  C   UNL     1     144.338  58.053  15.278  1.00  0.00    -0.028 C 
ATOM      8  C   UNL     1     144.270  56.833  14.688  1.00  0.00    -0.070 CG0
ATOM      9  C   UNL     1     142.911  56.345  14.249  1.00  0.00     0.039 C 
ATOM     10  G   UNL     1     145.473  55.922  14.491  1.00  0.00     0.000 G0
ENDBRANCH   6   7
ENDBRANCH   5   6
ENDBRANCH   3   5
ENDBRANCH   1   3
BRANCH   1  11
ATOM     11  C   UNL     1     145.488  56.411  17.276  1.00  0.00     0.087 C 
BRANCH  11  12
ATOM     12  C   UNL     1     145.505  54.900  16.919  1.00  0.00     0.066 C 
BRANCH  12  13
ATOM     13  C   UNL     1     145.519  54.690  15.410  1.00  0.00     0.140 C 
ATOM     14  O   UNL     1     145.516  53.561  14.941  1.00  0.00    -0.299 OA
BRANCH  13  15
ATOM     15  C   UNL     1     145.478  55.882  14.483  1.00  0.00     0.106 CG0
ATOM     16  G   UNL     1     144.289  56.805  14.715  1.00  0.00     0.000 G0
ENDBRANCH  13  15
ENDBRANCH  12  13
BRANCH  12  17
ATOM     17  C   UNL     1     146.650  54.105  17.628  1.00  0.00    -0.006 C 
ATOM     18  C   UNL     1     146.203  53.383  18.913  1.00  0.00     0.008 C 
ATOM     19  C   UNL     1     147.314  53.100  16.672  1.00  0.00     0.008 C 
ENDBRANCH  12  17
ENDBRANCH  11  12
ENDBRANCH   1  11
TORSDOF 1
ENDMDL
MODEL 6
REMARK VINA RESULT:    14.677      1.288      3.981
REMARK INTER + INTRA:          24.181
REMARK INTER:                  21.175
REMARK INTRA:                   3.006
REMARK UNBOUND:                 1.782
REMARK SMILES CC1=CCC[C@@H](C)C(=O)C[C@H](C(C)C)C(=O)C1
REMARK SMILES IDX 8 1 9 2 6 3 7 4 5 5 4 6 3 7 2 8 1 9 10 11 11 12 15 13 16 14
REMARK SMILES IDX 17 15 12 17 13 18 14 19
REMARK H PARENT
REMARK Flexibility Score: 70.00
ROOT
ATOM      1  C   UNL     1     145.946  55.254  18.175  1.00  0.00     0.136 C 
ATOM      2  O   UNL     1     146.728  55.827  18.923  1.00  0.00    -0.299 OA
ENDROOT
BRANCH   1   3
ATOM      3  C   UNL     1     145.822  53.744  18.241  1.00  0.00     0.053 C 
ATOM      4  C   UNL     1     146.248  53.230  19.624  1.00  0.00     0.016 C 
BRANCH   3   5
ATOM      5  C   UNL     1     146.661  53.081  17.125  1.00  0.00     0.015 C 
BRANCH   5   6
ATOM      6  C   UNL     1     147.023  54.086  16.013  1.00  0.00     0.028 C 
BRANCH   6   7
ATOM      7  C   UNL     1     145.875  54.377  15.078  1.00  0.00    -0.028 C 
ATOM      8  C   UNL     1     145.652  55.560  14.453  1.00  0.00    -0.070 CG0
ATOM      9  C   UNL     1     144.392  55.689  13.633  1.00  0.00     0.039 C 
ATOM     10  G   UNL     1     146.620  56.734  14.496  1.00  0.00     0.000 G0
ENDBRANCH   6   7
ENDBRANCH   5   6
ENDBRANCH   3   5
ENDBRANCH   1   3
BRANCH   1  11
ATOM     11  C   UNL     1     145.113  56.075  17.216  1.00  0.00     0.087 C 
BRANCH  11  12
ATOM     12  C   UNL     1     145.773  57.441  16.885  1.00  0.00     0.066 C 
BRANCH  12  13
ATOM     13  C   UNL     1     146.906  57.277  15.881  1.00  0.00     0.140 C 
ATOM     14  O   UNL     1     148.060  57.519  16.204  1.00  0.00    -0.299 OA
BRANCH  13  15
ATOM     15  C   UNL     1     146.615  56.756  14.493  1.00  0.00     0.106 CG0
ATOM     16  G   UNL     1     145.658  55.571  14.467  1.00  0.00     0.000 G0
ENDBRANCH  13  15
ENDBRANCH  12  13
BRANCH  12  17
ATOM     17  C   UNL     1     144.749  58.533  16.433  1.00  0.00    -0.006 C 
ATOM     18  C   UNL     1     143.456  57.960  15.822  1.00  0.00     0.008 C 
ATOM     19  C   UNL     1     144.398  59.488  17.586  1.00  0.00     0.008 C 
ENDBRANCH  12  17
ENDBRANCH  11  12
ENDBRANCH   1  11
TORSDOF 1
ENDMDL
MODEL 7
REMARK VINA RESULT:    15.045      1.825      4.176
REMARK INTER + INTRA:          24.743
REMARK INTER:                  20.713
REMARK INTRA:                   4.030
REMARK UNBOUND:                 1.782
REMARK SMILES CC1=CCC[C@@H](C)C(=O)C[C@H](C(C)C)C(=O)C1
REMARK SMILES IDX 8 1 9 2 6 3 7 4 5 5 4 6 3 7 2 8 1 9 10 11 11 12 15 13 16 14
REMARK SMILES IDX 17 15 12 17 13 18 14 19
REMARK H PARENT
REMARK Flexibility Score: 70.00
ROOT
ATOM      1  C   UNL     1     145.896  54.822  17.810  1.00  0.00     0.136 C 
ATOM      2  O   UNL     1     145.014  54.657  18.642  1.00  0.00    -0.299 OA
ENDROOT
BRANCH   1   3
ATOM      3  C   UNL     1     146.243  53.692  16.858  1.00  0.00     0.053 C 
ATOM      4  C   UNL     1     147.763  53.604  16.661  1.00  0.00     0.016 C 
BRANCH   3   5
ATOM      5  C   UNL     1     145.521  53.882  15.505  1.00  0.00     0.015 C 
BRANCH   5   6
ATOM      6  C   UNL     1     145.507  55.362  15.071  1.00  0.00     0.028 C 
BRANCH   6   7
ATOM      7  C   UNL     1     144.214  55.777  14.413  1.00  0.00    -0.028 C 
ATOM      8  C   UNL     1     143.589  56.967  14.591  1.00  0.00    -0.070 CG0
ATOM      9  C   UNL     1     142.250  57.159  13.924  1.00  0.00     0.039 C 
ATOM     10  G   UNL     1     144.186  58.124  15.381  1.00  0.00     0.000 G0
ENDBRANCH   6   7
ENDBRANCH   5   6
ENDBRANCH   3   5
ENDBRANCH   1   3
BRANCH   1  11
ATOM     11  C   UNL     1     146.603  56.157  17.744  1.00  0.00     0.087 C 
BRANCH  11  12
ATOM     12  C   UNL     1     146.258  56.942  16.450  1.00  0.00     0.066 C 
BRANCH  12  13
ATOM     13  C   UNL     1     144.964  57.727  16.610  1.00  0.00     0.140 C 
ATOM     14  O   UNL     1     144.582  58.074  17.719  1.00  0.00    -0.299 OA
BRANCH  13  15
ATOM     15  C   UNL     1     144.173  58.135  15.389  1.00  0.00     0.106 CG0
ATOM     16  G   UNL     1     143.597  56.963  14.607  1.00  0.00     0.000 G0
ENDBRANCH  13  15
ENDBRANCH  12  13
BRANCH  12  17
ATOM     17  C   UNL     1     147.428  57.846  15.940  1.00  0.00    -0.006 C 
ATOM     18  C   UNL     1     148.829  57.277  16.235  1.00  0.00     0.008 C 
ATOM     19  C   UNL     1     147.295  58.144  14.437  1.00  0.00     0.008 C 
ENDBRANCH  12  17
ENDBRANCH  11  12
ENDBRANCH   1  11
TORSDOF 1
ENDMDL
MODEL 8
REMARK VINA RESULT:    15.553      1.824      4.277
REMARK INTER + INTRA:          25.518
REMARK INTER:                  24.484
REMARK INTRA:                   1.034
REMARK UNBOUND:                 1.782
REMARK SMILES CC1=CCC[C@@H](C)C(=O)C[C@H](C(C)C)C(=O)C1
REMARK SMILES IDX 8 1 9 2 6 3 7 4 5 5 4 6 3 7 2 8 1 9 10 11 11 12 15 13 16 14
REMARK SMILES IDX 17 15 12 17 13 18 14 19
REMARK H PARENT
REMARK Flexibility Score: 70.00
ROOT
ATOM      1  C   UNL     1     146.531  56.771  16.632  1.00  0.00     0.136 C 
ATOM      2  O   UNL     1     147.537  57.014  15.977  1.00  0.00    -0.299 OA
ENDROOT
BRANCH   1   3
ATOM      3  C   UNL     1     145.862  55.416  16.493  1.00  0.00     0.053 C 
ATOM      4  C   UNL     1     146.621  54.356  17.303  1.00  0.00     0.016 C 
BRANCH   3   5
ATOM      5  C   UNL     1     145.766  55.009  15.005  1.00  0.00     0.015 C 
BRANCH   5   6
ATOM      6  C   UNL     1     145.348  56.198  14.116  1.00  0.00     0.028 C 
BRANCH   6   7
ATOM      7  C   UNL     1     143.885  56.178  13.745  1.00  0.00    -0.028 C 
ATOM      8  C   UNL     1     142.957  57.075  14.160  1.00  0.00    -0.070 CG0
ATOM      9  C   UNL     1     141.523  56.830  13.764  1.00  0.00     0.039 C 
ATOM     10  G   UNL     1     143.292  58.329  14.956  1.00  0.00     0.000 G0
ENDBRANCH   6   7
ENDBRANCH   5   6
ENDBRANCH   3   5
ENDBRANCH   1   3
BRANCH   1  11
ATOM     11  C   UNL     1     145.996  57.825  17.575  1.00  0.00     0.087 C 
BRANCH  11  12
ATOM     12  C   UNL     1     145.011  58.797  16.871  1.00  0.00     0.066 C 
BRANCH  12  13
ATOM     13  C   UNL     1     143.784  58.059  16.353  1.00  0.00     0.140 C 
ATOM     14  O   UNL     1     143.170  57.290  17.079  1.00  0.00    -0.299 OA
BRANCH  13  15
ATOM     15  C   UNL     1     143.283  58.321  14.952  1.00  0.00     0.106 CG0
ATOM     16  G   UNL     1     142.962  57.057  14.165  1.00  0.00     0.000 G0
ENDBRANCH  13  15
ENDBRANCH  12  13
BRANCH  12  17
ATOM     17  C   UNL     1     144.620  60.030  17.750  1.00  0.00    -0.006 C 
ATOM     18  C   UNL     1     144.424  61.330  16.947  1.00  0.00     0.008 C 
ATOM     19  C   UNL     1     143.365  59.747  18.592  1.00  0.00     0.008 C 
ENDBRANCH  12  17
ENDBRANCH  11  12
ENDBRANCH   1  11
TORSDOF 1
ENDMDL
MODEL 9
REMARK VINA RESULT:    15.671      1.845      3.804
REMARK INTER + INTRA:          25.699
REMARK INTER:                  21.693
REMARK INTRA:                   4.006
REMARK UNBOUND:                 1.782
REMARK SMILES CC1=CCC[C@@H](C)C(=O)C[C@H](C(C)C)C(=O)C1
REMARK SMILES IDX 8 1 9 2 6 3 7 4 5 5 4 6 3 7 2 8 1 9 10 11 11 12 15 13 16 14
REMARK SMILES IDX 17 15 12 17 13 18 14 19
REMARK H PARENT
REMARK Flexibility Score: 70.00
ROOT
ATOM      1  C   UNL     1     143.651  57.240  14.977  1.00  0.00     0.136 C 
ATOM      2  O   UNL     1     142.606  57.166  14.344  1.00  0.00    -0.299 OA
ENDROOT
BRANCH   1   3
ATOM      3  C   UNL     1     143.644  57.873  16.356  1.00  0.00     0.053 C 
ATOM      4  C   UNL     1     144.740  58.943  16.461  1.00  0.00     0.016 C 
BRANCH   3   5
ATOM      5  C   UNL     1     143.821  56.794  17.449  1.00  0.00     0.015 C 
BRANCH   5   6
ATOM      6  C   UNL     1     145.308  56.548  17.770  1.00  0.00     0.028 C 
BRANCH   6   7
ATOM      7  C   UNL     1     145.549  55.265  18.528  1.00  0.00    -0.028 C 
ATOM      8  C   UNL     1     146.148  54.157  18.025  1.00  0.00    -0.070 CG0
ATOM      9  C   UNL     1     146.208  52.935  18.908  1.00  0.00     0.039 C 
ATOM     10  G   UNL     1     146.799  54.099  16.650  1.00  0.00     0.000 G0
ENDBRANCH   6   7
ENDBRANCH   5   6
ENDBRANCH   3   5
ENDBRANCH   1   3
BRANCH   1  11
ATOM     11  C   UNL     1     144.918  56.681  14.370  1.00  0.00     0.087 C 
BRANCH  11  12
ATOM     12  C   UNL     1     145.940  56.234  15.449  1.00  0.00     0.066 C 
BRANCH  12  13
ATOM     13  C   UNL     1     146.022  54.716  15.537  1.00  0.00     0.140 C 
ATOM     14  O   UNL     1     145.496  54.016  14.683  1.00  0.00    -0.299 OA
BRANCH  13  15
ATOM     15  C   UNL     1     146.806  54.067  16.653  1.00  0.00     0.106 CG0
ATOM     16  G   UNL     1     146.149  54.186  18.022  1.00  0.00     0.000 G0
ENDBRANCH  13  15
ENDBRANCH  12  13
BRANCH  12  17
ATOM     17  C   UNL     1     147.352  56.883  15.275  1.00  0.00    -0.006 C 
ATOM     18  C   UNL     1     147.351  58.151  14.400  1.00  0.00     0.008 C 
ATOM     19  C   UNL     1     148.002  57.192  16.634  1.00  0.00     0.008 C 
ENDBRANCH  12  17
ENDBRANCH  11  12
ENDBRANCH   1  11
TORSDOF 1
ENDMDL
