MODEL 1
REMARK VINA RESULT:    -5.261      0.000      0.000
REMARK INTER + INTRA:          -6.589
REMARK INTER:                  -6.337
REMARK INTRA:                  -0.251
REMARK UNBOUND:                -0.251
REMARK SMILES O=c1c(O)c(-c2ccc(O)cc2O)oc2cc(O)cc(O)c12
REMARK SMILES IDX 5 1 3 2 2 3 1 4 22 5 20 6 19 7 17 8 16 9 15 10 14 11 6 12
REMARK SMILES IDX 8 13 7 14 9 15 11 16 12 17 10 18 13 20 4 22 21 24 18 26
REMARK H PARENT 10 19 13 21 4 23 21 25 18 27
REMARK Flexibility Score: inf
ROOT
ATOM      1  C   UNL     1      -8.406  -7.553  -3.980  1.00  0.00     0.184 A 
ATOM      2  C   UNL     1      -9.268  -8.512  -3.428  1.00  0.00     0.208 A 
ATOM      3  C   UNL     1      -9.396  -8.589  -2.032  1.00  0.00     0.238 A 
ATOM      4  O   UNL     1     -10.124  -9.491  -1.542  1.00  0.00    -0.285 OA
ATOM      5  C   UNL     1      -8.681  -7.686  -1.209  1.00  0.00     0.111 A 
ATOM      6  C   UNL     1      -8.764  -7.647   0.216  1.00  0.00     0.134 A 
ATOM      7  C   UNL     1      -7.918  -6.792   0.934  1.00  0.00     0.093 A 
ATOM      8  C   UNL     1      -7.040  -5.931   0.279  1.00  0.00     0.123 A 
ATOM      9  C   UNL     1      -6.990  -5.919  -1.115  1.00  0.00     0.094 A 
ATOM     10  C   UNL     1      -7.795  -6.786  -1.859  1.00  0.00     0.146 A 
ATOM     11  O   UNL     1      -7.707  -6.753  -3.183  1.00  0.00    -0.451 OA
ENDROOT
BRANCH   1  12
ATOM     12  C   UNL     1      -8.248  -7.410  -5.443  1.00  0.00     0.063 A 
ATOM     13  C   UNL     1      -8.413  -6.015  -7.429  1.00  0.00     0.047 A 
ATOM     14  C   UNL     1      -8.602  -6.196  -6.059  1.00  0.00     0.020 A 
ATOM     15  C   UNL     1      -7.859  -7.039  -8.205  1.00  0.00     0.119 A 
ATOM     16  C   UNL     1      -7.503  -8.248  -7.603  1.00  0.00     0.093 A 
ATOM     17  C   UNL     1      -7.698  -8.448  -6.231  1.00  0.00     0.130 A 
BRANCH  15  18
ATOM     18  O   UNL     1      -7.661  -6.867  -9.573  1.00  0.00    -0.508 OA
ATOM     19  H   UNL     1      -7.071  -6.126  -9.933  1.00  0.00     0.293 HD
ENDBRANCH  15  18
BRANCH  17  20
ATOM     20  O   UNL     1      -7.357  -9.690  -5.690  1.00  0.00    -0.507 OA
ATOM     21  H   UNL     1      -8.037 -10.412  -5.492  1.00  0.00     0.293 HD
ENDBRANCH  17  20
ENDBRANCH   1  12
BRANCH   2  22
ATOM     22  O   UNL     1      -9.965  -9.387  -4.265  1.00  0.00    -0.502 OA
ATOM     23  H   UNL     1     -10.953  -9.280  -4.460  1.00  0.00     0.293 HD
ENDBRANCH   2  22
BRANCH   6  24
ATOM     24  O   UNL     1      -9.672  -8.400   0.966  1.00  0.00    -0.507 OA
ATOM     25  H   UNL     1     -10.674  -8.283   0.944  1.00  0.00     0.293 HD
ENDBRANCH   6  24
BRANCH   8  26
ATOM     26  O   UNL     1      -6.224  -5.084   1.026  1.00  0.00    -0.508 OA
ATOM     27  H   UNL     1      -5.216  -5.088   0.920  1.00  0.00     0.293 HD
ENDBRANCH   8  26
TORSDOF 6
ENDMDL
MODEL 2
REMARK VINA RESULT:    -5.228      2.900      6.187
REMARK INTER + INTRA:          -6.549
REMARK INTER:                  -6.145
REMARK INTRA:                  -0.404
REMARK UNBOUND:                -0.251
REMARK SMILES O=c1c(O)c(-c2ccc(O)cc2O)oc2cc(O)cc(O)c12
REMARK SMILES IDX 5 1 3 2 2 3 1 4 22 5 20 6 19 7 17 8 16 9 15 10 14 11 6 12
REMARK SMILES IDX 8 13 7 14 9 15 11 16 12 17 10 18 13 20 4 22 21 24 18 26
REMARK H PARENT 10 19 13 21 4 23 21 25 18 27
REMARK Flexibility Score: inf
ROOT
ATOM      1  C   UNL     1      -5.998  -5.288  -1.167  1.00  0.00     0.184 A 
ATOM      2  C   UNL     1      -6.654  -5.540   0.047  1.00  0.00     0.208 A 
ATOM      3  C   UNL     1      -7.633  -6.546   0.095  1.00  0.00     0.238 A 
ATOM      4  O   UNL     1      -8.260  -6.727   1.171  1.00  0.00    -0.285 OA
ATOM      5  C   UNL     1      -7.920  -7.305  -1.065  1.00  0.00     0.111 A 
ATOM      6  C   UNL     1      -8.864  -8.374  -1.123  1.00  0.00     0.134 A 
ATOM      7  C   UNL     1      -9.155  -8.973  -2.355  1.00  0.00     0.093 A 
ATOM      8  C   UNL     1      -8.493  -8.587  -3.518  1.00  0.00     0.123 A 
ATOM      9  C   UNL     1      -7.526  -7.582  -3.465  1.00  0.00     0.094 A 
ATOM     10  C   UNL     1      -7.240  -6.940  -2.258  1.00  0.00     0.146 A 
ATOM     11  O   UNL     1      -6.324  -5.978  -2.253  1.00  0.00    -0.451 OA
ENDROOT
BRANCH   1  12
ATOM     12  C   UNL     1      -4.943  -4.257  -1.272  1.00  0.00     0.063 A 
ATOM     13  C   UNL     1      -2.626  -3.604  -0.919  1.00  0.00     0.047 A 
ATOM     14  C   UNL     1      -3.655  -4.538  -0.783  1.00  0.00     0.020 A 
ATOM     15  C   UNL     1      -2.866  -2.380  -1.552  1.00  0.00     0.119 A 
ATOM     16  C   UNL     1      -4.142  -2.092  -2.042  1.00  0.00     0.093 A 
ATOM     17  C   UNL     1      -5.186  -3.014  -1.903  1.00  0.00     0.130 A 
BRANCH  15  18
ATOM     18  O   UNL     1      -1.846  -1.443  -1.697  1.00  0.00    -0.508 OA
ATOM     19  H   UNL     1      -1.595  -1.070  -2.605  1.00  0.00     0.293 HD
ENDBRANCH  15  18
BRANCH  17  20
ATOM     20  O   UNL     1      -6.450  -2.658  -2.380  1.00  0.00    -0.507 OA
ATOM     21  H   UNL     1      -7.247  -2.513  -1.774  1.00  0.00     0.293 HD
ENDBRANCH  17  20
ENDBRANCH   1  12
BRANCH   2  22
ATOM     22  O   UNL     1      -6.347  -4.779   1.177  1.00  0.00    -0.502 OA
ATOM     23  H   UNL     1      -6.000  -5.195   2.034  1.00  0.00     0.293 HD
ENDBRANCH   2  22
BRANCH   6  24
ATOM     24  O   UNL     1      -9.517  -8.901  -0.004  1.00  0.00    -0.507 OA
ATOM     25  H   UNL     1      -9.333  -8.630   0.950  1.00  0.00     0.293 HD
ENDBRANCH   6  24
BRANCH   8  26
ATOM     26  O   UNL     1      -8.797  -9.216  -4.724  1.00  0.00    -0.508 OA
ATOM     27  H   UNL     1      -9.566  -8.903  -5.306  1.00  0.00     0.293 HD
ENDBRANCH   8  26
TORSDOF 6
ENDMDL
MODEL 3
REMARK VINA RESULT:    -5.062      3.518      6.507
REMARK INTER + INTRA:          -6.349
REMARK INTER:                  -5.963
REMARK INTRA:                  -0.387
REMARK UNBOUND:                -0.251
REMARK SMILES O=c1c(O)c(-c2ccc(O)cc2O)oc2cc(O)cc(O)c12
REMARK SMILES IDX 5 1 3 2 2 3 1 4 22 5 20 6 19 7 17 8 16 9 15 10 14 11 6 12
REMARK SMILES IDX 8 13 7 14 9 15 11 16 12 17 10 18 13 20 4 22 21 24 18 26
REMARK H PARENT 10 19 13 21 4 23 21 25 18 27
REMARK Flexibility Score: inf
ROOT
ATOM      1  C   UNL     1      -6.262  -5.267  -1.599  1.00  0.00     0.184 A 
ATOM      2  C   UNL     1      -6.719  -4.216  -2.408  1.00  0.00     0.208 A 
ATOM      3  C   UNL     1      -5.917  -3.074  -2.560  1.00  0.00     0.238 A 
ATOM      4  O   UNL     1      -6.360  -2.111  -3.237  1.00  0.00    -0.285 OA
ATOM      5  C   UNL     1      -4.655  -3.011  -1.921  1.00  0.00     0.111 A 
ATOM      6  C   UNL     1      -3.741  -1.921  -2.035  1.00  0.00     0.134 A 
ATOM      7  C   UNL     1      -2.574  -1.913  -1.260  1.00  0.00     0.093 A 
ATOM      8  C   UNL     1      -2.256  -2.983  -0.426  1.00  0.00     0.123 A 
ATOM      9  C   UNL     1      -3.113  -4.081  -0.350  1.00  0.00     0.094 A 
ATOM     10  C   UNL     1      -4.302  -4.102  -1.081  1.00  0.00     0.146 A 
ATOM     11  O   UNL     1      -5.098  -5.160  -0.970  1.00  0.00    -0.451 OA
ENDROOT
BRANCH   1  12
ATOM     12  C   UNL     1      -7.053  -6.503  -1.421  1.00  0.00     0.063 A 
ATOM     13  C   UNL     1      -7.911  -8.580  -2.355  1.00  0.00     0.047 A 
ATOM     14  C   UNL     1      -7.216  -7.379  -2.509  1.00  0.00     0.020 A 
ATOM     15  C   UNL     1      -8.447  -8.927  -1.111  1.00  0.00     0.119 A 
ATOM     16  C   UNL     1      -8.290  -8.065  -0.023  1.00  0.00     0.093 A 
ATOM     17  C   UNL     1      -7.605  -6.852  -0.166  1.00  0.00     0.130 A 
BRANCH  15  18
ATOM     18  O   UNL     1      -9.139 -10.125  -0.945  1.00  0.00    -0.508 OA
ATOM     19  H   UNL     1      -8.913 -10.947  -1.493  1.00  0.00     0.293 HD
ENDBRANCH  15  18
BRANCH  17  20
ATOM     20  O   UNL     1      -7.510  -6.012   0.946  1.00  0.00    -0.507 OA
ATOM     21  H   UNL     1      -8.140  -6.069   1.736  1.00  0.00     0.293 HD
ENDBRANCH  17  20
ENDBRANCH   1  12
BRANCH   2  22
ATOM     22  O   UNL     1      -7.967  -4.308  -3.030  1.00  0.00    -0.502 OA
ATOM     23  H   UNL     1      -8.433  -5.194  -3.186  1.00  0.00     0.293 HD
ENDBRANCH   2  22
BRANCH   6  24
ATOM     24  O   UNL     1      -3.917  -0.842  -2.907  1.00  0.00    -0.507 OA
ATOM     25  H   UNL     1      -3.648  -0.838  -3.880  1.00  0.00     0.293 HD
ENDBRANCH   6  24
BRANCH   8  26
ATOM     26  O   UNL     1      -1.078  -2.948   0.318  1.00  0.00    -0.508 OA
ATOM     27  H   UNL     1      -0.911  -2.228   1.011  1.00  0.00     0.293 HD
ENDBRANCH   8  26
TORSDOF 6
ENDMDL
MODEL 4
REMARK VINA RESULT:    -4.887     14.712     16.162
REMARK INTER + INTRA:          -6.139
REMARK INTER:                  -5.724
REMARK INTRA:                  -0.415
REMARK UNBOUND:                -0.251
REMARK SMILES O=c1c(O)c(-c2ccc(O)cc2O)oc2cc(O)cc(O)c12
REMARK SMILES IDX 5 1 3 2 2 3 1 4 22 5 20 6 19 7 17 8 16 9 15 10 14 11 6 12
REMARK SMILES IDX 8 13 7 14 9 15 11 16 12 17 10 18 13 20 4 22 21 24 18 26
REMARK H PARENT 10 19 13 21 4 23 21 25 18 27
REMARK Flexibility Score: inf
ROOT
ATOM      1  C   UNL     1       6.615  -3.833  -5.079  1.00  0.00     0.184 A 
ATOM      2  C   UNL     1       5.625  -3.227  -5.866  1.00  0.00     0.208 A 
ATOM      3  C   UNL     1       5.423  -1.841  -5.759  1.00  0.00     0.238 A 
ATOM      4  O   UNL     1       4.493  -1.314  -6.422  1.00  0.00    -0.285 OA
ATOM      5  C   UNL     1       6.235  -1.077  -4.886  1.00  0.00     0.111 A 
ATOM      6  C   UNL     1       6.146   0.338  -4.725  1.00  0.00     0.134 A 
ATOM      7  C   UNL     1       6.917   0.972  -3.743  1.00  0.00     0.093 A 
ATOM      8  C   UNL     1       7.819   0.254  -2.960  1.00  0.00     0.123 A 
ATOM      9  C   UNL     1       7.957  -1.122  -3.147  1.00  0.00     0.094 A 
ATOM     10  C   UNL     1       7.176  -1.789  -4.093  1.00  0.00     0.146 A 
ATOM     11  O   UNL     1       7.327  -3.101  -4.230  1.00  0.00    -0.451 OA
ENDROOT
BRANCH   1  12
ATOM     12  C   UNL     1       6.888  -5.283  -5.166  1.00  0.00     0.063 A 
ATOM     13  C   UNL     1       8.207  -7.102  -6.100  1.00  0.00     0.047 A 
ATOM     14  C   UNL     1       7.891  -5.744  -6.038  1.00  0.00     0.020 A 
ATOM     15  C   UNL     1       7.532  -8.019  -5.287  1.00  0.00     0.119 A 
ATOM     16  C   UNL     1       6.535  -7.571  -4.417  1.00  0.00     0.093 A 
ATOM     17  C   UNL     1       6.200  -6.213  -4.352  1.00  0.00     0.130 A 
BRANCH  15  18
ATOM     18  O   UNL     1       7.843  -9.376  -5.337  1.00  0.00    -0.508 OA
ATOM     19  H   UNL     1       7.348 -10.010  -5.954  1.00  0.00     0.293 HD
ENDBRANCH  15  18
BRANCH  17  20
ATOM     20  O   UNL     1       5.171  -5.828  -3.491  1.00  0.00    -0.507 OA
ATOM     21  H   UNL     1       4.536  -6.487  -3.059  1.00  0.00     0.293 HD
ENDBRANCH  17  20
ENDBRANCH   1  12
BRANCH   2  22
ATOM     22  O   UNL     1       4.842  -4.005  -6.722  1.00  0.00    -0.502 OA
ATOM     23  H   UNL     1       5.048  -4.100  -7.709  1.00  0.00     0.293 HD
ENDBRANCH   2  22
BRANCH   6  24
ATOM     24  O   UNL     1       5.343   1.165  -5.517  1.00  0.00    -0.507 OA
ATOM     25  H   UNL     1       4.351   1.043  -5.657  1.00  0.00     0.293 HD
ENDBRANCH   6  24
BRANCH   8  26
ATOM     26  O   UNL     1       8.581   0.921  -2.003  1.00  0.00    -0.508 OA
ATOM     27  H   UNL     1       9.586   1.013  -2.096  1.00  0.00     0.293 HD
ENDBRANCH   8  26
TORSDOF 6
ENDMDL
MODEL 5
REMARK VINA RESULT:    -4.852      7.529     10.174
REMARK INTER + INTRA:          -6.097
REMARK INTER:                  -5.734
REMARK INTRA:                  -0.363
REMARK UNBOUND:                -0.251
REMARK SMILES O=c1c(O)c(-c2ccc(O)cc2O)oc2cc(O)cc(O)c12
REMARK SMILES IDX 5 1 3 2 2 3 1 4 22 5 20 6 19 7 17 8 16 9 15 10 14 11 6 12
REMARK SMILES IDX 8 13 7 14 9 15 11 16 12 17 10 18 13 20 4 22 21 24 18 26
REMARK H PARENT 10 19 13 21 4 23 21 25 18 27
REMARK Flexibility Score: inf
ROOT
ATOM      1  C   UNL     1      -0.772  -4.708  -0.871  1.00  0.00     0.184 A 
ATOM      2  C   UNL     1      -0.373  -5.110   0.412  1.00  0.00     0.208 A 
ATOM      3  C   UNL     1       0.827  -5.825   0.560  1.00  0.00     0.238 A 
ATOM      4  O   UNL     1       1.149  -6.235   1.705  1.00  0.00    -0.285 OA
ATOM      5  C   UNL     1       1.625  -6.102  -0.577  1.00  0.00     0.111 A 
ATOM      6  C   UNL     1       2.878  -6.784  -0.542  1.00  0.00     0.134 A 
ATOM      7  C   UNL     1       3.521  -7.110  -1.743  1.00  0.00     0.093 A 
ATOM      8  C   UNL     1       2.990  -6.725  -2.972  1.00  0.00     0.123 A 
ATOM      9  C   UNL     1       1.794  -6.007  -3.017  1.00  0.00     0.094 A 
ATOM     10  C   UNL     1       1.111  -5.698  -1.839  1.00  0.00     0.146 A 
ATOM     11  O   UNL     1      -0.032  -5.027  -1.925  1.00  0.00    -0.451 OA
ENDROOT
BRANCH   1  12
ATOM     12  C   UNL     1      -2.013  -3.934  -1.084  1.00  0.00     0.063 A 
ATOM     13  C   UNL     1      -4.444  -3.840  -1.038  1.00  0.00     0.047 A 
ATOM     14  C   UNL     1      -3.258  -4.562  -0.897  1.00  0.00     0.020 A 
ATOM     15  C   UNL     1      -4.406  -2.480  -1.360  1.00  0.00     0.119 A 
ATOM     16  C   UNL     1      -3.175  -1.846  -1.546  1.00  0.00     0.093 A 
ATOM     17  C   UNL     1      -1.977  -2.560  -1.419  1.00  0.00     0.130 A 
BRANCH  15  18
ATOM     18  O   UNL     1      -5.584  -1.749  -1.498  1.00  0.00    -0.508 OA
ATOM     19  H   UNL     1      -6.027  -1.625  -2.401  1.00  0.00     0.293 HD
ENDBRANCH  15  18
BRANCH  17  20
ATOM     20  O   UNL     1      -0.778  -1.884  -1.652  1.00  0.00    -0.507 OA
ATOM     21  H   UNL     1      -0.002  -1.897  -1.003  1.00  0.00     0.293 HD
ENDBRANCH  17  20
ENDBRANCH   1  12
BRANCH   2  22
ATOM     22  O   UNL     1      -1.178  -4.819   1.517  1.00  0.00    -0.502 OA
ATOM     23  H   UNL     1      -1.749  -3.984   1.566  1.00  0.00     0.293 HD
ENDBRANCH   2  22
BRANCH   6  24
ATOM     24  O   UNL     1       3.543  -7.135   0.636  1.00  0.00    -0.507 OA
ATOM     25  H   UNL     1       3.298  -7.917   1.225  1.00  0.00     0.293 HD
ENDBRANCH   6  24
BRANCH   8  26
ATOM     26  O   UNL     1       3.665  -7.054  -4.146  1.00  0.00    -0.508 OA
ATOM     27  H   UNL     1       3.808  -8.019  -4.423  1.00  0.00     0.293 HD
ENDBRANCH   8  26
TORSDOF 6
ENDMDL
MODEL 6
REMARK VINA RESULT:    -4.795      4.858      7.983
REMARK INTER + INTRA:          -6.028
REMARK INTER:                  -5.620
REMARK INTRA:                  -0.408
REMARK UNBOUND:                -0.251
REMARK SMILES O=c1c(O)c(-c2ccc(O)cc2O)oc2cc(O)cc(O)c12
REMARK SMILES IDX 5 1 3 2 2 3 1 4 22 5 20 6 19 7 17 8 16 9 15 10 14 11 6 12
REMARK SMILES IDX 8 13 7 14 9 15 11 16 12 17 10 18 13 20 4 22 21 24 18 26
REMARK H PARENT 10 19 13 21 4 23 21 25 18 27
REMARK Flexibility Score: inf
ROOT
ATOM      1  C   UNL     1      -4.272  -4.497  -1.118  1.00  0.00     0.184 A 
ATOM      2  C   UNL     1      -4.143  -3.129  -1.400  1.00  0.00     0.208 A 
ATOM      3  C   UNL     1      -2.858  -2.566  -1.467  1.00  0.00     0.238 A 
ATOM      4  O   UNL     1      -2.751  -1.327  -1.660  1.00  0.00    -0.285 OA
ATOM      5  C   UNL     1      -1.720  -3.387  -1.279  1.00  0.00     0.111 A 
ATOM      6  C   UNL     1      -0.369  -2.933  -1.363  1.00  0.00     0.134 A 
ATOM      7  C   UNL     1       0.675  -3.807  -1.037  1.00  0.00     0.093 A 
ATOM      8  C   UNL     1       0.424  -5.134  -0.694  1.00  0.00     0.123 A 
ATOM      9  C   UNL     1      -0.889  -5.605  -0.665  1.00  0.00     0.094 A 
ATOM     10  C   UNL     1      -1.955  -4.749  -0.948  1.00  0.00     0.146 A 
ATOM     11  O   UNL     1      -3.190  -5.233  -0.895  1.00  0.00    -0.451 OA
ENDROOT
BRANCH   1  12
ATOM     12  C   UNL     1      -5.597  -5.149  -1.059  1.00  0.00     0.063 A 
ATOM     13  C   UNL     1      -7.312  -6.488  -2.149  1.00  0.00     0.047 A 
ATOM     14  C   UNL     1      -6.089  -5.817  -2.194  1.00  0.00     0.020 A 
ATOM     15  C   UNL     1      -8.060  -6.508  -0.967  1.00  0.00     0.119 A 
ATOM     16  C   UNL     1      -7.580  -5.849   0.168  1.00  0.00     0.093 A 
ATOM     17  C   UNL     1      -6.360  -5.162   0.133  1.00  0.00     0.130 A 
BRANCH  15  18
ATOM     18  O   UNL     1      -9.279  -7.179  -0.909  1.00  0.00    -0.508 OA
ATOM     19  H   UNL     1      -9.975  -6.951  -0.208  1.00  0.00     0.293 HD
ENDBRANCH  15  18
BRANCH  17  20
ATOM     20  O   UNL     1      -5.948  -4.491   1.286  1.00  0.00    -0.507 OA
ATOM     21  H   UNL     1      -5.199  -3.810   1.291  1.00  0.00     0.293 HD
ENDBRANCH  17  20
ENDBRANCH   1  12
BRANCH   2  22
ATOM     22  O   UNL     1      -5.284  -2.344  -1.586  1.00  0.00    -0.502 OA
ATOM     23  H   UNL     1      -6.216  -2.684  -1.380  1.00  0.00     0.293 HD
ENDBRANCH   2  22
BRANCH   6  24
ATOM     24  O   UNL     1      -0.001  -1.651  -1.784  1.00  0.00    -0.507 OA
ATOM     25  H   UNL     1       0.926  -1.387  -2.081  1.00  0.00     0.293 HD
ENDBRANCH   6  24
BRANCH   8  26
ATOM     26  O   UNL     1       1.489  -5.979  -0.392  1.00  0.00    -0.508 OA
ATOM     27  H   UNL     1       1.692  -6.798  -0.954  1.00  0.00     0.293 HD
ENDBRANCH   8  26
TORSDOF 6
ENDMDL
MODEL 7
REMARK VINA RESULT:    -4.777      3.616      7.801
REMARK INTER + INTRA:          -6.006
REMARK INTER:                  -5.604
REMARK INTRA:                  -0.402
REMARK UNBOUND:                -0.251
REMARK SMILES O=c1c(O)c(-c2ccc(O)cc2O)oc2cc(O)cc(O)c12
REMARK SMILES IDX 5 1 3 2 2 3 1 4 22 5 20 6 19 7 17 8 16 9 15 10 14 11 6 12
REMARK SMILES IDX 8 13 7 14 9 15 11 16 12 17 10 18 13 20 4 22 21 24 18 26
REMARK H PARENT 10 19 13 21 4 23 21 25 18 27
REMARK Flexibility Score: inf
ROOT
ATOM      1  C   UNL     1      -4.797  -4.443  -1.290  1.00  0.00     0.184 A 
ATOM      2  C   UNL     1      -5.283  -3.411  -2.107  1.00  0.00     0.208 A 
ATOM      3  C   UNL     1      -6.318  -3.689  -3.014  1.00  0.00     0.238 A 
ATOM      4  O   UNL     1      -6.707  -2.775  -3.785  1.00  0.00    -0.285 OA
ATOM      5  C   UNL     1      -6.871  -4.992  -3.071  1.00  0.00     0.111 A 
ATOM      6  C   UNL     1      -7.948  -5.379  -3.923  1.00  0.00     0.134 A 
ATOM      7  C   UNL     1      -8.332  -6.724  -3.984  1.00  0.00     0.093 A 
ATOM      8  C   UNL     1      -7.724  -7.684  -3.178  1.00  0.00     0.123 A 
ATOM      9  C   UNL     1      -6.708  -7.308  -2.298  1.00  0.00     0.094 A 
ATOM     10  C   UNL     1      -6.278  -5.981  -2.241  1.00  0.00     0.146 A 
ATOM     11  O   UNL     1      -5.298  -5.667  -1.401  1.00  0.00    -0.451 OA
ENDROOT
BRANCH   1  12
ATOM     12  C   UNL     1      -3.725  -4.203  -0.301  1.00  0.00     0.063 A 
ATOM     13  C   UNL     1      -1.350  -4.129   0.221  1.00  0.00     0.047 A 
ATOM     14  C   UNL     1      -2.384  -4.401  -0.675  1.00  0.00     0.020 A 
ATOM     15  C   UNL     1      -1.638  -3.648   1.503  1.00  0.00     0.119 A 
ATOM     16  C   UNL     1      -2.967  -3.447   1.885  1.00  0.00     0.093 A 
ATOM     17  C   UNL     1      -4.015  -3.726   1.000  1.00  0.00     0.130 A 
BRANCH  15  18
ATOM     18  O   UNL     1      -0.613  -3.369   2.404  1.00  0.00    -0.508 OA
ATOM     19  H   UNL     1      -0.733  -2.692   3.149  1.00  0.00     0.293 HD
ENDBRANCH  15  18
BRANCH  17  20
ATOM     20  O   UNL     1      -5.325  -3.541   1.448  1.00  0.00    -0.507 OA
ATOM     21  H   UNL     1      -5.722  -4.059   2.221  1.00  0.00     0.293 HD
ENDBRANCH  17  20
ENDBRANCH   1  12
BRANCH   2  22
ATOM     22  O   UNL     1      -4.721  -2.134  -2.025  1.00  0.00    -0.502 OA
ATOM     23  H   UNL     1      -4.856  -1.531  -1.222  1.00  0.00     0.293 HD
ENDBRANCH   2  22
BRANCH   6  24
ATOM     24  O   UNL     1      -8.687  -4.484  -4.704  1.00  0.00    -0.507 OA
ATOM     25  H   UNL     1      -8.303  -3.906  -5.437  1.00  0.00     0.293 HD
ENDBRANCH   6  24
BRANCH   8  26
ATOM     26  O   UNL     1      -8.143  -9.011  -3.254  1.00  0.00    -0.508 OA
ATOM     27  H   UNL     1      -8.512  -9.402  -4.114  1.00  0.00     0.293 HD
ENDBRANCH   8  26
TORSDOF 6
ENDMDL
MODEL 8
REMARK VINA RESULT:    -4.637      2.198      3.545
REMARK INTER + INTRA:          -5.837
REMARK INTER:                  -5.495
REMARK INTRA:                  -0.342
REMARK UNBOUND:                -0.251
REMARK SMILES O=c1c(O)c(-c2ccc(O)cc2O)oc2cc(O)cc(O)c12
REMARK SMILES IDX 5 1 3 2 2 3 1 4 22 5 20 6 19 7 17 8 16 9 15 10 14 11 6 12
REMARK SMILES IDX 8 13 7 14 9 15 11 16 12 17 10 18 13 20 4 22 21 24 18 26
REMARK H PARENT 10 19 13 21 4 23 21 25 18 27
REMARK Flexibility Score: inf
ROOT
ATOM      1  C   UNL     1      -7.316  -6.120  -2.170  1.00  0.00     0.184 A 
ATOM      2  C   UNL     1      -8.094  -6.166  -1.003  1.00  0.00     0.208 A 
ATOM      3  C   UNL     1      -7.585  -5.599   0.177  1.00  0.00     0.238 A 
ATOM      4  O   UNL     1      -8.261  -5.697   1.234  1.00  0.00    -0.285 OA
ATOM      5  C   UNL     1      -6.317  -4.970   0.165  1.00  0.00     0.111 A 
ATOM      6  C   UNL     1      -5.719  -4.329   1.292  1.00  0.00     0.134 A 
ATOM      7  C   UNL     1      -4.408  -3.847   1.197  1.00  0.00     0.093 A 
ATOM      8  C   UNL     1      -3.696  -3.924   0.001  1.00  0.00     0.123 A 
ATOM      9  C   UNL     1      -4.291  -4.497  -1.124  1.00  0.00     0.094 A 
ATOM     10  C   UNL     1      -5.584  -5.020  -1.051  1.00  0.00     0.146 A 
ATOM     11  O   UNL     1      -6.109  -5.570  -2.140  1.00  0.00    -0.451 OA
ENDROOT
BRANCH   1  12
ATOM     12  C   UNL     1      -7.809  -6.679  -3.446  1.00  0.00     0.063 A 
ATOM     13  C   UNL     1      -8.542  -6.311  -5.737  1.00  0.00     0.047 A 
ATOM     14  C   UNL     1      -8.127  -5.808  -4.503  1.00  0.00     0.020 A 
ATOM     15  C   UNL     1      -8.639  -7.692  -5.937  1.00  0.00     0.119 A 
ATOM     16  C   UNL     1      -8.325  -8.567  -4.894  1.00  0.00     0.093 A 
ATOM     17  C   UNL     1      -7.918  -8.076  -3.647  1.00  0.00     0.130 A 
BRANCH  15  18
ATOM     18  O   UNL     1      -9.048  -8.205  -7.166  1.00  0.00    -0.508 OA
ATOM     19  H   UNL     1      -9.773  -8.911  -7.230  1.00  0.00     0.293 HD
ENDBRANCH  15  18
BRANCH  17  20
ATOM     20  O   UNL     1      -7.652  -8.995  -2.630  1.00  0.00    -0.507 OA
ATOM     21  H   UNL     1      -6.879  -8.896  -1.985  1.00  0.00     0.293 HD
ENDBRANCH  17  20
ENDBRANCH   1  12
BRANCH   2  22
ATOM     22  O   UNL     1      -9.344  -6.789  -1.022  1.00  0.00    -0.502 OA
ATOM     23  H   UNL     1     -10.211  -6.267  -1.070  1.00  0.00     0.293 HD
ENDBRANCH   2  22
BRANCH   6  24
ATOM     24  O   UNL     1      -6.374  -4.116   2.508  1.00  0.00    -0.507 OA
ATOM     25  H   UNL     1      -6.505  -4.817   3.222  1.00  0.00     0.293 HD
ENDBRANCH   6  24
BRANCH   8  26
ATOM     26  O   UNL     1      -2.399  -3.419  -0.061  1.00  0.00    -0.508 OA
ATOM     27  H   UNL     1      -1.708  -3.645   0.646  1.00  0.00     0.293 HD
ENDBRANCH   8  26
TORSDOF 6
ENDMDL
MODEL 9
REMARK VINA RESULT:    -4.593      3.289      8.512
REMARK INTER + INTRA:          -5.784
REMARK INTER:                  -5.432
REMARK INTRA:                  -0.352
REMARK UNBOUND:                -0.251
REMARK SMILES O=c1c(O)c(-c2ccc(O)cc2O)oc2cc(O)cc(O)c12
REMARK SMILES IDX 5 1 3 2 2 3 1 4 22 5 20 6 19 7 17 8 16 9 15 10 14 11 6 12
REMARK SMILES IDX 8 13 7 14 9 15 11 16 12 17 10 18 13 20 4 22 21 24 18 26
REMARK H PARENT 10 19 13 21 4 23 21 25 18 27
REMARK Flexibility Score: inf
ROOT
ATOM      1  C   UNL     1      -6.570  -5.239   1.547  1.00  0.00     0.184 A 
ATOM      2  C   UNL     1      -6.087  -4.630   0.379  1.00  0.00     0.208 A 
ATOM      3  C   UNL     1      -6.345  -5.237  -0.861  1.00  0.00     0.238 A 
ATOM      4  O   UNL     1      -5.858  -4.720  -1.899  1.00  0.00    -0.285 OA
ATOM      5  C   UNL     1      -7.106  -6.430  -0.916  1.00  0.00     0.111 A 
ATOM      6  C   UNL     1      -7.461  -7.112  -2.119  1.00  0.00     0.134 A 
ATOM      7  C   UNL     1      -8.112  -8.349  -2.046  1.00  0.00     0.093 A 
ATOM      8  C   UNL     1      -8.478  -8.899  -0.819  1.00  0.00     0.123 A 
ATOM      9  C   UNL     1      -8.187  -8.215   0.362  1.00  0.00     0.094 A 
ATOM     10  C   UNL     1      -7.506  -6.996   0.324  1.00  0.00     0.146 A 
ATOM     11  O   UNL     1      -7.236  -6.384   1.471  1.00  0.00    -0.451 OA
ENDROOT
BRANCH   1  12
ATOM     12  C   UNL     1      -6.350  -4.633   2.877  1.00  0.00     0.063 A 
ATOM     13  C   UNL     1      -4.803  -3.974   4.636  1.00  0.00     0.047 A 
ATOM     14  C   UNL     1      -5.048  -4.588   3.407  1.00  0.00     0.020 A 
ATOM     15  C   UNL     1      -5.853  -3.388   5.352  1.00  0.00     0.119 A 
ATOM     16  C   UNL     1      -7.150  -3.426   4.834  1.00  0.00     0.093 A 
ATOM     17  C   UNL     1      -7.412  -4.049   3.607  1.00  0.00     0.130 A 
BRANCH  15  18
ATOM     18  O   UNL     1      -5.619  -2.768   6.577  1.00  0.00    -0.508 OA
ATOM     19  H   UNL     1      -5.797  -1.779   6.712  1.00  0.00     0.293 HD
ENDBRANCH  15  18
BRANCH  17  20
ATOM     20  O   UNL     1      -8.733  -4.089   3.156  1.00  0.00    -0.507 OA
ATOM     21  H   UNL     1      -9.025  -3.698   2.270  1.00  0.00     0.293 HD
ENDBRANCH  17  20
ENDBRANCH   1  12
BRANCH   2  22
ATOM     22  O   UNL     1      -5.343  -3.451   0.463  1.00  0.00    -0.502 OA
ATOM     23  H   UNL     1      -4.335  -3.451   0.561  1.00  0.00     0.293 HD
ENDBRANCH   2  22
BRANCH   6  24
ATOM     24  O   UNL     1      -7.224  -6.607  -3.401  1.00  0.00    -0.507 OA
ATOM     25  H   UNL     1      -7.803  -5.926  -3.869  1.00  0.00     0.293 HD
ENDBRANCH   6  24
BRANCH   8  26
ATOM     26  O   UNL     1      -9.139 -10.125  -0.785  1.00  0.00    -0.508 OA
ATOM     27  H   UNL     1     -10.030 -10.234  -0.313  1.00  0.00     0.293 HD
ENDBRANCH   8  26
TORSDOF 6
ENDMDL
