MODEL 1
REMARK VINA RESULT:    -3.337      0.000      0.000
REMARK INTER + INTRA:          -3.532
REMARK INTER:                  -3.532
REMARK INTRA:                   0.000
REMARK UNBOUND:                 0.000
REMARK SMILES O=c1ccc2cc(O)c(O)cc2o1
REMARK SMILES IDX 4 1 3 2 2 3 1 4 13 5 12 6 11 7 9 8 7 9 6 10 5 11 8 12 10 14
REMARK H PARENT 8 13 10 15
REMARK Flexibility Score: inf
ROOT
ATOM      1  C   UNL     1       3.886 -17.034  54.267  1.00  0.00     0.019 A 
ATOM      2  C   UNL     1       5.164 -16.600  54.618  1.00  0.00     0.094 A 
ATOM      3  C   UNL     1       5.365 -15.244  54.902  1.00  0.00     0.336 A 
ATOM      4  O   UNL     1       6.510 -14.832  55.220  1.00  0.00    -0.246 OA
ATOM      5  O   UNL     1       4.351 -14.385  54.838  1.00  0.00    -0.423 OA
ATOM      6  C   UNL     1       3.117 -14.758  54.507  1.00  0.00     0.142 A 
ATOM      7  C   UNL     1       2.090 -13.811  54.456  1.00  0.00     0.098 A 
ATOM      8  C   UNL     1       0.786 -14.198  54.109  1.00  0.00     0.161 A 
ATOM      9  C   UNL     1       0.511 -15.545  53.810  1.00  0.00     0.158 A 
ATOM     10  C   UNL     1       1.538 -16.496  53.861  1.00  0.00     0.062 A 
ATOM     11  C   UNL     1       2.839 -16.110  54.208  1.00  0.00     0.022 A 
ENDROOT
BRANCH   9  12
ATOM     12  O   UNL     1      -0.775 -15.956  53.462  1.00  0.00    -0.504 OA
ATOM     13  H   UNL     1      -1.143 -15.838  52.526  1.00  0.00     0.293 HD
ENDBRANCH   9  12
BRANCH   8  14
ATOM     14  O   UNL     1      -0.235 -13.250  54.059  1.00  0.00    -0.504 OA
ATOM     15  H   UNL     1      -0.036 -12.256  54.032  1.00  0.00     0.293 HD
ENDBRANCH   8  14
TORSDOF 2
ENDMDL
MODEL 2
REMARK VINA RESULT:    -3.210      1.034      4.540
REMARK INTER + INTRA:          -3.397
REMARK INTER:                  -3.397
REMARK INTRA:                   0.000
REMARK UNBOUND:                 0.000
REMARK SMILES O=c1ccc2cc(O)c(O)cc2o1
REMARK SMILES IDX 4 1 3 2 2 3 1 4 13 5 12 6 11 7 9 8 7 9 6 10 5 11 8 12 10 14
REMARK H PARENT 8 13 10 15
REMARK Flexibility Score: inf
ROOT
ATOM      1  C   UNL     1       1.660 -16.808  54.358  1.00  0.00     0.019 A 
ATOM      2  C   UNL     1       0.480 -16.115  54.090  1.00  0.00     0.094 A 
ATOM      3  C   UNL     1       0.518 -14.719  54.004  1.00  0.00     0.336 A 
ATOM      4  O   UNL     1      -0.536 -14.075  53.763  1.00  0.00    -0.246 OA
ATOM      5  O   UNL     1       1.663 -14.065  54.178  1.00  0.00    -0.423 OA
ATOM      6  C   UNL     1       2.811 -14.688  54.436  1.00  0.00     0.142 A 
ATOM      7  C   UNL     1       3.985 -13.947  54.609  1.00  0.00     0.098 A 
ATOM      8  C   UNL     1       5.198 -14.599  54.880  1.00  0.00     0.161 A 
ATOM      9  C   UNL     1       5.235 -16.001  54.980  1.00  0.00     0.158 A 
ATOM     10  C   UNL     1       4.061 -16.744  54.807  1.00  0.00     0.062 A 
ATOM     11  C   UNL     1       2.849 -16.095  54.535  1.00  0.00     0.022 A 
ENDROOT
BRANCH   9  12
ATOM     12  O   UNL     1       6.426 -16.672  55.249  1.00  0.00    -0.504 OA
ATOM     13  H   UNL     1       6.838 -16.689  56.174  1.00  0.00     0.293 HD
ENDBRANCH   9  12
BRANCH   8  14
ATOM     14  O   UNL     1       6.366 -13.856  55.052  1.00  0.00    -0.504 OA
ATOM     15  H   UNL     1       6.429 -13.119  55.745  1.00  0.00     0.293 HD
ENDBRANCH   8  14
TORSDOF 2
ENDMDL
MODEL 3
REMARK VINA RESULT:    -3.073      2.311      3.847
REMARK INTER + INTRA:          -3.252
REMARK INTER:                  -3.252
REMARK INTRA:                   0.000
REMARK UNBOUND:                 0.000
REMARK SMILES O=c1ccc2cc(O)c(O)cc2o1
REMARK SMILES IDX 4 1 3 2 2 3 1 4 13 5 12 6 11 7 9 8 7 9 6 10 5 11 8 12 10 14
REMARK H PARENT 8 13 10 15
REMARK Flexibility Score: inf
ROOT
ATOM      1  C   UNL     1       1.396 -14.809  53.877  1.00  0.00     0.019 A 
ATOM      2  C   UNL     1       1.820 -16.075  54.281  1.00  0.00     0.094 A 
ATOM      3  C   UNL     1       3.019 -16.193  54.994  1.00  0.00     0.336 A 
ATOM      4  O   UNL     1       3.419 -17.325  55.367  1.00  0.00    -0.246 OA
ATOM      5  O   UNL     1       3.742 -15.113  55.279  1.00  0.00    -0.423 OA
ATOM      6  C   UNL     1       3.373 -13.887  54.912  1.00  0.00     0.142 A 
ATOM      7  C   UNL     1       4.173 -12.789  55.241  1.00  0.00     0.098 A 
ATOM      8  C   UNL     1       3.789 -11.494  54.856  1.00  0.00     0.161 A 
ATOM      9  C   UNL     1       2.596 -11.301  54.138  1.00  0.00     0.158 A 
ATOM     10  C   UNL     1       1.793 -12.399  53.808  1.00  0.00     0.062 A 
ATOM     11  C   UNL     1       2.175 -13.692  54.192  1.00  0.00     0.022 A 
ENDROOT
BRANCH   9  12
ATOM     12  O   UNL     1       2.192 -10.026  53.744  1.00  0.00    -0.504 OA
ATOM     13  H   UNL     1       2.722  -9.474  53.081  1.00  0.00     0.293 HD
ENDBRANCH   9  12
BRANCH   8  14
ATOM     14  O   UNL     1       4.591 -10.402  55.186  1.00  0.00    -0.504 OA
ATOM     15  H   UNL     1       4.445  -9.491  54.765  1.00  0.00     0.293 HD
ENDBRANCH   8  14
TORSDOF 2
ENDMDL
MODEL 4
REMARK VINA RESULT:    -3.040      7.129      9.222
REMARK INTER + INTRA:          -3.218
REMARK INTER:                  -3.218
REMARK INTRA:                   0.000
REMARK UNBOUND:                 0.000
REMARK SMILES O=c1ccc2cc(O)c(O)cc2o1
REMARK SMILES IDX 4 1 3 2 2 3 1 4 13 5 12 6 11 7 9 8 7 9 6 10 5 11 8 12 10 14
REMARK H PARENT 8 13 10 15
REMARK Flexibility Score: inf
ROOT
ATOM      1  C   UNL     1      -2.798  -7.975  55.205  1.00  0.00     0.019 A 
ATOM      2  C   UNL     1      -3.009  -9.333  55.440  1.00  0.00     0.094 A 
ATOM      3  C   UNL     1      -1.905 -10.193  55.477  1.00  0.00     0.336 A 
ATOM      4  O   UNL     1      -2.074 -11.422  55.688  1.00  0.00    -0.246 OA
ATOM      5  O   UNL     1      -0.676  -9.720  55.289  1.00  0.00    -0.423 OA
ATOM      6  C   UNL     1      -0.432  -8.431  55.060  1.00  0.00     0.142 A 
ATOM      7  C   UNL     1       0.881  -7.991  54.870  1.00  0.00     0.098 A 
ATOM      8  C   UNL     1       1.144  -6.634  54.631  1.00  0.00     0.161 A 
ATOM      9  C   UNL     1       0.084  -5.712  54.581  1.00  0.00     0.158 A 
ATOM     10  C   UNL     1      -1.233  -6.150  54.771  1.00  0.00     0.062 A 
ATOM     11  C   UNL     1      -1.496  -7.505  55.012  1.00  0.00     0.022 A 
ENDROOT
BRANCH   9  12
ATOM     12  O   UNL     1       0.318  -4.358  54.344  1.00  0.00    -0.504 OA
ATOM     13  H   UNL     1      -0.339  -3.640  54.624  1.00  0.00     0.293 HD
ENDBRANCH   9  12
BRANCH   8  14
ATOM     14  O   UNL     1       2.456  -6.200  54.441  1.00  0.00    -0.504 OA
ATOM     15  H   UNL     1       2.941  -5.653  55.143  1.00  0.00     0.293 HD
ENDBRANCH   8  14
TORSDOF 2
ENDMDL
MODEL 5
REMARK VINA RESULT:    -3.035      6.596      8.673
REMARK INTER + INTRA:          -3.212
REMARK INTER:                  -3.212
REMARK INTRA:                   0.000
REMARK UNBOUND:                 0.000
REMARK SMILES O=c1ccc2cc(O)c(O)cc2o1
REMARK SMILES IDX 4 1 3 2 2 3 1 4 13 5 12 6 11 7 9 8 7 9 6 10 5 11 8 12 10 14
REMARK H PARENT 8 13 10 15
REMARK Flexibility Score: inf
ROOT
ATOM      1  C   UNL     1      -1.654  -6.090  55.187  1.00  0.00     0.019 A 
ATOM      2  C   UNL     1      -0.543  -5.314  54.859  1.00  0.00     0.094 A 
ATOM      3  C   UNL     1       0.678  -5.951  54.609  1.00  0.00     0.336 A 
ATOM      4  O   UNL     1       1.693  -5.269  54.312  1.00  0.00    -0.246 OA
ATOM      5  O   UNL     1       0.774  -7.276  54.684  1.00  0.00    -0.423 OA
ATOM      6  C   UNL     1      -0.262  -8.052  54.994  1.00  0.00     0.142 A 
ATOM      7  C   UNL     1      -0.102  -9.440  55.057  1.00  0.00     0.098 A 
ATOM      8  C   UNL     1      -1.191 -10.263  55.382  1.00  0.00     0.161 A 
ATOM      9  C   UNL     1      -2.448  -9.692  55.646  1.00  0.00     0.158 A 
ATOM     10  C   UNL     1      -2.612  -8.302  55.583  1.00  0.00     0.062 A 
ATOM     11  C   UNL     1      -1.525  -7.479  55.257  1.00  0.00     0.022 A 
ENDROOT
BRANCH   9  12
ATOM     12  O   UNL     1      -3.546 -10.487  55.971  1.00  0.00    -0.504 OA
ATOM     13  H   UNL     1      -4.081 -10.346  56.819  1.00  0.00     0.293 HD
ENDBRANCH   9  12
BRANCH   8  14
ATOM     14  O   UNL     1      -1.026 -11.647  55.444  1.00  0.00    -0.504 OA
ATOM     15  H   UNL     1      -1.797 -12.263  55.676  1.00  0.00     0.293 HD
ENDBRANCH   8  14
TORSDOF 2
ENDMDL
MODEL 6
REMARK VINA RESULT:    -2.771      3.231      4.788
REMARK INTER + INTRA:          -2.933
REMARK INTER:                  -2.933
REMARK INTRA:                   0.000
REMARK UNBOUND:                 0.000
REMARK SMILES O=c1ccc2cc(O)c(O)cc2o1
REMARK SMILES IDX 4 1 3 2 2 3 1 4 13 5 12 6 11 7 9 8 7 9 6 10 5 11 8 12 10 14
REMARK H PARENT 8 13 10 15
REMARK Flexibility Score: inf
ROOT
ATOM      1  C   UNL     1       4.290 -13.619  55.399  1.00  0.00     0.019 A 
ATOM      2  C   UNL     1       3.666 -14.798  54.994  1.00  0.00     0.094 A 
ATOM      3  C   UNL     1       2.516 -14.718  54.200  1.00  0.00     0.336 A 
ATOM      4  O   UNL     1       1.938 -15.770  53.824  1.00  0.00    -0.246 OA
ATOM      5  O   UNL     1       2.028 -13.534  53.839  1.00  0.00    -0.423 OA
ATOM      6  C   UNL     1       2.593 -12.385  54.205  1.00  0.00     0.142 A 
ATOM      7  C   UNL     1       2.036 -11.170  53.795  1.00  0.00     0.098 A 
ATOM      8  C   UNL     1       2.628  -9.956  54.177  1.00  0.00     0.161 A 
ATOM      9  C   UNL     1       3.786  -9.961  54.975  1.00  0.00     0.158 A 
ATOM     10  C   UNL     1       4.346 -11.176  55.386  1.00  0.00     0.062 A 
ATOM     11  C   UNL     1       3.756 -12.389  55.005  1.00  0.00     0.022 A 
ENDROOT
BRANCH   9  12
ATOM     12  O   UNL     1       4.393  -8.769  55.368  1.00  0.00    -0.504 OA
ATOM     13  H   UNL     1       5.262  -8.447  54.961  1.00  0.00     0.293 HD
ENDBRANCH   9  12
BRANCH   8  14
ATOM     14  O   UNL     1       2.068  -8.746  53.767  1.00  0.00    -0.504 OA
ATOM     15  H   UNL     1       1.065  -8.631  53.670  1.00  0.00     0.293 HD
ENDBRANCH   8  14
TORSDOF 2
ENDMDL
MODEL 7
REMARK VINA RESULT:    -2.770      5.595      8.267
REMARK INTER + INTRA:          -2.932
REMARK INTER:                  -2.932
REMARK INTRA:                   0.000
REMARK UNBOUND:                 0.000
REMARK SMILES O=c1ccc2cc(O)c(O)cc2o1
REMARK SMILES IDX 4 1 3 2 2 3 1 4 13 5 12 6 11 7 9 8 7 9 6 10 5 11 8 12 10 14
REMARK H PARENT 8 13 10 15
REMARK Flexibility Score: inf
ROOT
ATOM      1  C   UNL     1       0.347  -6.727  54.588  1.00  0.00     0.019 A 
ATOM      2  C   UNL     1      -0.906  -6.487  55.152  1.00  0.00     0.094 A 
ATOM      3  C   UNL     1      -1.584  -7.544  55.769  1.00  0.00     0.336 A 
ATOM      4  O   UNL     1      -2.715  -7.350  56.284  1.00  0.00    -0.246 OA
ATOM      5  O   UNL     1      -1.041  -8.758  55.814  1.00  0.00    -0.423 OA
ATOM      6  C   UNL     1       0.152  -9.029  55.288  1.00  0.00     0.142 A 
ATOM      7  C   UNL     1       0.673 -10.323  55.366  1.00  0.00     0.098 A 
ATOM      8  C   UNL     1       1.930 -10.614  54.814  1.00  0.00     0.161 A 
ATOM      9  C   UNL     1       2.669  -9.600  54.179  1.00  0.00     0.158 A 
ATOM     10  C   UNL     1       2.149  -8.303  54.099  1.00  0.00     0.062 A 
ATOM     11  C   UNL     1       0.894  -8.011  54.651  1.00  0.00     0.022 A 
ENDROOT
BRANCH   9  12
ATOM     12  O   UNL     1       3.920  -9.863  53.621  1.00  0.00    -0.504 OA
ATOM     13  H   UNL     1       4.533  -9.123  53.302  1.00  0.00     0.293 HD
ENDBRANCH   9  12
BRANCH   8  14
ATOM     14  O   UNL     1       2.446 -11.907  54.894  1.00  0.00    -0.504 OA
ATOM     15  H   UNL     1       1.999 -12.688  54.426  1.00  0.00     0.293 HD
ENDBRANCH   8  14
TORSDOF 2
ENDMDL
MODEL 8
REMARK VINA RESULT:    -2.757      2.272      3.614
REMARK INTER + INTRA:          -2.918
REMARK INTER:                  -2.918
REMARK INTRA:                   0.000
REMARK UNBOUND:                 0.000
REMARK SMILES O=c1ccc2cc(O)c(O)cc2o1
REMARK SMILES IDX 4 1 3 2 2 3 1 4 13 5 12 6 11 7 9 8 7 9 6 10 5 11 8 12 10 14
REMARK H PARENT 8 13 10 15
REMARK Flexibility Score: inf
ROOT
ATOM      1  C   UNL     1       4.230 -12.866  55.201  1.00  0.00     0.019 A 
ATOM      2  C   UNL     1       4.073 -11.493  55.009  1.00  0.00     0.094 A 
ATOM      3  C   UNL     1       2.887 -11.021  54.436  1.00  0.00     0.336 A 
ATOM      4  O   UNL     1       2.726  -9.786  54.254  1.00  0.00    -0.246 OA
ATOM      5  O   UNL     1       1.926 -11.869  54.080  1.00  0.00    -0.423 OA
ATOM      6  C   UNL     1       2.037 -13.186  54.246  1.00  0.00     0.142 A 
ATOM      7  C   UNL     1       0.993 -14.029  53.853  1.00  0.00     0.098 A 
ATOM      8  C   UNL     1       1.103 -15.418  54.026  1.00  0.00     0.161 A 
ATOM      9  C   UNL     1       2.267 -15.964  54.596  1.00  0.00     0.158 A 
ATOM     10  C   UNL     1       3.314 -15.121  54.990  1.00  0.00     0.062 A 
ATOM     11  C   UNL     1       3.204 -13.734  54.819  1.00  0.00     0.022 A 
ENDROOT
BRANCH   9  12
ATOM     12  O   UNL     1       2.402 -17.339  54.778  1.00  0.00    -0.504 OA
ATOM     13  H   UNL     1       1.921 -18.010  54.192  1.00  0.00     0.293 HD
ENDBRANCH   9  12
BRANCH   8  14
ATOM     14  O   UNL     1       0.060 -16.256  53.632  1.00  0.00    -0.504 OA
ATOM     15  H   UNL     1       0.236 -17.142  53.173  1.00  0.00     0.293 HD
ENDBRANCH   8  14
TORSDOF 2
ENDMDL
MODEL 9
REMARK VINA RESULT:    -2.747      5.274      7.928
REMARK INTER + INTRA:          -2.907
REMARK INTER:                  -2.907
REMARK INTRA:                   0.000
REMARK UNBOUND:                 0.000
REMARK SMILES O=c1ccc2cc(O)c(O)cc2o1
REMARK SMILES IDX 4 1 3 2 2 3 1 4 13 5 12 6 11 7 9 8 7 9 6 10 5 11 8 12 10 14
REMARK H PARENT 8 13 10 15
REMARK Flexibility Score: inf
ROOT
ATOM      1  C   UNL     1      -1.279  -9.570  55.631  1.00  0.00     0.019 A 
ATOM      2  C   UNL     1      -2.072  -8.506  55.202  1.00  0.00     0.094 A 
ATOM      3  C   UNL     1      -1.480  -7.471  54.469  1.00  0.00     0.336 A 
ATOM      4  O   UNL     1      -2.178  -6.503  54.073  1.00  0.00    -0.246 OA
ATOM      5  O   UNL     1      -0.179  -7.503  54.189  1.00  0.00    -0.423 OA
ATOM      6  C   UNL     1       0.613  -8.499  54.581  1.00  0.00     0.142 A 
ATOM      7  C   UNL     1       1.972  -8.480  54.256  1.00  0.00     0.098 A 
ATOM      8  C   UNL     1       2.812  -9.527  54.665  1.00  0.00     0.161 A 
ATOM      9  C   UNL     1       2.285 -10.601  55.405  1.00  0.00     0.158 A 
ATOM     10  C   UNL     1       0.923 -10.623  55.730  1.00  0.00     0.062 A 
ATOM     11  C   UNL     1       0.084  -9.578  55.322  1.00  0.00     0.022 A 
ENDROOT
BRANCH   9  12
ATOM     12  O   UNL     1       3.097 -11.654  55.824  1.00  0.00    -0.504 OA
ATOM     13  H   UNL     1       4.103 -11.637  55.709  1.00  0.00     0.293 HD
ENDBRANCH   9  12
BRANCH   8  14
ATOM     14  O   UNL     1       4.168  -9.503  54.340  1.00  0.00    -0.504 OA
ATOM     15  H   UNL     1       4.657 -10.339  54.040  1.00  0.00     0.293 HD
ENDBRANCH   8  14
TORSDOF 2
ENDMDL
