MODEL 1
REMARK VINA RESULT:    -3.132      0.000      0.000
REMARK INTER + INTRA:          -2.528
REMARK INTER:                  -4.414
REMARK INTRA:                   1.885
REMARK UNBOUND:                 1.885
REMARK SMILES CC1=CCC(=C(C)C)C(=O)CC(C)=CCC1
REMARK SMILES IDX 12 1 14 2 13 3 15 4 16 5 2 6 1 7 3 8 11 10 9 11 10 12 5 13
REMARK SMILES IDX 6 14 7 15 8 16 4 17
REMARK H PARENT
REMARK Flexibility Score: 60.00
ROOT
ATOM      1  C   UNL     1      25.943  28.502  29.304  1.00  0.00    -0.070 C 
ATOM      2  C   UNL     1      27.205  28.965  29.142  1.00  0.00    -0.027 C 
ATOM      3  C   UNL     1      25.023  29.264  30.225  1.00  0.00     0.039 C 
ENDROOT
BRANCH   2   4
ATOM      4  C   UNL     1      28.252  28.392  28.216  1.00  0.00     0.032 C 
BRANCH   4   5
ATOM      5  C   UNL     1      28.474  29.248  26.958  1.00  0.00     0.034 C 
BRANCH   5   6
ATOM      6  C   UNL     1      27.916  28.599  25.704  1.00  0.00    -0.077 C 
ATOM      7  C   UNL     1      27.451  29.493  24.582  1.00  0.00     0.039 C 
ATOM      8  C   UNL     1      27.791  27.262  25.538  1.00  0.00    -0.023 CG0
ATOM      9  G   UNL     1      28.142  26.207  26.560  1.00  0.00     0.000 G0
ENDBRANCH   5   6
ENDBRANCH   4   5
ENDBRANCH   2   4
BRANCH   1  10
ATOM     10  C   UNL     1      25.397  27.273  28.601  1.00  0.00     0.111 C 
BRANCH  10  11
ATOM     11  C   UNL     1      26.419  26.168  28.498  1.00  0.00     0.163 C 
ATOM     12  O   UNL     1      26.842  25.648  29.565  1.00  0.00    -0.294 OA
BRANCH  11  13
ATOM     13  C   UNL     1      26.879  25.620  27.185  1.00  0.00    -0.002 C 
ATOM     14  C   UNL     1      26.265  24.532  26.636  1.00  0.00    -0.069 C 
ATOM     15  C   UNL     1      25.071  23.883  27.303  1.00  0.00     0.039 C 
ATOM     16  C   UNL     1      26.778  23.896  25.365  1.00  0.00     0.039 C 
BRANCH  13  17
ATOM     17  C   UNL     1      28.137  26.207  26.557  1.00  0.00     0.066 CG0
ATOM     18  G   UNL     1      27.810  27.258  25.523  1.00  0.00     0.000 G0
ENDBRANCH  13  17
ENDBRANCH  11  13
ENDBRANCH  10  11
ENDBRANCH   1  10
TORSDOF 0
ENDMDL
MODEL 2
REMARK VINA RESULT:    -2.117      2.181      4.564
REMARK INTER + INTRA:          -1.097
REMARK INTER:                  -2.726
REMARK INTRA:                   1.629
REMARK UNBOUND:                 1.885
REMARK SMILES CC1=CCC(=C(C)C)C(=O)CC(C)=CCC1
REMARK SMILES IDX 12 1 14 2 13 3 15 4 16 5 2 6 1 7 3 8 11 10 9 11 10 12 5 13
REMARK SMILES IDX 6 14 7 15 8 16 4 17
REMARK H PARENT
REMARK Flexibility Score: 60.00
ROOT
ATOM      1  C   UNL     1      26.797  24.648  25.773  1.00  0.00    -0.070 C 
ATOM      2  C   UNL     1      25.860  23.941  26.448  1.00  0.00    -0.027 C 
ATOM      3  C   UNL     1      27.709  23.898  24.835  1.00  0.00     0.039 C 
ENDROOT
BRANCH   2   4
ATOM      4  C   UNL     1      24.812  24.510  27.375  1.00  0.00     0.032 C 
BRANCH   4   5
ATOM      5  C   UNL     1      25.414  25.199  28.612  1.00  0.00     0.034 C 
BRANCH   5   6
ATOM      6  C   UNL     1      25.128  26.689  28.648  1.00  0.00    -0.077 C 
ATOM      7  C   UNL     1      23.719  27.154  28.380  1.00  0.00     0.039 C 
ATOM      8  C   UNL     1      26.069  27.631  28.887  1.00  0.00    -0.023 CG0
ATOM      9  G   UNL     1      27.540  27.375  29.119  1.00  0.00     0.000 G0
ENDBRANCH   5   6
ENDBRANCH   4   5
ENDBRANCH   2   4
BRANCH   1  10
ATOM     10  C   UNL     1      26.970  26.151  25.893  1.00  0.00     0.111 C 
BRANCH  10  11
ATOM     11  C   UNL     1      28.142  26.527  26.766  1.00  0.00     0.163 C 
ATOM     12  O   UNL     1      29.121  27.111  26.228  1.00  0.00    -0.294 OA
BRANCH  11  13
ATOM     13  C   UNL     1      28.143  26.306  28.245  1.00  0.00    -0.002 C 
ATOM     14  C   UNL     1      28.537  25.107  28.764  1.00  0.00    -0.069 C 
ATOM     15  C   UNL     1      29.036  23.990  27.874  1.00  0.00     0.039 C 
ATOM     16  C   UNL     1      28.447  24.824  30.246  1.00  0.00     0.039 C 
BRANCH  13  17
ATOM     17  C   UNL     1      27.554  27.390  29.138  1.00  0.00     0.066 CG0
ATOM     18  G   UNL     1      26.086  27.609  28.860  1.00  0.00     0.000 G0
ENDBRANCH  13  17
ENDBRANCH  11  13
ENDBRANCH  10  11
ENDBRANCH   1  10
TORSDOF 0
ENDMDL
MODEL 3
REMARK VINA RESULT:    -1.706     13.852     16.673
REMARK INTER + INTRA:          -0.519
REMARK INTER:                  -1.803
REMARK INTRA:                   1.283
REMARK UNBOUND:                 1.885
REMARK SMILES CC1=CCC(=C(C)C)C(=O)CC(C)=CCC1
REMARK SMILES IDX 12 1 14 2 13 3 15 4 16 5 2 6 1 7 3 8 11 10 9 11 10 12 5 13
REMARK SMILES IDX 6 14 7 15 8 16 4 17
REMARK H PARENT
REMARK Flexibility Score: 60.00
ROOT
ATOM      1  C   UNL     1      26.727  39.586  20.457  1.00  0.00    -0.070 C 
ATOM      2  C   UNL     1      26.689  39.812  19.122  1.00  0.00    -0.027 C 
ATOM      3  C   UNL     1      26.711  38.155  20.932  1.00  0.00     0.039 C 
ENDROOT
BRANCH   2   4
ATOM      4  C   UNL     1      26.768  41.159  18.445  1.00  0.00     0.032 C 
BRANCH   4   5
ATOM      5  C   UNL     1      27.936  42.020  18.955  1.00  0.00     0.034 C 
BRANCH   5   6
ATOM      6  C   UNL     1      27.484  43.372  19.472  1.00  0.00    -0.077 C 
ATOM      7  C   UNL     1      26.419  44.113  18.703  1.00  0.00     0.039 C 
ATOM      8  C   UNL     1      27.993  43.967  20.576  1.00  0.00    -0.023 CG0
ATOM      9  G   UNL     1      29.100  43.419  21.445  1.00  0.00     0.000 G0
ENDBRANCH   5   6
ENDBRANCH   4   5
ENDBRANCH   2   4
BRANCH   1  10
ATOM     10  C   UNL     1      26.804  40.687  21.498  1.00  0.00     0.111 C 
BRANCH  10  11
ATOM     11  C   UNL     1      28.225  41.028  21.871  1.00  0.00     0.163 C 
ATOM     12  O   UNL     1      29.121  40.173  21.642  1.00  0.00    -0.294 OA
BRANCH  11  13
ATOM     13  C   UNL     1      28.611  42.364  22.423  1.00  0.00    -0.002 C 
ATOM     14  C   UNL     1      28.391  42.659  23.737  1.00  0.00    -0.069 C 
ATOM     15  C   UNL     1      27.807  41.636  24.686  1.00  0.00     0.039 C 
ATOM     16  C   UNL     1      28.675  44.036  24.292  1.00  0.00     0.039 C 
BRANCH  13  17
ATOM     17  C   UNL     1      29.110  43.428  21.454  1.00  0.00     0.066 CG0
ATOM     18  G   UNL     1      27.997  43.955  20.579  1.00  0.00     0.000 G0
ENDBRANCH  13  17
ENDBRANCH  11  13
ENDBRANCH  10  11
ENDBRANCH   1  10
TORSDOF 0
ENDMDL
MODEL 4
REMARK VINA RESULT:    -1.558     13.009     15.793
REMARK INTER + INTRA:          -0.310
REMARK INTER:                  -0.836
REMARK INTRA:                   0.526
REMARK UNBOUND:                 1.885
REMARK SMILES CC1=CCC(=C(C)C)C(=O)CC(C)=CCC1
REMARK SMILES IDX 12 1 14 2 13 3 15 4 16 5 2 6 1 7 3 8 11 10 9 11 10 12 5 13
REMARK SMILES IDX 6 14 7 15 8 16 4 17
REMARK H PARENT
REMARK Flexibility Score: 60.00
ROOT
ATOM      1  C   UNL     1      28.110  40.436  18.352  1.00  0.00    -0.070 C 
ATOM      2  C   UNL     1      27.617  41.675  18.117  1.00  0.00    -0.027 C 
ATOM      3  C   UNL     1      27.772  39.342  17.371  1.00  0.00     0.039 C 
ENDROOT
BRANCH   2   4
ATOM      4  C   UNL     1      27.895  42.914  18.934  1.00  0.00     0.032 C 
BRANCH   4   5
ATOM      5  C   UNL     1      26.655  43.428  19.685  1.00  0.00     0.034 C 
BRANCH   5   6
ATOM      6  C   UNL     1      26.685  43.088  21.164  1.00  0.00    -0.077 C 
ATOM      7  C   UNL     1      27.239  44.111  22.122  1.00  0.00     0.039 C 
ATOM      8  C   UNL     1      26.260  41.909  21.675  1.00  0.00    -0.023 CG0
ATOM      9  G   UNL     1      25.730  40.739  20.881  1.00  0.00     0.000 G0
ENDBRANCH   5   6
ENDBRANCH   4   5
ENDBRANCH   2   4
BRANCH   1  10
ATOM     10  C   UNL     1      28.996  40.090  19.535  1.00  0.00     0.111 C 
BRANCH  10  11
ATOM     11  C   UNL     1      28.212  39.935  20.814  1.00  0.00     0.163 C 
ATOM     12  O   UNL     1      28.796  40.180  21.903  1.00  0.00    -0.294 OA
BRANCH  11  13
ATOM     13  C   UNL     1      26.758  39.584  20.827  1.00  0.00    -0.002 C 
ATOM     14  C   UNL     1      26.358  38.290  20.659  1.00  0.00    -0.069 C 
ATOM     15  C   UNL     1      27.363  37.168  20.513  1.00  0.00     0.039 C 
ATOM     16  C   UNL     1      24.894  37.925  20.561  1.00  0.00     0.039 C 
BRANCH  13  17
ATOM     17  C   UNL     1      25.741  40.717  20.877  1.00  0.00     0.066 CG0
ATOM     18  G   UNL     1      26.268  41.909  21.640  1.00  0.00     0.000 G0
ENDBRANCH  13  17
ENDBRANCH  11  13
ENDBRANCH  10  11
ENDBRANCH   1  10
TORSDOF 0
ENDMDL
MODEL 5
REMARK VINA RESULT:    -1.490     13.736     16.230
REMARK INTER + INTRA:          -0.214
REMARK INTER:                  -0.836
REMARK INTRA:                   0.622
REMARK UNBOUND:                 1.885
REMARK SMILES CC1=CCC(=C(C)C)C(=O)CC(C)=CCC1
REMARK SMILES IDX 12 1 14 2 13 3 15 4 16 5 2 6 1 7 3 8 11 10 9 11 10 12 5 13
REMARK SMILES IDX 6 14 7 15 8 16 4 17
REMARK H PARENT
REMARK Flexibility Score: 60.00
ROOT
ATOM      1  C   UNL     1      27.256  43.618  19.485  1.00  0.00    -0.070 C 
ATOM      2  C   UNL     1      26.906  44.121  20.692  1.00  0.00    -0.027 C 
ATOM      3  C   UNL     1      26.491  44.088  18.274  1.00  0.00     0.039 C 
ENDROOT
BRANCH   2   4
ATOM      4  C   UNL     1      27.589  43.834  22.009  1.00  0.00     0.032 C 
BRANCH   4   5
ATOM      5  C   UNL     1      27.007  42.608  22.733  1.00  0.00     0.034 C 
BRANCH   5   6
ATOM      6  C   UNL     1      28.012  41.480  22.871  1.00  0.00    -0.077 C 
ATOM      7  C   UNL     1      29.068  41.591  23.942  1.00  0.00     0.039 C 
ATOM      8  C   UNL     1      28.031  40.385  22.077  1.00  0.00    -0.023 CG0
ATOM      9  G   UNL     1      27.101  40.116  20.917  1.00  0.00     0.000 G0
ENDBRANCH   5   6
ENDBRANCH   4   5
ENDBRANCH   2   4
BRANCH   1  10
ATOM     10  C   UNL     1      28.384  42.623  19.279  1.00  0.00     0.111 C 
BRANCH  10  11
ATOM     11  C   UNL     1      27.893  41.297  18.756  1.00  0.00     0.163 C 
ATOM     12  O   UNL     1      27.558  41.223  17.544  1.00  0.00    -0.294 OA
BRANCH  11  13
ATOM     13  C   UNL     1      27.869  40.061  19.599  1.00  0.00    -0.002 C 
ATOM     14  C   UNL     1      28.398  38.894  19.129  1.00  0.00    -0.069 C 
ATOM     15  C   UNL     1      29.072  38.824  17.776  1.00  0.00     0.039 C 
ATOM     16  C   UNL     1      28.291  37.608  19.917  1.00  0.00     0.039 C 
BRANCH  13  17
ATOM     17  C   UNL     1      27.109  40.101  20.918  1.00  0.00     0.066 CG0
ATOM     18  G   UNL     1      28.028  40.372  22.086  1.00  0.00     0.000 G0
ENDBRANCH  13  17
ENDBRANCH  11  13
ENDBRANCH  10  11
ENDBRANCH   1  10
TORSDOF 0
ENDMDL
MODEL 6
REMARK VINA RESULT:    -0.998      1.554      2.148
REMARK INTER + INTRA:           0.479
REMARK INTER:                  -1.483
REMARK INTRA:                   1.962
REMARK UNBOUND:                 1.885
REMARK SMILES CC1=CCC(=C(C)C)C(=O)CC(C)=CCC1
REMARK SMILES IDX 12 1 14 2 13 3 15 4 16 5 2 6 1 7 3 8 11 10 9 11 10 12 5 13
REMARK SMILES IDX 6 14 7 15 8 16 4 17
REMARK H PARENT
REMARK Flexibility Score: 60.00
ROOT
ATOM      1  C   UNL     1      24.233  27.095  28.509  1.00  0.00    -0.070 C 
ATOM      2  C   UNL     1      24.913  28.123  29.070  1.00  0.00    -0.027 C 
ATOM      3  C   UNL     1      22.735  27.058  28.686  1.00  0.00     0.039 C 
ENDROOT
BRANCH   2   4
ATOM      4  C   UNL     1      26.397  28.380  28.950  1.00  0.00     0.032 C 
BRANCH   4   5
ATOM      5  C   UNL     1      26.874  28.472  27.490  1.00  0.00     0.034 C 
BRANCH   5   6
ATOM      6  C   UNL     1      28.380  28.343  27.359  1.00  0.00    -0.077 C 
ATOM      7  C   UNL     1      29.125  29.412  26.599  1.00  0.00     0.039 C 
ATOM      8  C   UNL     1      29.096  27.314  27.866  1.00  0.00    -0.023 CG0
ATOM      9  G   UNL     1      28.534  26.122  28.604  1.00  0.00     0.000 G0
ENDBRANCH   5   6
ENDBRANCH   4   5
ENDBRANCH   2   4
BRANCH   1  10
ATOM     10  C   UNL     1      24.887  25.990  27.700  1.00  0.00     0.111 C 
BRANCH  10  11
ATOM     11  C   UNL     1      26.065  25.376  28.415  1.00  0.00     0.163 C 
ATOM     12  O   UNL     1      25.856  24.789  29.510  1.00  0.00    -0.294 OA
BRANCH  11  13
ATOM     13  C   UNL     1      27.442  25.368  27.832  1.00  0.00    -0.002 C 
ATOM     14  C   UNL     1      27.713  24.644  26.708  1.00  0.00    -0.069 C 
ATOM     15  C   UNL     1      26.628  23.875  25.987  1.00  0.00     0.039 C 
ATOM     16  C   UNL     1      29.119  24.535  26.162  1.00  0.00     0.039 C 
BRANCH  13  17
ATOM     17  C   UNL     1      28.558  26.060  28.605  1.00  0.00     0.066 CG0
ATOM     18  G   UNL     1      29.091  27.264  27.864  1.00  0.00     0.000 G0
ENDBRANCH  13  17
ENDBRANCH  11  13
ENDBRANCH  10  11
ENDBRANCH   1  10
TORSDOF 0
ENDMDL
