MODEL 1
REMARK VINA RESULT:    -3.511      0.000      0.000
REMARK INTER + INTRA:         -11.992
REMARK INTER:                  -8.027
REMARK INTRA:                  -3.964
REMARK UNBOUND:                -3.964
REMARK SMILES CCCCCCCCCCCCCCCCCCCCCCCC(=O)[O-]
REMARK SMILES IDX 13 1 14 2 15 3 16 4 17 5 18 6 19 7 20 8 21 9 22 10 23 11
REMARK SMILES IDX 24 12 25 13 26 14 12 15 11 16 10 17 9 18 8 19 7 20 6 21 5 22
REMARK SMILES IDX 4 23 3 24 2 25 1 26
REMARK H PARENT
REMARK Flexibility Score: inf
ROOT
ATOM      1  C   UNL     1      -4.746 -67.833  -5.749  1.00  0.00     0.000 C 
ENDROOT
BRANCH   1   2
ATOM      2  C   UNL     1      -4.384 -68.382  -7.137  1.00  0.00     0.000 C 
BRANCH   2   3
ATOM      3  C   UNL     1      -5.196 -67.721  -8.264  1.00  0.00     0.000 C 
BRANCH   3   4
ATOM      4  C   UNL     1      -5.388 -66.207  -8.057  1.00  0.00     0.000 C 
BRANCH   4   5
ATOM      5  C   UNL     1      -4.265 -65.317  -8.627  1.00  0.00     0.000 C 
BRANCH   5   6
ATOM      6  C   UNL     1      -4.509 -63.799  -8.510  1.00  0.00     0.000 C 
BRANCH   6   7
ATOM      7  C   UNL     1      -3.240 -62.957  -8.271  1.00  0.00     0.000 C 
BRANCH   7   8
ATOM      8  C   UNL     1      -3.088 -62.399  -6.841  1.00  0.00     0.000 C 
BRANCH   8   9
ATOM      9  C   UNL     1      -1.875 -62.935  -6.061  1.00  0.00     0.000 C 
BRANCH   9  10
ATOM     10  C   UNL     1      -1.548 -64.401  -6.396  1.00  0.00     0.006 C 
BRANCH  10  11
ATOM     11  C   UNL     1      -0.202 -64.546  -7.117  1.00  0.00     0.053 C 
BRANCH  11  12
ATOM     12  C   UNL     1       0.886 -63.788  -6.418  1.00  0.00     0.041 C 
ATOM     13  O   UNL     1       1.220 -64.098  -5.244  1.00  0.00    -0.550 OA
ATOM     14  O   UNL     1       1.504 -62.716  -7.049  1.00  0.00    -0.550 OA
ENDBRANCH  11  12
ENDBRANCH  10  11
ENDBRANCH   9  10
ENDBRANCH   8   9
ENDBRANCH   7   8
ENDBRANCH   6   7
ENDBRANCH   5   6
ENDBRANCH   4   5
ENDBRANCH   3   4
ENDBRANCH   2   3
ENDBRANCH   1   2
BRANCH   1  15
ATOM     15  C   UNL     1      -3.524 -67.345  -4.958  1.00  0.00     0.000 C 
BRANCH  15  16
ATOM     16  C   UNL     1      -3.924 -66.255  -3.956  1.00  0.00     0.000 C 
BRANCH  16  17
ATOM     17  C   UNL     1      -4.816 -65.195  -4.614  1.00  0.00     0.000 C 
BRANCH  17  18
ATOM     18  C   UNL     1      -5.011 -63.991  -3.680  1.00  0.00    -0.000 C 
BRANCH  18  19
ATOM     19  C   UNL     1      -5.843 -62.871  -4.324  1.00  0.00    -0.000 C 
BRANCH  19  20
ATOM     20  C   UNL     1      -6.555 -63.328  -5.609  1.00  0.00    -0.000 C 
BRANCH  20  21
ATOM     21  C   UNL     1      -7.311 -62.172  -6.301  1.00  0.00    -0.000 C 
BRANCH  21  22
ATOM     22  C   UNL     1      -8.537 -62.630  -7.115  1.00  0.00    -0.000 C 
BRANCH  22  23
ATOM     23  C   UNL     1      -8.985 -64.082  -6.861  1.00  0.00    -0.000 C 
BRANCH  23  24
ATOM     24  C   UNL     1      -8.816 -65.028  -8.064  1.00  0.00    -0.000 C 
BRANCH  24  25
ATOM     25  C   UNL     1      -8.419 -64.290  -9.349  1.00  0.00    -0.003 C 
ATOM     26  C   UNL     1      -9.473 -64.478 -10.437  1.00  0.00     0.004 C 
ENDBRANCH  24  25
ENDBRANCH  23  24
ENDBRANCH  22  23
ENDBRANCH  21  22
ENDBRANCH  20  21
ENDBRANCH  19  20
ENDBRANCH  18  19
ENDBRANCH  17  18
ENDBRANCH  16  17
ENDBRANCH  15  16
ENDBRANCH   1  15
TORSDOF 22
ENDMDL
MODEL 2
REMARK VINA RESULT:    -3.449      3.250      7.394
REMARK INTER + INTRA:         -11.850
REMARK INTER:                  -7.568
REMARK INTRA:                  -4.282
REMARK UNBOUND:                -3.964
REMARK SMILES CCCCCCCCCCCCCCCCCCCCCCCC(=O)[O-]
REMARK SMILES IDX 13 1 14 2 15 3 16 4 17 5 18 6 19 7 20 8 21 9 22 10 23 11
REMARK SMILES IDX 24 12 25 13 26 14 12 15 11 16 10 17 9 18 8 19 7 20 6 21 5 22
REMARK SMILES IDX 4 23 3 24 2 25 1 26
REMARK H PARENT
REMARK Flexibility Score: inf
ROOT
ATOM      1  C   UNL     1      -5.162 -62.281  -4.239  1.00  0.00     0.000 C 
ENDROOT
BRANCH   1   2
ATOM      2  C   UNL     1      -5.760 -63.696  -4.246  1.00  0.00     0.000 C 
BRANCH   2   3
ATOM      3  C   UNL     1      -5.286 -64.543  -3.052  1.00  0.00     0.000 C 
BRANCH   3   4
ATOM      4  C   UNL     1      -4.020 -65.362  -3.362  1.00  0.00     0.000 C 
BRANCH   4   5
ATOM      5  C   UNL     1      -4.270 -66.814  -3.819  1.00  0.00     0.000 C 
BRANCH   5   6
ATOM      6  C   UNL     1      -3.737 -67.159  -5.224  1.00  0.00     0.000 C 
BRANCH   6   7
ATOM      7  C   UNL     1      -4.783 -67.068  -6.352  1.00  0.00     0.000 C 
BRANCH   7   8
ATOM      8  C   UNL     1      -4.660 -65.825  -7.256  1.00  0.00     0.000 C 
BRANCH   8   9
ATOM      9  C   UNL     1      -5.897 -65.525  -8.121  1.00  0.00     0.000 C 
BRANCH   9  10
ATOM     10  C   UNL     1      -6.491 -64.131  -7.851  1.00  0.00     0.006 C 
BRANCH  10  11
ATOM     11  C   UNL     1      -7.860 -64.208  -7.161  1.00  0.00     0.053 C 
BRANCH  11  12
ATOM     12  C   UNL     1      -8.521 -62.864  -7.090  1.00  0.00     0.041 C 
ATOM     13  O   UNL     1      -8.175 -62.034  -6.208  1.00  0.00    -0.550 OA
ATOM     14  O   UNL     1      -9.545 -62.544  -7.972  1.00  0.00    -0.550 OA
ENDBRANCH  11  12
ENDBRANCH  10  11
ENDBRANCH   9  10
ENDBRANCH   8   9
ENDBRANCH   7   8
ENDBRANCH   6   7
ENDBRANCH   5   6
ENDBRANCH   4   5
ENDBRANCH   3   4
ENDBRANCH   2   3
ENDBRANCH   1   2
BRANCH   1  15
ATOM     15  C   UNL     1      -4.588 -61.864  -5.600  1.00  0.00     0.000 C 
BRANCH  15  16
ATOM     16  C   UNL     1      -3.386 -62.740  -5.973  1.00  0.00     0.000 C 
BRANCH  16  17
ATOM     17  C   UNL     1      -2.784 -62.314  -7.319  1.00  0.00     0.000 C 
BRANCH  17  18
ATOM     18  C   UNL     1      -1.830 -63.392  -7.854  1.00  0.00    -0.000 C 
BRANCH  18  19
ATOM     19  C   UNL     1      -1.418 -64.406  -6.775  1.00  0.00    -0.000 C 
BRANCH  19  20
ATOM     20  C   UNL     1       0.098 -64.670  -6.759  1.00  0.00    -0.000 C 
BRANCH  20  21
ATOM     21  C   UNL     1       0.915 -63.371  -6.579  1.00  0.00    -0.000 C 
BRANCH  21  22
ATOM     22  C   UNL     1       1.566 -63.234  -5.189  1.00  0.00    -0.000 C 
BRANCH  22  23
ATOM     23  C   UNL     1       1.310 -61.892  -4.477  1.00  0.00    -0.000 C 
BRANCH  23  24
ATOM     24  C   UNL     1       0.065 -61.129  -4.968  1.00  0.00    -0.000 C 
BRANCH  24  25
ATOM     25  C   UNL     1      -1.023 -61.015  -3.892  1.00  0.00    -0.003 C 
ATOM     26  C   UNL     1      -1.139 -62.309  -3.089  1.00  0.00     0.004 C 
ENDBRANCH  24  25
ENDBRANCH  23  24
ENDBRANCH  22  23
ENDBRANCH  21  22
ENDBRANCH  20  21
ENDBRANCH  19  20
ENDBRANCH  18  19
ENDBRANCH  17  18
ENDBRANCH  16  17
ENDBRANCH  15  16
ENDBRANCH   1  15
TORSDOF 22
ENDMDL
MODEL 3
REMARK VINA RESULT:    -3.419      1.215      4.052
REMARK INTER + INTRA:         -11.781
REMARK INTER:                  -7.863
REMARK INTRA:                  -3.918
REMARK UNBOUND:                -3.964
REMARK SMILES CCCCCCCCCCCCCCCCCCCCCCCC(=O)[O-]
REMARK SMILES IDX 13 1 14 2 15 3 16 4 17 5 18 6 19 7 20 8 21 9 22 10 23 11
REMARK SMILES IDX 24 12 25 13 26 14 12 15 11 16 10 17 9 18 8 19 7 20 6 21 5 22
REMARK SMILES IDX 4 23 3 24 2 25 1 26
REMARK H PARENT
REMARK Flexibility Score: inf
ROOT
ATOM      1  C   UNL     1      -8.793 -64.251  -7.024  1.00  0.00     0.000 C 
ENDROOT
BRANCH   1   2
ATOM      2  C   UNL     1      -8.392 -64.597  -8.466  1.00  0.00     0.000 C 
BRANCH   2   3
ATOM      3  C   UNL     1      -7.108 -65.442  -8.535  1.00  0.00     0.000 C 
BRANCH   3   4
ATOM      4  C   UNL     1      -5.964 -64.736  -9.286  1.00  0.00     0.000 C 
BRANCH   4   5
ATOM      5  C   UNL     1      -6.294 -63.324  -9.812  1.00  0.00     0.000 C 
BRANCH   5   6
ATOM      6  C   UNL     1      -5.132 -62.313  -9.750  1.00  0.00     0.000 C 
BRANCH   6   7
ATOM      7  C   UNL     1      -3.729 -62.931  -9.908  1.00  0.00     0.000 C 
BRANCH   7   8
ATOM      8  C   UNL     1      -2.816 -62.800  -8.671  1.00  0.00     0.000 C 
BRANCH   8   9
ATOM      9  C   UNL     1      -2.161 -64.112  -8.206  1.00  0.00     0.000 C 
BRANCH   9  10
ATOM     10  C   UNL     1      -1.472 -63.983  -6.836  1.00  0.00     0.006 C 
BRANCH  10  11
ATOM     11  C   UNL     1      -0.105 -64.678  -6.805  1.00  0.00     0.053 C 
BRANCH  11  12
ATOM     12  C   UNL     1       0.996 -63.723  -6.456  1.00  0.00     0.041 C 
ATOM     13  O   UNL     1       1.297 -62.788  -7.244  1.00  0.00    -0.550 OA
ATOM     14  O   UNL     1       1.714 -63.888  -5.278  1.00  0.00    -0.550 OA
ENDBRANCH  11  12
ENDBRANCH  10  11
ENDBRANCH   9  10
ENDBRANCH   8   9
ENDBRANCH   7   8
ENDBRANCH   6   7
ENDBRANCH   5   6
ENDBRANCH   4   5
ENDBRANCH   3   4
ENDBRANCH   2   3
ENDBRANCH   1   2
BRANCH   1  15
ATOM     15  C   UNL     1      -8.494 -62.792  -6.652  1.00  0.00     0.000 C 
BRANCH  15  16
ATOM     16  C   UNL     1      -7.372 -62.716  -5.609  1.00  0.00     0.000 C 
BRANCH  16  17
ATOM     17  C   UNL     1      -6.027 -62.372  -6.263  1.00  0.00     0.000 C 
BRANCH  17  18
ATOM     18  C   UNL     1      -4.873 -63.083  -5.540  1.00  0.00    -0.000 C 
BRANCH  18  19
ATOM     19  C   UNL     1      -5.356 -64.229  -4.638  1.00  0.00    -0.000 C 
BRANCH  19  20
ATOM     20  C   UNL     1      -4.197 -64.961  -3.940  1.00  0.00    -0.000 C 
BRANCH  20  21
ATOM     21  C   UNL     1      -4.187 -66.474  -4.255  1.00  0.00    -0.000 C 
BRANCH  21  22
ATOM     22  C   UNL     1      -3.432 -66.834  -5.549  1.00  0.00    -0.000 C 
BRANCH  22  23
ATOM     23  C   UNL     1      -4.317 -66.987  -6.801  1.00  0.00    -0.000 C 
BRANCH  23  24
ATOM     24  C   UNL     1      -4.714 -68.436  -7.137  1.00  0.00    -0.000 C 
BRANCH  24  25
ATOM     25  C   UNL     1      -4.524 -68.774  -8.622  1.00  0.00    -0.003 C 
ATOM     26  C   UNL     1      -5.867 -69.014  -9.306  1.00  0.00     0.004 C 
ENDBRANCH  24  25
ENDBRANCH  23  24
ENDBRANCH  22  23
ENDBRANCH  21  22
ENDBRANCH  20  21
ENDBRANCH  19  20
ENDBRANCH  18  19
ENDBRANCH  17  18
ENDBRANCH  16  17
ENDBRANCH  15  16
ENDBRANCH   1  15
TORSDOF 22
ENDMDL
MODEL 4
REMARK VINA RESULT:    -3.412      1.471      4.016
REMARK INTER + INTRA:         -11.765
REMARK INTER:                  -7.810
REMARK INTRA:                  -3.955
REMARK UNBOUND:                -3.964
REMARK SMILES CCCCCCCCCCCCCCCCCCCCCCCC(=O)[O-]
REMARK SMILES IDX 13 1 14 2 15 3 16 4 17 5 18 6 19 7 20 8 21 9 22 10 23 11
REMARK SMILES IDX 24 12 25 13 26 14 12 15 11 16 10 17 9 18 8 19 7 20 6 21 5 22
REMARK SMILES IDX 4 23 3 24 2 25 1 26
REMARK H PARENT
REMARK Flexibility Score: inf
ROOT
ATOM      1  C   UNL     1      -5.698 -63.417  -3.064  1.00  0.00     0.000 C 
ENDROOT
BRANCH   1   2
ATOM      2  C   UNL     1      -4.637 -64.207  -3.846  1.00  0.00     0.000 C 
BRANCH   2   3
ATOM      3  C   UNL     1      -4.088 -65.404  -3.051  1.00  0.00     0.000 C 
BRANCH   3   4
ATOM      4  C   UNL     1      -4.549 -66.761  -3.615  1.00  0.00     0.000 C 
BRANCH   4   5
ATOM      5  C   UNL     1      -3.742 -67.281  -4.822  1.00  0.00     0.000 C 
BRANCH   5   6
ATOM      6  C   UNL     1      -4.570 -67.565  -6.090  1.00  0.00     0.000 C 
BRANCH   6   7
ATOM      7  C   UNL     1      -5.064 -66.310  -6.836  1.00  0.00     0.000 C 
BRANCH   7   8
ATOM      8  C   UNL     1      -4.028 -65.662  -7.777  1.00  0.00     0.000 C 
BRANCH   8   9
ATOM      9  C   UNL     1      -4.037 -64.123  -7.792  1.00  0.00     0.000 C 
BRANCH   9  10
ATOM     10  C   UNL     1      -2.923 -63.510  -6.926  1.00  0.00     0.006 C 
BRANCH  10  11
ATOM     11  C   UNL     1      -1.947 -64.570  -6.399  1.00  0.00     0.053 C 
BRANCH  11  12
ATOM     12  C   UNL     1      -0.539 -64.291  -6.832  1.00  0.00     0.041 C 
ATOM     13  O   UNL     1       0.138 -63.404  -6.249  1.00  0.00    -0.550 OA
ATOM     14  O   UNL     1       0.011 -64.984  -7.903  1.00  0.00    -0.550 OA
ENDBRANCH  11  12
ENDBRANCH  10  11
ENDBRANCH   9  10
ENDBRANCH   8   9
ENDBRANCH   7   8
ENDBRANCH   6   7
ENDBRANCH   5   6
ENDBRANCH   4   5
ENDBRANCH   3   4
ENDBRANCH   2   3
ENDBRANCH   1   2
BRANCH   1  15
ATOM     15  C   UNL     1      -7.007 -63.235  -3.845  1.00  0.00     0.000 C 
BRANCH  15  16
ATOM     16  C   UNL     1      -6.790 -63.499  -5.339  1.00  0.00     0.000 C 
BRANCH  16  17
ATOM     17  C   UNL     1      -7.501 -62.446  -6.199  1.00  0.00     0.000 C 
BRANCH  17  18
ATOM     18  C   UNL     1      -8.779 -63.026  -6.824  1.00  0.00    -0.000 C 
BRANCH  18  19
ATOM     19  C   UNL     1      -8.685 -64.541  -7.064  1.00  0.00    -0.000 C 
BRANCH  19  20
ATOM     20  C   UNL     1      -8.864 -64.916  -8.546  1.00  0.00    -0.000 C 
BRANCH  20  21
ATOM     21  C   UNL     1      -7.512 -65.105  -9.268  1.00  0.00    -0.000 C 
BRANCH  21  22
ATOM     22  C   UNL     1      -6.921 -63.798  -9.833  1.00  0.00    -0.000 C 
BRANCH  22  23
ATOM     23  C   UNL     1      -7.308 -63.482 -11.290  1.00  0.00    -0.000 C 
BRANCH  23  24
ATOM     24  C   UNL     1      -8.522 -62.547 -11.446  1.00  0.00    -0.000 C 
BRANCH  24  25
ATOM     25  C   UNL     1      -8.682 -61.581 -10.265  1.00  0.00    -0.003 C 
ATOM     26  C   UNL     1     -10.142 -61.480  -9.832  1.00  0.00     0.004 C 
ENDBRANCH  24  25
ENDBRANCH  23  24
ENDBRANCH  22  23
ENDBRANCH  21  22
ENDBRANCH  20  21
ENDBRANCH  19  20
ENDBRANCH  18  19
ENDBRANCH  17  18
ENDBRANCH  16  17
ENDBRANCH  15  16
ENDBRANCH   1  15
TORSDOF 22
ENDMDL
MODEL 5
REMARK VINA RESULT:    -3.366      7.705     10.698
REMARK INTER + INTRA:         -11.659
REMARK INTER:                  -8.508
REMARK INTRA:                  -3.151
REMARK UNBOUND:                -3.964
REMARK SMILES CCCCCCCCCCCCCCCCCCCCCCCC(=O)[O-]
REMARK SMILES IDX 13 1 14 2 15 3 16 4 17 5 18 6 19 7 20 8 21 9 22 10 23 11
REMARK SMILES IDX 24 12 25 13 26 14 12 15 11 16 10 17 9 18 8 19 7 20 6 21 5 22
REMARK SMILES IDX 4 23 3 24 2 25 1 26
REMARK H PARENT
REMARK Flexibility Score: inf
ROOT
ATOM      1  C   UNL     1      -4.223 -66.375   1.859  1.00  0.00     0.000 C 
ENDROOT
BRANCH   1   2
ATOM      2  C   UNL     1      -5.021 -65.122   2.252  1.00  0.00     0.000 C 
BRANCH   2   3
ATOM      3  C   UNL     1      -6.537 -65.379   2.299  1.00  0.00     0.000 C 
BRANCH   3   4
ATOM      4  C   UNL     1      -7.307 -64.285   3.061  1.00  0.00     0.000 C 
BRANCH   4   5
ATOM      5  C   UNL     1      -8.333 -63.496   2.221  1.00  0.00     0.000 C 
BRANCH   5   6
ATOM      6  C   UNL     1      -9.182 -64.346   1.256  1.00  0.00     0.000 C 
BRANCH   6   7
ATOM      7  C   UNL     1      -9.083 -63.934  -0.226  1.00  0.00     0.000 C 
BRANCH   7   8
ATOM      8  C   UNL     1      -8.301 -64.914  -1.124  1.00  0.00     0.000 C 
BRANCH   8   9
ATOM      9  C   UNL     1      -7.109 -64.297  -1.876  1.00  0.00     0.000 C 
BRANCH   9  10
ATOM     10  C   UNL     1      -6.062 -63.679  -0.932  1.00  0.00     0.006 C 
BRANCH  10  11
ATOM     11  C   UNL     1      -4.843 -63.140  -1.691  1.00  0.00     0.053 C 
BRANCH  11  12
ATOM     12  C   UNL     1      -3.710 -64.122  -1.688  1.00  0.00     0.041 C 
ATOM     13  O   UNL     1      -2.929 -64.185  -0.703  1.00  0.00    -0.550 OA
ATOM     14  O   UNL     1      -3.494 -64.939  -2.791  1.00  0.00    -0.550 OA
ENDBRANCH  11  12
ENDBRANCH  10  11
ENDBRANCH   9  10
ENDBRANCH   8   9
ENDBRANCH   7   8
ENDBRANCH   6   7
ENDBRANCH   5   6
ENDBRANCH   4   5
ENDBRANCH   3   4
ENDBRANCH   2   3
ENDBRANCH   1   2
BRANCH   1  15
ATOM     15  C   UNL     1      -2.770 -66.341   2.354  1.00  0.00     0.000 C 
BRANCH  15  16
ATOM     16  C   UNL     1      -2.640 -65.452   3.597  1.00  0.00     0.000 C 
BRANCH  16  17
ATOM     17  C   UNL     1      -1.628 -66.032   4.593  1.00  0.00     0.000 C 
BRANCH  17  18
ATOM     18  C   UNL     1      -2.221 -66.076   6.009  1.00  0.00    -0.000 C 
BRANCH  18  19
ATOM     19  C   UNL     1      -3.756 -66.157   6.005  1.00  0.00    -0.000 C 
BRANCH  19  20
ATOM     20  C   UNL     1      -4.271 -67.605   6.079  1.00  0.00    -0.000 C 
BRANCH  20  21
ATOM     21  C   UNL     1      -5.377 -67.886   5.037  1.00  0.00    -0.000 C 
BRANCH  21  22
ATOM     22  C   UNL     1      -6.723 -67.207   5.359  1.00  0.00    -0.000 C 
BRANCH  22  23
ATOM     23  C   UNL     1      -7.718 -68.075   6.153  1.00  0.00    -0.000 C 
BRANCH  23  24
ATOM     24  C   UNL     1      -8.885 -68.640   5.322  1.00  0.00    -0.000 C 
BRANCH  24  25
ATOM     25  C   UNL     1      -9.139 -70.129   5.592  1.00  0.00    -0.003 C 
ATOM     26  C   UNL     1      -7.976 -70.983   5.094  1.00  0.00     0.004 C 
ENDBRANCH  24  25
ENDBRANCH  23  24
ENDBRANCH  22  23
ENDBRANCH  21  22
ENDBRANCH  20  21
ENDBRANCH  19  20
ENDBRANCH  18  19
ENDBRANCH  17  18
ENDBRANCH  16  17
ENDBRANCH  15  16
ENDBRANCH   1  15
TORSDOF 22
ENDMDL
MODEL 6
REMARK VINA RESULT:    -3.362      1.594      4.739
REMARK INTER + INTRA:         -11.651
REMARK INTER:                  -7.857
REMARK INTRA:                  -3.793
REMARK UNBOUND:                -3.964
REMARK SMILES CCCCCCCCCCCCCCCCCCCCCCCC(=O)[O-]
REMARK SMILES IDX 13 1 14 2 15 3 16 4 17 5 18 6 19 7 20 8 21 9 22 10 23 11
REMARK SMILES IDX 24 12 25 13 26 14 12 15 11 16 10 17 9 18 8 19 7 20 6 21 5 22
REMARK SMILES IDX 4 23 3 24 2 25 1 26
REMARK H PARENT
REMARK Flexibility Score: inf
ROOT
ATOM      1  C   UNL     1      -6.677 -65.023  -8.849  1.00  0.00     0.000 C 
ENDROOT
BRANCH   1   2
ATOM      2  C   UNL     1      -8.191 -64.908  -8.615  1.00  0.00     0.000 C 
BRANCH   2   3
ATOM      3  C   UNL     1      -8.544 -64.683  -7.135  1.00  0.00     0.000 C 
BRANCH   3   4
ATOM      4  C   UNL     1      -8.743 -63.198  -6.784  1.00  0.00     0.000 C 
BRANCH   4   5
ATOM      5  C   UNL     1      -7.672 -62.591  -5.855  1.00  0.00     0.000 C 
BRANCH   5   6
ATOM      6  C   UNL     1      -6.341 -63.367  -5.796  1.00  0.00     0.000 C 
BRANCH   6   7
ATOM      7  C   UNL     1      -5.080 -62.505  -6.009  1.00  0.00     0.000 C 
BRANCH   7   8
ATOM      8  C   UNL     1      -4.650 -62.333  -7.479  1.00  0.00     0.000 C 
BRANCH   8   9
ATOM      9  C   UNL     1      -3.129 -62.331  -7.715  1.00  0.00     0.000 C 
BRANCH   9  10
ATOM     10  C   UNL     1      -2.560 -63.740  -7.957  1.00  0.00     0.006 C 
BRANCH  10  11
ATOM     11  C   UNL     1      -1.852 -64.301  -6.716  1.00  0.00     0.053 C 
BRANCH  11  12
ATOM     12  C   UNL     1      -0.361 -64.216  -6.842  1.00  0.00     0.041 C 
ATOM     13  O   UNL     1       0.248 -64.954  -7.660  1.00  0.00    -0.550 OA
ATOM     14  O   UNL     1       0.358 -63.350  -6.028  1.00  0.00    -0.550 OA
ENDBRANCH  11  12
ENDBRANCH  10  11
ENDBRANCH   9  10
ENDBRANCH   8   9
ENDBRANCH   7   8
ENDBRANCH   6   7
ENDBRANCH   5   6
ENDBRANCH   4   5
ENDBRANCH   3   4
ENDBRANCH   2   3
ENDBRANCH   1   2
BRANCH   1  15
ATOM     15  C   UNL     1      -6.224 -66.457  -9.157  1.00  0.00     0.000 C 
BRANCH  15  16
ATOM     16  C   UNL     1      -4.851 -66.739  -8.537  1.00  0.00     0.000 C 
BRANCH  16  17
ATOM     17  C   UNL     1      -4.861 -66.485  -7.024  1.00  0.00     0.000 C 
BRANCH  17  18
ATOM     18  C   UNL     1      -4.283 -67.690  -6.266  1.00  0.00    -0.000 C 
BRANCH  18  19
ATOM     19  C   UNL     1      -3.753 -67.315  -4.873  1.00  0.00    -0.000 C 
BRANCH  19  20
ATOM     20  C   UNL     1      -4.617 -66.245  -4.181  1.00  0.00    -0.000 C 
BRANCH  20  21
ATOM     21  C   UNL     1      -3.780 -65.038  -3.703  1.00  0.00    -0.000 C 
BRANCH  21  22
ATOM     22  C   UNL     1      -4.183 -64.513  -2.311  1.00  0.00    -0.000 C 
BRANCH  22  23
ATOM     23  C   UNL     1      -4.916 -63.158  -2.311  1.00  0.00    -0.000 C 
BRANCH  23  24
ATOM     24  C   UNL     1      -6.443 -63.250  -2.136  1.00  0.00    -0.000 C 
BRANCH  24  25
ATOM     25  C   UNL     1      -6.903 -64.635  -1.663  1.00  0.00    -0.003 C 
ATOM     26  C   UNL     1      -8.368 -64.610  -1.235  1.00  0.00     0.004 C 
ENDBRANCH  24  25
ENDBRANCH  23  24
ENDBRANCH  22  23
ENDBRANCH  21  22
ENDBRANCH  20  21
ENDBRANCH  19  20
ENDBRANCH  18  19
ENDBRANCH  17  18
ENDBRANCH  16  17
ENDBRANCH  15  16
ENDBRANCH   1  15
TORSDOF 22
ENDMDL
MODEL 7
REMARK VINA RESULT:    -3.358      2.545      6.024
REMARK INTER + INTRA:         -11.640
REMARK INTER:                  -7.011
REMARK INTRA:                  -4.630
REMARK UNBOUND:                -3.964
REMARK SMILES CCCCCCCCCCCCCCCCCCCCCCCC(=O)[O-]
REMARK SMILES IDX 13 1 14 2 15 3 16 4 17 5 18 6 19 7 20 8 21 9 22 10 23 11
REMARK SMILES IDX 24 12 25 13 26 14 12 15 11 16 10 17 9 18 8 19 7 20 6 21 5 22
REMARK SMILES IDX 4 23 3 24 2 25 1 26
REMARK H PARENT
REMARK Flexibility Score: inf
ROOT
ATOM      1  C   UNL     1      -5.491 -63.028  -6.422  1.00  0.00     0.000 C 
ENDROOT
BRANCH   1   2
ATOM      2  C   UNL     1      -6.660 -63.842  -5.846  1.00  0.00     0.000 C 
BRANCH   2   3
ATOM      3  C   UNL     1      -8.027 -63.345  -6.345  1.00  0.00     0.000 C 
BRANCH   3   4
ATOM      4  C   UNL     1      -8.812 -64.421  -7.117  1.00  0.00     0.000 C 
BRANCH   4   5
ATOM      5  C   UNL     1      -8.872 -64.222  -8.646  1.00  0.00     0.000 C 
BRANCH   5   6
ATOM      6  C   UNL     1      -8.799 -65.517  -9.478  1.00  0.00     0.000 C 
BRANCH   6   7
ATOM      7  C   UNL     1      -7.510 -65.681 -10.308  1.00  0.00     0.000 C 
BRANCH   7   8
ATOM      8  C   UNL     1      -6.200 -65.460  -9.526  1.00  0.00     0.000 C 
BRANCH   8   9
ATOM      9  C   UNL     1      -5.842 -66.576  -8.529  1.00  0.00     0.000 C 
BRANCH   9  10
ATOM     10  C   UNL     1      -4.565 -66.273  -7.726  1.00  0.00     0.006 C 
BRANCH  10  11
ATOM     11  C   UNL     1      -4.465 -67.123  -6.453  1.00  0.00     0.053 C 
BRANCH  11  12
ATOM     12  C   UNL     1      -3.410 -66.605  -5.522  1.00  0.00     0.041 C 
ATOM     13  O   UNL     1      -2.341 -66.122  -5.982  1.00  0.00    -0.550 OA
ATOM     14  O   UNL     1      -3.590 -66.692  -4.147  1.00  0.00    -0.550 OA
ENDBRANCH  11  12
ENDBRANCH  10  11
ENDBRANCH   9  10
ENDBRANCH   8   9
ENDBRANCH   7   8
ENDBRANCH   6   7
ENDBRANCH   5   6
ENDBRANCH   4   5
ENDBRANCH   3   4
ENDBRANCH   2   3
ENDBRANCH   1   2
BRANCH   1  15
ATOM     15  C   UNL     1      -5.911 -62.108  -7.578  1.00  0.00     0.000 C 
BRANCH  15  16
ATOM     16  C   UNL     1      -4.907 -62.194  -8.733  1.00  0.00     0.000 C 
BRANCH  16  17
ATOM     17  C   UNL     1      -3.521 -62.622  -8.235  1.00  0.00     0.000 C 
BRANCH  17  18
ATOM     18  C   UNL     1      -2.796 -63.461  -9.297  1.00  0.00    -0.000 C 
BRANCH  18  19
ATOM     19  C   UNL     1      -3.447 -63.350 -10.685  1.00  0.00    -0.000 C 
BRANCH  19  20
ATOM     20  C   UNL     1      -3.292 -64.636 -11.516  1.00  0.00    -0.000 C 
BRANCH  20  21
ATOM     21  C   UNL     1      -2.515 -65.733 -10.755  1.00  0.00    -0.000 C 
BRANCH  21  22
ATOM     22  C   UNL     1      -2.741 -67.153 -11.309  1.00  0.00    -0.000 C 
BRANCH  22  23
ATOM     23  C   UNL     1      -4.053 -67.347 -12.095  1.00  0.00    -0.000 C 
BRANCH  23  24
ATOM     24  C   UNL     1      -5.017 -68.387 -11.494  1.00  0.00    -0.000 C 
BRANCH  24  25
ATOM     25  C   UNL     1      -4.286 -69.509 -10.745  1.00  0.00    -0.003 C 
ATOM     26  C   UNL     1      -4.046 -70.710 -11.655  1.00  0.00     0.004 C 
ENDBRANCH  24  25
ENDBRANCH  23  24
ENDBRANCH  22  23
ENDBRANCH  21  22
ENDBRANCH  20  21
ENDBRANCH  19  20
ENDBRANCH  18  19
ENDBRANCH  17  18
ENDBRANCH  16  17
ENDBRANCH  15  16
ENDBRANCH   1  15
TORSDOF 22
ENDMDL
MODEL 8
REMARK VINA RESULT:    -3.349      8.937     12.468
REMARK INTER + INTRA:         -11.622
REMARK INTER:                  -7.089
REMARK INTRA:                  -4.533
REMARK UNBOUND:                -3.964
REMARK SMILES CCCCCCCCCCCCCCCCCCCCCCCC(=O)[O-]
REMARK SMILES IDX 13 1 14 2 15 3 16 4 17 5 18 6 19 7 20 8 21 9 22 10 23 11
REMARK SMILES IDX 24 12 25 13 26 14 12 15 11 16 10 17 9 18 8 19 7 20 6 21 5 22
REMARK SMILES IDX 4 23 3 24 2 25 1 26
REMARK H PARENT
REMARK Flexibility Score: inf
ROOT
ATOM      1  C   UNL     1      -8.457 -65.051   1.964  1.00  0.00     0.000 C 
ENDROOT
BRANCH   1   2
ATOM      2  C   UNL     1      -7.698 -65.791   3.076  1.00  0.00     0.000 C 
BRANCH   2   3
ATOM      3  C   UNL     1      -8.636 -66.358   4.155  1.00  0.00     0.000 C 
BRANCH   3   4
ATOM      4  C   UNL     1     -10.033 -65.711   4.136  1.00  0.00     0.000 C 
BRANCH   4   5
ATOM      5  C   UNL     1     -10.595 -65.318   5.518  1.00  0.00     0.000 C 
BRANCH   5   6
ATOM      6  C   UNL     1      -9.650 -64.474   6.394  1.00  0.00     0.000 C 
BRANCH   6   7
ATOM      7  C   UNL     1      -9.759 -62.951   6.182  1.00  0.00     0.000 C 
BRANCH   7   8
ATOM      8  C   UNL     1      -8.427 -62.239   5.873  1.00  0.00     0.000 C 
BRANCH   8   9
ATOM      9  C   UNL     1      -7.992 -62.287   4.397  1.00  0.00     0.000 C 
BRANCH   9  10
ATOM     10  C   UNL     1      -7.442 -60.942   3.892  1.00  0.00     0.006 C 
BRANCH  10  11
ATOM     11  C   UNL     1      -7.803 -60.683   2.423  1.00  0.00     0.053 C 
BRANCH  11  12
ATOM     12  C   UNL     1      -9.281 -60.772   2.191  1.00  0.00     0.041 C 
ATOM     13  O   UNL     1      -9.741 -61.579   1.341  1.00  0.00    -0.550 OA
ATOM     14  O   UNL     1     -10.147 -59.936   2.885  1.00  0.00    -0.550 OA
ENDBRANCH  11  12
ENDBRANCH  10  11
ENDBRANCH   9  10
ENDBRANCH   8   9
ENDBRANCH   7   8
ENDBRANCH   6   7
ENDBRANCH   5   6
ENDBRANCH   4   5
ENDBRANCH   3   4
ENDBRANCH   2   3
ENDBRANCH   1   2
BRANCH   1  15
ATOM     15  C   UNL     1      -7.526 -64.330   0.978  1.00  0.00     0.000 C 
BRANCH  15  16
ATOM     16  C   UNL     1      -6.175 -64.021   1.634  1.00  0.00     0.000 C 
BRANCH  16  17
ATOM     17  C   UNL     1      -5.076 -63.832   0.581  1.00  0.00     0.000 C 
BRANCH  17  18
ATOM     18  C   UNL     1      -3.864 -64.724   0.892  1.00  0.00    -0.000 C 
BRANCH  18  19
ATOM     19  C   UNL     1      -4.237 -65.956   1.731  1.00  0.00    -0.000 C 
BRANCH  19  20
ATOM     20  C   UNL     1      -3.367 -66.096   2.993  1.00  0.00    -0.000 C 
BRANCH  20  21
ATOM     21  C   UNL     1      -3.018 -64.727   3.618  1.00  0.00    -0.000 C 
BRANCH  21  22
ATOM     22  C   UNL     1      -3.580 -64.531   5.039  1.00  0.00    -0.000 C 
BRANCH  22  23
ATOM     23  C   UNL     1      -5.117 -64.501   5.136  1.00  0.00    -0.000 C 
BRANCH  23  24
ATOM     24  C   UNL     1      -5.717 -65.472   6.170  1.00  0.00    -0.000 C 
BRANCH  24  25
ATOM     25  C   UNL     1      -4.901 -66.763   6.315  1.00  0.00    -0.003 C 
ATOM     26  C   UNL     1      -5.466 -67.871   5.430  1.00  0.00     0.004 C 
ENDBRANCH  24  25
ENDBRANCH  23  24
ENDBRANCH  22  23
ENDBRANCH  21  22
ENDBRANCH  20  21
ENDBRANCH  19  20
ENDBRANCH  18  19
ENDBRANCH  17  18
ENDBRANCH  16  17
ENDBRANCH  15  16
ENDBRANCH   1  15
TORSDOF 22
ENDMDL
MODEL 9
REMARK VINA RESULT:    -3.328     11.412     14.518
REMARK INTER + INTRA:         -11.572
REMARK INTER:                  -8.069
REMARK INTRA:                  -3.503
REMARK UNBOUND:                -3.964
REMARK SMILES CCCCCCCCCCCCCCCCCCCCCCCC(=O)[O-]
REMARK SMILES IDX 13 1 14 2 15 3 16 4 17 5 18 6 19 7 20 8 21 9 22 10 23 11
REMARK SMILES IDX 24 12 25 13 26 14 12 15 11 16 10 17 9 18 8 19 7 20 6 21 5 22
REMARK SMILES IDX 4 23 3 24 2 25 1 26
REMARK H PARENT
REMARK Flexibility Score: inf
ROOT
ATOM      1  C   UNL     1     -17.175 -72.495  -8.402  1.00  0.00     0.000 C 
ENDROOT
BRANCH   1   2
ATOM      2  C   UNL     1     -18.014 -72.116  -9.632  1.00  0.00     0.000 C 
BRANCH   2   3
ATOM      3  C   UNL     1     -17.849 -70.638 -10.026  1.00  0.00     0.000 C 
BRANCH   3   4
ATOM      4  C   UNL     1     -16.627 -70.390 -10.929  1.00  0.00     0.000 C 
BRANCH   4   5
ATOM      5  C   UNL     1     -16.395 -71.446 -12.029  1.00  0.00     0.000 C 
BRANCH   5   6
ATOM      6  C   UNL     1     -15.011 -72.125 -12.005  1.00  0.00     0.000 C 
BRANCH   6   7
ATOM      7  C   UNL     1     -14.306 -72.106 -10.634  1.00  0.00     0.000 C 
BRANCH   7   8
ATOM      8  C   UNL     1     -12.881 -71.516 -10.643  1.00  0.00     0.000 C 
BRANCH   8   9
ATOM      9  C   UNL     1     -11.862 -72.294 -11.495  1.00  0.00     0.000 C 
BRANCH   9  10
ATOM     10  C   UNL     1     -11.047 -73.309 -10.673  1.00  0.00     0.006 C 
BRANCH  10  11
ATOM     11  C   UNL     1     -10.820 -72.839  -9.231  1.00  0.00     0.053 C 
BRANCH  11  12
ATOM     12  C   UNL     1      -9.602 -71.972  -9.115  1.00  0.00     0.041 C 
ATOM     13  O   UNL     1      -9.534 -71.092  -8.217  1.00  0.00    -0.550 OA
ATOM     14  O   UNL     1      -8.560 -72.110 -10.023  1.00  0.00    -0.550 OA
ENDBRANCH  11  12
ENDBRANCH  10  11
ENDBRANCH   9  10
ENDBRANCH   8   9
ENDBRANCH   7   8
ENDBRANCH   6   7
ENDBRANCH   5   6
ENDBRANCH   4   5
ENDBRANCH   3   4
ENDBRANCH   2   3
ENDBRANCH   1   2
BRANCH   1  15
ATOM     15  C   UNL     1     -18.020 -72.689  -7.135  1.00  0.00     0.000 C 
BRANCH  15  16
ATOM     16  C   UNL     1     -17.616 -73.974  -6.403  1.00  0.00     0.000 C 
BRANCH  16  17
ATOM     17  C   UNL     1     -16.848 -74.924  -7.331  1.00  0.00     0.000 C 
BRANCH  17  18
ATOM     18  C   UNL     1     -16.763 -76.331  -6.720  1.00  0.00    -0.000 C 
BRANCH  18  19
ATOM     19  C   UNL     1     -15.831 -77.264  -7.509  1.00  0.00    -0.000 C 
BRANCH  19  20
ATOM     20  C   UNL     1     -14.399 -77.280  -6.948  1.00  0.00    -0.000 C 
BRANCH  20  21
ATOM     21  C   UNL     1     -13.382 -76.647  -7.923  1.00  0.00    -0.000 C 
BRANCH  21  22
ATOM     22  C   UNL     1     -13.595 -77.052  -9.395  1.00  0.00    -0.000 C 
BRANCH  22  23
ATOM     23  C   UNL     1     -13.838 -75.881 -10.366  1.00  0.00    -0.000 C 
BRANCH  23  24
ATOM     24  C   UNL     1     -15.057 -76.053 -11.291  1.00  0.00    -0.000 C 
BRANCH  24  25
ATOM     25  C   UNL     1     -16.271 -75.235 -10.830  1.00  0.00    -0.003 C 
ATOM     26  C   UNL     1     -17.539 -75.679 -11.555  1.00  0.00     0.004 C 
ENDBRANCH  24  25
ENDBRANCH  23  24
ENDBRANCH  22  23
ENDBRANCH  21  22
ENDBRANCH  20  21
ENDBRANCH  19  20
ENDBRANCH  18  19
ENDBRANCH  17  18
ENDBRANCH  16  17
ENDBRANCH  15  16
ENDBRANCH   1  15
TORSDOF 22
ENDMDL
