MODEL 1
REMARK VINA RESULT:    -4.830      0.000      0.000
REMARK INTER + INTRA:         -10.993
REMARK INTER:                  -9.065
REMARK INTRA:                  -1.929
REMARK UNBOUND:                -1.929
REMARK SMILES O=C([O-])CCCCCCCCCCCCCCC(=O)[O-]
REMARK SMILES IDX 10 1 9 2 8 3 7 4 6 5 5 6 4 7 2 8 1 9 3 10 11 11 12 12 13 13
REMARK SMILES IDX 14 14 15 15 16 16 17 17 18 18 19 19 20 20
REMARK H PARENT
REMARK Flexibility Score: inf
ROOT
ATOM      1  C   UNL     1      62.227  29.703  24.898  1.00  0.00     0.000 C 
ENDROOT
BRANCH   1   2
ATOM      2  C   UNL     1      63.709  29.568  25.295  1.00  0.00     0.000 C 
BRANCH   2   3
ATOM      3  C   UNL     1      64.593  30.662  24.680  1.00  0.00     0.000 C 
BRANCH   3   4
ATOM      4  C   UNL     1      65.526  30.073  23.611  1.00  0.00     0.000 C 
BRANCH   4   5
ATOM      5  C   UNL     1      65.079  28.683  23.134  1.00  0.00     0.000 C 
BRANCH   5   6
ATOM      6  C   UNL     1      66.161  27.609  23.339  1.00  0.00     0.006 C 
BRANCH   6   7
ATOM      7  C   UNL     1      65.594  26.187  23.236  1.00  0.00     0.053 C 
BRANCH   7   8
ATOM      8  C   UNL     1      64.563  25.920  24.290  1.00  0.00     0.041 C 
ATOM      9  O   UNL     1      64.802  26.200  25.495  1.00  0.00    -0.550 OA
ATOM     10  O   UNL     1      63.327  25.392  23.937  1.00  0.00    -0.550 OA
ENDBRANCH   7   8
ENDBRANCH   6   7
ENDBRANCH   5   6
ENDBRANCH   4   5
ENDBRANCH   3   4
ENDBRANCH   2   3
ENDBRANCH   1   2
BRANCH   1  11
ATOM     11  C   UNL     1      61.511  28.375  24.582  1.00  0.00     0.000 C 
BRANCH  11  12
ATOM     12  C   UNL     1      60.682  27.792  25.741  1.00  0.00     0.000 C 
BRANCH  12  13
ATOM     13  C   UNL     1      61.556  27.123  26.818  1.00  0.00     0.000 C 
BRANCH  13  14
ATOM     14  C   UNL     1      61.145  27.521  28.244  1.00  0.00     0.000 C 
BRANCH  14  15
ATOM     15  C   UNL     1      61.350  29.021  28.520  1.00  0.00     0.000 C 
BRANCH  15  16
ATOM     16  C   UNL     1      62.814  29.368  28.835  1.00  0.00     0.006 C 
BRANCH  16  17
ATOM     17  C   UNL     1      63.108  30.868  28.703  1.00  0.00     0.053 C 
BRANCH  17  18
ATOM     18  C   UNL     1      64.583  31.108  28.666  1.00  0.00     0.041 C 
ATOM     19  O   UNL     1      65.374  30.164  28.400  1.00  0.00    -0.550 OA
ATOM     20  O   UNL     1      65.091  32.364  28.974  1.00  0.00    -0.550 OA
ENDBRANCH  17  18
ENDBRANCH  16  17
ENDBRANCH  15  16
ENDBRANCH  14  15
ENDBRANCH  13  14
ENDBRANCH  12  13
ENDBRANCH  11  12
ENDBRANCH   1  11
TORSDOF 15
ENDMDL
MODEL 2
REMARK VINA RESULT:    -4.795     12.812     14.886
REMARK INTER + INTRA:         -10.928
REMARK INTER:                  -8.670
REMARK INTRA:                  -2.258
REMARK UNBOUND:                -1.929
REMARK SMILES O=C([O-])CCCCCCCCCCCCCCC(=O)[O-]
REMARK SMILES IDX 10 1 9 2 8 3 7 4 6 5 5 6 4 7 2 8 1 9 3 10 11 11 12 12 13 13
REMARK SMILES IDX 14 14 15 15 16 16 17 17 18 18 19 19 20 20
REMARK H PARENT
REMARK Flexibility Score: inf
ROOT
ATOM      1  C   UNL     1      59.478  28.927  11.983  1.00  0.00     0.000 C 
ENDROOT
BRANCH   1   2
ATOM      2  C   UNL     1      59.694  29.722  10.682  1.00  0.00     0.000 C 
BRANCH   2   3
ATOM      3  C   UNL     1      60.289  28.868   9.553  1.00  0.00     0.000 C 
BRANCH   3   4
ATOM      4  C   UNL     1      61.592  29.488   9.027  1.00  0.00     0.000 C 
BRANCH   4   5
ATOM      5  C   UNL     1      62.811  28.575   9.234  1.00  0.00     0.000 C 
BRANCH   5   6
ATOM      6  C   UNL     1      64.145  29.314   9.036  1.00  0.00     0.006 C 
BRANCH   6   7
ATOM      7  C   UNL     1      63.991  30.835   9.167  1.00  0.00     0.053 C 
BRANCH   7   8
ATOM      8  C   UNL     1      65.283  31.496   9.539  1.00  0.00     0.041 C 
ATOM      9  O   UNL     1      65.302  32.405  10.411  1.00  0.00    -0.550 OA
ATOM     10  O   UNL     1      66.471  31.087   8.945  1.00  0.00    -0.550 OA
ENDBRANCH   7   8
ENDBRANCH   6   7
ENDBRANCH   5   6
ENDBRANCH   4   5
ENDBRANCH   3   4
ENDBRANCH   2   3
ENDBRANCH   1   2
BRANCH   1  11
ATOM     11  C   UNL     1      60.643  28.001  12.385  1.00  0.00     0.000 C 
BRANCH  11  12
ATOM     12  C   UNL     1      61.618  28.594  13.417  1.00  0.00     0.000 C 
BRANCH  12  13
ATOM     13  C   UNL     1      63.003  28.900  12.818  1.00  0.00     0.000 C 
BRANCH  13  14
ATOM     14  C   UNL     1      63.418  30.368  13.006  1.00  0.00     0.000 C 
BRANCH  14  15
ATOM     15  C   UNL     1      62.391  31.351  12.421  1.00  0.00     0.000 C 
BRANCH  15  16
ATOM     16  C   UNL     1      62.524  32.765  13.010  1.00  0.00     0.006 C 
BRANCH  16  17
ATOM     17  C   UNL     1      62.321  32.795  14.530  1.00  0.00     0.053 C 
BRANCH  17  18
ATOM     18  C   UNL     1      60.921  33.207  14.860  1.00  0.00     0.041 C 
ATOM     19  O   UNL     1      60.711  34.159  15.657  1.00  0.00    -0.550 OA
ATOM     20  O   UNL     1      59.846  32.507  14.326  1.00  0.00    -0.550 OA
ENDBRANCH  17  18
ENDBRANCH  16  17
ENDBRANCH  15  16
ENDBRANCH  14  15
ENDBRANCH  13  14
ENDBRANCH  12  13
ENDBRANCH  11  12
ENDBRANCH   1  11
TORSDOF 15
ENDMDL
MODEL 3
REMARK VINA RESULT:    -4.773      2.143      5.849
REMARK INTER + INTRA:         -10.888
REMARK INTER:                  -9.179
REMARK INTRA:                  -1.709
REMARK UNBOUND:                -1.929
REMARK SMILES O=C([O-])CCCCCCCCCCCCCCC(=O)[O-]
REMARK SMILES IDX 10 1 9 2 8 3 7 4 6 5 5 6 4 7 2 8 1 9 3 10 11 11 12 12 13 13
REMARK SMILES IDX 14 14 15 15 16 16 17 17 18 18 19 19 20 20
REMARK H PARENT
REMARK Flexibility Score: inf
ROOT
ATOM      1  C   UNL     1      64.279  29.990  26.737  1.00  0.00     0.000 C 
ENDROOT
BRANCH   1   2
ATOM      2  C   UNL     1      64.211  30.864  28.003  1.00  0.00     0.000 C 
BRANCH   2   3
ATOM      3  C   UNL     1      62.864  30.756  28.731  1.00  0.00     0.000 C 
BRANCH   3   4
ATOM      4  C   UNL     1      62.521  29.289  29.031  1.00  0.00     0.000 C 
BRANCH   4   5
ATOM      5  C   UNL     1      61.158  28.869  28.461  1.00  0.00     0.000 C 
BRANCH   5   6
ATOM      6  C   UNL     1      61.133  27.401  28.004  1.00  0.00     0.006 C 
BRANCH   6   7
ATOM      7  C   UNL     1      61.718  27.222  26.596  1.00  0.00     0.053 C 
BRANCH   7   8
ATOM      8  C   UNL     1      60.674  27.387  25.534  1.00  0.00     0.041 C 
ATOM      9  O   UNL     1      60.820  28.252  24.630  1.00  0.00    -0.550 OA
ATOM     10  O   UNL     1      59.554  26.564  25.525  1.00  0.00    -0.550 OA
ENDBRANCH   7   8
ENDBRANCH   6   7
ENDBRANCH   5   6
ENDBRANCH   4   5
ENDBRANCH   3   4
ENDBRANCH   2   3
ENDBRANCH   1   2
BRANCH   1  11
ATOM     11  C   UNL     1      63.416  30.480  25.557  1.00  0.00     0.000 C 
BRANCH  11  12
ATOM     12  C   UNL     1      63.912  30.046  24.166  1.00  0.00     0.000 C 
BRANCH  12  13
ATOM     13  C   UNL     1      65.369  30.465  23.896  1.00  0.00     0.000 C 
BRANCH  13  14
ATOM     14  C   UNL     1      66.061  29.567  22.859  1.00  0.00     0.000 C 
BRANCH  14  15
ATOM     15  C   UNL     1      66.477  28.205  23.441  1.00  0.00     0.000 C 
BRANCH  15  16
ATOM     16  C   UNL     1      66.302  27.055  22.436  1.00  0.00     0.006 C 
BRANCH  16  17
ATOM     17  C   UNL     1      65.719  25.790  23.080  1.00  0.00     0.053 C 
BRANCH  17  18
ATOM     18  C   UNL     1      64.604  26.147  24.012  1.00  0.00     0.041 C 
ATOM     19  O   UNL     1      63.508  26.568  23.558  1.00  0.00    -0.550 OA
ATOM     20  O   UNL     1      64.793  26.061  25.386  1.00  0.00    -0.550 OA
ENDBRANCH  17  18
ENDBRANCH  16  17
ENDBRANCH  15  16
ENDBRANCH  14  15
ENDBRANCH  13  14
ENDBRANCH  12  13
ENDBRANCH  11  12
ENDBRANCH   1  11
TORSDOF 15
ENDMDL
MODEL 4
REMARK VINA RESULT:    -4.761     12.497     14.883
REMARK INTER + INTRA:         -10.864
REMARK INTER:                  -9.283
REMARK INTRA:                  -1.581
REMARK UNBOUND:                -1.929
REMARK SMILES O=C([O-])CCCCCCCCCCCCCCC(=O)[O-]
REMARK SMILES IDX 10 1 9 2 8 3 7 4 6 5 5 6 4 7 2 8 1 9 3 10 11 11 12 12 13 13
REMARK SMILES IDX 14 14 15 15 16 16 17 17 18 18 19 19 20 20
REMARK H PARENT
REMARK Flexibility Score: inf
ROOT
ATOM      1  C   UNL     1      62.769  28.943   9.852  1.00  0.00     0.000 C 
ENDROOT
BRANCH   1   2
ATOM      2  C   UNL     1      61.594  28.598   8.919  1.00  0.00     0.000 C 
BRANCH   2   3
ATOM      3  C   UNL     1      60.454  29.625   8.990  1.00  0.00     0.000 C 
BRANCH   3   4
ATOM      4  C   UNL     1      60.079  29.925  10.449  1.00  0.00     0.000 C 
BRANCH   4   5
ATOM      5  C   UNL     1      59.347  28.756  11.126  1.00  0.00     0.000 C 
BRANCH   5   6
ATOM      6  C   UNL     1      59.562  28.724  12.649  1.00  0.00     0.006 C 
BRANCH   6   7
ATOM      7  C   UNL     1      60.904  28.087  13.032  1.00  0.00     0.053 C 
BRANCH   7   8
ATOM      8  C   UNL     1      61.810  29.064  13.718  1.00  0.00     0.041 C 
ATOM      9  O   UNL     1      63.032  29.112  13.419  1.00  0.00    -0.550 OA
ATOM     10  O   UNL     1      61.297  29.942  14.664  1.00  0.00    -0.550 OA
ENDBRANCH   7   8
ENDBRANCH   6   7
ENDBRANCH   5   6
ENDBRANCH   4   5
ENDBRANCH   3   4
ENDBRANCH   2   3
ENDBRANCH   1   2
BRANCH   1  11
ATOM     11  C   UNL     1      64.130  29.124   9.150  1.00  0.00     0.000 C 
BRANCH  11  12
ATOM     12  C   UNL     1      64.896  30.402   9.536  1.00  0.00     0.000 C 
BRANCH  12  13
ATOM     13  C   UNL     1      64.226  31.171  10.689  1.00  0.00     0.000 C 
BRANCH  13  14
ATOM     14  C   UNL     1      64.963  32.474  11.039  1.00  0.00     0.000 C 
BRANCH  14  15
ATOM     15  C   UNL     1      64.563  33.025  12.417  1.00  0.00     0.000 C 
BRANCH  15  16
ATOM     16  C   UNL     1      63.170  32.550  12.862  1.00  0.00     0.006 C 
BRANCH  16  17
ATOM     17  C   UNL     1      62.801  33.033  14.270  1.00  0.00     0.053 C 
BRANCH  17  18
ATOM     18  C   UNL     1      61.352  33.396  14.334  1.00  0.00     0.041 C 
ATOM     19  O   UNL     1      60.594  33.156  13.357  1.00  0.00    -0.550 OA
ATOM     20  O   UNL     1      60.845  34.044  15.454  1.00  0.00    -0.550 OA
ENDBRANCH  17  18
ENDBRANCH  16  17
ENDBRANCH  15  16
ENDBRANCH  14  15
ENDBRANCH  13  14
ENDBRANCH  12  13
ENDBRANCH  11  12
ENDBRANCH   1  11
TORSDOF 15
ENDMDL
MODEL 5
REMARK VINA RESULT:    -4.687      1.829      3.306
REMARK INTER + INTRA:         -10.726
REMARK INTER:                  -8.973
REMARK INTRA:                  -1.753
REMARK UNBOUND:                -1.929
REMARK SMILES O=C([O-])CCCCCCCCCCCCCCC(=O)[O-]
REMARK SMILES IDX 10 1 9 2 8 3 7 4 6 5 5 6 4 7 2 8 1 9 3 10 11 11 12 12 13 13
REMARK SMILES IDX 14 14 15 15 16 16 17 17 18 18 19 19 20 20
REMARK H PARENT
REMARK Flexibility Score: inf
ROOT
ATOM      1  C   UNL     1      64.757  29.982  26.740  1.00  0.00     0.000 C 
ENDROOT
BRANCH   1   2
ATOM      2  C   UNL     1      66.270  30.079  26.469  1.00  0.00     0.000 C 
BRANCH   2   3
ATOM      3  C   UNL     1      66.686  29.395  25.159  1.00  0.00     0.000 C 
BRANCH   3   4
ATOM      4  C   UNL     1      65.628  29.615  24.067  1.00  0.00     0.000 C 
BRANCH   4   5
ATOM      5  C   UNL     1      65.906  28.795  22.797  1.00  0.00     0.000 C 
BRANCH   5   6
ATOM      6  C   UNL     1      66.299  27.341  23.105  1.00  0.00     0.006 C 
BRANCH   6   7
ATOM      7  C   UNL     1      65.148  26.360  22.845  1.00  0.00     0.053 C 
BRANCH   7   8
ATOM      8  C   UNL     1      64.486  25.927  24.117  1.00  0.00     0.041 C 
ATOM      9  O   UNL     1      64.978  26.253  25.230  1.00  0.00    -0.550 OA
ATOM     10  O   UNL     1      63.310  25.188  24.074  1.00  0.00    -0.550 OA
ENDBRANCH   7   8
ENDBRANCH   6   7
ENDBRANCH   5   6
ENDBRANCH   4   5
ENDBRANCH   3   4
ENDBRANCH   2   3
ENDBRANCH   1   2
BRANCH   1  11
ATOM     11  C   UNL     1      64.241  30.864  27.895  1.00  0.00     0.000 C 
BRANCH  11  12
ATOM     12  C   UNL     1      62.809  30.550  28.362  1.00  0.00     0.000 C 
BRANCH  12  13
ATOM     13  C   UNL     1      62.637  29.089  28.814  1.00  0.00     0.000 C 
BRANCH  13  14
ATOM     14  C   UNL     1      61.176  28.617  28.750  1.00  0.00     0.000 C 
BRANCH  14  15
ATOM     15  C   UNL     1      61.003  27.350  27.896  1.00  0.00     0.000 C 
BRANCH  15  16
ATOM     16  C   UNL     1      61.789  27.415  26.577  1.00  0.00     0.006 C 
BRANCH  16  17
ATOM     17  C   UNL     1      60.938  27.921  25.405  1.00  0.00     0.053 C 
BRANCH  17  18
ATOM     18  C   UNL     1      61.764  28.764  24.487  1.00  0.00     0.041 C 
ATOM     19  O   UNL     1      62.240  28.273  23.429  1.00  0.00    -0.550 OA
ATOM     20  O   UNL     1      62.051  30.081  24.823  1.00  0.00    -0.550 OA
ENDBRANCH  17  18
ENDBRANCH  16  17
ENDBRANCH  15  16
ENDBRANCH  14  15
ENDBRANCH  13  14
ENDBRANCH  12  13
ENDBRANCH  11  12
ENDBRANCH   1  11
TORSDOF 15
ENDMDL
MODEL 6
REMARK VINA RESULT:    -4.668     12.068     14.654
REMARK INTER + INTRA:         -10.689
REMARK INTER:                  -8.736
REMARK INTRA:                  -1.953
REMARK UNBOUND:                -1.929
REMARK SMILES O=C([O-])CCCCCCCCCCCCCCC(=O)[O-]
REMARK SMILES IDX 10 1 9 2 8 3 7 4 6 5 5 6 4 7 2 8 1 9 3 10 11 11 12 12 13 13
REMARK SMILES IDX 14 14 15 15 16 16 17 17 18 18 19 19 20 20
REMARK H PARENT
REMARK Flexibility Score: inf
ROOT
ATOM      1  C   UNL     1      61.194  28.392   9.941  1.00  0.00     0.000 C 
ENDROOT
BRANCH   1   2
ATOM      2  C   UNL     1      60.358  29.318  10.843  1.00  0.00     0.000 C 
BRANCH   2   3
ATOM      3  C   UNL     1      59.660  28.567  11.987  1.00  0.00     0.000 C 
BRANCH   3   4
ATOM      4  C   UNL     1      60.643  28.282  13.133  1.00  0.00     0.000 C 
BRANCH   4   5
ATOM      5  C   UNL     1      61.613  29.447  13.387  1.00  0.00     0.000 C 
BRANCH   5   6
ATOM      6  C   UNL     1      61.439  30.070  14.782  1.00  0.00     0.006 C 
BRANCH   6   7
ATOM      7  C   UNL     1      61.278  31.595  14.721  1.00  0.00     0.053 C 
BRANCH   7   8
ATOM      8  C   UNL     1      60.204  32.004  13.760  1.00  0.00     0.041 C 
ATOM      9  O   UNL     1      58.998  31.735  14.006  1.00  0.00    -0.550 OA
ATOM     10  O   UNL     1      60.532  32.708  12.607  1.00  0.00    -0.550 OA
ENDBRANCH   7   8
ENDBRANCH   6   7
ENDBRANCH   5   6
ENDBRANCH   4   5
ENDBRANCH   3   4
ENDBRANCH   2   3
ENDBRANCH   1   2
BRANCH   1  11
ATOM     11  C   UNL     1      62.155  29.112   8.975  1.00  0.00     0.000 C 
BRANCH  11  12
ATOM     12  C   UNL     1      63.648  28.983   9.327  1.00  0.00     0.000 C 
BRANCH  12  13
ATOM     13  C   UNL     1      64.088  29.973  10.421  1.00  0.00     0.000 C 
BRANCH  13  14
ATOM     14  C   UNL     1      64.686  31.266   9.844  1.00  0.00     0.000 C 
BRANCH  14  15
ATOM     15  C   UNL     1      64.838  32.369  10.904  1.00  0.00     0.000 C 
BRANCH  15  16
ATOM     16  C   UNL     1      63.982  32.109  12.154  1.00  0.00     0.006 C 
BRANCH  16  17
ATOM     17  C   UNL     1      64.293  33.083  13.298  1.00  0.00     0.053 C 
BRANCH  17  18
ATOM     18  C   UNL     1      65.086  32.397  14.365  1.00  0.00     0.041 C 
ATOM     19  O   UNL     1      66.032  32.998  14.938  1.00  0.00    -0.550 OA
ATOM     20  O   UNL     1      64.812  31.075  14.692  1.00  0.00    -0.550 OA
ENDBRANCH  17  18
ENDBRANCH  16  17
ENDBRANCH  15  16
ENDBRANCH  14  15
ENDBRANCH  13  14
ENDBRANCH  12  13
ENDBRANCH  11  12
ENDBRANCH   1  11
TORSDOF 15
ENDMDL
MODEL 7
REMARK VINA RESULT:    -4.656     12.018     14.765
REMARK INTER + INTRA:         -10.668
REMARK INTER:                  -8.548
REMARK INTRA:                  -2.120
REMARK UNBOUND:                -1.929
REMARK SMILES O=C([O-])CCCCCCCCCCCCCCC(=O)[O-]
REMARK SMILES IDX 10 1 9 2 8 3 7 4 6 5 5 6 4 7 2 8 1 9 3 10 11 11 12 12 13 13
REMARK SMILES IDX 14 14 15 15 16 16 17 17 18 18 19 19 20 20
REMARK H PARENT
REMARK Flexibility Score: inf
ROOT
ATOM      1  C   UNL     1      63.502  29.661  13.288  1.00  0.00     0.000 C 
ENDROOT
BRANCH   1   2
ATOM      2  C   UNL     1      64.778  29.873  14.123  1.00  0.00     0.000 C 
BRANCH   2   3
ATOM      3  C   UNL     1      64.825  31.249  14.804  1.00  0.00     0.000 C 
BRANCH   3   4
ATOM      4  C   UNL     1      65.108  32.356  13.777  1.00  0.00     0.000 C 
BRANCH   4   5
ATOM      5  C   UNL     1      64.089  33.504  13.846  1.00  0.00     0.000 C 
BRANCH   5   6
ATOM      6  C   UNL     1      62.772  33.087  14.522  1.00  0.00     0.006 C 
BRANCH   6   7
ATOM      7  C   UNL     1      61.660  32.805  13.503  1.00  0.00     0.053 C 
BRANCH   7   8
ATOM      8  C   UNL     1      60.571  31.959  14.087  1.00  0.00     0.041 C 
ATOM      9  O   UNL     1      59.462  31.856  13.497  1.00  0.00    -0.550 OA
ATOM     10  O   UNL     1      60.789  31.259  15.268  1.00  0.00    -0.550 OA
ENDBRANCH   7   8
ENDBRANCH   6   7
ENDBRANCH   5   6
ENDBRANCH   4   5
ENDBRANCH   3   4
ENDBRANCH   2   3
ENDBRANCH   1   2
BRANCH   1  11
ATOM     11  C   UNL     1      63.739  29.388  11.789  1.00  0.00     0.000 C 
BRANCH  11  12
ATOM     12  C   UNL     1      63.754  30.641  10.895  1.00  0.00     0.000 C 
BRANCH  12  13
ATOM     13  C   UNL     1      63.648  30.303   9.397  1.00  0.00     0.000 C 
BRANCH  13  14
ATOM     14  C   UNL     1      62.864  29.007   9.137  1.00  0.00     0.000 C 
BRANCH  14  15
ATOM     15  C   UNL     1      61.350  29.248   9.015  1.00  0.00     0.000 C 
BRANCH  15  16
ATOM     16  C   UNL     1      60.540  28.455  10.054  1.00  0.00     0.006 C 
BRANCH  16  17
ATOM     17  C   UNL     1      60.034  29.333  11.206  1.00  0.00     0.053 C 
BRANCH  17  18
ATOM     18  C   UNL     1      59.628  28.484  12.368  1.00  0.00     0.041 C 
ATOM     19  O   UNL     1      58.502  27.919  12.380  1.00  0.00    -0.550 OA
ATOM     20  O   UNL     1      60.473  28.354  13.464  1.00  0.00    -0.550 OA
ENDBRANCH  17  18
ENDBRANCH  16  17
ENDBRANCH  15  16
ENDBRANCH  14  15
ENDBRANCH  13  14
ENDBRANCH  12  13
ENDBRANCH  11  12
ENDBRANCH   1  11
TORSDOF 15
ENDMDL
MODEL 8
REMARK VINA RESULT:    -4.641     12.097     14.144
REMARK INTER + INTRA:         -10.639
REMARK INTER:                  -8.536
REMARK INTRA:                  -2.103
REMARK UNBOUND:                -1.929
REMARK SMILES O=C([O-])CCCCCCCCCCCCCCC(=O)[O-]
REMARK SMILES IDX 10 1 9 2 8 3 7 4 6 5 5 6 4 7 2 8 1 9 3 10 11 11 12 12 13 13
REMARK SMILES IDX 14 14 15 15 16 16 17 17 18 18 19 19 20 20
REMARK H PARENT
REMARK Flexibility Score: inf
ROOT
ATOM      1  C   UNL     1      61.209  28.528   9.798  1.00  0.00     0.000 C 
ENDROOT
BRANCH   1   2
ATOM      2  C   UNL     1      62.255  29.201   8.891  1.00  0.00     0.000 C 
BRANCH   2   3
ATOM      3  C   UNL     1      63.692  29.030   9.406  1.00  0.00     0.000 C 
BRANCH   3   4
ATOM      4  C   UNL     1      63.804  29.481  10.871  1.00  0.00     0.000 C 
BRANCH   4   5
ATOM      5  C   UNL     1      64.446  30.869  11.017  1.00  0.00     0.000 C 
BRANCH   5   6
ATOM      6  C   UNL     1      63.528  31.875  11.731  1.00  0.00     0.006 C 
BRANCH   6   7
ATOM      7  C   UNL     1      64.322  32.942  12.498  1.00  0.00     0.053 C 
BRANCH   7   8
ATOM      8  C   UNL     1      64.259  32.726  13.979  1.00  0.00     0.041 C 
ATOM      9  O   UNL     1      64.514  31.592  14.466  1.00  0.00    -0.550 OA
ATOM     10  O   UNL     1      63.948  33.784  14.825  1.00  0.00    -0.550 OA
ENDBRANCH   7   8
ENDBRANCH   6   7
ENDBRANCH   5   6
ENDBRANCH   4   5
ENDBRANCH   3   4
ENDBRANCH   2   3
ENDBRANCH   1   2
BRANCH   1  11
ATOM     11  C   UNL     1      59.924  29.346  10.035  1.00  0.00     0.000 C 
BRANCH  11  12
ATOM     12  C   UNL     1      59.665  29.739  11.500  1.00  0.00     0.000 C 
BRANCH  12  13
ATOM     13  C   UNL     1      59.652  28.526  12.447  1.00  0.00     0.000 C 
BRANCH  13  14
ATOM     14  C   UNL     1      60.762  28.591  13.508  1.00  0.00     0.000 C 
BRANCH  14  15
ATOM     15  C   UNL     1      61.438  29.971  13.569  1.00  0.00     0.000 C 
BRANCH  15  16
ATOM     16  C   UNL     1      61.127  30.723  14.873  1.00  0.00     0.006 C 
BRANCH  16  17
ATOM     17  C   UNL     1      59.961  31.709  14.725  1.00  0.00     0.053 C 
BRANCH  17  18
ATOM     18  C   UNL     1      60.476  33.095  14.503  1.00  0.00     0.041 C 
ATOM     19  O   UNL     1      60.723  33.502  13.337  1.00  0.00    -0.550 OA
ATOM     20  O   UNL     1      60.732  33.923  15.589  1.00  0.00    -0.550 OA
ENDBRANCH  17  18
ENDBRANCH  16  17
ENDBRANCH  15  16
ENDBRANCH  14  15
ENDBRANCH  13  14
ENDBRANCH  12  13
ENDBRANCH  11  12
ENDBRANCH   1  11
TORSDOF 15
ENDMDL
MODEL 9
REMARK VINA RESULT:    -4.620     12.289     14.694
REMARK INTER + INTRA:         -10.601
REMARK INTER:                  -8.307
REMARK INTRA:                  -2.293
REMARK UNBOUND:                -1.929
REMARK SMILES O=C([O-])CCCCCCCCCCCCCCC(=O)[O-]
REMARK SMILES IDX 10 1 9 2 8 3 7 4 6 5 5 6 4 7 2 8 1 9 3 10 11 11 12 12 13 13
REMARK SMILES IDX 14 14 15 15 16 16 17 17 18 18 19 19 20 20
REMARK H PARENT
REMARK Flexibility Score: inf
ROOT
ATOM      1  C   UNL     1      59.634  29.619  12.308  1.00  0.00     0.000 C 
ENDROOT
BRANCH   1   2
ATOM      2  C   UNL     1      60.174  31.060  12.240  1.00  0.00     0.000 C 
BRANCH   2   3
ATOM      3  C   UNL     1      59.838  31.883  13.491  1.00  0.00     0.000 C 
BRANCH   3   4
ATOM      4  C   UNL     1      60.743  33.121  13.591  1.00  0.00     0.000 C 
BRANCH   4   5
ATOM      5  C   UNL     1      61.617  33.116  14.854  1.00  0.00     0.000 C 
BRANCH   5   6
ATOM      6  C   UNL     1      63.119  33.215  14.536  1.00  0.00     0.006 C 
BRANCH   6   7
ATOM      7  C   UNL     1      63.412  32.994  13.045  1.00  0.00     0.053 C 
BRANCH   7   8
ATOM      8  C   UNL     1      64.877  33.079  12.747  1.00  0.00     0.041 C 
ATOM      9  O   UNL     1      65.718  33.053  13.685  1.00  0.00    -0.550 OA
ATOM     10  O   UNL     1      65.316  33.157  11.431  1.00  0.00    -0.550 OA
ENDBRANCH   7   8
ENDBRANCH   6   7
ENDBRANCH   5   6
ENDBRANCH   4   5
ENDBRANCH   3   4
ENDBRANCH   2   3
ENDBRANCH   1   2
BRANCH   1  11
ATOM     11  C   UNL     1      59.640  28.854  10.970  1.00  0.00     0.000 C 
BRANCH  11  12
ATOM     12  C   UNL     1      60.415  29.541   9.832  1.00  0.00     0.000 C 
BRANCH  12  13
ATOM     13  C   UNL     1      61.279  28.557   9.022  1.00  0.00     0.000 C 
BRANCH  13  14
ATOM     14  C   UNL     1      62.785  28.775   9.237  1.00  0.00     0.000 C 
BRANCH  14  15
ATOM     15  C   UNL     1      63.091  30.091   9.971  1.00  0.00     0.000 C 
BRANCH  15  16
ATOM     16  C   UNL     1      63.922  29.876  11.246  1.00  0.00     0.006 C 
BRANCH  16  17
ATOM     17  C   UNL     1      63.203  29.000  12.280  1.00  0.00     0.053 C 
BRANCH  17  18
ATOM     18  C   UNL     1      63.467  29.503  13.663  1.00  0.00     0.041 C 
ATOM     19  O   UNL     1      64.647  29.711  14.049  1.00  0.00    -0.550 OA
ATOM     20  O   UNL     1      62.411  29.697  14.546  1.00  0.00    -0.550 OA
ENDBRANCH  17  18
ENDBRANCH  16  17
ENDBRANCH  15  16
ENDBRANCH  14  15
ENDBRANCH  13  14
ENDBRANCH  12  13
ENDBRANCH  11  12
ENDBRANCH   1  11
TORSDOF 15
ENDMDL
