MODEL 1
REMARK VINA RESULT:    -3.546      0.000      0.000
REMARK INTER + INTRA:          -2.877
REMARK INTER:                  -4.064
REMARK INTRA:                   1.187
REMARK UNBOUND:                 1.187
REMARK SMILES O=C([O-])C=Cc1ccc(O)cc1
REMARK SMILES IDX 6 1 7 2 12 3 8 4 11 5 9 6 5 7 4 8 2 9 1 10 3 11 10 12
REMARK H PARENT 10 13
REMARK Flexibility Score: inf
ROOT
ATOM      1  C   UNL     1       8.118  17.785  39.787  1.00  0.00    -0.025 A 
ATOM      2  C   UNL     1       8.025  18.386  38.521  1.00  0.00     0.012 A 
ATOM      3  C   UNL     1       8.572  16.460  39.887  1.00  0.00     0.012 A 
ATOM      4  C   UNL     1       8.332  17.655  37.369  1.00  0.00     0.047 A 
ATOM      5  C   UNL     1       8.879  15.731  38.735  1.00  0.00     0.047 A 
ATOM      6  C   UNL     1       8.757  16.323  37.473  1.00  0.00     0.115 A 
ENDROOT
BRANCH   1   7
ATOM      7  C   UNL     1       7.851  18.552  41.022  1.00  0.00     0.010 C 
ATOM      8  C   UNL     1       7.333  18.048  42.152  1.00  0.00     0.025 C 
BRANCH   8   9
ATOM      9  C   UNL     1       7.118  16.616  42.431  1.00  0.00     0.064 C 
ATOM     10  O   UNL     1       5.972  16.220  42.769  1.00  0.00    -0.545 OA
ATOM     11  O   UNL     1       8.166  15.704  42.397  1.00  0.00    -0.545 OA
ENDBRANCH   8   9
ENDBRANCH   1   7
BRANCH   6  12
ATOM     12  O   UNL     1       9.064  15.585  36.333  1.00  0.00    -0.508 OA
ATOM     13  H   UNL     1       8.791  14.614  36.241  1.00  0.00     0.293 HD
ENDBRANCH   6  12
TORSDOF 3
ENDMDL
MODEL 2
REMARK VINA RESULT:    -3.533      1.819      2.199
REMARK INTER + INTRA:          -2.862
REMARK INTER:                  -3.618
REMARK INTRA:                   0.756
REMARK UNBOUND:                 1.187
REMARK SMILES O=C([O-])C=Cc1ccc(O)cc1
REMARK SMILES IDX 6 1 7 2 12 3 8 4 11 5 9 6 5 7 4 8 2 9 1 10 3 11 10 12
REMARK H PARENT 10 13
REMARK Flexibility Score: inf
ROOT
ATOM      1  C   UNL     1       8.126  16.884  40.274  1.00  0.00    -0.025 A 
ATOM      2  C   UNL     1       7.891  18.057  39.537  1.00  0.00     0.012 A 
ATOM      3  C   UNL     1       8.780  15.805  39.658  1.00  0.00     0.012 A 
ATOM      4  C   UNL     1       8.259  18.129  38.189  1.00  0.00     0.047 A 
ATOM      5  C   UNL     1       9.146  15.879  38.311  1.00  0.00     0.047 A 
ATOM      6  C   UNL     1       8.884  17.037  37.572  1.00  0.00     0.115 A 
ENDROOT
BRANCH   1   7
ATOM      7  C   UNL     1       7.796  16.803  41.712  1.00  0.00     0.010 C 
ATOM      8  C   UNL     1       7.454  17.842  42.489  1.00  0.00     0.025 C 
BRANCH   8   9
ATOM      9  C   UNL     1       7.159  19.206  42.013  1.00  0.00     0.064 C 
ATOM     10  O   UNL     1       8.074  20.071  42.016  1.00  0.00    -0.545 OA
ATOM     11  O   UNL     1       5.877  19.580  41.627  1.00  0.00    -0.545 OA
ENDBRANCH   8   9
ENDBRANCH   1   7
BRANCH   6  12
ATOM     12  O   UNL     1       9.253  17.097  36.230  1.00  0.00    -0.508 OA
ATOM     13  H   UNL     1       8.832  17.763  35.594  1.00  0.00     0.293 HD
ENDBRANCH   6  12
TORSDOF 3
ENDMDL
MODEL 3
REMARK VINA RESULT:    -3.081      1.997      4.826
REMARK INTER + INTRA:          -2.344
REMARK INTER:                  -3.230
REMARK INTRA:                   0.885
REMARK UNBOUND:                 1.187
REMARK SMILES O=C([O-])C=Cc1ccc(O)cc1
REMARK SMILES IDX 6 1 7 2 12 3 8 4 11 5 9 6 5 7 4 8 2 9 1 10 3 11 10 12
REMARK H PARENT 10 13
REMARK Flexibility Score: inf
ROOT
ATOM      1  C   UNL     1       8.479  16.792  39.394  1.00  0.00    -0.025 A 
ATOM      2  C   UNL     1       8.164  18.011  38.768  1.00  0.00     0.012 A 
ATOM      3  C   UNL     1       8.193  16.627  40.758  1.00  0.00     0.012 A 
ATOM      4  C   UNL     1       7.622  19.065  39.511  1.00  0.00     0.047 A 
ATOM      5  C   UNL     1       7.651  17.682  41.498  1.00  0.00     0.047 A 
ATOM      6  C   UNL     1       7.367  18.904  40.879  1.00  0.00     0.115 A 
ENDROOT
BRANCH   1   7
ATOM      7  C   UNL     1       9.002  15.646  38.621  1.00  0.00     0.010 C 
ATOM      8  C   UNL     1       8.955  15.525  37.286  1.00  0.00     0.025 C 
BRANCH   8   9
ATOM      9  C   UNL     1       8.554  16.586  36.344  1.00  0.00     0.064 C 
ATOM     10  O   UNL     1       7.481  16.462  35.697  1.00  0.00    -0.545 OA
ATOM     11  O   UNL     1       9.367  17.687  36.099  1.00  0.00    -0.545 OA
ENDBRANCH   8   9
ENDBRANCH   1   7
BRANCH   6  12
ATOM     12  O   UNL     1       6.828  19.947  41.629  1.00  0.00    -0.508 OA
ATOM     13  H   UNL     1       7.368  20.775  41.848  1.00  0.00     0.293 HD
ENDBRANCH   6  12
TORSDOF 3
ENDMDL
MODEL 4
REMARK VINA RESULT:    -3.028      1.969      4.996
REMARK INTER + INTRA:          -2.283
REMARK INTER:                  -3.069
REMARK INTRA:                   0.785
REMARK UNBOUND:                 1.187
REMARK SMILES O=C([O-])C=Cc1ccc(O)cc1
REMARK SMILES IDX 6 1 7 2 12 3 8 4 11 5 9 6 5 7 4 8 2 9 1 10 3 11 10 12
REMARK H PARENT 10 13
REMARK Flexibility Score: inf
ROOT
ATOM      1  C   UNL     1       8.446  16.739  39.421  1.00  0.00    -0.025 A 
ATOM      2  C   UNL     1       8.167  16.558  40.787  1.00  0.00     0.012 A 
ATOM      3  C   UNL     1       8.214  17.991  38.832  1.00  0.00     0.012 A 
ATOM      4  C   UNL     1       7.614  17.601  41.537  1.00  0.00     0.047 A 
ATOM      5  C   UNL     1       7.661  19.032  39.584  1.00  0.00     0.047 A 
ATOM      6  C   UNL     1       7.356  18.841  40.935  1.00  0.00     0.115 A 
ENDROOT
BRANCH   1   7
ATOM      7  C   UNL     1       9.080  15.670  38.621  1.00  0.00     0.010 C 
ATOM      8  C   UNL     1       9.022  15.563  37.285  1.00  0.00     0.025 C 
BRANCH   8   9
ATOM      9  C   UNL     1       8.484  16.585  36.367  1.00  0.00     0.064 C 
ATOM     10  O   UNL     1       7.355  16.406  35.841  1.00  0.00    -0.545 OA
ATOM     11  O   UNL     1       9.225  17.707  36.014  1.00  0.00    -0.545 OA
ENDBRANCH   8   9
ENDBRANCH   1   7
BRANCH   6  12
ATOM     12  O   UNL     1       6.804  19.886  41.673  1.00  0.00    -0.508 OA
ATOM     13  H   UNL     1       6.334  20.661  41.221  1.00  0.00     0.293 HD
ENDBRANCH   6  12
TORSDOF 3
ENDMDL
MODEL 5
REMARK VINA RESULT:    -2.418     23.359     25.213
REMARK INTER + INTRA:          -1.585
REMARK INTER:                  -2.176
REMARK INTRA:                   0.592
REMARK UNBOUND:                 1.187
REMARK SMILES O=C([O-])C=Cc1ccc(O)cc1
REMARK SMILES IDX 6 1 7 2 12 3 8 4 11 5 9 6 5 7 4 8 2 9 1 10 3 11 10 12
REMARK H PARENT 10 13
REMARK Flexibility Score: inf
ROOT
ATOM      1  C   UNL     1      24.685   4.722  26.017  1.00  0.00    -0.025 A 
ATOM      2  C   UNL     1      25.622   3.875  26.633  1.00  0.00     0.012 A 
ATOM      3  C   UNL     1      24.231   5.859  26.704  1.00  0.00     0.012 A 
ATOM      4  C   UNL     1      26.056   4.134  27.937  1.00  0.00     0.047 A 
ATOM      5  C   UNL     1      24.667   6.116  28.007  1.00  0.00     0.047 A 
ATOM      6  C   UNL     1      25.576   5.254  28.629  1.00  0.00     0.115 A 
ENDROOT
BRANCH   1   7
ATOM      7  C   UNL     1      24.253   4.501  24.621  1.00  0.00     0.010 C 
ATOM      8  C   UNL     1      24.365   5.391  23.624  1.00  0.00     0.025 C 
BRANCH   8   9
ATOM      9  C   UNL     1      25.107   6.664  23.692  1.00  0.00     0.064 C 
ATOM     10  O   UNL     1      26.125   6.744  24.428  1.00  0.00    -0.545 OA
ATOM     11  O   UNL     1      24.668   7.798  23.019  1.00  0.00    -0.545 OA
ENDBRANCH   8   9
ENDBRANCH   1   7
BRANCH   6  12
ATOM     12  O   UNL     1      26.000   5.521  29.929  1.00  0.00    -0.508 OA
ATOM     13  H   UNL     1      25.350   5.814  30.648  1.00  0.00     0.293 HD
ENDBRANCH   6  12
TORSDOF 3
ENDMDL
MODEL 6
REMARK VINA RESULT:    -2.074      1.329      4.673
REMARK INTER + INTRA:          -1.190
REMARK INTER:                  -2.256
REMARK INTRA:                   1.065
REMARK UNBOUND:                 1.187
REMARK SMILES O=C([O-])C=Cc1ccc(O)cc1
REMARK SMILES IDX 6 1 7 2 12 3 8 4 11 5 9 6 5 7 4 8 2 9 1 10 3 11 10 12
REMARK H PARENT 10 13
REMARK Flexibility Score: inf
ROOT
ATOM      1  C   UNL     1       7.993  18.159  39.126  1.00  0.00    -0.025 A 
ATOM      2  C   UNL     1       8.199  17.014  39.914  1.00  0.00     0.012 A 
ATOM      3  C   UNL     1       7.394  19.291  39.702  1.00  0.00     0.012 A 
ATOM      4  C   UNL     1       7.763  16.985  41.242  1.00  0.00     0.047 A 
ATOM      5  C   UNL     1       6.960  19.259  41.030  1.00  0.00     0.047 A 
ATOM      6  C   UNL     1       7.139  18.108  41.803  1.00  0.00     0.115 A 
ENDROOT
BRANCH   1   7
ATOM      7  C   UNL     1       8.492  18.234  37.736  1.00  0.00     0.010 C 
ATOM      8  C   UNL     1       9.106  17.239  37.078  1.00  0.00     0.025 C 
BRANCH   8   9
ATOM      9  C   UNL     1       9.222  15.846  37.547  1.00  0.00     0.064 C 
ATOM     10  O   UNL     1       8.445  14.973  37.080  1.00  0.00    -0.545 OA
ATOM     11  O   UNL     1      10.120  15.488  38.545  1.00  0.00    -0.545 OA
ENDBRANCH   8   9
ENDBRANCH   1   7
BRANCH   6  12
ATOM     12  O   UNL     1       6.700  18.090  43.125  1.00  0.00    -0.508 OA
ATOM     13  H   UNL     1       6.397  17.232  43.570  1.00  0.00     0.293 HD
ENDBRANCH   6  12
TORSDOF 3
ENDMDL
MODEL 7
REMARK VINA RESULT:    -2.044      1.200      4.924
REMARK INTER + INTRA:          -1.156
REMARK INTER:                  -1.833
REMARK INTRA:                   0.677
REMARK UNBOUND:                 1.187
REMARK SMILES O=C([O-])C=Cc1ccc(O)cc1
REMARK SMILES IDX 6 1 7 2 12 3 8 4 11 5 9 6 5 7 4 8 2 9 1 10 3 11 10 12
REMARK H PARENT 10 13
REMARK Flexibility Score: inf
ROOT
ATOM      1  C   UNL     1       8.664  17.608  38.618  1.00  0.00    -0.025 A 
ATOM      2  C   UNL     1       8.914  16.277  38.992  1.00  0.00     0.012 A 
ATOM      3  C   UNL     1       8.068  18.481  39.543  1.00  0.00     0.012 A 
ATOM      4  C   UNL     1       8.526  15.813  40.253  1.00  0.00     0.047 A 
ATOM      5  C   UNL     1       7.680  18.015  40.803  1.00  0.00     0.047 A 
ATOM      6  C   UNL     1       7.904  16.681  41.160  1.00  0.00     0.115 A 
ENDROOT
BRANCH   1   7
ATOM      7  C   UNL     1       9.113  18.136  37.313  1.00  0.00     0.010 C 
ATOM      8  C   UNL     1       9.001  17.498  36.138  1.00  0.00     0.025 C 
BRANCH   8   9
ATOM      9  C   UNL     1       8.245  16.254  35.909  1.00  0.00     0.064 C 
ATOM     10  O   UNL     1       8.685  15.171  36.375  1.00  0.00    -0.545 OA
ATOM     11  O   UNL     1       7.094  16.236  35.130  1.00  0.00    -0.545 OA
ENDBRANCH   8   9
ENDBRANCH   1   7
BRANCH   6  12
ATOM     12  O   UNL     1       7.511  16.230  42.419  1.00  0.00    -0.508 OA
ATOM     13  H   UNL     1       7.173  15.286  42.561  1.00  0.00     0.293 HD
ENDBRANCH   6  12
TORSDOF 3
ENDMDL
MODEL 8
REMARK VINA RESULT:    -1.969     22.745     24.926
REMARK INTER + INTRA:          -1.070
REMARK INTER:                  -1.863
REMARK INTRA:                   0.794
REMARK UNBOUND:                 1.187
REMARK SMILES O=C([O-])C=Cc1ccc(O)cc1
REMARK SMILES IDX 6 1 7 2 12 3 8 4 11 5 9 6 5 7 4 8 2 9 1 10 3 11 10 12
REMARK H PARENT 10 13
REMARK Flexibility Score: inf
ROOT
ATOM      1  C   UNL     1      25.708   4.496  27.010  1.00  0.00    -0.025 A 
ATOM      2  C   UNL     1      26.111   3.876  28.205  1.00  0.00     0.012 A 
ATOM      3  C   UNL     1      24.983   5.696  27.069  1.00  0.00     0.012 A 
ATOM      4  C   UNL     1      25.748   4.423  29.440  1.00  0.00     0.047 A 
ATOM      5  C   UNL     1      24.621   6.241  28.304  1.00  0.00     0.047 A 
ATOM      6  C   UNL     1      24.998   5.605  29.492  1.00  0.00     0.115 A 
ENDROOT
BRANCH   1   7
ATOM      7  C   UNL     1      26.125   3.968  25.694  1.00  0.00     0.010 C 
ATOM      8  C   UNL     1      25.361   3.942  24.590  1.00  0.00     0.025 C 
BRANCH   8   9
ATOM      9  C   UNL     1      24.052   4.604  24.441  1.00  0.00     0.064 C 
ATOM     10  O   UNL     1      23.027   3.902  24.238  1.00  0.00    -0.545 OA
ATOM     11  O   UNL     1      23.933   5.989  24.447  1.00  0.00    -0.545 OA
ENDBRANCH   8   9
ENDBRANCH   1   7
BRANCH   6  12
ATOM     12  O   UNL     1      24.629   6.159  30.717  1.00  0.00    -0.508 OA
ATOM     13  H   UNL     1      25.041   5.842  31.586  1.00  0.00     0.293 HD
ENDBRANCH   6  12
TORSDOF 3
ENDMDL
