MODEL 1
REMARK VINA RESULT:    -6.122      0.000      0.000
REMARK INTER + INTRA:          -6.122
REMARK INTER:                  -6.122
REMARK INTRA:                   0.000
REMARK UNBOUND:                 0.000
REMARK SMILES C=C1CCC[C@]2(C)CC(=O)C(=C(C)C)C[C@@H]12
REMARK SMILES IDX 13 1 12 2 11 3 15 4 16 5 2 6 1 7 3 8 4 9 5 10 6 11 8 12 9 13
REMARK SMILES IDX 10 14 7 15 14 16
REMARK H PARENT
REMARK Flexibility Score: inf
ROOT
ATOM      1  C   UNL     1      13.878  25.133  28.343  1.00  0.00     0.039 C 
ATOM      2  C   UNL     1      15.255  24.832  27.795  1.00  0.00    -0.070 C 
ATOM      3  C   UNL     1      16.333  25.627  28.068  1.00  0.00    -0.006 C 
ATOM      4  C   UNL     1      17.720  25.258  27.556  1.00  0.00     0.047 C 
ATOM      5  C   UNL     1      18.867  25.801  28.443  1.00  0.00     0.025 C 
ATOM      6  C   UNL     1      20.279  25.506  27.928  1.00  0.00    -0.073 C 
ATOM      7  C   UNL     1      20.541  24.716  26.867  1.00  0.00     0.008 C 
ATOM      8  C   UNL     1      21.426  26.008  28.777  1.00  0.00     0.031 C 
ATOM      9  C   UNL     1      21.255  27.493  29.100  1.00  0.00     0.005 C 
ATOM     10  C   UNL     1      19.863  27.790  29.681  1.00  0.00     0.008 C 
ATOM     11  C   UNL     1      18.704  27.322  28.751  1.00  0.00    -0.018 C 
ATOM     12  C   UNL     1      17.369  27.529  29.504  1.00  0.00     0.088 C 
ATOM     13  C   UNL     1      16.202  26.940  28.768  1.00  0.00     0.159 C 
ATOM     14  O   UNL     1      15.120  27.584  28.751  1.00  0.00    -0.295 OA
ATOM     15  C   UNL     1      18.701  28.178  27.453  1.00  0.00     0.012 C 
ATOM     16  C   UNL     1      15.396  23.578  26.962  1.00  0.00     0.039 C 
ENDROOT
TORSDOF 0
ENDMDL
MODEL 2
REMARK VINA RESULT:    -6.028      3.616      5.574
REMARK INTER + INTRA:          -6.028
REMARK INTER:                  -6.028
REMARK INTRA:                   0.000
REMARK UNBOUND:                 0.000
REMARK SMILES C=C1CCC[C@]2(C)CC(=O)C(=C(C)C)C[C@@H]12
REMARK SMILES IDX 13 1 12 2 11 3 15 4 16 5 2 6 1 7 3 8 4 9 5 10 6 11 8 12 9 13
REMARK SMILES IDX 10 14 7 15 14 16
REMARK H PARENT
REMARK Flexibility Score: inf
ROOT
ATOM      1  C   UNL     1      19.572  25.976  28.425  1.00  0.00     0.039 C 
ATOM      2  C   UNL     1      18.549  27.079  28.589  1.00  0.00    -0.070 C 
ATOM      3  C   UNL     1      18.890  28.322  29.042  1.00  0.00    -0.006 C 
ATOM      4  C   UNL     1      17.848  29.430  29.130  1.00  0.00     0.047 C 
ATOM      5  C   UNL     1      18.449  30.851  28.996  1.00  0.00     0.025 C 
ATOM      6  C   UNL     1      17.443  31.996  29.143  1.00  0.00    -0.073 C 
ATOM      7  C   UNL     1      16.110  31.817  29.240  1.00  0.00     0.008 C 
ATOM      8  C   UNL     1      17.991  33.399  29.002  1.00  0.00     0.031 C 
ATOM      9  C   UNL     1      19.200  33.606  29.916  1.00  0.00     0.005 C 
ATOM     10  C   UNL     1      20.249  32.497  29.729  1.00  0.00     0.008 C 
ATOM     11  C   UNL     1      19.667  31.068  29.948  1.00  0.00    -0.018 C 
ATOM     12  C   UNL     1      20.764  30.042  29.581  1.00  0.00     0.088 C 
ATOM     13  C   UNL     1      20.249  28.632  29.582  1.00  0.00     0.159 C 
ATOM     14  O   UNL     1      20.986  27.727  30.054  1.00  0.00    -0.295 OA
ATOM     15  C   UNL     1      19.274  30.890  31.441  1.00  0.00     0.012 C 
ATOM     16  C   UNL     1      17.130  26.755  28.181  1.00  0.00     0.039 C 
ENDROOT
TORSDOF 0
ENDMDL
MODEL 3
REMARK VINA RESULT:    -5.895      3.324      5.275
REMARK INTER + INTRA:          -5.895
REMARK INTER:                  -5.895
REMARK INTRA:                   0.000
REMARK UNBOUND:                 0.000
REMARK SMILES C=C1CCC[C@]2(C)CC(=O)C(=C(C)C)C[C@@H]12
REMARK SMILES IDX 13 1 12 2 11 3 15 4 16 5 2 6 1 7 3 8 4 9 5 10 6 11 8 12 9 13
REMARK SMILES IDX 10 14 7 15 14 16
REMARK H PARENT
REMARK Flexibility Score: inf
ROOT
ATOM      1  C   UNL     1      18.720  25.807  27.500  1.00  0.00     0.039 C 
ATOM      2  C   UNL     1      17.635  26.593  28.201  1.00  0.00    -0.070 C 
ATOM      3  C   UNL     1      17.837  27.869  28.648  1.00  0.00    -0.006 C 
ATOM      4  C   UNL     1      16.702  28.657  29.289  1.00  0.00     0.047 C 
ATOM      5  C   UNL     1      16.849  30.191  29.124  1.00  0.00     0.025 C 
ATOM      6  C   UNL     1      15.762  31.023  29.809  1.00  0.00    -0.073 C 
ATOM      7  C   UNL     1      14.669  30.493  30.396  1.00  0.00     0.008 C 
ATOM      8  C   UNL     1      15.864  32.524  29.656  1.00  0.00     0.031 C 
ATOM      9  C   UNL     1      17.260  33.017  30.041  1.00  0.00     0.005 C 
ATOM     10  C   UNL     1      18.360  32.232  29.307  1.00  0.00     0.008 C 
ATOM     11  C   UNL     1      18.267  30.695  29.540  1.00  0.00    -0.018 C 
ATOM     12  C   UNL     1      19.316  30.007  28.636  1.00  0.00     0.088 C 
ATOM     13  C   UNL     1      19.186  28.511  28.647  1.00  0.00     0.159 C 
ATOM     14  O   UNL     1      20.239  27.821  28.663  1.00  0.00    -0.295 OA
ATOM     15  C   UNL     1      18.581  30.374  31.029  1.00  0.00     0.012 C 
ATOM     16  C   UNL     1      16.289  25.917  28.343  1.00  0.00     0.039 C 
ENDROOT
TORSDOF 0
ENDMDL
MODEL 4
REMARK VINA RESULT:    -5.660      3.733      5.311
REMARK INTER + INTRA:          -5.660
REMARK INTER:                  -5.660
REMARK INTRA:                   0.000
REMARK UNBOUND:                 0.000
REMARK SMILES C=C1CCC[C@]2(C)CC(=O)C(=C(C)C)C[C@@H]12
REMARK SMILES IDX 13 1 12 2 11 3 15 4 16 5 2 6 1 7 3 8 4 9 5 10 6 11 8 12 9 13
REMARK SMILES IDX 10 14 7 15 14 16
REMARK H PARENT
REMARK Flexibility Score: inf
ROOT
ATOM      1  C   UNL     1      16.463  26.582  28.465  1.00  0.00     0.039 C 
ATOM      2  C   UNL     1      17.519  27.664  28.498  1.00  0.00    -0.070 C 
ATOM      3  C   UNL     1      17.279  28.894  29.045  1.00  0.00    -0.006 C 
ATOM      4  C   UNL     1      18.385  29.938  29.123  1.00  0.00     0.047 C 
ATOM      5  C   UNL     1      18.205  30.938  30.293  1.00  0.00     0.025 C 
ATOM      6  C   UNL     1      19.261  32.043  30.369  1.00  0.00    -0.073 C 
ATOM      7  C   UNL     1      20.357  32.091  29.583  1.00  0.00     0.008 C 
ATOM      8  C   UNL     1      19.126  33.029  31.509  1.00  0.00     0.031 C 
ATOM      9  C   UNL     1      17.713  33.612  31.560  1.00  0.00     0.005 C 
ATOM     10  C   UNL     1      16.644  32.507  31.552  1.00  0.00     0.008 C 
ATOM     11  C   UNL     1      16.769  31.550  30.329  1.00  0.00    -0.018 C 
ATOM     12  C   UNL     1      15.751  30.400  30.512  1.00  0.00     0.088 C 
ATOM     13  C   UNL     1      15.915  29.323  29.479  1.00  0.00     0.159 C 
ATOM     14  O   UNL     1      14.879  28.802  28.990  1.00  0.00    -0.295 OA
ATOM     15  C   UNL     1      16.439  32.327  29.024  1.00  0.00     0.012 C 
ATOM     16  C   UNL     1      18.877  27.308  27.937  1.00  0.00     0.039 C 
ENDROOT
TORSDOF 0
ENDMDL
MODEL 5
REMARK VINA RESULT:    -5.564      3.182      5.933
REMARK INTER + INTRA:          -5.564
REMARK INTER:                  -5.564
REMARK INTRA:                   0.000
REMARK UNBOUND:                 0.000
REMARK SMILES C=C1CCC[C@]2(C)CC(=O)C(=C(C)C)C[C@@H]12
REMARK SMILES IDX 13 1 12 2 11 3 15 4 16 5 2 6 1 7 3 8 4 9 5 10 6 11 8 12 9 13
REMARK SMILES IDX 10 14 7 15 14 16
REMARK H PARENT
REMARK Flexibility Score: inf
ROOT
ATOM      1  C   UNL     1      22.333  28.245  28.552  1.00  0.00     0.039 C 
ATOM      2  C   UNL     1      20.932  27.848  28.963  1.00  0.00    -0.070 C 
ATOM      3  C   UNL     1      19.978  28.776  29.274  1.00  0.00    -0.006 C 
ATOM      4  C   UNL     1      18.558  28.345  29.618  1.00  0.00     0.047 C 
ATOM      5  C   UNL     1      17.492  29.419  29.288  1.00  0.00     0.025 C 
ATOM      6  C   UNL     1      16.058  29.050  29.678  1.00  0.00    -0.073 C 
ATOM      7  C   UNL     1      15.695  27.837  30.142  1.00  0.00     0.008 C 
ATOM      8  C   UNL     1      14.988  30.070  29.356  1.00  0.00     0.031 C 
ATOM      9  C   UNL     1      15.369  31.449  29.897  1.00  0.00     0.005 C 
ATOM     10  C   UNL     1      16.783  31.859  29.456  1.00  0.00     0.008 C 
ATOM     11  C   UNL     1      17.871  30.821  29.862  1.00  0.00    -0.018 C 
ATOM     12  C   UNL     1      19.214  31.260  29.233  1.00  0.00     0.088 C 
ATOM     13  C   UNL     1      20.292  30.230  29.411  1.00  0.00     0.159 C 
ATOM     14  O   UNL     1      21.456  30.625  29.684  1.00  0.00    -0.295 OA
ATOM     15  C   UNL     1      18.012  30.793  31.410  1.00  0.00     0.012 C 
ATOM     16  C   UNL     1      20.619  26.369  28.970  1.00  0.00     0.039 C 
ENDROOT
TORSDOF 0
ENDMDL
MODEL 6
REMARK VINA RESULT:    -5.506      2.709      5.778
REMARK INTER + INTRA:          -5.506
REMARK INTER:                  -5.506
REMARK INTRA:                   0.000
REMARK UNBOUND:                 0.000
REMARK SMILES C=C1CCC[C@]2(C)CC(=O)C(=C(C)C)C[C@@H]12
REMARK SMILES IDX 13 1 12 2 11 3 15 4 16 5 2 6 1 7 3 8 4 9 5 10 6 11 8 12 9 13
REMARK SMILES IDX 10 14 7 15 14 16
REMARK H PARENT
REMARK Flexibility Score: inf
ROOT
ATOM      1  C   UNL     1      22.277  32.138  30.459  1.00  0.00     0.039 C 
ATOM      2  C   UNL     1      22.250  30.625  30.458  1.00  0.00    -0.070 C 
ATOM      3  C   UNL     1      21.202  29.920  29.936  1.00  0.00    -0.006 C 
ATOM      4  C   UNL     1      21.237  28.397  29.889  1.00  0.00     0.047 C 
ATOM      5  C   UNL     1      20.388  27.798  28.740  1.00  0.00     0.025 C 
ATOM      6  C   UNL     1      20.345  26.269  28.696  1.00  0.00    -0.073 C 
ATOM      7  C   UNL     1      21.089  25.473  29.492  1.00  0.00     0.008 C 
ATOM      8  C   UNL     1      19.538  25.647  27.577  1.00  0.00     0.031 C 
ATOM      9  C   UNL     1      18.129  26.241  27.527  1.00  0.00     0.005 C 
ATOM     10  C   UNL     1      18.163  27.778  27.503  1.00  0.00     0.008 C 
ATOM     11  C   UNL     1      18.943  28.387  28.705  1.00  0.00    -0.018 C 
ATOM     12  C   UNL     1      19.042  29.916  28.489  1.00  0.00     0.088 C 
ATOM     13  C   UNL     1      19.933  30.578  29.500  1.00  0.00     0.159 C 
ATOM     14  O   UNL     1      19.579  31.691  29.969  1.00  0.00    -0.295 OA
ATOM     15  C   UNL     1      18.171  28.103  30.024  1.00  0.00     0.012 C 
ATOM     16  C   UNL     1      23.464  29.923  31.022  1.00  0.00     0.039 C 
ENDROOT
TORSDOF 0
ENDMDL
MODEL 7
REMARK VINA RESULT:    -5.349      1.968      3.387
REMARK INTER + INTRA:          -5.349
REMARK INTER:                  -5.349
REMARK INTRA:                   0.000
REMARK UNBOUND:                 0.000
REMARK SMILES C=C1CCC[C@]2(C)CC(=O)C(=C(C)C)C[C@@H]12
REMARK SMILES IDX 13 1 12 2 11 3 15 4 16 5 2 6 1 7 3 8 4 9 5 10 6 11 8 12 9 13
REMARK SMILES IDX 10 14 7 15 14 16
REMARK H PARENT
REMARK Flexibility Score: inf
ROOT
ATOM      1  C   UNL     1      16.941  25.494  27.867  1.00  0.00     0.039 C 
ATOM      2  C   UNL     1      18.378  25.963  27.887  1.00  0.00    -0.070 C 
ATOM      3  C   UNL     1      18.768  27.074  28.582  1.00  0.00    -0.006 C 
ATOM      4  C   UNL     1      20.235  27.481  28.638  1.00  0.00     0.047 C 
ATOM      5  C   UNL     1      20.605  28.272  29.917  1.00  0.00     0.025 C 
ATOM      6  C   UNL     1      22.056  28.755  29.982  1.00  0.00    -0.073 C 
ATOM      7  C   UNL     1      23.002  28.415  29.083  1.00  0.00     0.008 C 
ATOM      8  C   UNL     1      22.459  29.518  31.225  1.00  0.00     0.031 C 
ATOM      9  C   UNL     1      21.483  30.663  31.501  1.00  0.00     0.005 C 
ATOM     10  C   UNL     1      20.024  30.177  31.504  1.00  0.00     0.008 C 
ATOM     11  C   UNL     1      19.622  29.455  30.183  1.00  0.00    -0.018 C 
ATOM     12  C   UNL     1      18.199  28.879  30.365  1.00  0.00     0.088 C 
ATOM     13  C   UNL     1      17.786  28.006  29.215  1.00  0.00     0.159 C 
ATOM     14  O   UNL     1      16.601  28.088  28.799  1.00  0.00    -0.295 OA
ATOM     15  C   UNL     1      19.618  30.478  29.012  1.00  0.00     0.012 C 
ATOM     16  C   UNL     1      19.382  25.116  27.138  1.00  0.00     0.039 C 
ENDROOT
TORSDOF 0
ENDMDL
MODEL 8
REMARK VINA RESULT:    -5.281      2.536      5.887
REMARK INTER + INTRA:          -5.281
REMARK INTER:                  -5.281
REMARK INTRA:                   0.000
REMARK UNBOUND:                 0.000
REMARK SMILES C=C1CCC[C@]2(C)CC(=O)C(=C(C)C)C[C@@H]12
REMARK SMILES IDX 13 1 12 2 11 3 15 4 16 5 2 6 1 7 3 8 4 9 5 10 6 11 8 12 9 13
REMARK SMILES IDX 10 14 7 15 14 16
REMARK H PARENT
REMARK Flexibility Score: inf
ROOT
ATOM      1  C   UNL     1      23.875  26.997  28.563  1.00  0.00     0.039 C 
ATOM      2  C   UNL     1      22.817  28.024  28.899  1.00  0.00    -0.070 C 
ATOM      3  C   UNL     1      21.482  27.759  28.771  1.00  0.00    -0.006 C 
ATOM      4  C   UNL     1      20.441  28.792  29.182  1.00  0.00     0.047 C 
ATOM      5  C   UNL     1      19.092  28.167  29.615  1.00  0.00     0.025 C 
ATOM      6  C   UNL     1      17.997  29.175  29.976  1.00  0.00    -0.073 C 
ATOM      7  C   UNL     1      18.200  30.506  30.059  1.00  0.00     0.008 C 
ATOM      8  C   UNL     1      16.670  28.600  30.418  1.00  0.00     0.031 C 
ATOM      9  C   UNL     1      16.160  27.569  29.411  1.00  0.00     0.005 C 
ATOM     10  C   UNL     1      17.230  26.511  29.092  1.00  0.00     0.008 C 
ATOM     11  C   UNL     1      18.561  27.133  28.574  1.00  0.00    -0.018 C 
ATOM     12  C   UNL     1      19.601  25.996  28.438  1.00  0.00     0.088 C 
ATOM     13  C   UNL     1      20.974  26.514  28.120  1.00  0.00     0.159 C 
ATOM     14  O   UNL     1      21.675  25.877  27.290  1.00  0.00    -0.295 OA
ATOM     15  C   UNL     1      18.325  27.783  27.181  1.00  0.00     0.012 C 
ATOM     16  C   UNL     1      23.304  29.353  29.432  1.00  0.00     0.039 C 
ENDROOT
TORSDOF 0
ENDMDL
