MODEL 1
REMARK VINA RESULT:    -6.082      0.000      0.000
REMARK INTER + INTRA:          -8.320
REMARK INTER:                  -7.682
REMARK INTRA:                  -0.638
REMARK UNBOUND:                -0.638
REMARK SMILES O=C(C=Cc1ccc(O)cc1)c1ccc(O)cc1O
REMARK SMILES IDX 4 1 3 2 5 3 6 4 7 5 8 6 11 7 10 8 9 9 2 11 1 12 12 13 18 14
REMARK SMILES IDX 13 15 17 16 14 17 15 18 19 19 16 21
REMARK H PARENT 9 10 19 20 16 22
REMARK Flexibility Score: inf
ROOT
ATOM      1  C   UNL     1      -0.904  -1.257  18.732  1.00  0.00     0.012 C 
ATOM      2  C   UNL     1      -0.531  -2.375  18.094  1.00  0.00     0.053 C 
ENDROOT
BRANCH   1   3
ATOM      3  C   UNL     1      -2.317  -0.844  18.909  1.00  0.00    -0.025 A 
ATOM      4  C   UNL     1      -3.163  -0.835  17.786  1.00  0.00     0.012 A 
ATOM      5  C   UNL     1      -4.505  -0.466  17.910  1.00  0.00     0.047 A 
ATOM      6  C   UNL     1      -5.025  -0.108  19.161  1.00  0.00     0.115 A 
ATOM      7  C   UNL     1      -2.853  -0.498  20.166  1.00  0.00     0.012 A 
ATOM      8  C   UNL     1      -4.197  -0.130  20.286  1.00  0.00     0.047 A 
BRANCH   6   9
ATOM      9  O   UNL     1      -6.360   0.261  19.296  1.00  0.00    -0.508 OA
ATOM     10  H   UNL     1      -6.633   1.076  19.835  1.00  0.00     0.293 HD
ENDBRANCH   6   9
ENDBRANCH   1   3
BRANCH   2  11
ATOM     11  C   UNL     1       0.885  -2.779  17.953  1.00  0.00     0.189 C 
ATOM     12  O   UNL     1       1.518  -2.390  16.936  1.00  0.00    -0.289 OA
BRANCH  11  13
ATOM     13  C   UNL     1       1.585  -3.624  18.949  1.00  0.00     0.064 A 
ATOM     14  C   UNL     1       2.129  -4.878  18.600  1.00  0.00     0.130 A 
ATOM     15  C   UNL     1       1.673  -3.183  20.280  1.00  0.00     0.020 A 
ATOM     16  C   UNL     1       2.788  -5.647  19.571  1.00  0.00     0.093 A 
ATOM     17  C   UNL     1       2.326  -3.958  21.241  1.00  0.00     0.047 A 
ATOM     18  C   UNL     1       2.888  -5.188  20.890  1.00  0.00     0.119 A 
BRANCH  14  19
ATOM     19  O   UNL     1       1.999  -5.366  17.300  1.00  0.00    -0.507 OA
ATOM     20  H   UNL     1       2.594  -5.038  16.547  1.00  0.00     0.293 HD
ENDBRANCH  14  19
BRANCH  18  21
ATOM     21  O   UNL     1       3.539  -5.948  21.860  1.00  0.00    -0.508 OA
ATOM     22  H   UNL     1       3.455  -5.733  22.846  1.00  0.00     0.293 HD
ENDBRANCH  18  21
ENDBRANCH  11  13
ENDBRANCH   2  11
TORSDOF 6
ENDMDL
MODEL 2
REMARK VINA RESULT:    -5.727      3.750      6.294
REMARK INTER + INTRA:          -7.872
REMARK INTER:                  -7.426
REMARK INTRA:                  -0.446
REMARK UNBOUND:                -0.638
REMARK SMILES O=C(C=Cc1ccc(O)cc1)c1ccc(O)cc1O
REMARK SMILES IDX 4 1 3 2 5 3 6 4 7 5 8 6 11 7 10 8 9 9 2 11 1 12 12 13 18 14
REMARK SMILES IDX 13 15 17 16 14 17 15 18 19 19 16 21
REMARK H PARENT 9 10 19 20 16 22
REMARK Flexibility Score: inf
ROOT
ATOM      1  C   UNL     1       2.505  -4.278  20.982  1.00  0.00     0.012 C 
ATOM      2  C   UNL     1       3.035  -5.452  21.354  1.00  0.00     0.053 C 
ENDROOT
BRANCH   1   3
ATOM      3  C   UNL     1       2.052  -3.981  19.602  1.00  0.00    -0.025 A 
ATOM      4  C   UNL     1       2.525  -4.786  18.550  1.00  0.00     0.012 A 
ATOM      5  C   UNL     1       2.115  -4.549  17.235  1.00  0.00     0.047 A 
ATOM      6  C   UNL     1       1.218  -3.512  16.953  1.00  0.00     0.115 A 
ATOM      7  C   UNL     1       1.137  -2.950  19.310  1.00  0.00     0.012 A 
ATOM      8  C   UNL     1       0.728  -2.717  17.993  1.00  0.00     0.047 A 
BRANCH   6   9
ATOM      9  O   UNL     1       0.802  -3.268  15.646  1.00  0.00    -0.508 OA
ATOM     10  H   UNL     1       1.214  -3.756  14.859  1.00  0.00     0.293 HD
ENDBRANCH   6   9
ENDBRANCH   1   3
BRANCH   2  11
ATOM     11  C   UNL     1       3.454  -5.734  22.745  1.00  0.00     0.189 C 
ATOM     12  O   UNL     1       4.125  -6.777  22.965  1.00  0.00    -0.289 OA
BRANCH  11  13
ATOM     13  C   UNL     1       3.114  -4.850  23.883  1.00  0.00     0.064 A 
ATOM     14  C   UNL     1       1.793  -4.742  24.364  1.00  0.00     0.130 A 
ATOM     15  C   UNL     1       4.125  -4.072  24.472  1.00  0.00     0.020 A 
ATOM     16  C   UNL     1       1.511  -3.896  25.448  1.00  0.00     0.093 A 
ATOM     17  C   UNL     1       3.835  -3.228  25.547  1.00  0.00     0.047 A 
ATOM     18  C   UNL     1       2.531  -3.141  26.040  1.00  0.00     0.119 A 
BRANCH  14  19
ATOM     19  O   UNL     1       0.761  -5.456  23.756  1.00  0.00    -0.507 OA
ATOM     20  H   UNL     1      -0.103  -5.006  23.472  1.00  0.00     0.293 HD
ENDBRANCH  14  19
BRANCH  18  21
ATOM     21  O   UNL     1       2.257  -2.297  27.115  1.00  0.00    -0.508 OA
ATOM     22  H   UNL     1       2.879  -1.537  27.363  1.00  0.00     0.293 HD
ENDBRANCH  18  21
ENDBRANCH  11  13
ENDBRANCH   2  11
TORSDOF 6
ENDMDL
MODEL 3
REMARK VINA RESULT:    -5.643      4.361      7.237
REMARK INTER + INTRA:          -7.765
REMARK INTER:                  -7.105
REMARK INTRA:                  -0.660
REMARK UNBOUND:                -0.638
REMARK SMILES O=C(C=Cc1ccc(O)cc1)c1ccc(O)cc1O
REMARK SMILES IDX 4 1 3 2 5 3 6 4 7 5 8 6 11 7 10 8 9 9 2 11 1 12 12 13 18 14
REMARK SMILES IDX 13 15 17 16 14 17 15 18 19 19 16 21
REMARK H PARENT 9 10 19 20 16 22
REMARK Flexibility Score: inf
ROOT
ATOM      1  C   UNL     1       1.939  -3.298  21.748  1.00  0.00     0.012 C 
ATOM      2  C   UNL     1       1.245  -3.827  22.766  1.00  0.00     0.053 C 
ENDROOT
BRANCH   1   3
ATOM      3  C   UNL     1       2.046  -3.930  20.411  1.00  0.00    -0.025 A 
ATOM      4  C   UNL     1       1.578  -3.221  19.291  1.00  0.00     0.012 A 
ATOM      5  C   UNL     1       1.671  -3.773  18.010  1.00  0.00     0.047 A 
ATOM      6  C   UNL     1       2.242  -5.039  17.829  1.00  0.00     0.115 A 
ATOM      7  C   UNL     1       2.633  -5.197  20.216  1.00  0.00     0.012 A 
ATOM      8  C   UNL     1       2.725  -5.746  18.933  1.00  0.00     0.047 A 
BRANCH   6   9
ATOM      9  O   UNL     1       2.339  -5.599  16.557  1.00  0.00    -0.508 OA
ATOM     10  H   UNL     1       2.546  -5.031  15.743  1.00  0.00     0.293 HD
ENDBRANCH   6   9
ENDBRANCH   1   3
BRANCH   2  11
ATOM     11  C   UNL     1       1.131  -3.164  24.083  1.00  0.00     0.189 C 
ATOM     12  O   UNL     1       0.376  -2.159  24.181  1.00  0.00    -0.289 OA
BRANCH  11  13
ATOM     13  C   UNL     1       1.868  -3.623  25.283  1.00  0.00     0.064 A 
ATOM     14  C   UNL     1       1.211  -3.843  26.512  1.00  0.00     0.130 A 
ATOM     15  C   UNL     1       3.258  -3.804  25.205  1.00  0.00     0.020 A 
ATOM     16  C   UNL     1       1.944  -4.281  27.626  1.00  0.00     0.093 A 
ATOM     17  C   UNL     1       3.981  -4.236  26.320  1.00  0.00     0.047 A 
ATOM     18  C   UNL     1       3.327  -4.479  27.530  1.00  0.00     0.119 A 
BRANCH  14  19
ATOM     19  O   UNL     1      -0.158  -3.609  26.632  1.00  0.00    -0.507 OA
ATOM     20  H   UNL     1      -0.575  -3.331  27.514  1.00  0.00     0.293 HD
ENDBRANCH  14  19
BRANCH  18  21
ATOM     21  O   UNL     1       4.060  -4.912  28.633  1.00  0.00    -0.508 OA
ATOM     22  H   UNL     1       4.260  -5.894  28.784  1.00  0.00     0.293 HD
ENDBRANCH  18  21
ENDBRANCH  11  13
ENDBRANCH   2  11
TORSDOF 6
ENDMDL
MODEL 4
REMARK VINA RESULT:    -5.582      3.608      8.445
REMARK INTER + INTRA:          -7.689
REMARK INTER:                  -7.132
REMARK INTRA:                  -0.558
REMARK UNBOUND:                -0.638
REMARK SMILES O=C(C=Cc1ccc(O)cc1)c1ccc(O)cc1O
REMARK SMILES IDX 4 1 3 2 5 3 6 4 7 5 8 6 11 7 10 8 9 9 2 11 1 12 12 13 18 14
REMARK SMILES IDX 13 15 17 16 14 17 15 18 19 19 16 21
REMARK H PARENT 9 10 19 20 16 22
REMARK Flexibility Score: inf
ROOT
ATOM      1  C   UNL     1       0.101  -2.393  23.639  1.00  0.00     0.012 C 
ATOM      2  C   UNL     1      -1.110  -2.495  23.073  1.00  0.00     0.053 C 
ENDROOT
BRANCH   1   3
ATOM      3  C   UNL     1       1.174  -3.404  23.473  1.00  0.00    -0.025 A 
ATOM      4  C   UNL     1       0.814  -4.759  23.376  1.00  0.00     0.012 A 
ATOM      5  C   UNL     1       1.791  -5.744  23.206  1.00  0.00     0.047 A 
ATOM      6  C   UNL     1       3.142  -5.388  23.120  1.00  0.00     0.115 A 
ATOM      7  C   UNL     1       2.535  -3.053  23.370  1.00  0.00     0.012 A 
ATOM      8  C   UNL     1       3.510  -4.042  23.199  1.00  0.00     0.047 A 
BRANCH   6   9
ATOM      9  O   UNL     1       4.124  -6.361  22.951  1.00  0.00    -0.508 OA
ATOM     10  H   UNL     1       4.409  -6.671  22.029  1.00  0.00     0.293 HD
ENDBRANCH   6   9
ENDBRANCH   1   3
BRANCH   2  11
ATOM     11  C   UNL     1      -2.154  -1.459  23.231  1.00  0.00     0.189 C 
ATOM     12  O   UNL     1      -2.140  -0.755  24.275  1.00  0.00    -0.289 OA
BRANCH  11  13
ATOM     13  C   UNL     1      -3.213  -1.222  22.224  1.00  0.00     0.064 A 
ATOM     14  C   UNL     1      -4.536  -1.670  22.425  1.00  0.00     0.130 A 
ATOM     15  C   UNL     1      -2.884  -0.572  21.023  1.00  0.00     0.020 A 
ATOM     16  C   UNL     1      -5.513  -1.423  21.449  1.00  0.00     0.093 A 
ATOM     17  C   UNL     1      -3.861  -0.335  20.054  1.00  0.00     0.047 A 
ATOM     18  C   UNL     1      -5.177  -0.755  20.264  1.00  0.00     0.119 A 
BRANCH  14  19
ATOM     19  O   UNL     1      -4.874  -2.374  23.581  1.00  0.00    -0.507 OA
ATOM     20  H   UNL     1      -5.669  -2.109  24.152  1.00  0.00     0.293 HD
ENDBRANCH  14  19
BRANCH  18  21
ATOM     21  O   UNL     1      -6.142  -0.508  19.290  1.00  0.00    -0.508 OA
ATOM     22  H   UNL     1      -5.934  -0.605  18.303  1.00  0.00     0.293 HD
ENDBRANCH  18  21
ENDBRANCH  11  13
ENDBRANCH   2  11
TORSDOF 6
ENDMDL
MODEL 5
REMARK VINA RESULT:    -5.571      4.007      5.259
REMARK INTER + INTRA:          -7.675
REMARK INTER:                  -6.920
REMARK INTRA:                  -0.755
REMARK UNBOUND:                -0.638
REMARK SMILES O=C(C=Cc1ccc(O)cc1)c1ccc(O)cc1O
REMARK SMILES IDX 4 1 3 2 5 3 6 4 7 5 8 6 11 7 10 8 9 9 2 11 1 12 12 13 18 14
REMARK SMILES IDX 13 15 17 16 14 17 15 18 19 19 16 21
REMARK H PARENT 9 10 19 20 16 22
REMARK Flexibility Score: inf
ROOT
ATOM      1  C   UNL     1       0.256  -3.611  23.488  1.00  0.00     0.012 C 
ATOM      2  C   UNL     1       1.304  -2.804  23.264  1.00  0.00     0.053 C 
ENDROOT
BRANCH   1   3
ATOM      3  C   UNL     1      -0.966  -3.188  24.213  1.00  0.00    -0.025 A 
ATOM      4  C   UNL     1      -0.885  -2.089  25.086  1.00  0.00     0.012 A 
ATOM      5  C   UNL     1      -2.015  -1.648  25.781  1.00  0.00     0.047 A 
ATOM      6  C   UNL     1      -3.245  -2.294  25.606  1.00  0.00     0.115 A 
ATOM      7  C   UNL     1      -2.212  -3.822  24.032  1.00  0.00     0.012 A 
ATOM      8  C   UNL     1      -3.340  -3.377  24.728  1.00  0.00     0.047 A 
BRANCH   6   9
ATOM      9  O   UNL     1      -4.378  -1.864  26.293  1.00  0.00    -0.508 OA
ATOM     10  H   UNL     1      -4.916  -2.495  26.876  1.00  0.00     0.293 HD
ENDBRANCH   6   9
ENDBRANCH   1   3
BRANCH   2  11
ATOM     11  C   UNL     1       2.501  -3.242  22.513  1.00  0.00     0.189 C 
ATOM     12  O   UNL     1       3.633  -3.034  23.024  1.00  0.00    -0.289 OA
BRANCH  11  13
ATOM     13  C   UNL     1       2.425  -3.902  21.189  1.00  0.00     0.064 A 
ATOM     14  C   UNL     1       2.953  -5.193  20.978  1.00  0.00     0.130 A 
ATOM     15  C   UNL     1       1.849  -3.211  20.111  1.00  0.00     0.020 A 
ATOM     16  C   UNL     1       2.859  -5.787  19.710  1.00  0.00     0.093 A 
ATOM     17  C   UNL     1       1.764  -3.808  18.850  1.00  0.00     0.047 A 
ATOM     18  C   UNL     1       2.264  -5.096  18.648  1.00  0.00     0.119 A 
BRANCH  14  19
ATOM     19  O   UNL     1       3.587  -5.874  22.017  1.00  0.00    -0.507 OA
ATOM     20  H   UNL     1       3.252  -6.773  22.346  1.00  0.00     0.293 HD
ENDBRANCH  14  19
BRANCH  18  21
ATOM     21  O   UNL     1       2.169  -5.680  17.386  1.00  0.00    -0.508 OA
ATOM     22  H   UNL     1       2.549  -6.600  17.198  1.00  0.00     0.293 HD
ENDBRANCH  18  21
ENDBRANCH  11  13
ENDBRANCH   2  11
TORSDOF 6
ENDMDL
MODEL 6
REMARK VINA RESULT:    -5.474      4.263      7.441
REMARK INTER + INTRA:          -7.552
REMARK INTER:                  -6.906
REMARK INTRA:                  -0.646
REMARK UNBOUND:                -0.638
REMARK SMILES O=C(C=Cc1ccc(O)cc1)c1ccc(O)cc1O
REMARK SMILES IDX 4 1 3 2 5 3 6 4 7 5 8 6 11 7 10 8 9 9 2 11 1 12 12 13 18 14
REMARK SMILES IDX 13 15 17 16 14 17 15 18 19 19 16 21
REMARK H PARENT 9 10 19 20 16 22
REMARK Flexibility Score: inf
ROOT
ATOM      1  C   UNL     1       2.262  -3.997  21.750  1.00  0.00     0.012 C 
ATOM      2  C   UNL     1       1.989  -4.907  22.696  1.00  0.00     0.053 C 
ENDROOT
BRANCH   1   3
ATOM      3  C   UNL     1       2.259  -4.296  20.297  1.00  0.00    -0.025 A 
ATOM      4  C   UNL     1       2.758  -5.537  19.863  1.00  0.00     0.012 A 
ATOM      5  C   UNL     1       2.762  -5.865  18.504  1.00  0.00     0.047 A 
ATOM      6  C   UNL     1       2.259  -4.961  17.560  1.00  0.00     0.115 A 
ATOM      7  C   UNL     1       1.740  -3.400  19.341  1.00  0.00     0.012 A 
ATOM      8  C   UNL     1       1.745  -3.732  17.983  1.00  0.00     0.047 A 
BRANCH   6   9
ATOM      9  O   UNL     1       2.258  -5.277  16.203  1.00  0.00    -0.508 OA
ATOM     10  H   UNL     1       1.397  -5.470  15.705  1.00  0.00     0.293 HD
ENDBRANCH   6   9
ENDBRANCH   1   3
BRANCH   2  11
ATOM     11  C   UNL     1       1.971  -4.579  24.138  1.00  0.00     0.189 C 
ATOM     12  O   UNL     1       2.914  -5.003  24.857  1.00  0.00    -0.289 OA
BRANCH  11  13
ATOM     13  C   UNL     1       0.895  -3.782  24.770  1.00  0.00     0.064 A 
ATOM     14  C   UNL     1       1.150  -2.940  25.873  1.00  0.00     0.130 A 
ATOM     15  C   UNL     1      -0.418  -3.897  24.284  1.00  0.00     0.020 A 
ATOM     16  C   UNL     1       0.104  -2.199  26.442  1.00  0.00     0.093 A 
ATOM     17  C   UNL     1      -1.455  -3.160  24.860  1.00  0.00     0.047 A 
ATOM     18  C   UNL     1      -1.197  -2.306  25.936  1.00  0.00     0.119 A 
BRANCH  14  19
ATOM     19  O   UNL     1       2.433  -2.857  26.413  1.00  0.00    -0.507 OA
ATOM     20  H   UNL     1       2.776  -3.542  27.078  1.00  0.00     0.293 HD
ENDBRANCH  14  19
BRANCH  18  21
ATOM     21  O   UNL     1      -2.241  -1.574  26.498  1.00  0.00    -0.508 OA
ATOM     22  H   UNL     1      -2.072  -0.707  26.994  1.00  0.00     0.293 HD
ENDBRANCH  18  21
ENDBRANCH  11  13
ENDBRANCH   2  11
TORSDOF 6
ENDMDL
MODEL 7
REMARK VINA RESULT:    -5.427      4.354      6.008
REMARK INTER + INTRA:          -7.493
REMARK INTER:                  -6.740
REMARK INTRA:                  -0.752
REMARK UNBOUND:                -0.638
REMARK SMILES O=C(C=Cc1ccc(O)cc1)c1ccc(O)cc1O
REMARK SMILES IDX 4 1 3 2 5 3 6 4 7 5 8 6 11 7 10 8 9 9 2 11 1 12 12 13 18 14
REMARK SMILES IDX 13 15 17 16 14 17 15 18 19 19 16 21
REMARK H PARENT 9 10 19 20 16 22
REMARK Flexibility Score: inf
ROOT
ATOM      1  C   UNL     1      -0.748  -3.159  24.900  1.00  0.00     0.012 C 
ATOM      2  C   UNL     1       0.461  -2.932  25.433  1.00  0.00     0.053 C 
ENDROOT
BRANCH   1   3
ATOM      3  C   UNL     1      -1.955  -2.365  25.234  1.00  0.00    -0.025 A 
ATOM      4  C   UNL     1      -1.989  -1.671  26.456  1.00  0.00     0.012 A 
ATOM      5  C   UNL     1      -3.101  -0.900  26.806  1.00  0.00     0.047 A 
ATOM      6  C   UNL     1      -4.193  -0.804  25.935  1.00  0.00     0.115 A 
ATOM      7  C   UNL     1      -3.052  -2.250  24.357  1.00  0.00     0.012 A 
ATOM      8  C   UNL     1      -4.163  -1.477  24.710  1.00  0.00     0.047 A 
BRANCH   6   9
ATOM      9  O   UNL     1      -5.307  -0.039  26.273  1.00  0.00    -0.508 OA
ATOM     10  H   UNL     1      -5.469   0.268  27.225  1.00  0.00     0.293 HD
ENDBRANCH   6   9
ENDBRANCH   1   3
BRANCH   2  11
ATOM     11  C   UNL     1       1.657  -3.720  25.063  1.00  0.00     0.189 C 
ATOM     12  O   UNL     1       2.435  -4.089  25.982  1.00  0.00    -0.289 OA
BRANCH  11  13
ATOM     13  C   UNL     1       1.979  -4.087  23.665  1.00  0.00     0.064 A 
ATOM     14  C   UNL     1       1.948  -5.428  23.228  1.00  0.00     0.130 A 
ATOM     15  C   UNL     1       2.363  -3.079  22.764  1.00  0.00     0.020 A 
ATOM     16  C   UNL     1       2.257  -5.734  21.894  1.00  0.00     0.093 A 
ATOM     17  C   UNL     1       2.675  -3.394  21.439  1.00  0.00     0.047 A 
ATOM     18  C   UNL     1       2.619  -4.719  20.999  1.00  0.00     0.119 A 
BRANCH  14  19
ATOM     19  O   UNL     1       1.632  -6.452  24.119  1.00  0.00    -0.507 OA
ATOM     20  H   UNL     1       0.837  -6.386  24.745  1.00  0.00     0.293 HD
ENDBRANCH  14  19
BRANCH  18  21
ATOM     21  O   UNL     1       2.928  -5.017  19.674  1.00  0.00    -0.508 OA
ATOM     22  H   UNL     1       3.520  -4.410  19.119  1.00  0.00     0.293 HD
ENDBRANCH  18  21
ENDBRANCH  11  13
ENDBRANCH   2  11
TORSDOF 6
ENDMDL
MODEL 8
REMARK VINA RESULT:    -5.319      4.315      7.438
REMARK INTER + INTRA:          -7.356
REMARK INTER:                  -6.970
REMARK INTRA:                  -0.386
REMARK UNBOUND:                -0.638
REMARK SMILES O=C(C=Cc1ccc(O)cc1)c1ccc(O)cc1O
REMARK SMILES IDX 4 1 3 2 5 3 6 4 7 5 8 6 11 7 10 8 9 9 2 11 1 12 12 13 18 14
REMARK SMILES IDX 13 15 17 16 14 17 15 18 19 19 16 21
REMARK H PARENT 9 10 19 20 16 22
REMARK Flexibility Score: inf
ROOT
ATOM      1  C   UNL     1       3.024  -5.187  21.634  1.00  0.00     0.012 C 
ATOM      2  C   UNL     1       2.649  -4.457  22.695  1.00  0.00     0.053 C 
ENDROOT
BRANCH   1   3
ATOM      3  C   UNL     1       2.624  -4.877  20.241  1.00  0.00    -0.025 A 
ATOM      4  C   UNL     1       2.973  -5.781  19.222  1.00  0.00     0.012 A 
ATOM      5  C   UNL     1       2.607  -5.535  17.896  1.00  0.00     0.047 A 
ATOM      6  C   UNL     1       1.876  -4.386  17.569  1.00  0.00     0.115 A 
ATOM      7  C   UNL     1       1.875  -3.731  19.904  1.00  0.00     0.012 A 
ATOM      8  C   UNL     1       1.509  -3.489  18.577  1.00  0.00     0.047 A 
BRANCH   6   9
ATOM      9  O   UNL     1       1.505  -4.130  16.252  1.00  0.00    -0.508 OA
ATOM     10  H   UNL     1       1.551  -3.197  15.860  1.00  0.00     0.293 HD
ENDBRANCH   6   9
ENDBRANCH   1   3
BRANCH   2  11
ATOM     11  C   UNL     1       3.083  -4.770  24.073  1.00  0.00     0.189 C 
ATOM     12  O   UNL     1       4.056  -5.556  24.227  1.00  0.00    -0.289 OA
BRANCH  11  13
ATOM     13  C   UNL     1       2.422  -4.209  25.274  1.00  0.00     0.064 A 
ATOM     14  C   UNL     1       2.946  -4.414  26.568  1.00  0.00     0.130 A 
ATOM     15  C   UNL     1       1.224  -3.491  25.123  1.00  0.00     0.020 A 
ATOM     16  C   UNL     1       2.292  -3.863  27.680  1.00  0.00     0.093 A 
ATOM     17  C   UNL     1       0.577  -2.951  26.237  1.00  0.00     0.047 A 
ATOM     18  C   UNL     1       1.110  -3.131  27.516  1.00  0.00     0.119 A 
BRANCH  14  19
ATOM     19  O   UNL     1       4.099  -5.177  26.749  1.00  0.00    -0.507 OA
ATOM     20  H   UNL     1       4.919  -5.048  26.167  1.00  0.00     0.293 HD
ENDBRANCH  14  19
BRANCH  18  21
ATOM     21  O   UNL     1       0.454  -2.583  28.617  1.00  0.00    -0.508 OA
ATOM     22  H   UNL     1       0.929  -2.445  29.501  1.00  0.00     0.293 HD
ENDBRANCH  18  21
ENDBRANCH  11  13
ENDBRANCH   2  11
TORSDOF 6
ENDMDL
MODEL 9
REMARK VINA RESULT:    -4.469      2.157      8.572
REMARK INTER + INTRA:          -6.282
REMARK INTER:                  -5.897
REMARK INTRA:                  -0.385
REMARK UNBOUND:                -0.638
REMARK SMILES O=C(C=Cc1ccc(O)cc1)c1ccc(O)cc1O
REMARK SMILES IDX 4 1 3 2 5 3 6 4 7 5 8 6 11 7 10 8 9 9 2 11 1 12 12 13 18 14
REMARK SMILES IDX 13 15 17 16 14 17 15 18 19 19 16 21
REMARK H PARENT 9 10 19 20 16 22
REMARK Flexibility Score: inf
ROOT
ATOM      1  C   UNL     1      -1.573  -0.978  18.959  1.00  0.00     0.012 C 
ATOM      2  C   UNL     1      -2.746  -0.936  18.310  1.00  0.00     0.053 C 
ENDROOT
BRANCH   1   3
ATOM      3  C   UNL     1      -0.488  -1.935  18.634  1.00  0.00    -0.025 A 
ATOM      4  C   UNL     1       0.469  -2.231  19.621  1.00  0.00     0.012 A 
ATOM      5  C   UNL     1       1.501  -3.136  19.362  1.00  0.00     0.047 A 
ATOM      6  C   UNL     1       1.587  -3.768  18.115  1.00  0.00     0.115 A 
ATOM      7  C   UNL     1      -0.402  -2.588  17.387  1.00  0.00     0.012 A 
ATOM      8  C   UNL     1       0.632  -3.494  17.132  1.00  0.00     0.047 A 
BRANCH   6   9
ATOM      9  O   UNL     1       2.612  -4.673  17.845  1.00  0.00    -0.508 OA
ATOM     10  H   UNL     1       2.672  -5.563  18.327  1.00  0.00     0.293 HD
ENDBRANCH   6   9
ENDBRANCH   1   3
BRANCH   2  11
ATOM     11  C   UNL     1      -3.802   0.046  18.635  1.00  0.00     0.189 C 
ATOM     12  O   UNL     1      -3.927   0.413  19.834  1.00  0.00    -0.289 OA
BRANCH  11  13
ATOM     13  C   UNL     1      -4.721   0.609  17.618  1.00  0.00     0.064 A 
ATOM     14  C   UNL     1      -5.654   1.615  17.943  1.00  0.00     0.130 A 
ATOM     15  C   UNL     1      -4.687   0.100  16.309  1.00  0.00     0.020 A 
ATOM     16  C   UNL     1      -6.505   2.125  16.950  1.00  0.00     0.093 A 
ATOM     17  C   UNL     1      -5.541   0.610  15.328  1.00  0.00     0.047 A 
ATOM     18  C   UNL     1      -6.448   1.624  15.644  1.00  0.00     0.119 A 
BRANCH  14  19
ATOM     19  O   UNL     1      -5.750   2.092  19.250  1.00  0.00    -0.507 OA
ATOM     20  H   UNL     1      -5.248   1.653  20.015  1.00  0.00     0.293 HD
ENDBRANCH  14  19
BRANCH  18  21
ATOM     21  O   UNL     1      -7.291   2.125  14.654  1.00  0.00    -0.508 OA
ATOM     22  H   UNL     1      -8.297   2.140  14.773  1.00  0.00     0.293 HD
ENDBRANCH  18  21
ENDBRANCH  11  13
ENDBRANCH   2  11
TORSDOF 6
ENDMDL
