MODEL 1
REMARK VINA RESULT:    -2.444      0.000      0.000
REMARK INTER + INTRA:          -5.181
REMARK INTER:                  -3.872
REMARK INTRA:                  -1.309
REMARK UNBOUND:                -1.309
REMARK SMILES CCCCCCCCCCCC(=O)[O-]
REMARK SMILES IDX 7 1 8 2 9 3 10 4 11 5 12 6 13 7 14 8 6 9 5 10 4 11 3 12 2 13
REMARK SMILES IDX 1 14
REMARK H PARENT
REMARK Flexibility Score: inf
ROOT
ATOM      1  C   UNL     1      73.921  88.336  93.024  1.00  0.00     0.000 C 
ENDROOT
BRANCH   1   2
ATOM      2  C   UNL     1      73.143  87.359  92.122  1.00  0.00     0.000 C 
BRANCH   2   3
ATOM      3  C   UNL     1      73.094  87.742  90.631  1.00  0.00     0.000 C 
BRANCH   3   4
ATOM      4  C   UNL     1      74.184  87.047  89.796  1.00  0.00     0.006 C 
BRANCH   4   5
ATOM      5  C   UNL     1      74.402  87.735  88.442  1.00  0.00     0.053 C 
BRANCH   5   6
ATOM      6  C   UNL     1      73.366  87.330  87.437  1.00  0.00     0.041 C 
ATOM      7  O   UNL     1      73.078  86.115  87.280  1.00  0.00    -0.550 OA
ATOM      8  O   UNL     1      72.700  88.297  86.696  1.00  0.00    -0.550 OA
ENDBRANCH   5   6
ENDBRANCH   4   5
ENDBRANCH   3   4
ENDBRANCH   2   3
ENDBRANCH   1   2
BRANCH   1   9
ATOM      9  C   UNL     1      73.955  89.769  92.464  1.00  0.00     0.000 C 
BRANCH   9  10
ATOM     10  C   UNL     1      75.072  90.620  93.090  1.00  0.00    -0.000 C 
BRANCH  10  11
ATOM     11  C   UNL     1      76.460  89.980  92.940  1.00  0.00    -0.000 C 
BRANCH  11  12
ATOM     12  C   UNL     1      77.117  90.397  91.619  1.00  0.00    -0.000 C 
BRANCH  12  13
ATOM     13  C   UNL     1      77.237  89.206  90.662  1.00  0.00    -0.003 C 
ATOM     14  C   UNL     1      77.468  87.906  91.427  1.00  0.00     0.004 C 
ENDBRANCH  12  13
ENDBRANCH  11  12
ENDBRANCH  10  11
ENDBRANCH   9  10
ENDBRANCH   1   9
TORSDOF 10
ENDMDL
MODEL 2
REMARK VINA RESULT:    -2.357     12.324     15.808
REMARK INTER + INTRA:          -5.043
REMARK INTER:                  -4.013
REMARK INTRA:                  -1.031
REMARK UNBOUND:                -1.309
REMARK SMILES CCCCCCCCCCCC(=O)[O-]
REMARK SMILES IDX 7 1 8 2 9 3 10 4 11 5 12 6 13 7 14 8 6 9 5 10 4 11 3 12 2 13
REMARK SMILES IDX 1 14
REMARK H PARENT
REMARK Flexibility Score: inf
ROOT
ATOM      1  C   UNL     1      75.212  91.408  73.541  1.00  0.00     0.000 C 
ENDROOT
BRANCH   1   2
ATOM      2  C   UNL     1      75.220  91.996  74.965  1.00  0.00     0.000 C 
BRANCH   2   3
ATOM      3  C   UNL     1      76.385  91.532  75.859  1.00  0.00     0.000 C 
BRANCH   3   4
ATOM      4  C   UNL     1      75.914  90.781  77.117  1.00  0.00     0.006 C 
BRANCH   4   5
ATOM      5  C   UNL     1      75.356  91.732  78.184  1.00  0.00     0.053 C 
BRANCH   5   6
ATOM      6  C   UNL     1      74.772  90.987  79.345  1.00  0.00     0.041 C 
ATOM      7  O   UNL     1      73.799  91.468  79.982  1.00  0.00    -0.550 OA
ATOM      8  O   UNL     1      75.284  89.746  79.705  1.00  0.00    -0.550 OA
ENDBRANCH   5   6
ENDBRANCH   4   5
ENDBRANCH   3   4
ENDBRANCH   2   3
ENDBRANCH   1   2
BRANCH   1   9
ATOM      9  C   UNL     1      73.936  90.608  73.232  1.00  0.00     0.000 C 
BRANCH   9  10
ATOM     10  C   UNL     1      74.210  89.104  73.066  1.00  0.00    -0.000 C 
BRANCH  10  11
ATOM     11  C   UNL     1      75.704  88.787  72.902  1.00  0.00    -0.000 C 
BRANCH  11  12
ATOM     12  C   UNL     1      76.203  87.889  74.039  1.00  0.00    -0.000 C 
BRANCH  12  13
ATOM     13  C   UNL     1      75.083  87.600  75.045  1.00  0.00    -0.003 C 
ATOM     14  C   UNL     1      74.737  86.114  75.073  1.00  0.00     0.004 C 
ENDBRANCH  12  13
ENDBRANCH  11  12
ENDBRANCH  10  11
ENDBRANCH   9  10
ENDBRANCH   1   9
TORSDOF 10
ENDMDL
MODEL 3
REMARK VINA RESULT:    -2.310      1.752      3.083
REMARK INTER + INTRA:          -4.969
REMARK INTER:                  -3.561
REMARK INTRA:                  -1.409
REMARK UNBOUND:                -1.309
REMARK SMILES CCCCCCCCCCCC(=O)[O-]
REMARK SMILES IDX 7 1 8 2 9 3 10 4 11 5 12 6 13 7 14 8 6 9 5 10 4 11 3 12 2 13
REMARK SMILES IDX 1 14
REMARK H PARENT
REMARK Flexibility Score: inf
ROOT
ATOM      1  C   UNL     1      75.407  90.904  92.750  1.00  0.00     0.000 C 
ENDROOT
BRANCH   1   2
ATOM      2  C   UNL     1      74.114  90.071  92.828  1.00  0.00     0.000 C 
BRANCH   2   3
ATOM      3  C   UNL     1      74.316  88.573  93.125  1.00  0.00     0.000 C 
BRANCH   3   4
ATOM      4  C   UNL     1      73.265  87.679  92.444  1.00  0.00     0.006 C 
BRANCH   4   5
ATOM      5  C   UNL     1      73.195  87.917  90.930  1.00  0.00     0.053 C 
BRANCH   5   6
ATOM      6  C   UNL     1      74.375  87.330  90.217  1.00  0.00     0.041 C 
ATOM      7  O   UNL     1      75.271  88.081  89.751  1.00  0.00    -0.550 OA
ATOM      8  O   UNL     1      74.499  85.952  90.094  1.00  0.00    -0.550 OA
ENDBRANCH   5   6
ENDBRANCH   4   5
ENDBRANCH   3   4
ENDBRANCH   2   3
ENDBRANCH   1   2
BRANCH   1   9
ATOM      9  C   UNL     1      76.674  90.065  92.986  1.00  0.00     0.000 C 
BRANCH   9  10
ATOM     10  C   UNL     1      77.525  89.913  91.715  1.00  0.00    -0.000 C 
BRANCH  10  11
ATOM     11  C   UNL     1      78.351  88.617  91.706  1.00  0.00    -0.000 C 
BRANCH  11  12
ATOM     12  C   UNL     1      77.934  87.693  92.856  1.00  0.00    -0.000 C 
BRANCH  12  13
ATOM     13  C   UNL     1      77.292  86.407  92.324  1.00  0.00    -0.003 C 
ATOM     14  C   UNL     1      77.914  85.990  90.994  1.00  0.00     0.004 C 
ENDBRANCH  12  13
ENDBRANCH  11  12
ENDBRANCH  10  11
ENDBRANCH   9  10
ENDBRANCH   1   9
TORSDOF 10
ENDMDL
MODEL 4
REMARK VINA RESULT:    -2.296      3.567      5.199
REMARK INTER + INTRA:          -4.948
REMARK INTER:                  -3.577
REMARK INTRA:                  -1.371
REMARK UNBOUND:                -1.309
REMARK SMILES CCCCCCCCCCCC(=O)[O-]
REMARK SMILES IDX 7 1 8 2 9 3 10 4 11 5 12 6 13 7 14 8 6 9 5 10 4 11 3 12 2 13
REMARK SMILES IDX 1 14
REMARK H PARENT
REMARK Flexibility Score: inf
ROOT
ATOM      1  C   UNL     1      77.485  90.046  91.864  1.00  0.00     0.000 C 
ENDROOT
BRANCH   1   2
ATOM      2  C   UNL     1      77.714  89.188  93.123  1.00  0.00     0.000 C 
BRANCH   2   3
ATOM      3  C   UNL     1      77.470  87.678  92.940  1.00  0.00     0.000 C 
BRANCH   3   4
ATOM      4  C   UNL     1      77.815  87.181  91.526  1.00  0.00     0.006 C 
BRANCH   4   5
ATOM      5  C   UNL     1      77.570  85.675  91.366  1.00  0.00     0.053 C 
BRANCH   5   6
ATOM      6  C   UNL     1      78.576  84.862  92.125  1.00  0.00     0.041 C 
ATOM      7  O   UNL     1      79.807  85.058  91.954  1.00  0.00    -0.550 OA
ATOM      8  O   UNL     1      78.151  83.908  93.041  1.00  0.00    -0.550 OA
ENDBRANCH   5   6
ENDBRANCH   4   5
ENDBRANCH   3   4
ENDBRANCH   2   3
ENDBRANCH   1   2
BRANCH   1   9
ATOM      9  C   UNL     1      76.439  91.153  92.078  1.00  0.00     0.000 C 
BRANCH   9  10
ATOM     10  C   UNL     1      75.381  90.769  93.125  1.00  0.00    -0.000 C 
BRANCH  10  11
ATOM     11  C   UNL     1      74.131  90.131  92.500  1.00  0.00    -0.000 C 
BRANCH  11  12
ATOM     12  C   UNL     1      73.861  88.747  93.103  1.00  0.00    -0.000 C 
BRANCH  12  13
ATOM     13  C   UNL     1      73.377  87.764  92.032  1.00  0.00    -0.003 C 
ATOM     14  C   UNL     1      74.139  87.955  90.723  1.00  0.00     0.004 C 
ENDBRANCH  12  13
ENDBRANCH  11  12
ENDBRANCH  10  11
ENDBRANCH   9  10
ENDBRANCH   1   9
TORSDOF 10
ENDMDL
MODEL 5
REMARK VINA RESULT:    -2.294     11.832     15.174
REMARK INTER + INTRA:          -4.944
REMARK INTER:                  -3.478
REMARK INTRA:                  -1.466
REMARK UNBOUND:                -1.309
REMARK SMILES CCCCCCCCCCCC(=O)[O-]
REMARK SMILES IDX 7 1 8 2 9 3 10 4 11 5 12 6 13 7 14 8 6 9 5 10 4 11 3 12 2 13
REMARK SMILES IDX 1 14
REMARK H PARENT
REMARK Flexibility Score: inf
ROOT
ATOM      1  C   UNL     1      76.932  88.471  76.849  1.00  0.00     0.000 C 
ENDROOT
BRANCH   1   2
ATOM      2  C   UNL     1      77.857  89.690  76.671  1.00  0.00     0.000 C 
BRANCH   2   3
ATOM      3  C   UNL     1      77.198  91.057  76.933  1.00  0.00     0.000 C 
BRANCH   3   4
ATOM      4  C   UNL     1      75.700  90.947  77.267  1.00  0.00     0.006 C 
BRANCH   4   5
ATOM      5  C   UNL     1      75.314  91.798  78.484  1.00  0.00     0.053 C 
BRANCH   5   6
ATOM      6  C   UNL     1      74.625  90.985  79.538  1.00  0.00     0.041 C 
ATOM      7  O   UNL     1      75.074  89.854  79.858  1.00  0.00    -0.550 OA
ATOM      8  O   UNL     1      73.506  91.491  80.186  1.00  0.00    -0.550 OA
ENDBRANCH   5   6
ENDBRANCH   4   5
ENDBRANCH   3   4
ENDBRANCH   2   3
ENDBRANCH   1   2
BRANCH   1   9
ATOM      9  C   UNL     1      76.628  87.754  75.523  1.00  0.00     0.000 C 
BRANCH   9  10
ATOM     10  C   UNL     1      75.173  87.953  75.066  1.00  0.00    -0.000 C 
BRANCH  10  11
ATOM     11  C   UNL     1      75.070  88.659  73.706  1.00  0.00    -0.000 C 
BRANCH  11  12
ATOM     12  C   UNL     1      74.523  90.083  73.868  1.00  0.00    -0.000 C 
BRANCH  12  13
ATOM     13  C   UNL     1      75.596  91.126  73.536  1.00  0.00    -0.003 C 
ATOM     14  C   UNL     1      76.812  90.477  72.881  1.00  0.00     0.004 C 
ENDBRANCH  12  13
ENDBRANCH  11  12
ENDBRANCH  10  11
ENDBRANCH   9  10
ENDBRANCH   1   9
TORSDOF 10
ENDMDL
MODEL 6
REMARK VINA RESULT:    -2.269      3.220      3.974
REMARK INTER + INTRA:          -4.905
REMARK INTER:                  -3.592
REMARK INTRA:                  -1.313
REMARK UNBOUND:                -1.309
REMARK SMILES CCCCCCCCCCCC(=O)[O-]
REMARK SMILES IDX 7 1 8 2 9 3 10 4 11 5 12 6 13 7 14 8 6 9 5 10 4 11 3 12 2 13
REMARK SMILES IDX 1 14
REMARK H PARENT
REMARK Flexibility Score: inf
ROOT
ATOM      1  C   UNL     1      73.985  88.896  92.006  1.00  0.00     0.000 C 
ENDROOT
BRANCH   1   2
ATOM      2  C   UNL     1      73.275  87.790  92.810  1.00  0.00     0.000 C 
BRANCH   2   3
ATOM      3  C   UNL     1      73.882  86.382  92.666  1.00  0.00     0.000 C 
BRANCH   3   4
ATOM      4  C   UNL     1      75.293  86.396  92.053  1.00  0.00     0.006 C 
BRANCH   4   5
ATOM      5  C   UNL     1      76.357  85.897  93.038  1.00  0.00     0.053 C 
BRANCH   5   6
ATOM      6  C   UNL     1      76.993  84.621  92.574  1.00  0.00     0.041 C 
ATOM      7  O   UNL     1      76.451  83.936  91.669  1.00  0.00    -0.550 OA
ATOM      8  O   UNL     1      78.200  84.206  93.122  1.00  0.00    -0.550 OA
ENDBRANCH   5   6
ENDBRANCH   4   5
ENDBRANCH   3   4
ENDBRANCH   2   3
ENDBRANCH   1   2
BRANCH   1   9
ATOM      9  C   UNL     1      74.141  90.204  92.799  1.00  0.00     0.000 C 
BRANCH   9  10
ATOM     10  C   UNL     1      75.563  90.782  92.708  1.00  0.00    -0.000 C 
BRANCH  10  11
ATOM     11  C   UNL     1      76.644  89.762  93.096  1.00  0.00    -0.000 C 
BRANCH  11  12
ATOM     12  C   UNL     1      77.879  89.901  92.197  1.00  0.00    -0.000 C 
BRANCH  12  13
ATOM     13  C   UNL     1      77.986  88.722  91.223  1.00  0.00    -0.003 C 
ATOM     14  C   UNL     1      77.328  89.050  89.886  1.00  0.00     0.004 C 
ENDBRANCH  12  13
ENDBRANCH  11  12
ENDBRANCH  10  11
ENDBRANCH   9  10
ENDBRANCH   1   9
TORSDOF 10
ENDMDL
MODEL 7
REMARK VINA RESULT:    -2.264     12.488     15.726
REMARK INTER + INTRA:          -4.897
REMARK INTER:                  -3.682
REMARK INTRA:                  -1.216
REMARK UNBOUND:                -1.309
REMARK SMILES CCCCCCCCCCCC(=O)[O-]
REMARK SMILES IDX 7 1 8 2 9 3 10 4 11 5 12 6 13 7 14 8 6 9 5 10 4 11 3 12 2 13
REMARK SMILES IDX 1 14
REMARK H PARENT
REMARK Flexibility Score: inf
ROOT
ATOM      1  C   UNL     1      74.823  91.554  73.184  1.00  0.00     0.000 C 
ENDROOT
BRANCH   1   2
ATOM      2  C   UNL     1      74.621  92.038  74.632  1.00  0.00     0.000 C 
BRANCH   2   3
ATOM      3  C   UNL     1      75.902  92.109  75.484  1.00  0.00     0.000 C 
BRANCH   3   4
ATOM      4  C   UNL     1      75.619  92.091  76.997  1.00  0.00     0.006 C 
BRANCH   4   5
ATOM      5  C   UNL     1      75.884  90.714  77.619  1.00  0.00     0.053 C 
BRANCH   5   6
ATOM      6  C   UNL     1      75.410  90.643  79.039  1.00  0.00     0.041 C 
ATOM      7  O   UNL     1      75.886  89.780  79.823  1.00  0.00    -0.550 OA
ATOM      8  O   UNL     1      74.466  91.549  79.504  1.00  0.00    -0.550 OA
ENDBRANCH   5   6
ENDBRANCH   4   5
ENDBRANCH   3   4
ENDBRANCH   2   3
ENDBRANCH   1   2
BRANCH   1   9
ATOM      9  C   UNL     1      74.056  90.257  72.875  1.00  0.00     0.000 C 
BRANCH   9  10
ATOM     10  C   UNL     1      74.499  89.085  73.766  1.00  0.00    -0.000 C 
BRANCH  10  11
ATOM     11  C   UNL     1      75.945  88.644  73.490  1.00  0.00    -0.000 C 
BRANCH  11  12
ATOM     12  C   UNL     1      76.715  88.437  74.800  1.00  0.00    -0.000 C 
BRANCH  12  13
ATOM     13  C   UNL     1      78.053  89.184  74.777  1.00  0.00    -0.003 C 
ATOM     14  C   UNL     1      78.954  88.735  75.924  1.00  0.00     0.004 C 
ENDBRANCH  12  13
ENDBRANCH  11  12
ENDBRANCH  10  11
ENDBRANCH   9  10
ENDBRANCH   1   9
TORSDOF 10
ENDMDL
MODEL 8
REMARK VINA RESULT:    -2.168     12.958     15.768
REMARK INTER + INTRA:          -4.744
REMARK INTER:                  -3.543
REMARK INTRA:                  -1.202
REMARK UNBOUND:                -1.309
REMARK SMILES CCCCCCCCCCCC(=O)[O-]
REMARK SMILES IDX 7 1 8 2 9 3 10 4 11 5 12 6 13 7 14 8 6 9 5 10 4 11 3 12 2 13
REMARK SMILES IDX 1 14
REMARK H PARENT
REMARK Flexibility Score: inf
ROOT
ATOM      1  C   UNL     1      74.952  90.846  72.875  1.00  0.00     0.000 C 
ENDROOT
BRANCH   1   2
ATOM      2  C   UNL     1      74.344  89.462  73.173  1.00  0.00     0.000 C 
BRANCH   2   3
ATOM      3  C   UNL     1      75.358  88.372  73.566  1.00  0.00     0.000 C 
BRANCH   3   4
ATOM      4  C   UNL     1      75.146  87.840  74.994  1.00  0.00     0.006 C 
BRANCH   4   5
ATOM      5  C   UNL     1      75.655  86.403  75.158  1.00  0.00     0.053 C 
BRANCH   5   6
ATOM      6  C   UNL     1      74.563  85.397  74.954  1.00  0.00     0.041 C 
ATOM      7  O   UNL     1      73.711  85.195  75.859  1.00  0.00    -0.550 OA
ATOM      8  O   UNL     1      74.470  84.704  73.754  1.00  0.00    -0.550 OA
ENDBRANCH   5   6
ENDBRANCH   4   5
ENDBRANCH   3   4
ENDBRANCH   2   3
ENDBRANCH   1   2
BRANCH   1   9
ATOM      9  C   UNL     1      75.866  91.353  74.003  1.00  0.00     0.000 C 
BRANCH   9  10
ATOM     10  C   UNL     1      75.074  91.893  75.206  1.00  0.00    -0.000 C 
BRANCH  10  11
ATOM     11  C   UNL     1      75.586  91.346  76.547  1.00  0.00    -0.000 C 
BRANCH  11  12
ATOM     12  C   UNL     1      77.067  90.960  76.453  1.00  0.00    -0.000 C 
BRANCH  12  13
ATOM     13  C   UNL     1      77.323  89.595  77.101  1.00  0.00    -0.003 C 
ATOM     14  C   UNL     1      76.427  89.387  78.320  1.00  0.00     0.004 C 
ENDBRANCH  12  13
ENDBRANCH  11  12
ENDBRANCH  10  11
ENDBRANCH   9  10
ENDBRANCH   1   9
TORSDOF 10
ENDMDL
MODEL 9
REMARK VINA RESULT:    -2.160      2.224      4.023
REMARK INTER + INTRA:          -4.733
REMARK INTER:                  -3.475
REMARK INTRA:                  -1.258
REMARK UNBOUND:                -1.309
REMARK SMILES CCCCCCCCCCCC(=O)[O-]
REMARK SMILES IDX 7 1 8 2 9 3 10 4 11 5 12 6 13 7 14 8 6 9 5 10 4 11 3 12 2 13
REMARK SMILES IDX 1 14
REMARK H PARENT
REMARK Flexibility Score: inf
ROOT
ATOM      1  C   UNL     1      77.029  90.145  91.736  1.00  0.00     0.000 C 
ENDROOT
BRANCH   1   2
ATOM      2  C   UNL     1      75.961  91.007  92.436  1.00  0.00     0.000 C 
BRANCH   2   3
ATOM      3  C   UNL     1      74.739  90.234  92.966  1.00  0.00     0.000 C 
BRANCH   3   4
ATOM      4  C   UNL     1      74.253  89.142  91.998  1.00  0.00     0.006 C 
BRANCH   4   5
ATOM      5  C   UNL     1      73.443  88.053  92.713  1.00  0.00     0.053 C 
BRANCH   5   6
ATOM      6  C   UNL     1      72.671  87.206  91.746  1.00  0.00     0.041 C 
ATOM      7  O   UNL     1      72.576  87.549  90.540  1.00  0.00    -0.550 OA
ATOM      8  O   UNL     1      72.082  86.023  92.174  1.00  0.00    -0.550 OA
ENDBRANCH   5   6
ENDBRANCH   4   5
ENDBRANCH   3   4
ENDBRANCH   2   3
ENDBRANCH   1   2
BRANCH   1   9
ATOM      9  C   UNL     1      78.191  89.760  92.667  1.00  0.00     0.000 C 
BRANCH   9  10
ATOM     10  C   UNL     1      78.492  88.252  92.640  1.00  0.00    -0.000 C 
BRANCH  10  11
ATOM     11  C   UNL     1      77.308  87.402  93.125  1.00  0.00    -0.000 C 
BRANCH  11  12
ATOM     12  C   UNL     1      77.277  86.046  92.409  1.00  0.00    -0.000 C 
BRANCH  12  13
ATOM     13  C   UNL     1      77.055  86.223  90.903  1.00  0.00    -0.003 C 
ATOM     14  C   UNL     1      75.661  85.756  90.493  1.00  0.00     0.004 C 
ENDBRANCH  12  13
ENDBRANCH  11  12
ENDBRANCH  10  11
ENDBRANCH   9  10
ENDBRANCH   1   9
TORSDOF 10
ENDMDL
