MODEL 1
REMARK VINA RESULT:    -5.472      0.000      0.000
REMARK INTER + INTRA:         -11.185
REMARK INTER:                 -10.110
REMARK INTRA:                  -1.075
REMARK UNBOUND:                -1.075
REMARK SMILES CCCCCCCCCCCCCCCCO
REMARK SMILES IDX 9 1 8 2 7 3 6 4 5 5 4 6 3 7 2 8 1 9 10 10 11 11 12 12 13 13
REMARK SMILES IDX 14 14 15 15 16 16 17 17
REMARK H PARENT 17 18
REMARK Flexibility Score: inf
ROOT
ATOM      1  C   UNL     1      -1.347   3.416  13.311  1.00  0.00     0.000 C 
ENDROOT
BRANCH   1   2
ATOM      2  C   UNL     1      -0.376   4.047  12.295  1.00  0.00    -0.000 C 
BRANCH   2   3
ATOM      3  C   UNL     1      -1.004   4.414  10.939  1.00  0.00    -0.000 C 
BRANCH   3   4
ATOM      4  C   UNL     1       0.002   4.801   9.833  1.00  0.00    -0.000 C 
BRANCH   4   5
ATOM      5  C   UNL     1       1.330   4.023   9.857  1.00  0.00    -0.000 C 
BRANCH   5   6
ATOM      6  C   UNL     1       2.596   4.900   9.866  1.00  0.00    -0.000 C 
BRANCH   6   7
ATOM      7  C   UNL     1       3.129   5.210  11.281  1.00  0.00    -0.000 C 
BRANCH   7   8
ATOM      8  C   UNL     1       2.488   6.466  11.890  1.00  0.00    -0.003 C 
ATOM      9  C   UNL     1       2.272   7.543  10.831  1.00  0.00     0.004 C 
ENDBRANCH   7   8
ENDBRANCH   6   7
ENDBRANCH   5   6
ENDBRANCH   4   5
ENDBRANCH   3   4
ENDBRANCH   2   3
ENDBRANCH   1   2
BRANCH   1  10
ATOM     10  C   UNL     1      -1.560   1.900  13.109  1.00  0.00     0.000 C 
BRANCH  10  11
ATOM     11  C   UNL     1      -0.235   1.131  12.986  1.00  0.00     0.000 C 
BRANCH  11  12
ATOM     12  C   UNL     1       0.234   0.620  14.354  1.00  0.00     0.000 C 
BRANCH  12  13
ATOM     13  C   UNL     1       0.683  -0.846  14.267  1.00  0.00     0.000 C 
BRANCH  13  14
ATOM     14  C   UNL     1       2.038  -1.093  14.948  1.00  0.00     0.002 C 
BRANCH  14  15
ATOM     15  C   UNL     1       2.792  -2.291  14.347  1.00  0.00     0.028 C 
BRANCH  15  16
ATOM     16  C   UNL     1       2.592  -3.564  15.175  1.00  0.00     0.156 C 
BRANCH  16  17
ATOM     17  O   UNL     1       2.332  -4.661  14.341  1.00  0.00    -0.396 OA
ATOM     18  H   UNL     1       1.548  -5.136  14.724  1.00  0.00     0.210 HD
ENDBRANCH  16  17
ENDBRANCH  15  16
ENDBRANCH  14  15
ENDBRANCH  13  14
ENDBRANCH  12  13
ENDBRANCH  11  12
ENDBRANCH  10  11
ENDBRANCH   1  10
TORSDOF 15
ENDMDL
MODEL 2
REMARK VINA RESULT:    -5.349      0.825      1.386
REMARK INTER + INTRA:         -10.959
REMARK INTER:                  -9.976
REMARK INTRA:                  -0.982
REMARK UNBOUND:                -1.075
REMARK SMILES CCCCCCCCCCCCCCCCO
REMARK SMILES IDX 9 1 8 2 7 3 6 4 5 5 4 6 3 7 2 8 1 9 10 10 11 11 12 12 13 13
REMARK SMILES IDX 14 14 15 15 16 16 17 17
REMARK H PARENT 17 18
REMARK Flexibility Score: inf
ROOT
ATOM      1  C   UNL     1      -1.107   1.860  12.808  1.00  0.00     0.000 C 
ENDROOT
BRANCH   1   2
ATOM      2  C   UNL     1      -0.992   3.362  13.130  1.00  0.00    -0.000 C 
BRANCH   2   3
ATOM      3  C   UNL     1      -0.209   4.189  12.095  1.00  0.00    -0.000 C 
BRANCH   3   4
ATOM      4  C   UNL     1       0.727   3.375  11.175  1.00  0.00    -0.000 C 
BRANCH   4   5
ATOM      5  C   UNL     1       0.786   3.855   9.713  1.00  0.00    -0.000 C 
BRANCH   5   6
ATOM      6  C   UNL     1       1.618   5.129   9.481  1.00  0.00    -0.000 C 
BRANCH   6   7
ATOM      7  C   UNL     1       3.080   5.014   9.963  1.00  0.00    -0.000 C 
BRANCH   7   8
ATOM      8  C   UNL     1       3.355   5.857  11.216  1.00  0.00    -0.003 C 
ATOM      9  C   UNL     1       2.301   6.946  11.391  1.00  0.00     0.004 C 
ENDBRANCH   7   8
ENDBRANCH   6   7
ENDBRANCH   5   6
ENDBRANCH   4   5
ENDBRANCH   3   4
ENDBRANCH   2   3
ENDBRANCH   1   2
BRANCH   1  10
ATOM     10  C   UNL     1      -0.715   0.940  13.985  1.00  0.00     0.000 C 
BRANCH  10  11
ATOM     11  C   UNL     1       0.104  -0.278  13.533  1.00  0.00     0.000 C 
BRANCH  11  12
ATOM     12  C   UNL     1       0.939  -0.841  14.690  1.00  0.00     0.000 C 
BRANCH  12  13
ATOM     13  C   UNL     1       2.441  -0.709  14.398  1.00  0.00     0.000 C 
BRANCH  13  14
ATOM     14  C   UNL     1       3.231  -1.975  14.766  1.00  0.00     0.002 C 
BRANCH  14  15
ATOM     15  C   UNL     1       2.626  -2.720  15.967  1.00  0.00     0.028 C 
BRANCH  15  16
ATOM     16  C   UNL     1       2.355  -4.193  15.649  1.00  0.00     0.156 C 
BRANCH  16  17
ATOM     17  O   UNL     1       2.438  -4.426  14.269  1.00  0.00    -0.396 OA
ATOM     18  H   UNL     1       2.823  -5.333  14.150  1.00  0.00     0.210 HD
ENDBRANCH  16  17
ENDBRANCH  15  16
ENDBRANCH  14  15
ENDBRANCH  13  14
ENDBRANCH  12  13
ENDBRANCH  11  12
ENDBRANCH  10  11
ENDBRANCH   1  10
TORSDOF 15
ENDMDL
MODEL 3
REMARK VINA RESULT:    -5.323      3.379      7.940
REMARK INTER + INTRA:         -10.910
REMARK INTER:                 -10.011
REMARK INTRA:                  -0.899
REMARK UNBOUND:                -1.075
REMARK SMILES CCCCCCCCCCCCCCCCO
REMARK SMILES IDX 9 1 8 2 7 3 6 4 5 5 4 6 3 7 2 8 1 9 10 10 11 11 12 12 13 13
REMARK SMILES IDX 14 14 15 15 16 16 17 17
REMARK H PARENT 17 18
REMARK Flexibility Score: inf
ROOT
ATOM      1  C   UNL     1      -0.520   1.792  11.775  1.00  0.00     0.000 C 
ENDROOT
BRANCH   1   2
ATOM      2  C   UNL     1      -0.570   0.622  12.777  1.00  0.00    -0.000 C 
BRANCH   2   3
ATOM      3  C   UNL     1      -0.802   1.031  14.242  1.00  0.00    -0.000 C 
BRANCH   3   4
ATOM      4  C   UNL     1       0.127   0.349  15.269  1.00  0.00    -0.000 C 
BRANCH   4   5
ATOM      5  C   UNL     1       1.020  -0.769  14.701  1.00  0.00    -0.000 C 
BRANCH   5   6
ATOM      6  C   UNL     1       2.481  -0.746  15.189  1.00  0.00    -0.000 C 
BRANCH   6   7
ATOM      7  C   UNL     1       3.366  -1.840  14.557  1.00  0.00    -0.000 C 
BRANCH   7   8
ATOM      8  C   UNL     1       2.698  -3.223  14.578  1.00  0.00    -0.003 C 
ATOM      9  C   UNL     1       2.842  -3.884  15.945  1.00  0.00     0.004 C 
ENDBRANCH   7   8
ENDBRANCH   6   7
ENDBRANCH   5   6
ENDBRANCH   4   5
ENDBRANCH   3   4
ENDBRANCH   2   3
ENDBRANCH   1   2
BRANCH   1  10
ATOM     10  C   UNL     1      -0.780   3.171  12.417  1.00  0.00     0.000 C 
BRANCH  10  11
ATOM     11  C   UNL     1      -0.069   4.311  11.672  1.00  0.00     0.000 C 
BRANCH  11  12
ATOM     12  C   UNL     1       0.870   3.760  10.591  1.00  0.00     0.000 C 
BRANCH  12  13
ATOM     13  C   UNL     1       2.327   4.150  10.879  1.00  0.00     0.000 C 
BRANCH  13  14
ATOM     14  C   UNL     1       2.871   5.190   9.887  1.00  0.00     0.002 C 
BRANCH  14  15
ATOM     15  C   UNL     1       3.099   6.564  10.537  1.00  0.00     0.028 C 
BRANCH  15  16
ATOM     16  C   UNL     1       1.823   7.411  10.546  1.00  0.00     0.156 C 
BRANCH  16  17
ATOM     17  O   UNL     1       1.865   8.360  11.578  1.00  0.00    -0.396 OA
ATOM     18  H   UNL     1       2.092   9.232  11.161  1.00  0.00     0.210 HD
ENDBRANCH  16  17
ENDBRANCH  15  16
ENDBRANCH  14  15
ENDBRANCH  13  14
ENDBRANCH  12  13
ENDBRANCH  11  12
ENDBRANCH  10  11
ENDBRANCH   1  10
TORSDOF 15
ENDMDL
MODEL 4
REMARK VINA RESULT:    -5.181      3.455      7.450
REMARK INTER + INTRA:         -10.648
REMARK INTER:                  -9.434
REMARK INTRA:                  -1.215
REMARK UNBOUND:                -1.075
REMARK SMILES CCCCCCCCCCCCCCCCO
REMARK SMILES IDX 9 1 8 2 7 3 6 4 5 5 4 6 3 7 2 8 1 9 10 10 11 11 12 12 13 13
REMARK SMILES IDX 14 14 15 15 16 16 17 17
REMARK H PARENT 17 18
REMARK Flexibility Score: inf
ROOT
ATOM      1  C   UNL     1      -0.898   4.182  11.752  1.00  0.00     0.000 C 
ENDROOT
BRANCH   1   2
ATOM      2  C   UNL     1      -2.146   3.279  11.795  1.00  0.00    -0.000 C 
BRANCH   2   3
ATOM      3  C   UNL     1      -1.927   1.899  12.440  1.00  0.00    -0.000 C 
BRANCH   3   4
ATOM      4  C   UNL     1      -0.455   1.535  12.728  1.00  0.00    -0.000 C 
BRANCH   4   5
ATOM      5  C   UNL     1      -0.247   0.227  13.515  1.00  0.00    -0.000 C 
BRANCH   5   6
ATOM      6  C   UNL     1       0.615   0.362  14.784  1.00  0.00    -0.000 C 
BRANCH   6   7
ATOM      7  C   UNL     1       1.193  -0.977  15.288  1.00  0.00    -0.000 C 
BRANCH   7   8
ATOM      8  C   UNL     1       2.719  -1.053  15.138  1.00  0.00    -0.003 C 
ATOM      9  C   UNL     1       3.119  -2.086  14.089  1.00  0.00     0.004 C 
ENDBRANCH   7   8
ENDBRANCH   6   7
ENDBRANCH   5   6
ENDBRANCH   4   5
ENDBRANCH   3   4
ENDBRANCH   2   3
ENDBRANCH   1   2
BRANCH   1  10
ATOM     10  C   UNL     1      -0.660   4.848  10.379  1.00  0.00     0.000 C 
BRANCH  10  11
ATOM     11  C   UNL     1       0.346   4.071   9.515  1.00  0.00     0.000 C 
BRANCH  11  12
ATOM     12  C   UNL     1       1.620   3.750  10.307  1.00  0.00     0.000 C 
BRANCH  12  13
ATOM     13  C   UNL     1       2.700   4.813  10.063  1.00  0.00     0.000 C 
BRANCH  13  14
ATOM     14  C   UNL     1       3.199   5.462  11.364  1.00  0.00     0.002 C 
BRANCH  14  15
ATOM     15  C   UNL     1       2.386   6.707  11.753  1.00  0.00     0.028 C 
BRANCH  15  16
ATOM     16  C   UNL     1       1.924   7.495  10.523  1.00  0.00     0.156 C 
BRANCH  16  17
ATOM     17  O   UNL     1       2.862   8.480  10.183  1.00  0.00    -0.396 OA
ATOM     18  H   UNL     1       2.351   9.282   9.898  1.00  0.00     0.210 HD
ENDBRANCH  16  17
ENDBRANCH  15  16
ENDBRANCH  14  15
ENDBRANCH  13  14
ENDBRANCH  12  13
ENDBRANCH  11  12
ENDBRANCH  10  11
ENDBRANCH   1  10
TORSDOF 15
ENDMDL
MODEL 5
REMARK VINA RESULT:    -5.016      1.521      1.712
REMARK INTER + INTRA:         -10.343
REMARK INTER:                  -9.466
REMARK INTRA:                  -0.877
REMARK UNBOUND:                -1.075
REMARK SMILES CCCCCCCCCCCCCCCCO
REMARK SMILES IDX 9 1 8 2 7 3 6 4 5 5 4 6 3 7 2 8 1 9 10 10 11 11 12 12 13 13
REMARK SMILES IDX 14 14 15 15 16 16 17 17
REMARK H PARENT 17 18
REMARK Flexibility Score: inf
ROOT
ATOM      1  C   UNL     1      -0.947   2.793  13.394  1.00  0.00     0.000 C 
ENDROOT
BRANCH   1   2
ATOM      2  C   UNL     1      -0.682   3.541  12.074  1.00  0.00    -0.000 C 
BRANCH   2   3
ATOM      3  C   UNL     1       0.615   3.139  11.348  1.00  0.00    -0.000 C 
BRANCH   3   4
ATOM      4  C   UNL     1       0.865   3.858  10.004  1.00  0.00    -0.000 C 
BRANCH   4   5
ATOM      5  C   UNL     1       2.200   4.619   9.909  1.00  0.00    -0.000 C 
BRANCH   5   6
ATOM      6  C   UNL     1       2.843   4.973  11.263  1.00  0.00    -0.000 C 
BRANCH   6   7
ATOM      7  C   UNL     1       2.498   6.392  11.763  1.00  0.00    -0.000 C 
BRANCH   7   8
ATOM      8  C   UNL     1       1.811   7.245  10.686  1.00  0.00    -0.003 C 
ATOM      9  C   UNL     1       2.816   8.141   9.969  1.00  0.00     0.004 C 
ENDBRANCH   7   8
ENDBRANCH   6   7
ENDBRANCH   5   6
ENDBRANCH   4   5
ENDBRANCH   3   4
ENDBRANCH   2   3
ENDBRANCH   1   2
BRANCH   1  10
ATOM     10  C   UNL     1      -1.619   1.416  13.204  1.00  0.00     0.000 C 
BRANCH  10  11
ATOM     11  C   UNL     1      -0.599   0.270  13.119  1.00  0.00     0.000 C 
BRANCH  11  12
ATOM     12  C   UNL     1       0.569   0.498  14.087  1.00  0.00     0.000 C 
BRANCH  12  13
ATOM     13  C   UNL     1       1.125  -0.838  14.601  1.00  0.00     0.000 C 
BRANCH  13  14
ATOM     14  C   UNL     1       2.657  -0.916  14.510  1.00  0.00     0.002 C 
BRANCH  14  15
ATOM     15  C   UNL     1       3.247  -2.013  15.412  1.00  0.00     0.028 C 
BRANCH  15  16
ATOM     16  C   UNL     1       2.613  -2.007  16.807  1.00  0.00     0.156 C 
BRANCH  16  17
ATOM     17  O   UNL     1       2.999  -0.865  17.523  1.00  0.00    -0.396 OA
ATOM     18  H   UNL     1       2.903  -0.091  16.909  1.00  0.00     0.210 HD
ENDBRANCH  16  17
ENDBRANCH  15  16
ENDBRANCH  14  15
ENDBRANCH  13  14
ENDBRANCH  12  13
ENDBRANCH  11  12
ENDBRANCH  10  11
ENDBRANCH   1  10
TORSDOF 15
ENDMDL
MODEL 6
REMARK VINA RESULT:    -5.008      1.286      2.162
REMARK INTER + INTRA:         -10.329
REMARK INTER:                  -9.450
REMARK INTRA:                  -0.879
REMARK UNBOUND:                -1.075
REMARK SMILES CCCCCCCCCCCCCCCCO
REMARK SMILES IDX 9 1 8 2 7 3 6 4 5 5 4 6 3 7 2 8 1 9 10 10 11 11 12 12 13 13
REMARK SMILES IDX 14 14 15 15 16 16 17 17
REMARK H PARENT 17 18
REMARK Flexibility Score: inf
ROOT
ATOM      1  C   UNL     1      -2.023   0.195  13.580  1.00  0.00     0.000 C 
ENDROOT
BRANCH   1   2
ATOM      2  C   UNL     1      -1.307   1.511  13.222  1.00  0.00    -0.000 C 
BRANCH   2   3
ATOM      3  C   UNL     1      -0.445   1.456  11.948  1.00  0.00    -0.000 C 
BRANCH   3   4
ATOM      4  C   UNL     1      -1.037   2.185  10.722  1.00  0.00    -0.000 C 
BRANCH   4   5
ATOM      5  C   UNL     1      -0.152   3.300  10.135  1.00  0.00    -0.000 C 
BRANCH   5   6
ATOM      6  C   UNL     1       1.041   3.714  11.017  1.00  0.00    -0.000 C 
BRANCH   6   7
ATOM      7  C   UNL     1       1.155   5.239  11.232  1.00  0.00    -0.000 C 
BRANCH   7   8
ATOM      8  C   UNL     1       2.444   5.822  10.634  1.00  0.00    -0.003 C 
ATOM      9  C   UNL     1       3.614   5.681  11.602  1.00  0.00     0.004 C 
ENDBRANCH   7   8
ENDBRANCH   6   7
ENDBRANCH   5   6
ENDBRANCH   4   5
ENDBRANCH   3   4
ENDBRANCH   2   3
ENDBRANCH   1   2
BRANCH   1  10
ATOM     10  C   UNL     1      -1.248  -0.679  14.590  1.00  0.00     0.000 C 
BRANCH  10  11
ATOM     11  C   UNL     1      -0.262   0.138  15.440  1.00  0.00     0.000 C 
BRANCH  11  12
ATOM     12  C   UNL     1       1.180  -0.066  14.958  1.00  0.00     0.000 C 
BRANCH  12  13
ATOM     13  C   UNL     1       1.284  -1.295  14.043  1.00  0.00     0.000 C 
BRANCH  13  14
ATOM     14  C   UNL     1       2.675  -1.948  14.082  1.00  0.00     0.002 C 
BRANCH  14  15
ATOM     15  C   UNL     1       2.985  -2.597  15.441  1.00  0.00     0.028 C 
BRANCH  15  16
ATOM     16  C   UNL     1       2.481  -4.042  15.512  1.00  0.00     0.156 C 
BRANCH  16  17
ATOM     17  O   UNL     1       2.388  -4.599  14.228  1.00  0.00    -0.396 OA
ATOM     18  H   UNL     1       1.970  -3.913  13.644  1.00  0.00     0.210 HD
ENDBRANCH  16  17
ENDBRANCH  15  16
ENDBRANCH  14  15
ENDBRANCH  13  14
ENDBRANCH  12  13
ENDBRANCH  11  12
ENDBRANCH  10  11
ENDBRANCH   1  10
TORSDOF 15
ENDMDL
MODEL 7
REMARK VINA RESULT:    -4.900      2.688      3.519
REMARK INTER + INTRA:         -10.128
REMARK INTER:                  -8.178
REMARK INTRA:                  -1.950
REMARK UNBOUND:                -1.075
REMARK SMILES CCCCCCCCCCCCCCCCO
REMARK SMILES IDX 9 1 8 2 7 3 6 4 5 5 4 6 3 7 2 8 1 9 10 10 11 11 12 12 13 13
REMARK SMILES IDX 14 14 15 15 16 16 17 17
REMARK H PARENT 17 18
REMARK Flexibility Score: inf
ROOT
ATOM      1  C   UNL     1      -2.371   4.328  10.441  1.00  0.00     0.000 C 
ENDROOT
BRANCH   1   2
ATOM      2  C   UNL     1      -2.565   3.313   9.299  1.00  0.00    -0.000 C 
BRANCH   2   3
ATOM      3  C   UNL     1      -1.689   3.556   8.057  1.00  0.00    -0.000 C 
BRANCH   3   4
ATOM      4  C   UNL     1      -0.175   3.340   8.270  1.00  0.00    -0.000 C 
BRANCH   4   5
ATOM      5  C   UNL     1       0.697   4.595   8.082  1.00  0.00    -0.000 C 
BRANCH   5   6
ATOM      6  C   UNL     1       1.670   4.890   9.239  1.00  0.00    -0.000 C 
BRANCH   6   7
ATOM      7  C   UNL     1       1.156   5.958  10.228  1.00  0.00    -0.000 C 
BRANCH   7   8
ATOM      8  C   UNL     1       1.943   5.966  11.546  1.00  0.00    -0.003 C 
ATOM      9  C   UNL     1       3.428   5.713  11.304  1.00  0.00     0.004 C 
ENDBRANCH   7   8
ENDBRANCH   6   7
ENDBRANCH   5   6
ENDBRANCH   4   5
ENDBRANCH   3   4
ENDBRANCH   2   3
ENDBRANCH   1   2
BRANCH   1  10
ATOM     10  C   UNL     1      -2.354   3.689  11.846  1.00  0.00     0.000 C 
BRANCH  10  11
ATOM     11  C   UNL     1      -0.955   3.701  12.480  1.00  0.00     0.000 C 
BRANCH  11  12
ATOM     12  C   UNL     1      -0.039   2.667  11.812  1.00  0.00     0.000 C 
BRANCH  12  13
ATOM     13  C   UNL     1      -0.508   1.238  12.120  1.00  0.00     0.000 C 
BRANCH  13  14
ATOM     14  C   UNL     1      -0.121   0.779  13.535  1.00  0.00     0.002 C 
BRANCH  14  15
ATOM     15  C   UNL     1      -1.298   0.141  14.291  1.00  0.00     0.028 C 
BRANCH  15  16
ATOM     16  C   UNL     1      -2.610   0.259  13.511  1.00  0.00     0.156 C 
BRANCH  16  17
ATOM     17  O   UNL     1      -3.148  -1.009  13.249  1.00  0.00    -0.396 OA
ATOM     18  H   UNL     1      -3.471  -1.372  14.116  1.00  0.00     0.210 HD
ENDBRANCH  16  17
ENDBRANCH  15  16
ENDBRANCH  14  15
ENDBRANCH  13  14
ENDBRANCH  12  13
ENDBRANCH  11  12
ENDBRANCH  10  11
ENDBRANCH   1  10
TORSDOF 15
ENDMDL
MODEL 8
REMARK VINA RESULT:    -4.867      5.235      7.913
REMARK INTER + INTRA:         -10.069
REMARK INTER:                  -8.606
REMARK INTRA:                  -1.463
REMARK UNBOUND:                -1.075
REMARK SMILES CCCCCCCCCCCCCCCCO
REMARK SMILES IDX 9 1 8 2 7 3 6 4 5 5 4 6 3 7 2 8 1 9 10 10 11 11 12 12 13 13
REMARK SMILES IDX 14 14 15 15 16 16 17 17
REMARK H PARENT 17 18
REMARK Flexibility Score: inf
ROOT
ATOM      1  C   UNL     1      -0.684   5.033   8.056  1.00  0.00     0.000 C 
ENDROOT
BRANCH   1   2
ATOM      2  C   UNL     1      -1.097   4.712   9.504  1.00  0.00    -0.000 C 
BRANCH   2   3
ATOM      3  C   UNL     1      -0.896   3.246   9.928  1.00  0.00    -0.000 C 
BRANCH   3   4
ATOM      4  C   UNL     1       0.349   2.980  10.802  1.00  0.00    -0.000 C 
BRANCH   4   5
ATOM      5  C   UNL     1       1.061   4.241  11.324  1.00  0.00    -0.000 C 
BRANCH   5   6
ATOM      6  C   UNL     1       2.392   4.573  10.623  1.00  0.00    -0.000 C 
BRANCH   6   7
ATOM      7  C   UNL     1       3.198   5.693  11.315  1.00  0.00    -0.000 C 
BRANCH   7   8
ATOM      8  C   UNL     1       2.339   6.926  11.630  1.00  0.00    -0.003 C 
ATOM      9  C   UNL     1       2.027   7.719  10.365  1.00  0.00     0.004 C 
ENDBRANCH   7   8
ENDBRANCH   6   7
ENDBRANCH   5   6
ENDBRANCH   4   5
ENDBRANCH   3   4
ENDBRANCH   2   3
ENDBRANCH   1   2
BRANCH   1  10
ATOM     10  C   UNL     1       0.302   4.012   7.449  1.00  0.00     0.000 C 
BRANCH  10  11
ATOM     11  C   UNL     1      -0.232   3.374   6.157  1.00  0.00     0.000 C 
BRANCH  11  12
ATOM     12  C   UNL     1      -1.366   2.386   6.458  1.00  0.00     0.000 C 
BRANCH  12  13
ATOM     13  C   UNL     1      -2.158   2.054   5.185  1.00  0.00     0.000 C 
BRANCH  13  14
ATOM     14  C   UNL     1      -2.783   3.298   4.535  1.00  0.00     0.002 C 
BRANCH  14  15
ATOM     15  C   UNL     1      -3.677   4.086   5.506  1.00  0.00     0.028 C 
BRANCH  15  16
ATOM     16  C   UNL     1      -3.310   5.573   5.541  1.00  0.00     0.156 C 
BRANCH  16  17
ATOM     17  O   UNL     1      -2.499   5.910   4.448  1.00  0.00    -0.396 OA
ATOM     18  H   UNL     1      -1.558   5.881   4.765  1.00  0.00     0.210 HD
ENDBRANCH  16  17
ENDBRANCH  15  16
ENDBRANCH  14  15
ENDBRANCH  13  14
ENDBRANCH  12  13
ENDBRANCH  11  12
ENDBRANCH  10  11
ENDBRANCH   1  10
TORSDOF 15
ENDMDL
MODEL 9
REMARK VINA RESULT:    -4.682      4.798      7.942
REMARK INTER + INTRA:          -9.726
REMARK INTER:                  -8.583
REMARK INTRA:                  -1.143
REMARK UNBOUND:                -1.075
REMARK SMILES CCCCCCCCCCCCCCCCO
REMARK SMILES IDX 9 1 8 2 7 3 6 4 5 5 4 6 3 7 2 8 1 9 10 10 11 11 12 12 13 13
REMARK SMILES IDX 14 14 15 15 16 16 17 17
REMARK H PARENT 17 18
REMARK Flexibility Score: inf
ROOT
ATOM      1  C   UNL     1      -2.295   0.006  15.672  1.00  0.00     0.000 C 
ENDROOT
BRANCH   1   2
ATOM      2  C   UNL     1      -1.478  -0.185  16.964  1.00  0.00    -0.000 C 
BRANCH   2   3
ATOM      3  C   UNL     1      -1.900   0.716  18.139  1.00  0.00    -0.000 C 
BRANCH   3   4
ATOM      4  C   UNL     1      -3.356   1.226  18.085  1.00  0.00    -0.000 C 
BRANCH   4   5
ATOM      5  C   UNL     1      -4.380   0.358  18.839  1.00  0.00    -0.000 C 
BRANCH   5   6
ATOM      6  C   UNL     1      -3.790  -0.513  19.964  1.00  0.00    -0.000 C 
BRANCH   6   7
ATOM      7  C   UNL     1      -3.710   0.204  21.329  1.00  0.00    -0.000 C 
BRANCH   7   8
ATOM      8  C   UNL     1      -4.757   1.318  21.471  1.00  0.00    -0.003 C 
ATOM      9  C   UNL     1      -4.251   2.440  22.372  1.00  0.00     0.004 C 
ENDBRANCH   7   8
ENDBRANCH   6   7
ENDBRANCH   5   6
ENDBRANCH   4   5
ENDBRANCH   3   4
ENDBRANCH   2   3
ENDBRANCH   1   2
BRANCH   1  10
ATOM     10  C   UNL     1      -1.571  -0.483  14.400  1.00  0.00     0.000 C 
BRANCH  10  11
ATOM     11  C   UNL     1      -0.701   0.611  13.761  1.00  0.00     0.000 C 
BRANCH  11  12
ATOM     12  C   UNL     1       0.790   0.324  13.976  1.00  0.00     0.000 C 
BRANCH  12  13
ATOM     13  C   UNL     1       1.017  -1.146  14.357  1.00  0.00     0.000 C 
BRANCH  13  14
ATOM     14  C   UNL     1       2.035  -1.313  15.496  1.00  0.00     0.002 C 
BRANCH  14  15
ATOM     15  C   UNL     1       3.117  -2.356  15.173  1.00  0.00     0.028 C 
BRANCH  15  16
ATOM     16  C   UNL     1       2.727  -3.755  15.661  1.00  0.00     0.156 C 
BRANCH  16  17
ATOM     17  O   UNL     1       2.348  -4.568  14.583  1.00  0.00    -0.396 OA
ATOM     18  H   UNL     1       1.941  -3.973  13.900  1.00  0.00     0.210 HD
ENDBRANCH  16  17
ENDBRANCH  15  16
ENDBRANCH  14  15
ENDBRANCH  13  14
ENDBRANCH  12  13
ENDBRANCH  11  12
ENDBRANCH  10  11
ENDBRANCH   1  10
TORSDOF 15
ENDMDL
