MODEL 1
REMARK VINA RESULT:    -5.112      0.000      0.000
REMARK INTER + INTRA:          -8.744
REMARK INTER:                  -7.951
REMARK INTRA:                  -0.793
REMARK UNBOUND:                -0.793
REMARK SMILES COc1cc(CNC(=O)CCCCC=CC(C)C)ccc1O
REMARK SMILES IDX 11 1 12 2 13 3 14 4 15 5 16 6 17 7 18 8 10 9 8 10 9 11 7 12
REMARK SMILES IDX 6 14 5 15 4 16 19 17 3 18 20 19 21 20 2 21 1 22 22 23
REMARK H PARENT 7 13 22 24
REMARK Flexibility Score: inf
ROOT
ATOM      1  C   UNL     1     -10.529  44.535   9.060  1.00  0.00     0.010 C 
ENDROOT
BRANCH   1   2
ATOM      2  C   UNL     1      -9.118  44.672   8.479  1.00  0.00     0.005 C 
BRANCH   2   3
ATOM      3  C   UNL     1      -8.215  45.485   9.415  1.00  0.00     0.027 C 
BRANCH   3   4
ATOM      4  C   UNL     1      -9.000  46.550  10.135  1.00  0.00    -0.031 C 
ATOM      5  C   UNL     1      -9.134  47.822   9.713  1.00  0.00    -0.028 C 
BRANCH   5   6
ATOM      6  C   UNL     1      -8.454  48.406   8.493  1.00  0.00     0.005 C 
ATOM      7  C   UNL     1      -6.996  48.741   8.822  1.00  0.00     0.012 C 
ATOM      8  C   UNL     1      -9.203  49.659   8.029  1.00  0.00     0.012 C 
ENDBRANCH   5   6
ENDBRANCH   3   4
ENDBRANCH   2   3
ENDBRANCH   1   2
BRANCH   1   9
ATOM      9  C   UNL     1     -11.277  43.362   8.421  1.00  0.00     0.100 C 
BRANCH   9  10
ATOM     10  C   UNL     1     -12.554  43.092   9.159  1.00  0.00     0.220 C 
ATOM     11  O   UNL     1     -13.154  41.997   8.980  1.00  0.00    -0.275 OA
ATOM     12  N   UNL     1     -13.059  44.051  10.099  1.00  0.00    -0.352 N 
ATOM     13  H   UNL     1     -12.517  44.930  10.269  1.00  0.00     0.163 HD
BRANCH  12  14
ATOM     14  C   UNL     1     -14.291  43.837  10.853  1.00  0.00     0.151 C 
BRANCH  14  15
ATOM     15  C   UNL     1     -15.339  44.832  10.433  1.00  0.00    -0.025 A 
ATOM     16  C   UNL     1     -16.106  45.497  11.403  1.00  0.00     0.056 A 
ATOM     17  C   UNL     1     -15.542  45.124   9.076  1.00  0.00     0.009 A 
ATOM     18  C   UNL     1     -17.077  46.445  11.025  1.00  0.00     0.160 A 
ATOM     19  C   UNL     1     -16.502  46.061   8.694  1.00  0.00     0.050 A 
ATOM     20  C   UNL     1     -17.271  46.722   9.658  1.00  0.00     0.157 A 
BRANCH  18  21
ATOM     21  O   UNL     1     -17.858  47.127  11.972  1.00  0.00    -0.493 OA
ATOM     22  C   UNL     1     -19.058  46.619  12.546  1.00  0.00     0.278 C 
ENDBRANCH  18  21
BRANCH  20  23
ATOM     23  O   UNL     1     -18.223  47.650   9.239  1.00  0.00    -0.504 OA
ATOM     24  H   UNL     1     -18.379  48.523   9.729  1.00  0.00     0.293 HD
ENDBRANCH  20  23
ENDBRANCH  14  15
ENDBRANCH  12  14
ENDBRANCH   9  10
ENDBRANCH   1   9
TORSDOF 10
ENDMDL
MODEL 2
REMARK VINA RESULT:    -5.101      3.594      5.678
REMARK INTER + INTRA:          -8.727
REMARK INTER:                  -7.701
REMARK INTRA:                  -1.026
REMARK UNBOUND:                -0.793
REMARK SMILES COc1cc(CNC(=O)CCCCC=CC(C)C)ccc1O
REMARK SMILES IDX 11 1 12 2 13 3 14 4 15 5 16 6 17 7 18 8 10 9 8 10 9 11 7 12
REMARK SMILES IDX 6 14 5 15 4 16 19 17 3 18 20 19 21 20 2 21 1 22 22 23
REMARK H PARENT 7 13 22 24
REMARK Flexibility Score: inf
ROOT
ATOM      1  C   UNL     1      -8.690  47.439   9.388  1.00  0.00     0.010 C 
ENDROOT
BRANCH   1   2
ATOM      2  C   UNL     1      -7.931  48.399   8.466  1.00  0.00     0.005 C 
BRANCH   2   3
ATOM      3  C   UNL     1      -8.875  49.453   7.873  1.00  0.00     0.027 C 
BRANCH   3   4
ATOM      4  C   UNL     1      -8.620  50.809   8.478  1.00  0.00    -0.031 C 
ATOM      5  C   UNL     1      -9.443  51.429   9.346  1.00  0.00    -0.028 C 
BRANCH   5   6
ATOM      6  C   UNL     1     -10.790  50.900   9.791  1.00  0.00     0.005 C 
ATOM      7  C   UNL     1     -11.760  52.065  10.005  1.00  0.00     0.012 C 
ATOM      8  C   UNL     1     -10.630  50.088  11.080  1.00  0.00     0.012 C 
ENDBRANCH   5   6
ENDBRANCH   3   4
ENDBRANCH   2   3
ENDBRANCH   1   2
BRANCH   1   9
ATOM      9  C   UNL     1      -7.767  46.338   9.918  1.00  0.00     0.100 C 
BRANCH   9  10
ATOM     10  C   UNL     1      -8.127  45.016   9.310  1.00  0.00     0.220 C 
ATOM     11  O   UNL     1      -7.460  43.991   9.615  1.00  0.00    -0.275 OA
ATOM     12  N   UNL     1      -9.254  44.913   8.427  1.00  0.00    -0.352 N 
ATOM     13  H   UNL     1      -9.824  45.767   8.229  1.00  0.00     0.163 HD
BRANCH  12  14
ATOM     14  C   UNL     1      -9.657  43.650   7.814  1.00  0.00     0.151 C 
BRANCH  14  15
ATOM     15  C   UNL     1     -10.982  43.201   8.367  1.00  0.00    -0.025 A 
ATOM     16  C   UNL     1     -11.505  41.948   8.010  1.00  0.00     0.056 A 
ATOM     17  C   UNL     1     -11.693  44.014   9.263  1.00  0.00     0.009 A 
ATOM     18  C   UNL     1     -12.735  41.507   8.536  1.00  0.00     0.160 A 
ATOM     19  C   UNL     1     -12.912  43.584   9.787  1.00  0.00     0.050 A 
ATOM     20  C   UNL     1     -13.438  42.338   9.429  1.00  0.00     0.157 A 
BRANCH  18  21
ATOM     21  O   UNL     1     -13.283  40.258   8.199  1.00  0.00    -0.493 OA
ATOM     22  C   UNL     1     -12.981  39.539   7.009  1.00  0.00     0.278 C 
ENDBRANCH  18  21
BRANCH  20  23
ATOM     23  O   UNL     1     -14.660  41.943   9.972  1.00  0.00    -0.504 OA
ATOM     24  H   UNL     1     -15.148  42.498  10.665  1.00  0.00     0.293 HD
ENDBRANCH  20  23
ENDBRANCH  14  15
ENDBRANCH  12  14
ENDBRANCH   9  10
ENDBRANCH   1   9
TORSDOF 10
ENDMDL
MODEL 3
REMARK VINA RESULT:    -5.081      3.227      7.033
REMARK INTER + INTRA:          -8.696
REMARK INTER:                  -7.837
REMARK INTRA:                  -0.859
REMARK UNBOUND:                -0.793
REMARK SMILES COc1cc(CNC(=O)CCCCC=CC(C)C)ccc1O
REMARK SMILES IDX 11 1 12 2 13 3 14 4 15 5 16 6 17 7 18 8 10 9 8 10 9 11 7 12
REMARK SMILES IDX 6 14 5 15 4 16 19 17 3 18 20 19 21 20 2 21 1 22 22 23
REMARK H PARENT 7 13 22 24
REMARK Flexibility Score: inf
ROOT
ATOM      1  C   UNL     1     -11.331  43.947   8.833  1.00  0.00     0.010 C 
ENDROOT
BRANCH   1   2
ATOM      2  C   UNL     1     -12.496  43.149   8.239  1.00  0.00     0.005 C 
BRANCH   2   3
ATOM      3  C   UNL     1     -13.548  42.832   9.310  1.00  0.00     0.027 C 
BRANCH   3   4
ATOM      4  C   UNL     1     -13.710  43.985  10.267  1.00  0.00    -0.031 C 
ATOM      5  C   UNL     1     -14.800  44.772  10.342  1.00  0.00    -0.028 C 
BRANCH   5   6
ATOM      6  C   UNL     1     -16.002  44.678   9.427  1.00  0.00     0.005 C 
ATOM      7  C   UNL     1     -16.242  46.027   8.745  1.00  0.00     0.012 C 
ATOM      8  C   UNL     1     -17.235  44.252  10.230  1.00  0.00     0.012 C 
ENDBRANCH   5   6
ENDBRANCH   3   4
ENDBRANCH   2   3
ENDBRANCH   1   2
BRANCH   1   9
ATOM      9  C   UNL     1      -9.989  43.456   8.282  1.00  0.00     0.100 C 
BRANCH   9  10
ATOM     10  C   UNL     1      -8.899  44.427   8.620  1.00  0.00     0.220 C 
ATOM     11  O   UNL     1      -7.718  44.008   8.764  1.00  0.00    -0.275 OA
ATOM     12  N   UNL     1      -9.191  45.828   8.730  1.00  0.00    -0.352 N 
ATOM     13  H   UNL     1     -10.168  46.158   8.556  1.00  0.00     0.163 HD
BRANCH  12  14
ATOM     14  C   UNL     1      -8.167  46.820   9.047  1.00  0.00     0.151 C 
BRANCH  14  15
ATOM     15  C   UNL     1      -8.781  48.191   9.139  1.00  0.00    -0.025 A 
ATOM     16  C   UNL     1      -9.586  48.529  10.238  1.00  0.00     0.056 A 
ATOM     17  C   UNL     1      -8.534  49.151   8.145  1.00  0.00     0.009 A 
ATOM     18  C   UNL     1     -10.151  49.815  10.347  1.00  0.00     0.160 A 
ATOM     19  C   UNL     1      -9.091  50.426   8.246  1.00  0.00     0.050 A 
ATOM     20  C   UNL     1      -9.898  50.763   9.337  1.00  0.00     0.157 A 
BRANCH  18  21
ATOM     21  O   UNL     1     -10.959  50.182  11.434  1.00  0.00    -0.493 OA
ATOM     22  C   UNL     1     -11.353  49.302  12.482  1.00  0.00     0.278 C 
ENDBRANCH  18  21
BRANCH  20  23
ATOM     23  O   UNL     1     -10.439  52.047   9.402  1.00  0.00    -0.504 OA
ATOM     24  H   UNL     1     -11.191  52.347   8.795  1.00  0.00     0.293 HD
ENDBRANCH  20  23
ENDBRANCH  14  15
ENDBRANCH  12  14
ENDBRANCH   9  10
ENDBRANCH   1   9
TORSDOF 10
ENDMDL
MODEL 4
REMARK VINA RESULT:    -5.076      3.252      7.531
REMARK INTER + INTRA:          -8.687
REMARK INTER:                  -7.727
REMARK INTRA:                  -0.961
REMARK UNBOUND:                -0.793
REMARK SMILES COc1cc(CNC(=O)CCCCC=CC(C)C)ccc1O
REMARK SMILES IDX 11 1 12 2 13 3 14 4 15 5 16 6 17 7 18 8 10 9 8 10 9 11 7 12
REMARK SMILES IDX 6 14 5 15 4 16 19 17 3 18 20 19 21 20 2 21 1 22 22 23
REMARK H PARENT 7 13 22 24
REMARK Flexibility Score: inf
ROOT
ATOM      1  C   UNL     1     -12.192  43.310   8.206  1.00  0.00     0.010 C 
ENDROOT
BRANCH   1   2
ATOM      2  C   UNL     1     -12.864  42.036   8.728  1.00  0.00     0.005 C 
BRANCH   2   3
ATOM      3  C   UNL     1     -13.899  42.365   9.812  1.00  0.00     0.027 C 
BRANCH   3   4
ATOM      4  C   UNL     1     -13.679  43.748  10.367  1.00  0.00    -0.031 C 
ATOM      5  C   UNL     1     -14.594  44.736  10.348  1.00  0.00    -0.028 C 
BRANCH   5   6
ATOM      6  C   UNL     1     -15.957  44.642   9.696  1.00  0.00     0.005 C 
ATOM      7  C   UNL     1     -16.138  45.793   8.703  1.00  0.00     0.012 C 
ATOM      8  C   UNL     1     -17.051  44.679  10.768  1.00  0.00     0.012 C 
ENDBRANCH   5   6
ENDBRANCH   3   4
ENDBRANCH   2   3
ENDBRANCH   1   2
BRANCH   1   9
ATOM      9  C   UNL     1     -10.711  43.067   7.902  1.00  0.00     0.100 C 
BRANCH   9  10
ATOM     10  C   UNL     1      -9.849  43.802   8.885  1.00  0.00     0.220 C 
ATOM     11  O   UNL     1      -9.832  43.434  10.091  1.00  0.00    -0.275 OA
ATOM     12  N   UNL     1      -9.014  44.882   8.443  1.00  0.00    -0.352 N 
ATOM     13  H   UNL     1      -9.007  45.136   7.428  1.00  0.00     0.163 HD
BRANCH  12  14
ATOM     14  C   UNL     1      -8.148  45.627   9.353  1.00  0.00     0.151 C 
BRANCH  14  15
ATOM     15  C   UNL     1      -8.617  47.052   9.470  1.00  0.00    -0.025 A 
ATOM     16  C   UNL     1      -8.238  47.998   8.505  1.00  0.00     0.056 A 
ATOM     17  C   UNL     1      -9.456  47.442  10.525  1.00  0.00     0.009 A 
ATOM     18  C   UNL     1      -8.685  49.331   8.592  1.00  0.00     0.160 A 
ATOM     19  C   UNL     1      -9.902  48.760  10.617  1.00  0.00     0.050 A 
ATOM     20  C   UNL     1      -9.522  49.707   9.660  1.00  0.00     0.157 A 
BRANCH  18  21
ATOM     21  O   UNL     1      -8.323  50.300   7.642  1.00  0.00    -0.493 OA
ATOM     22  C   UNL     1      -7.087  51.004   7.636  1.00  0.00     0.278 C 
ENDBRANCH  18  21
BRANCH  20  23
ATOM     23  O   UNL     1      -9.986  51.015   9.787  1.00  0.00    -0.504 OA
ATOM     24  H   UNL     1      -9.540  51.690  10.396  1.00  0.00     0.293 HD
ENDBRANCH  20  23
ENDBRANCH  14  15
ENDBRANCH  12  14
ENDBRANCH   9  10
ENDBRANCH   1   9
TORSDOF 10
ENDMDL
MODEL 5
REMARK VINA RESULT:    -5.020      3.194      4.984
REMARK INTER + INTRA:          -8.601
REMARK INTER:                  -7.541
REMARK INTRA:                  -1.060
REMARK UNBOUND:                -0.793
REMARK SMILES COc1cc(CNC(=O)CCCCC=CC(C)C)ccc1O
REMARK SMILES IDX 11 1 12 2 13 3 14 4 15 5 16 6 17 7 18 8 10 9 8 10 9 11 7 12
REMARK SMILES IDX 6 14 5 15 4 16 19 17 3 18 20 19 21 20 2 21 1 22 22 23
REMARK H PARENT 7 13 22 24
REMARK Flexibility Score: inf
ROOT
ATOM      1  C   UNL     1      -8.738  47.336   9.343  1.00  0.00     0.010 C 
ENDROOT
BRANCH   1   2
ATOM      2  C   UNL     1      -8.046  48.362   8.438  1.00  0.00     0.005 C 
BRANCH   2   3
ATOM      3  C   UNL     1      -9.045  49.409   7.930  1.00  0.00     0.027 C 
BRANCH   3   4
ATOM      4  C   UNL     1      -8.736  50.771   8.496  1.00  0.00    -0.031 C 
ATOM      5  C   UNL     1      -9.527  51.443   9.355  1.00  0.00    -0.028 C 
BRANCH   5   6
ATOM      6  C   UNL     1     -10.886  50.975   9.827  1.00  0.00     0.005 C 
ATOM      7  C   UNL     1     -11.816  52.178  10.006  1.00  0.00     0.012 C 
ATOM      8  C   UNL     1     -10.744  50.203  11.142  1.00  0.00     0.012 C 
ENDBRANCH   5   6
ENDBRANCH   3   4
ENDBRANCH   2   3
ENDBRANCH   1   2
BRANCH   1   9
ATOM      9  C   UNL     1      -7.762  46.241   9.780  1.00  0.00     0.100 C 
BRANCH   9  10
ATOM     10  C   UNL     1      -8.210  44.906   9.264  1.00  0.00     0.220 C 
ATOM     11  O   UNL     1      -7.697  43.855   9.736  1.00  0.00    -0.275 OA
ATOM     12  N   UNL     1      -9.249  44.828   8.277  1.00  0.00    -0.352 N 
ATOM     13  H   UNL     1      -9.695  45.711   7.938  1.00  0.00     0.163 HD
BRANCH  12  14
ATOM     14  C   UNL     1      -9.731  43.556   7.746  1.00  0.00     0.151 C 
BRANCH  14  15
ATOM     15  C   UNL     1     -11.035  43.180   8.395  1.00  0.00    -0.025 A 
ATOM     16  C   UNL     1     -11.663  44.073   9.279  1.00  0.00     0.056 A 
ATOM     17  C   UNL     1     -11.649  41.952   8.106  1.00  0.00     0.009 A 
ATOM     18  C   UNL     1     -12.894  43.742   9.879  1.00  0.00     0.160 A 
ATOM     19  C   UNL     1     -12.867  41.618   8.698  1.00  0.00     0.050 A 
ATOM     20  C   UNL     1     -13.492  42.503   9.582  1.00  0.00     0.157 A 
BRANCH  18  21
ATOM     21  O   UNL     1     -13.546  44.614  10.766  1.00  0.00    -0.493 OA
ATOM     22  C   UNL     1     -13.086  44.928  12.076  1.00  0.00     0.278 C 
ENDBRANCH  18  21
BRANCH  20  23
ATOM     23  O   UNL     1     -14.708  42.134  10.155  1.00  0.00    -0.504 OA
ATOM     24  H   UNL     1     -15.152  42.684  10.881  1.00  0.00     0.293 HD
ENDBRANCH  20  23
ENDBRANCH  14  15
ENDBRANCH  12  14
ENDBRANCH   9  10
ENDBRANCH   1   9
TORSDOF 10
ENDMDL
MODEL 6
REMARK VINA RESULT:    -5.003      3.442      6.566
REMARK INTER + INTRA:          -8.574
REMARK INTER:                  -7.358
REMARK INTRA:                  -1.216
REMARK UNBOUND:                -0.793
REMARK SMILES COc1cc(CNC(=O)CCCCC=CC(C)C)ccc1O
REMARK SMILES IDX 11 1 12 2 13 3 14 4 15 5 16 6 17 7 18 8 10 9 8 10 9 11 7 12
REMARK SMILES IDX 6 14 5 15 4 16 19 17 3 18 20 19 21 20 2 21 1 22 22 23
REMARK H PARENT 7 13 22 24
REMARK Flexibility Score: inf
ROOT
ATOM      1  C   UNL     1      -9.852  44.137   8.336  1.00  0.00     0.010 C 
ENDROOT
BRANCH   1   2
ATOM      2  C   UNL     1     -10.413  42.715   8.231  1.00  0.00     0.005 C 
BRANCH   2   3
ATOM      3  C   UNL     1     -11.839  42.726   7.666  1.00  0.00     0.027 C 
BRANCH   3   4
ATOM      4  C   UNL     1     -12.797  42.035   8.602  1.00  0.00    -0.031 C 
ATOM      5  C   UNL     1     -13.594  42.666   9.485  1.00  0.00    -0.028 C 
BRANCH   5   6
ATOM      6  C   UNL     1     -13.600  44.159   9.736  1.00  0.00     0.005 C 
ATOM      7  C   UNL     1     -12.771  44.479  10.983  1.00  0.00     0.012 C 
ATOM      8  C   UNL     1     -15.039  44.654   9.904  1.00  0.00     0.012 C 
ENDBRANCH   5   6
ENDBRANCH   3   4
ENDBRANCH   2   3
ENDBRANCH   1   2
BRANCH   1   9
ATOM      9  C   UNL     1      -8.701  44.203   9.343  1.00  0.00     0.100 C 
BRANCH   9  10
ATOM     10  C   UNL     1      -8.156  45.597   9.423  1.00  0.00     0.220 C 
ATOM     11  O   UNL     1      -7.144  45.828  10.140  1.00  0.00    -0.275 OA
ATOM     12  N   UNL     1      -8.753  46.648   8.650  1.00  0.00    -0.352 N 
ATOM     13  H   UNL     1      -9.560  46.424   8.024  1.00  0.00     0.163 HD
BRANCH  12  14
ATOM     14  C   UNL     1      -8.258  48.023   8.681  1.00  0.00     0.151 C 
BRANCH  14  15
ATOM     15  C   UNL     1      -9.231  48.911   9.408  1.00  0.00    -0.025 A 
ATOM     16  C   UNL     1      -9.625  48.598  10.719  1.00  0.00     0.056 A 
ATOM     17  C   UNL     1      -9.733  50.070   8.797  1.00  0.00     0.009 A 
ATOM     18  C   UNL     1     -10.520  49.431  11.418  1.00  0.00     0.160 A 
ATOM     19  C   UNL     1     -10.620  50.899   9.483  1.00  0.00     0.050 A 
ATOM     20  C   UNL     1     -11.018  50.587  10.787  1.00  0.00     0.157 A 
BRANCH  18  21
ATOM     21  O   UNL     1     -10.931  49.144  12.730  1.00  0.00    -0.493 OA
ATOM     22  C   UNL     1     -11.857  48.122  13.082  1.00  0.00     0.278 C 
ENDBRANCH  18  21
BRANCH  20  23
ATOM     23  O   UNL     1     -11.908  51.438  11.441  1.00  0.00    -0.504 OA
ATOM     24  H   UNL     1     -11.984  51.467  12.451  1.00  0.00     0.293 HD
ENDBRANCH  20  23
ENDBRANCH  14  15
ENDBRANCH  12  14
ENDBRANCH   9  10
ENDBRANCH   1   9
TORSDOF 10
ENDMDL
MODEL 7
REMARK VINA RESULT:    -4.996      1.131      1.530
REMARK INTER + INTRA:          -8.563
REMARK INTER:                  -7.806
REMARK INTRA:                  -0.756
REMARK UNBOUND:                -0.793
REMARK SMILES COc1cc(CNC(=O)CCCCC=CC(C)C)ccc1O
REMARK SMILES IDX 11 1 12 2 13 3 14 4 15 5 16 6 17 7 18 8 10 9 8 10 9 11 7 12
REMARK SMILES IDX 6 14 5 15 4 16 19 17 3 18 20 19 21 20 2 21 1 22 22 23
REMARK H PARENT 7 13 22 24
REMARK Flexibility Score: inf
ROOT
ATOM      1  C   UNL     1      -9.993  45.069   9.565  1.00  0.00     0.010 C 
ENDROOT
BRANCH   1   2
ATOM      2  C   UNL     1      -8.541  45.434   9.239  1.00  0.00     0.005 C 
BRANCH   2   3
ATOM      3  C   UNL     1      -8.223  46.869   9.680  1.00  0.00     0.027 C 
BRANCH   3   4
ATOM      4  C   UNL     1      -8.438  47.842   8.550  1.00  0.00    -0.031 C 
ATOM      5  C   UNL     1      -8.992  49.062   8.684  1.00  0.00    -0.028 C 
BRANCH   5   6
ATOM      6  C   UNL     1      -9.558  49.620   9.973  1.00  0.00     0.005 C 
ATOM      7  C   UNL     1     -10.674  50.621   9.660  1.00  0.00     0.012 C 
ATOM      8  C   UNL     1      -8.445  50.290  10.784  1.00  0.00     0.012 C 
ENDBRANCH   5   6
ENDBRANCH   3   4
ENDBRANCH   2   3
ENDBRANCH   1   2
BRANCH   1   9
ATOM      9  C   UNL     1     -10.581  44.142   8.497  1.00  0.00     0.100 C 
BRANCH   9  10
ATOM     10  C   UNL     1     -11.880  43.561   8.968  1.00  0.00     0.220 C 
ATOM     11  O   UNL     1     -12.302  42.489   8.454  1.00  0.00    -0.275 OA
ATOM     12  N   UNL     1     -12.610  44.195  10.028  1.00  0.00    -0.352 N 
ATOM     13  H   UNL     1     -12.215  45.055  10.473  1.00  0.00     0.163 HD
BRANCH  12  14
ATOM     14  C   UNL     1     -13.875  43.668  10.533  1.00  0.00     0.151 C 
BRANCH  14  15
ATOM     15  C   UNL     1     -15.001  44.610  10.202  1.00  0.00    -0.025 A 
ATOM     16  C   UNL     1     -15.827  45.104  11.224  1.00  0.00     0.056 A 
ATOM     17  C   UNL     1     -15.220  45.023   8.880  1.00  0.00     0.009 A 
ATOM     18  C   UNL     1     -16.873  46.002  10.931  1.00  0.00     0.160 A 
ATOM     19  C   UNL     1     -16.254  45.910   8.582  1.00  0.00     0.050 A 
ATOM     20  C   UNL     1     -17.082  46.401   9.597  1.00  0.00     0.157 A 
BRANCH  18  21
ATOM     21  O   UNL     1     -17.715  46.514  11.932  1.00  0.00    -0.493 OA
ATOM     22  C   UNL     1     -17.561  47.792  12.540  1.00  0.00     0.278 C 
ENDBRANCH  18  21
BRANCH  20  23
ATOM     23  O   UNL     1     -18.106  47.285   9.261  1.00  0.00    -0.504 OA
ATOM     24  H   UNL     1     -18.356  48.071   9.850  1.00  0.00     0.293 HD
ENDBRANCH  20  23
ENDBRANCH  14  15
ENDBRANCH  12  14
ENDBRANCH   9  10
ENDBRANCH   1   9
TORSDOF 10
ENDMDL
MODEL 8
REMARK VINA RESULT:    -4.892      2.057      3.676
REMARK INTER + INTRA:          -8.401
REMARK INTER:                  -7.508
REMARK INTRA:                  -0.893
REMARK UNBOUND:                -0.793
REMARK SMILES COc1cc(CNC(=O)CCCCC=CC(C)C)ccc1O
REMARK SMILES IDX 11 1 12 2 13 3 14 4 15 5 16 6 17 7 18 8 10 9 8 10 9 11 7 12
REMARK SMILES IDX 6 14 5 15 4 16 19 17 3 18 20 19 21 20 2 21 1 22 22 23
REMARK H PARENT 7 13 22 24
REMARK Flexibility Score: inf
ROOT
ATOM      1  C   UNL     1      -8.987  46.452   9.255  1.00  0.00     0.010 C 
ENDROOT
BRANCH   1   2
ATOM      2  C   UNL     1      -8.020  47.451   9.900  1.00  0.00     0.005 C 
BRANCH   2   3
ATOM      3  C   UNL     1      -7.520  48.474   8.872  1.00  0.00     0.027 C 
BRANCH   3   4
ATOM      4  C   UNL     1      -8.637  48.919   7.964  1.00  0.00    -0.031 C 
ATOM      5  C   UNL     1      -9.483  49.933   8.230  1.00  0.00    -0.028 C 
BRANCH   5   6
ATOM      6  C   UNL     1      -9.499  50.734   9.514  1.00  0.00     0.005 C 
ATOM      7  C   UNL     1     -10.641  50.252  10.413  1.00  0.00     0.012 C 
ATOM      8  C   UNL     1      -9.655  52.224   9.197  1.00  0.00     0.012 C 
ENDBRANCH   5   6
ENDBRANCH   3   4
ENDBRANCH   2   3
ENDBRANCH   1   2
BRANCH   1   9
ATOM      9  C   UNL     1      -8.350  45.065   9.138  1.00  0.00     0.100 C 
BRANCH   9  10
ATOM     10  C   UNL     1      -9.291  44.113   8.463  1.00  0.00     0.220 C 
ATOM     11  O   UNL     1      -8.831  43.230   7.688  1.00  0.00    -0.275 OA
ATOM     12  N   UNL     1     -10.698  44.177   8.737  1.00  0.00    -0.352 N 
ATOM     13  H   UNL     1     -11.051  44.884   9.422  1.00  0.00     0.163 HD
BRANCH  12  14
ATOM     14  C   UNL     1     -11.660  43.269   8.116  1.00  0.00     0.151 C 
BRANCH  14  15
ATOM     15  C   UNL     1     -12.919  43.203   8.937  1.00  0.00    -0.025 A 
ATOM     16  C   UNL     1     -13.749  44.331   9.043  1.00  0.00     0.056 A 
ATOM     17  C   UNL     1     -13.291  42.013   9.579  1.00  0.00     0.009 A 
ATOM     18  C   UNL     1     -14.941  44.278   9.793  1.00  0.00     0.160 A 
ATOM     19  C   UNL     1     -14.469  41.953  10.324  1.00  0.00     0.050 A 
ATOM     20  C   UNL     1     -15.294  43.077  10.436  1.00  0.00     0.157 A 
BRANCH  18  21
ATOM     21  O   UNL     1     -15.791  45.389   9.917  1.00  0.00    -0.493 OA
ATOM     22  C   UNL     1     -16.531  45.963   8.845  1.00  0.00     0.278 C 
ENDBRANCH  18  21
BRANCH  20  23
ATOM     23  O   UNL     1     -16.463  42.980  11.190  1.00  0.00    -0.504 OA
ATOM     24  H   UNL     1     -16.463  42.642  12.145  1.00  0.00     0.293 HD
ENDBRANCH  20  23
ENDBRANCH  14  15
ENDBRANCH  12  14
ENDBRANCH   9  10
ENDBRANCH   1   9
TORSDOF 10
ENDMDL
MODEL 9
REMARK VINA RESULT:    -4.837      2.281      7.439
REMARK INTER + INTRA:          -8.316
REMARK INTER:                  -7.041
REMARK INTRA:                  -1.275
REMARK UNBOUND:                -0.793
REMARK SMILES COc1cc(CNC(=O)CCCCC=CC(C)C)ccc1O
REMARK SMILES IDX 11 1 12 2 13 3 14 4 15 5 16 6 17 7 18 8 10 9 8 10 9 11 7 12
REMARK SMILES IDX 6 14 5 15 4 16 19 17 3 18 20 19 21 20 2 21 1 22 22 23
REMARK H PARENT 7 13 22 24
REMARK Flexibility Score: inf
ROOT
ATOM      1  C   UNL     1     -16.807  45.310   8.884  1.00  0.00     0.010 C 
ENDROOT
BRANCH   1   2
ATOM      2  C   UNL     1     -16.656  46.835   8.895  1.00  0.00     0.005 C 
BRANCH   2   3
ATOM      3  C   UNL     1     -17.963  47.514   9.322  1.00  0.00     0.027 C 
BRANCH   3   4
ATOM      4  C   UNL     1     -17.692  48.839   9.986  1.00  0.00    -0.031 C 
ATOM      5  C   UNL     1     -17.361  48.993  11.283  1.00  0.00    -0.028 C 
BRANCH   5   6
ATOM      6  C   UNL     1     -17.284  47.872  12.296  1.00  0.00     0.005 C 
ATOM      7  C   UNL     1     -18.173  48.197  13.499  1.00  0.00     0.012 C 
ATOM      8  C   UNL     1     -15.832  47.668  12.739  1.00  0.00     0.012 C 
ENDBRANCH   5   6
ENDBRANCH   3   4
ENDBRANCH   2   3
ENDBRANCH   1   2
BRANCH   1   9
ATOM      9  C   UNL     1     -17.018  44.766  10.299  1.00  0.00     0.100 C 
BRANCH   9  10
ATOM     10  C   UNL     1     -15.815  43.991  10.745  1.00  0.00     0.220 C 
ATOM     11  O   UNL     1     -15.881  42.733  10.819  1.00  0.00    -0.275 OA
ATOM     12  N   UNL     1     -14.587  44.672  11.037  1.00  0.00    -0.352 N 
ATOM     13  H   UNL     1     -14.541  45.711  10.919  1.00  0.00     0.163 HD
BRANCH  12  14
ATOM     14  C   UNL     1     -13.381  43.968  11.466  1.00  0.00     0.151 C 
BRANCH  14  15
ATOM     15  C   UNL     1     -12.345  43.995  10.375  1.00  0.00    -0.025 A 
ATOM     16  C   UNL     1     -11.160  44.728  10.549  1.00  0.00     0.056 A 
ATOM     17  C   UNL     1     -12.539  43.271   9.189  1.00  0.00     0.009 A 
ATOM     18  C   UNL     1     -10.173  44.747   9.544  1.00  0.00     0.160 A 
ATOM     19  C   UNL     1     -11.566  43.286   8.189  1.00  0.00     0.050 A 
ATOM     20  C   UNL     1     -10.387  44.019   8.358  1.00  0.00     0.157 A 
BRANCH  18  21
ATOM     21  O   UNL     1      -8.978  45.469   9.690  1.00  0.00    -0.493 OA
ATOM     22  C   UNL     1      -8.805  46.830   9.311  1.00  0.00     0.278 C 
ENDBRANCH  18  21
BRANCH  20  23
ATOM     23  O   UNL     1      -9.438  44.012   7.336  1.00  0.00    -0.504 OA
ATOM     24  H   UNL     1      -9.611  43.567   6.443  1.00  0.00     0.293 HD
ENDBRANCH  20  23
ENDBRANCH  14  15
ENDBRANCH  12  14
ENDBRANCH   9  10
ENDBRANCH   1   9
TORSDOF 10
ENDMDL
