MODEL 1
REMARK VINA RESULT:    -5.624      0.000      0.000
REMARK INTER + INTRA:          -6.495
REMARK INTER:                  -6.446
REMARK INTRA:                  -0.049
REMARK UNBOUND:                -0.049
REMARK SMILES O=C([O-])c1cc(O)c(O)c(O)c1
REMARK SMILES IDX 4 1 5 2 12 3 6 4 10 5 8 6 2 7 1 8 3 9 7 10 11 12 9 14
REMARK H PARENT 7 11 11 13 9 15
REMARK Flexibility Score: inf
ROOT
ATOM      1  C   UNL     1      22.297 159.514  25.288  1.00  0.00     0.005 A 
ATOM      2  C   UNL     1      23.654 159.152  25.255  1.00  0.00     0.060 A 
ATOM      3  C   UNL     1      21.646 159.819  24.084  1.00  0.00     0.060 A 
ATOM      4  C   UNL     1      24.356 159.094  24.045  1.00  0.00     0.162 A 
ATOM      5  C   UNL     1      22.335 159.764  22.867  1.00  0.00     0.162 A 
ATOM      6  C   UNL     1      23.689 159.403  22.835  1.00  0.00     0.200 A 
ENDROOT
BRANCH   1   7
ATOM      7  C   UNL     1      21.564 159.574  26.572  1.00  0.00     0.072 C 
ATOM      8  O   UNL     1      21.714 158.672  27.439  1.00  0.00    -0.545 OA
ATOM      9  O   UNL     1      20.698 160.628  26.840  1.00  0.00    -0.545 OA
ENDBRANCH   1   7
BRANCH   4  10
ATOM     10  O   UNL     1      25.702 158.727  24.090  1.00  0.00    -0.504 OA
ATOM     11  H   UNL     1      26.255 158.497  23.278  1.00  0.00     0.293 HD
ENDBRANCH   4  10
BRANCH   5  12
ATOM     12  O   UNL     1      21.678 160.068  21.675  1.00  0.00    -0.504 OA
ATOM     13  H   UNL     1      22.098 159.873  20.773  1.00  0.00     0.293 HD
ENDBRANCH   5  12
BRANCH   6  14
ATOM     14  O   UNL     1      24.329 159.363  21.594  1.00  0.00    -0.502 OA
ATOM     15  H   UNL     1      24.797 158.549  21.224  1.00  0.00     0.293 HD
ENDBRANCH   6  14
TORSDOF 4
ENDMDL
MODEL 2
REMARK VINA RESULT:    -5.559      1.464      1.892
REMARK INTER + INTRA:          -6.420
REMARK INTER:                  -6.372
REMARK INTRA:                  -0.048
REMARK UNBOUND:                -0.049
REMARK SMILES O=C([O-])c1cc(O)c(O)c(O)c1
REMARK SMILES IDX 4 1 5 2 12 3 6 4 10 5 8 6 2 7 1 8 3 9 7 10 11 12 9 14
REMARK H PARENT 7 11 11 13 9 15
REMARK Flexibility Score: inf
ROOT
ATOM      1  C   UNL     1      21.195 158.976  25.930  1.00  0.00     0.005 A 
ATOM      2  C   UNL     1      22.507 159.346  25.591  1.00  0.00     0.060 A 
ATOM      3  C   UNL     1      20.211 158.974  24.930  1.00  0.00     0.060 A 
ATOM      4  C   UNL     1      22.839 159.709  24.281  1.00  0.00     0.162 A 
ATOM      5  C   UNL     1      20.529 159.334  23.616  1.00  0.00     0.162 A 
ATOM      6  C   UNL     1      21.839 159.704  23.280  1.00  0.00     0.200 A 
ENDROOT
BRANCH   1   7
ATOM      7  C   UNL     1      20.853 158.594  27.317  1.00  0.00     0.072 C 
ATOM      8  O   UNL     1      20.193 157.546  27.550  1.00  0.00    -0.545 OA
ATOM      9  O   UNL     1      21.256 159.387  28.386  1.00  0.00    -0.545 OA
ENDBRANCH   1   7
BRANCH   4  10
ATOM     10  O   UNL     1      24.164 160.066  24.020  1.00  0.00    -0.504 OA
ATOM     11  H   UNL     1      24.571 160.955  24.269  1.00  0.00     0.293 HD
ENDBRANCH   4  10
BRANCH   5  12
ATOM     12  O   UNL     1      19.543 159.329  22.629  1.00  0.00    -0.504 OA
ATOM     13  H   UNL     1      18.945 160.132  22.473  1.00  0.00     0.293 HD
ENDBRANCH   5  12
BRANCH   6  14
ATOM     14  O   UNL     1      22.102 160.055  21.953  1.00  0.00    -0.502 OA
ATOM     15  H   UNL     1      22.329 160.990  21.650  1.00  0.00     0.293 HD
ENDBRANCH   6  14
TORSDOF 4
ENDMDL
MODEL 3
REMARK VINA RESULT:    -5.536      0.203      2.444
REMARK INTER + INTRA:          -6.393
REMARK INTER:                  -6.347
REMARK INTRA:                  -0.047
REMARK UNBOUND:                -0.049
REMARK SMILES O=C([O-])c1cc(O)c(O)c(O)c1
REMARK SMILES IDX 4 1 5 2 12 3 6 4 10 5 8 6 2 7 1 8 3 9 7 10 11 12 9 14
REMARK H PARENT 7 11 11 13 9 15
REMARK Flexibility Score: inf
ROOT
ATOM      1  C   UNL     1      22.313 159.410  25.291  1.00  0.00     0.005 A 
ATOM      2  C   UNL     1      21.718 159.749  24.064  1.00  0.00     0.060 A 
ATOM      3  C   UNL     1      23.673 159.070  25.314  1.00  0.00     0.060 A 
ATOM      4  C   UNL     1      22.460 159.751  22.878  1.00  0.00     0.162 A 
ATOM      5  C   UNL     1      24.428 159.067  24.135  1.00  0.00     0.162 A 
ATOM      6  C   UNL     1      23.832 159.406  22.912  1.00  0.00     0.200 A 
ENDROOT
BRANCH   1   7
ATOM      7  C   UNL     1      21.520 159.410  26.540  1.00  0.00     0.072 C 
ATOM      8  O   UNL     1      21.450 158.376  27.256  1.00  0.00    -0.545 OA
ATOM      9  O   UNL     1      20.840 160.555  26.942  1.00  0.00    -0.545 OA
ENDBRANCH   1   7
BRANCH   4  10
ATOM     10  O   UNL     1      21.800 160.099  21.698  1.00  0.00    -0.504 OA
ATOM     11  H   UNL     1      21.317 159.441  21.103  1.00  0.00     0.293 HD
ENDBRANCH   4  10
BRANCH   5  12
ATOM     12  O   UNL     1      25.780 158.728  24.168  1.00  0.00    -0.504 OA
ATOM     13  H   UNL     1      26.154 157.980  23.594  1.00  0.00     0.293 HD
ENDBRANCH   5  12
BRANCH   6  14
ATOM     14  O   UNL     1      24.630 159.388  21.765  1.00  0.00    -0.502 OA
ATOM     15  H   UNL     1      25.629 159.244  21.774  1.00  0.00     0.293 HD
ENDBRANCH   6  14
TORSDOF 4
ENDMDL
MODEL 4
REMARK VINA RESULT:    -5.524      1.444      2.975
REMARK INTER + INTRA:          -6.380
REMARK INTER:                  -6.332
REMARK INTRA:                  -0.048
REMARK UNBOUND:                -0.049
REMARK SMILES O=C([O-])c1cc(O)c(O)c(O)c1
REMARK SMILES IDX 4 1 5 2 12 3 6 4 10 5 8 6 2 7 1 8 3 9 7 10 11 12 9 14
REMARK H PARENT 7 11 11 13 9 15
REMARK Flexibility Score: inf
ROOT
ATOM      1  C   UNL     1      21.275 158.999  25.946  1.00  0.00     0.005 A 
ATOM      2  C   UNL     1      20.298 158.972  24.937  1.00  0.00     0.060 A 
ATOM      3  C   UNL     1      22.588 159.361  25.610  1.00  0.00     0.060 A 
ATOM      4  C   UNL     1      20.618 159.298  23.614  1.00  0.00     0.162 A 
ATOM      5  C   UNL     1      22.922 159.690  24.291  1.00  0.00     0.162 A 
ATOM      6  C   UNL     1      21.946 159.662  23.285  1.00  0.00     0.200 A 
ENDROOT
BRANCH   1   7
ATOM      7  C   UNL     1      20.929 158.653  27.341  1.00  0.00     0.072 C 
ATOM      8  O   UNL     1      21.300 159.387  28.296  1.00  0.00    -0.545 OA
ATOM      9  O   UNL     1      20.187 157.509  27.620  1.00  0.00    -0.545 OA
ENDBRANCH   1   7
BRANCH   4  10
ATOM     10  O   UNL     1      19.594 159.248  22.666  1.00  0.00    -0.504 OA
ATOM     11  H   UNL     1      19.340 158.419  22.148  1.00  0.00     0.293 HD
ENDBRANCH   4  10
BRANCH   5  12
ATOM     12  O   UNL     1      24.230 160.048  23.967  1.00  0.00    -0.504 OA
ATOM     13  H   UNL     1      24.931 160.203  24.683  1.00  0.00     0.293 HD
ENDBRANCH   5  12
BRANCH   6  14
ATOM     14  O   UNL     1      22.332 159.999  21.986  1.00  0.00    -0.502 OA
ATOM     15  H   UNL     1      23.240 160.367  21.743  1.00  0.00     0.293 HD
ENDBRANCH   6  14
TORSDOF 4
ENDMDL
MODEL 5
REMARK VINA RESULT:    -5.504      1.792      2.344
REMARK INTER + INTRA:          -6.357
REMARK INTER:                  -6.304
REMARK INTRA:                  -0.053
REMARK UNBOUND:                -0.049
REMARK SMILES O=C([O-])c1cc(O)c(O)c(O)c1
REMARK SMILES IDX 4 1 5 2 12 3 6 4 10 5 8 6 2 7 1 8 3 9 7 10 11 12 9 14
REMARK H PARENT 7 11 11 13 9 15
REMARK Flexibility Score: inf
ROOT
ATOM      1  C   UNL     1      20.255 160.315  25.198  1.00  0.00     0.005 A 
ATOM      2  C   UNL     1      21.420 159.947  25.891  1.00  0.00     0.060 A 
ATOM      3  C   UNL     1      20.291 160.384  23.798  1.00  0.00     0.060 A 
ATOM      4  C   UNL     1      22.605 159.653  25.206  1.00  0.00     0.162 A 
ATOM      5  C   UNL     1      21.469 160.091  23.100  1.00  0.00     0.162 A 
ATOM      6  C   UNL     1      22.631 159.725  23.793  1.00  0.00     0.200 A 
ENDROOT
BRANCH   1   7
ATOM      7  C   UNL     1      19.008 160.625  25.931  1.00  0.00     0.072 C 
ATOM      8  O   UNL     1      17.946 160.889  25.306  1.00  0.00    -0.545 OA
ATOM      9  O   UNL     1      18.990 160.631  27.322  1.00  0.00    -0.545 OA
ENDBRANCH   1   7
BRANCH   4  10
ATOM     10  O   UNL     1      23.722 159.295  25.963  1.00  0.00    -0.504 OA
ATOM     11  H   UNL     1      24.581 159.825  25.991  1.00  0.00     0.293 HD
ENDBRANCH   4  10
BRANCH   5  12
ATOM     12  O   UNL     1      21.494 160.163  21.707  1.00  0.00    -0.504 OA
ATOM     13  H   UNL     1      20.760 160.629  21.186  1.00  0.00     0.293 HD
ENDBRANCH   5  12
BRANCH   6  14
ATOM     14  O   UNL     1      23.778 159.443  23.048  1.00  0.00    -0.502 OA
ATOM     15  H   UNL     1      23.769 159.169  22.076  1.00  0.00     0.293 HD
ENDBRANCH   6  14
TORSDOF 4
ENDMDL
MODEL 6
REMARK VINA RESULT:    -5.502      2.319      3.954
REMARK INTER + INTRA:          -6.355
REMARK INTER:                  -6.311
REMARK INTRA:                  -0.045
REMARK UNBOUND:                -0.049
REMARK SMILES O=C([O-])c1cc(O)c(O)c(O)c1
REMARK SMILES IDX 4 1 5 2 12 3 6 4 10 5 8 6 2 7 1 8 3 9 7 10 11 12 9 14
REMARK H PARENT 7 11 11 13 9 15
REMARK Flexibility Score: inf
ROOT
ATOM      1  C   UNL     1      21.122 159.417  27.602  1.00  0.00     0.005 A 
ATOM      2  C   UNL     1      20.318 160.553  27.406  1.00  0.00     0.060 A 
ATOM      3  C   UNL     1      22.003 159.025  26.583  1.00  0.00     0.060 A 
ATOM      4  C   UNL     1      20.386 161.289  26.217  1.00  0.00     0.162 A 
ATOM      5  C   UNL     1      22.081 159.752  25.389  1.00  0.00     0.162 A 
ATOM      6  C   UNL     1      21.278 160.885  25.196  1.00  0.00     0.200 A 
ENDROOT
BRANCH   1   7
ATOM      7  C   UNL     1      21.043 158.645  28.861  1.00  0.00     0.072 C 
ATOM      8  O   UNL     1      21.690 159.009  29.878  1.00  0.00    -0.545 OA
ATOM      9  O   UNL     1      20.252 157.504  28.939  1.00  0.00    -0.545 OA
ENDBRANCH   1   7
BRANCH   4  10
ATOM     10  O   UNL     1      19.556 162.405  26.095  1.00  0.00    -0.504 OA
ATOM     11  H   UNL     1      18.654 162.493  26.541  1.00  0.00     0.293 HD
ENDBRANCH   4  10
BRANCH   5  12
ATOM     12  O   UNL     1      22.960 159.355  24.383  1.00  0.00    -0.504 OA
ATOM     13  H   UNL     1      23.948 159.217  24.564  1.00  0.00     0.293 HD
ENDBRANCH   5  12
BRANCH   6  14
ATOM     14  O   UNL     1      21.396 161.574  23.986  1.00  0.00    -0.502 OA
ATOM     15  H   UNL     1      21.338 162.578  23.899  1.00  0.00     0.293 HD
ENDBRANCH   6  14
TORSDOF 4
ENDMDL
MODEL 7
REMARK VINA RESULT:    -5.465      1.758      3.217
REMARK INTER + INTRA:          -6.313
REMARK INTER:                  -6.260
REMARK INTRA:                  -0.053
REMARK UNBOUND:                -0.049
REMARK SMILES O=C([O-])c1cc(O)c(O)c(O)c1
REMARK SMILES IDX 4 1 5 2 12 3 6 4 10 5 8 6 2 7 1 8 3 9 7 10 11 12 9 14
REMARK H PARENT 7 11 11 13 9 15
REMARK Flexibility Score: inf
ROOT
ATOM      1  C   UNL     1      20.308 160.268  25.205  1.00  0.00     0.005 A 
ATOM      2  C   UNL     1      20.318 160.374  23.805  1.00  0.00     0.060 A 
ATOM      3  C   UNL     1      21.488 159.896  25.867  1.00  0.00     0.060 A 
ATOM      4  C   UNL     1      21.481 160.115  23.070  1.00  0.00     0.162 A 
ATOM      5  C   UNL     1      22.658 159.634  25.145  1.00  0.00     0.162 A 
ATOM      6  C   UNL     1      22.666 159.740  23.747  1.00  0.00     0.200 A 
ENDROOT
BRANCH   1   7
ATOM      7  C   UNL     1      19.074 160.544  25.974  1.00  0.00     0.072 C 
ATOM      8  O   UNL     1      17.989 160.783  25.380  1.00  0.00    -0.545 OA
ATOM      9  O   UNL     1      19.095 160.544  27.364  1.00  0.00    -0.545 OA
ENDBRANCH   1   7
BRANCH   4  10
ATOM     10  O   UNL     1      21.414 160.240  21.681  1.00  0.00    -0.504 OA
ATOM     11  H   UNL     1      22.053 159.793  21.040  1.00  0.00     0.293 HD
ENDBRANCH   4  10
BRANCH   5  12
ATOM     12  O   UNL     1      23.825 159.265  25.811  1.00  0.00    -0.504 OA
ATOM     13  H   UNL     1      24.245 159.862  26.516  1.00  0.00     0.293 HD
ENDBRANCH   5  12
BRANCH   6  14
ATOM     14  O   UNL     1      23.860 159.468  23.075  1.00  0.00    -0.502 OA
ATOM     15  H   UNL     1      23.971 159.520  22.073  1.00  0.00     0.293 HD
ENDBRANCH   6  14
TORSDOF 4
ENDMDL
MODEL 8
REMARK VINA RESULT:    -5.464      1.786      3.956
REMARK INTER + INTRA:          -6.312
REMARK INTER:                  -6.267
REMARK INTRA:                  -0.045
REMARK UNBOUND:                -0.049
REMARK SMILES O=C([O-])c1cc(O)c(O)c(O)c1
REMARK SMILES IDX 4 1 5 2 12 3 6 4 10 5 8 6 2 7 1 8 3 9 7 10 11 12 9 14
REMARK H PARENT 7 11 11 13 9 15
REMARK Flexibility Score: inf
ROOT
ATOM      1  C   UNL     1      22.760 159.455  24.965  1.00  0.00     0.005 A 
ATOM      2  C   UNL     1      22.145 158.941  26.118  1.00  0.00     0.060 A 
ATOM      3  C   UNL     1      21.992 159.620  23.802  1.00  0.00     0.060 A 
ATOM      4  C   UNL     1      20.789 158.594  26.119  1.00  0.00     0.162 A 
ATOM      5  C   UNL     1      20.635 159.278  23.789  1.00  0.00     0.162 A 
ATOM      6  C   UNL     1      20.023 158.764  24.941  1.00  0.00     0.200 A 
ENDROOT
BRANCH   1   7
ATOM      7  C   UNL     1      24.193 159.818  24.973  1.00  0.00     0.072 C 
ATOM      8  O   UNL     1      24.549 161.027  24.985  1.00  0.00    -0.545 OA
ATOM      9  O   UNL     1      25.171 158.829  24.966  1.00  0.00    -0.545 OA
ENDBRANCH   1   7
BRANCH   4  10
ATOM     10  O   UNL     1      20.247 158.088  27.303  1.00  0.00    -0.504 OA
ATOM     11  H   UNL     1      20.792 157.670  28.042  1.00  0.00     0.293 HD
ENDBRANCH   4  10
BRANCH   5  12
ATOM     12  O   UNL     1      19.881 159.445  22.629  1.00  0.00    -0.504 OA
ATOM     13  H   UNL     1      19.547 158.652  22.093  1.00  0.00     0.293 HD
ENDBRANCH   5  12
BRANCH   6  14
ATOM     14  O   UNL     1      18.666 158.439  24.874  1.00  0.00    -0.502 OA
ATOM     15  H   UNL     1      17.933 158.976  25.314  1.00  0.00     0.293 HD
ENDBRANCH   6  14
TORSDOF 4
ENDMDL
MODEL 9
REMARK VINA RESULT:    -5.458      2.039      2.957
REMARK INTER + INTRA:          -6.305
REMARK INTER:                  -6.259
REMARK INTRA:                  -0.045
REMARK UNBOUND:                -0.049
REMARK SMILES O=C([O-])c1cc(O)c(O)c(O)c1
REMARK SMILES IDX 4 1 5 2 12 3 6 4 10 5 8 6 2 7 1 8 3 9 7 10 11 12 9 14
REMARK H PARENT 7 11 11 13 9 15
REMARK Flexibility Score: inf
ROOT
ATOM      1  C   UNL     1      21.007 159.035  27.095  1.00  0.00     0.005 A 
ATOM      2  C   UNL     1      22.179 158.941  26.326  1.00  0.00     0.060 A 
ATOM      3  C   UNL     1      19.894 159.699  26.558  1.00  0.00     0.060 A 
ATOM      4  C   UNL     1      22.247 159.498  25.044  1.00  0.00     0.162 A 
ATOM      5  C   UNL     1      19.948 160.261  25.277  1.00  0.00     0.162 A 
ATOM      6  C   UNL     1      21.119 160.167  24.511  1.00  0.00     0.200 A 
ENDROOT
BRANCH   1   7
ATOM      7  C   UNL     1      20.944 158.443  28.449  1.00  0.00     0.072 C 
ATOM      8  O   UNL     1      20.233 157.427  28.673  1.00  0.00    -0.545 OA
ATOM      9  O   UNL     1      21.670 159.001  29.496  1.00  0.00    -0.545 OA
ENDBRANCH   1   7
BRANCH   4  10
ATOM     10  O   UNL     1      23.445 159.366  24.339  1.00  0.00    -0.504 OA
ATOM     11  H   UNL     1      23.561 158.785  23.522  1.00  0.00     0.293 HD
ENDBRANCH   4  10
BRANCH   5  12
ATOM     12  O   UNL     1      18.837 160.920  24.753  1.00  0.00    -0.504 OA
ATOM     13  H   UNL     1      18.927 161.604  24.011  1.00  0.00     0.293 HD
ENDBRANCH   5  12
BRANCH   6  14
ATOM     14  O   UNL     1      21.119 160.744  23.239  1.00  0.00    -0.502 OA
ATOM     15  H   UNL     1      20.492 161.481  22.952  1.00  0.00     0.293 HD
ENDBRANCH   6  14
TORSDOF 4
ENDMDL
