MODEL 1
REMARK VINA RESULT:    -4.920      0.000      0.000
REMARK INTER + INTRA:          -6.235
REMARK INTER:                  -5.927
REMARK INTRA:                  -0.309
REMARK UNBOUND:                -0.309
REMARK SMILES O=c1c(O)c(-c2ccc(O)c(O)c2)oc2cc(O)cc(O)c12
REMARK SMILES IDX 5 1 3 2 2 3 1 4 22 5 20 6 19 7 17 8 16 9 15 10 14 11 6 12
REMARK SMILES IDX 7 13 8 14 9 15 13 16 11 17 10 18 12 20 4 22 21 24 18 26
REMARK H PARENT 10 19 12 21 4 23 21 25 18 27
REMARK Flexibility Score: inf
ROOT
ATOM      1  C   UNL     1      45.646  42.561 101.135  1.00  0.00     0.180 A 
ATOM      2  C   UNL     1      46.658  43.536 101.204  1.00  0.00     0.208 A 
ATOM      3  C   UNL     1      46.295  44.892 101.217  1.00  0.00     0.238 A 
ATOM      4  O   UNL     1      47.195  45.775 101.268  1.00  0.00    -0.285 OA
ATOM      5  C   UNL     1      44.931  45.248 101.183  1.00  0.00     0.111 A 
ATOM      6  C   UNL     1      44.482  46.591 101.198  1.00  0.00     0.134 A 
ATOM      7  C   UNL     1      43.106  46.863 101.172  1.00  0.00     0.093 A 
ATOM      8  C   UNL     1      42.174  45.823 101.131  1.00  0.00     0.123 A 
ATOM      9  C   UNL     1      42.612  44.495 101.115  1.00  0.00     0.094 A 
ATOM     10  C   UNL     1      43.979  44.203 101.140  1.00  0.00     0.146 A 
ATOM     11  O   UNL     1      44.369  42.934 101.120  1.00  0.00    -0.452 OA
ENDROOT
BRANCH   1  12
ATOM     12  C   UNL     1      45.950  41.112 101.097  1.00  0.00     0.025 A 
ATOM     13  C   UNL     1      46.310  40.515  99.878  1.00  0.00     0.016 A 
ATOM     14  C   UNL     1      46.622  39.153  99.822  1.00  0.00     0.051 A 
ATOM     15  C   UNL     1      46.595  38.375 100.986  1.00  0.00     0.157 A 
ATOM     16  C   UNL     1      45.945  40.332 102.266  1.00  0.00     0.062 A 
ATOM     17  C   UNL     1      46.260  38.965 102.211  1.00  0.00     0.158 A 
BRANCH  15  18
ATOM     18  O   UNL     1      46.904  37.017 100.935  1.00  0.00    -0.504 OA
ATOM     19  H   UNL     1      46.578  36.428 100.177  1.00  0.00     0.293 HD
ENDBRANCH  15  18
BRANCH  17  20
ATOM     20  O   UNL     1      46.248  38.191 103.370  1.00  0.00    -0.504 OA
ATOM     21  H   UNL     1      45.538  37.486 103.530  1.00  0.00     0.293 HD
ENDBRANCH  17  20
ENDBRANCH   1  12
BRANCH   2  22
ATOM     22  O   UNL     1      48.001  43.156 101.286  1.00  0.00    -0.502 OA
ATOM     23  H   UNL     1      48.638  43.559 101.963  1.00  0.00     0.293 HD
ENDBRANCH   2  22
BRANCH   6  24
ATOM     24  O   UNL     1      45.387  47.652 101.240  1.00  0.00    -0.507 OA
ATOM     25  H   UNL     1      45.641  48.168 100.406  1.00  0.00     0.293 HD
ENDBRANCH   6  24
BRANCH   8  26
ATOM     26  O   UNL     1      40.814  46.122 101.106  1.00  0.00    -0.508 OA
ATOM     27  H   UNL     1      40.481  47.079 101.097  1.00  0.00     0.293 HD
ENDBRANCH   8  26
TORSDOF 6
ENDMDL
MODEL 2
REMARK VINA RESULT:    -4.912      1.613      2.454
REMARK INTER + INTRA:          -6.226
REMARK INTER:                  -6.089
REMARK INTRA:                  -0.137
REMARK UNBOUND:                -0.309
REMARK SMILES O=c1c(O)c(-c2ccc(O)c(O)c2)oc2cc(O)cc(O)c12
REMARK SMILES IDX 5 1 3 2 2 3 1 4 22 5 20 6 19 7 17 8 16 9 15 10 14 11 6 12
REMARK SMILES IDX 7 13 8 14 9 15 13 16 11 17 10 18 12 20 4 22 21 24 18 26
REMARK H PARENT 10 19 12 21 4 23 21 25 18 27
REMARK Flexibility Score: inf
ROOT
ATOM      1  C   UNL     1      45.484  44.542 101.440  1.00  0.00     0.180 A 
ATOM      2  C   UNL     1      46.176  45.732 101.145  1.00  0.00     0.208 A 
ATOM      3  C   UNL     1      45.450  46.927 101.026  1.00  0.00     0.238 A 
ATOM      4  O   UNL     1      46.058  47.998 100.750  1.00  0.00    -0.285 OA
ATOM      5  C   UNL     1      44.054  46.917 101.223  1.00  0.00     0.111 A 
ATOM      6  C   UNL     1      43.250  48.079 101.125  1.00  0.00     0.134 A 
ATOM      7  C   UNL     1      41.868  47.988 101.345  1.00  0.00     0.093 A 
ATOM      8  C   UNL     1      41.275  46.763 101.661  1.00  0.00     0.123 A 
ATOM      9  C   UNL     1      42.064  45.612 101.758  1.00  0.00     0.094 A 
ATOM     10  C   UNL     1      43.444  45.681 101.541  1.00  0.00     0.146 A 
ATOM     11  O   UNL     1      44.169  44.573 101.635  1.00  0.00    -0.452 OA
ENDROOT
BRANCH   1  12
ATOM     12  C   UNL     1      46.177  43.239 101.562  1.00  0.00     0.025 A 
ATOM     13  C   UNL     1      47.113  43.050 102.593  1.00  0.00     0.016 A 
ATOM     14  C   UNL     1      47.764  41.822 102.740  1.00  0.00     0.051 A 
ATOM     15  C   UNL     1      47.476  40.762 101.871  1.00  0.00     0.157 A 
ATOM     16  C   UNL     1      45.877  42.166 100.705  1.00  0.00     0.062 A 
ATOM     17  C   UNL     1      46.529  40.932 100.855  1.00  0.00     0.158 A 
BRANCH  15  18
ATOM     18  O   UNL     1      48.125  39.536 102.014  1.00  0.00    -0.504 OA
ATOM     19  H   UNL     1      47.876  38.888 102.752  1.00  0.00     0.293 HD
ENDBRANCH  15  18
BRANCH  17  20
ATOM     20  O   UNL     1      46.235  39.871 100.000  1.00  0.00    -0.504 OA
ATOM     21  H   UNL     1      46.924  39.504  99.355  1.00  0.00     0.293 HD
ENDBRANCH  17  20
ENDBRANCH   1  12
BRANCH   2  22
ATOM     22  O   UNL     1      47.566  45.725 101.002  1.00  0.00    -0.502 OA
ATOM     23  H   UNL     1      48.081  44.890 100.750  1.00  0.00     0.293 HD
ENDBRANCH   2  22
BRANCH   6  24
ATOM     24  O   UNL     1      43.811  49.317 100.813  1.00  0.00    -0.507 OA
ATOM     25  H   UNL     1      43.359  49.963 100.177  1.00  0.00     0.293 HD
ENDBRANCH   6  24
BRANCH   8  26
ATOM     26  O   UNL     1      39.900  46.700 101.875  1.00  0.00    -0.508 OA
ATOM     27  H   UNL     1      39.511  46.660 102.810  1.00  0.00     0.293 HD
ENDBRANCH   8  26
TORSDOF 6
ENDMDL
MODEL 3
REMARK VINA RESULT:    -4.600      2.709      8.357
REMARK INTER + INTRA:          -5.849
REMARK INTER:                  -5.568
REMARK INTRA:                  -0.282
REMARK UNBOUND:                -0.309
REMARK SMILES O=c1c(O)c(-c2ccc(O)c(O)c2)oc2cc(O)cc(O)c12
REMARK SMILES IDX 5 1 3 2 2 3 1 4 22 5 20 6 19 7 17 8 16 9 15 10 14 11 6 12
REMARK SMILES IDX 7 13 8 14 9 15 13 16 11 17 10 18 12 20 4 22 21 24 18 26
REMARK H PARENT 10 19 12 21 4 23 21 25 18 27
REMARK Flexibility Score: inf
ROOT
ATOM      1  C   UNL     1      47.042  38.771 101.543  1.00  0.00     0.180 A 
ATOM      2  C   UNL     1      47.378  38.242 102.804  1.00  0.00     0.208 A 
ATOM      3  C   UNL     1      47.428  36.849 102.965  1.00  0.00     0.238 A 
ATOM      4  O   UNL     1      47.717  36.364 104.093  1.00  0.00    -0.285 OA
ATOM      5  C   UNL     1      47.164  36.011 101.862  1.00  0.00     0.111 A 
ATOM      6  C   UNL     1      47.199  34.597 101.939  1.00  0.00     0.134 A 
ATOM      7  C   UNL     1      46.933  33.832 100.794  1.00  0.00     0.093 A 
ATOM      8  C   UNL     1      46.635  34.450  99.577  1.00  0.00     0.123 A 
ATOM      9  C   UNL     1      46.599  35.846  99.495  1.00  0.00     0.094 A 
ATOM     10  C   UNL     1      46.860  36.627 100.626  1.00  0.00     0.146 A 
ATOM     11  O   UNL     1      46.814  37.949 100.522  1.00  0.00    -0.452 OA
ENDROOT
BRANCH   1  12
ATOM     12  C   UNL     1      46.949  40.228 101.301  1.00  0.00     0.025 A 
ATOM     13  C   UNL     1      48.125  40.971 101.102  1.00  0.00     0.016 A 
ATOM     14  C   UNL     1      48.061  42.344 100.851  1.00  0.00     0.051 A 
ATOM     15  C   UNL     1      46.820  42.990 100.778  1.00  0.00     0.157 A 
ATOM     16  C   UNL     1      45.706  40.878 101.205  1.00  0.00     0.062 A 
ATOM     17  C   UNL     1      45.641  42.256 100.950  1.00  0.00     0.158 A 
BRANCH  15  18
ATOM     18  O   UNL     1      46.752  44.361 100.529  1.00  0.00    -0.504 OA
ATOM     19  H   UNL     1      45.876  44.867 100.587  1.00  0.00     0.293 HD
ENDBRANCH  15  18
BRANCH  17  20
ATOM     20  O   UNL     1      44.408  42.900 100.863  1.00  0.00    -0.504 OA
ATOM     21  H   UNL     1      44.199  43.547 100.111  1.00  0.00     0.293 HD
ENDBRANCH  17  20
ENDBRANCH   1  12
BRANCH   2  22
ATOM     22  O   UNL     1      47.684  39.095 103.869  1.00  0.00    -0.502 OA
ATOM     23  H   UNL     1      48.101  40.007 103.730  1.00  0.00     0.293 HD
ENDBRANCH   2  22
BRANCH   6  24
ATOM     24  O   UNL     1      47.494  33.950 103.139  1.00  0.00    -0.507 OA
ATOM     25  H   UNL     1      47.847  33.000 103.159  1.00  0.00     0.293 HD
ENDBRANCH   6  24
BRANCH   8  26
ATOM     26  O   UNL     1      46.375  33.667  98.455  1.00  0.00    -0.508 OA
ATOM     27  H   UNL     1      46.842  32.779  98.309  1.00  0.00     0.293 HD
ENDBRANCH   8  26
TORSDOF 6
ENDMDL
MODEL 4
REMARK VINA RESULT:    -4.523      5.158      9.819
REMARK INTER + INTRA:          -5.757
REMARK INTER:                  -6.100
REMARK INTRA:                   0.344
REMARK UNBOUND:                -0.309
REMARK SMILES O=c1c(O)c(-c2ccc(O)c(O)c2)oc2cc(O)cc(O)c12
REMARK SMILES IDX 5 1 3 2 2 3 1 4 22 5 20 6 19 7 17 8 16 9 15 10 14 11 6 12
REMARK SMILES IDX 7 13 8 14 9 15 13 16 11 17 10 18 12 20 4 22 21 24 18 26
REMARK H PARENT 10 19 12 21 4 23 21 25 18 27
REMARK Flexibility Score: inf
ROOT
ATOM      1  C   UNL     1      46.854  35.728 100.425  1.00  0.00     0.180 A 
ATOM      2  C   UNL     1      46.754  34.389 100.850  1.00  0.00     0.208 A 
ATOM      3  C   UNL     1      46.520  33.389  99.894  1.00  0.00     0.238 A 
ATOM      4  O   UNL     1      46.418  32.187 100.265  1.00  0.00    -0.285 OA
ATOM      5  C   UNL     1      46.411  33.738  98.532  1.00  0.00     0.111 A 
ATOM      6  C   UNL     1      46.179  32.789  97.507  1.00  0.00     0.134 A 
ATOM      7  C   UNL     1      46.093  33.216  96.173  1.00  0.00     0.093 A 
ATOM      8  C   UNL     1      46.232  34.567  95.846  1.00  0.00     0.123 A 
ATOM      9  C   UNL     1      46.460  35.508  96.855  1.00  0.00     0.094 A 
ATOM     10  C   UNL     1      46.549  35.104  98.191  1.00  0.00     0.146 A 
ATOM     11  O   UNL     1      46.761  36.018  99.130  1.00  0.00    -0.452 OA
ENDROOT
BRANCH   1  12
ATOM     12  C   UNL     1      47.080  36.840 101.375  1.00  0.00     0.025 A 
ATOM     13  C   UNL     1      47.791  36.599 102.562  1.00  0.00     0.016 A 
ATOM     14  C   UNL     1      48.035  37.639 103.463  1.00  0.00     0.051 A 
ATOM     15  C   UNL     1      47.587  38.936 103.183  1.00  0.00     0.157 A 
ATOM     16  C   UNL     1      46.650  38.148 101.088  1.00  0.00     0.062 A 
ATOM     17  C   UNL     1      46.897  39.192 101.992  1.00  0.00     0.158 A 
BRANCH  15  18
ATOM     18  O   UNL     1      47.827  39.975 104.081  1.00  0.00    -0.504 OA
ATOM     19  H   UNL     1      47.483  40.913 103.909  1.00  0.00     0.293 HD
ENDBRANCH  15  18
BRANCH  17  20
ATOM     20  O   UNL     1      46.464  40.487 101.710  1.00  0.00    -0.504 OA
ATOM     21  H   UNL     1      46.607  40.907 100.799  1.00  0.00     0.293 HD
ENDBRANCH  17  20
ENDBRANCH   1  12
BRANCH   2  22
ATOM     22  O   UNL     1      46.915  34.063 102.200  1.00  0.00    -0.502 OA
ATOM     23  H   UNL     1      47.662  34.448 102.765  1.00  0.00     0.293 HD
ENDBRANCH   2  22
BRANCH   6  24
ATOM     24  O   UNL     1      46.037  31.433  97.800  1.00  0.00    -0.507 OA
ATOM     25  H   UNL     1      46.337  30.713  97.154  1.00  0.00     0.293 HD
ENDBRANCH   6  24
BRANCH   8  26
ATOM     26  O   UNL     1      46.142  34.963  94.513  1.00  0.00    -0.508 OA
ATOM     27  H   UNL     1      45.480  35.669  94.214  1.00  0.00     0.293 HD
ENDBRANCH   8  26
TORSDOF 6
ENDMDL
MODEL 5
REMARK VINA RESULT:    -4.427      6.337      9.678
REMARK INTER + INTRA:          -5.641
REMARK INTER:                  -6.124
REMARK INTRA:                   0.483
REMARK UNBOUND:                -0.309
REMARK SMILES O=c1c(O)c(-c2ccc(O)c(O)c2)oc2cc(O)cc(O)c12
REMARK SMILES IDX 5 1 3 2 2 3 1 4 22 5 20 6 19 7 17 8 16 9 15 10 14 11 6 12
REMARK SMILES IDX 7 13 8 14 9 15 13 16 11 17 10 18 12 20 4 22 21 24 18 26
REMARK H PARENT 10 19 12 21 4 23 21 25 18 27
REMARK Flexibility Score: inf
ROOT
ATOM      1  C   UNL     1      46.914  34.411  99.161  1.00  0.00     0.180 A 
ATOM      2  C   UNL     1      47.235  33.392 100.078  1.00  0.00     0.208 A 
ATOM      3  C   UNL     1      47.513  33.739 101.409  1.00  0.00     0.238 A 
ATOM      4  O   UNL     1      47.813  32.836 102.237  1.00  0.00    -0.285 OA
ATOM      5  C   UNL     1      47.445  35.091 101.805  1.00  0.00     0.111 A 
ATOM      6  C   UNL     1      47.707  35.523 103.128  1.00  0.00     0.134 A 
ATOM      7  C   UNL     1      47.609  36.887 103.445  1.00  0.00     0.093 A 
ATOM      8  C   UNL     1      47.256  37.822 102.470  1.00  0.00     0.123 A 
ATOM      9  C   UNL     1      46.997  37.400 101.161  1.00  0.00     0.094 A 
ATOM     10  C   UNL     1      47.090  36.046 100.825  1.00  0.00     0.146 A 
ATOM     11  O   UNL     1      46.844  35.673  99.575  1.00  0.00    -0.452 OA
ENDROOT
BRANCH   1  12
ATOM     12  C   UNL     1      46.627  34.126  97.737  1.00  0.00     0.025 A 
ATOM     13  C   UNL     1      46.340  32.809  97.342  1.00  0.00     0.016 A 
ATOM     14  C   UNL     1      46.046  32.520  96.006  1.00  0.00     0.051 A 
ATOM     15  C   UNL     1      46.019  33.544  95.052  1.00  0.00     0.157 A 
ATOM     16  C   UNL     1      46.578  35.154  96.779  1.00  0.00     0.062 A 
ATOM     17  C   UNL     1      46.281  34.864  95.439  1.00  0.00     0.158 A 
BRANCH  15  18
ATOM     18  O   UNL     1      45.727  33.259  93.718  1.00  0.00    -0.504 OA
ATOM     19  H   UNL     1      44.773  33.238  93.377  1.00  0.00     0.293 HD
ENDBRANCH  15  18
BRANCH  17  20
ATOM     20  O   UNL     1      46.239  35.883  94.489  1.00  0.00    -0.504 OA
ATOM     21  H   UNL     1      45.922  36.816  94.726  1.00  0.00     0.293 HD
ENDBRANCH  17  20
ENDBRANCH   1  12
BRANCH   2  22
ATOM     22  O   UNL     1      47.247  32.055  99.672  1.00  0.00    -0.502 OA
ATOM     23  H   UNL     1      46.398  31.536  99.486  1.00  0.00     0.293 HD
ENDBRANCH   2  22
BRANCH   6  24
ATOM     24  O   UNL     1      48.061  34.614 104.125  1.00  0.00    -0.507 OA
ATOM     25  H   UNL     1      47.809  34.762 105.095  1.00  0.00     0.293 HD
ENDBRANCH   6  24
BRANCH   8  26
ATOM     26  O   UNL     1      47.166  39.169 102.812  1.00  0.00    -0.508 OA
ATOM     27  H   UNL     1      46.277  39.655 102.821  1.00  0.00     0.293 HD
ENDBRANCH   8  26
TORSDOF 6
ENDMDL
MODEL 6
REMARK VINA RESULT:    -4.324      3.784      7.006
REMARK INTER + INTRA:          -5.517
REMARK INTER:                  -5.644
REMARK INTRA:                   0.127
REMARK UNBOUND:                -0.309
REMARK SMILES O=c1c(O)c(-c2ccc(O)c(O)c2)oc2cc(O)cc(O)c12
REMARK SMILES IDX 5 1 3 2 2 3 1 4 22 5 20 6 19 7 17 8 16 9 15 10 14 11 6 12
REMARK SMILES IDX 7 13 8 14 9 15 13 16 11 17 10 18 12 20 4 22 21 24 18 26
REMARK H PARENT 10 19 12 21 4 23 21 25 18 27
REMARK Flexibility Score: inf
ROOT
ATOM      1  C   UNL     1      46.942  36.383 100.615  1.00  0.00     0.180 A 
ATOM      2  C   UNL     1      47.456  36.265 101.921  1.00  0.00     0.208 A 
ATOM      3  C   UNL     1      47.654  37.429 102.679  1.00  0.00     0.238 A 
ATOM      4  O   UNL     1      48.125  37.336 103.846  1.00  0.00    -0.285 OA
ATOM      5  C   UNL     1      47.318  38.684 102.131  1.00  0.00     0.111 A 
ATOM      6  C   UNL     1      47.483  39.903 102.832  1.00  0.00     0.134 A 
ATOM      7  C   UNL     1      47.115  41.111 102.221  1.00  0.00     0.093 A 
ATOM      8  C   UNL     1      46.587  41.124 100.928  1.00  0.00     0.123 A 
ATOM      9  C   UNL     1      46.422  39.922 100.231  1.00  0.00     0.094 A 
ATOM     10  C   UNL     1      46.783  38.708 100.822  1.00  0.00     0.146 A 
ATOM     11  O   UNL     1      46.621  37.582 100.137  1.00  0.00    -0.452 OA
ENDROOT
BRANCH   1  12
ATOM     12  C   UNL     1      46.723  35.204  99.747  1.00  0.00     0.025 A 
ATOM     13  C   UNL     1      46.115  34.057 100.282  1.00  0.00     0.016 A 
ATOM     14  C   UNL     1      45.880  32.939  99.475  1.00  0.00     0.051 A 
ATOM     15  C   UNL     1      46.233  32.961  98.120  1.00  0.00     0.157 A 
ATOM     16  C   UNL     1      47.057  35.228  98.381  1.00  0.00     0.062 A 
ATOM     17  C   UNL     1      46.818  34.107  97.571  1.00  0.00     0.158 A 
BRANCH  15  18
ATOM     18  O   UNL     1      46.001  31.848  97.313  1.00  0.00    -0.504 OA
ATOM     19  H   UNL     1      46.732  31.452  96.733  1.00  0.00     0.293 HD
ENDBRANCH  15  18
BRANCH  17  20
ATOM     20  O   UNL     1      47.156  34.130  96.218  1.00  0.00    -0.504 OA
ATOM     21  H   UNL     1      47.270  35.002  95.715  1.00  0.00     0.293 HD
ENDBRANCH  17  20
ENDBRANCH   1  12
BRANCH   2  22
ATOM     22  O   UNL     1      47.735  35.006 102.459  1.00  0.00    -0.502 OA
ATOM     23  H   UNL     1      47.065  34.247 102.439  1.00  0.00     0.293 HD
ENDBRANCH   2  22
BRANCH   6  24
ATOM     24  O   UNL     1      48.007  39.924 104.125  1.00  0.00    -0.507 OA
ATOM     25  H   UNL     1      47.957  40.752 104.707  1.00  0.00     0.293 HD
ENDBRANCH   6  24
BRANCH   8  26
ATOM     26  O   UNL     1      46.230  42.337 100.345  1.00  0.00    -0.508 OA
ATOM     27  H   UNL     1      45.796  42.378  99.430  1.00  0.00     0.293 HD
ENDBRANCH   8  26
TORSDOF 6
ENDMDL
MODEL 7
REMARK VINA RESULT:    -4.254      8.093     10.648
REMARK INTER + INTRA:          -5.433
REMARK INTER:                  -5.862
REMARK INTRA:                   0.429
REMARK UNBOUND:                -0.309
REMARK SMILES O=c1c(O)c(-c2ccc(O)c(O)c2)oc2cc(O)cc(O)c12
REMARK SMILES IDX 5 1 3 2 2 3 1 4 22 5 20 6 19 7 17 8 16 9 15 10 14 11 6 12
REMARK SMILES IDX 7 13 8 14 9 15 13 16 11 17 10 18 12 20 4 22 21 24 18 26
REMARK H PARENT 10 19 12 21 4 23 21 25 18 27
REMARK Flexibility Score: inf
ROOT
ATOM      1  C   UNL     1      46.797  34.130  99.287  1.00  0.00     0.180 A 
ATOM      2  C   UNL     1      46.758  35.405  99.882  1.00  0.00     0.208 A 
ATOM      3  C   UNL     1      46.986  35.517 101.262  1.00  0.00     0.238 A 
ATOM      4  O   UNL     1      46.943  36.653 101.809  1.00  0.00    -0.285 OA
ATOM      5  C   UNL     1      47.268  34.360 102.018  1.00  0.00     0.111 A 
ATOM      6  C   UNL     1      47.513  34.388 103.413  1.00  0.00     0.134 A 
ATOM      7  C   UNL     1      47.795  33.193 104.092  1.00  0.00     0.093 A 
ATOM      8  C   UNL     1      47.838  31.976 103.407  1.00  0.00     0.123 A 
ATOM      9  C   UNL     1      47.596  31.943 102.030  1.00  0.00     0.094 A 
ATOM     10  C   UNL     1      47.312  33.122 101.334  1.00  0.00     0.146 A 
ATOM     11  O   UNL     1      47.081  33.063 100.028  1.00  0.00    -0.452 OA
ENDROOT
BRANCH   1  12
ATOM     12  C   UNL     1      46.549  33.929  97.841  1.00  0.00     0.025 A 
ATOM     13  C   UNL     1      46.267  32.639  97.362  1.00  0.00     0.016 A 
ATOM     14  C   UNL     1      46.008  32.429  96.005  1.00  0.00     0.051 A 
ATOM     15  C   UNL     1      46.011  33.507  95.111  1.00  0.00     0.157 A 
ATOM     16  C   UNL     1      46.530  35.011  96.944  1.00  0.00     0.062 A 
ATOM     17  C   UNL     1      46.268  34.801  95.581  1.00  0.00     0.158 A 
BRANCH  15  18
ATOM     18  O   UNL     1      45.755  33.302  93.756  1.00  0.00    -0.504 OA
ATOM     19  H   UNL     1      45.509  32.387  93.396  1.00  0.00     0.293 HD
ENDBRANCH  15  18
BRANCH  17  20
ATOM     20  O   UNL     1      46.256  35.874  94.691  1.00  0.00    -0.504 OA
ATOM     21  H   UNL     1      46.972  36.590  94.715  1.00  0.00     0.293 HD
ENDBRANCH  17  20
ENDBRANCH   1  12
BRANCH   2  22
ATOM     22  O   UNL     1      46.526  36.542  99.103  1.00  0.00    -0.502 OA
ATOM     23  H   UNL     1      45.612  36.971  99.028  1.00  0.00     0.293 HD
ENDBRANCH   2  22
BRANCH   6  24
ATOM     24  O   UNL     1      47.478  35.586 104.125  1.00  0.00    -0.507 OA
ATOM     25  H   UNL     1      46.685  36.214 104.073  1.00  0.00     0.293 HD
ENDBRANCH   6  24
BRANCH   8  26
ATOM     26  O   UNL     1      48.122  30.805 104.106  1.00  0.00    -0.508 OA
ATOM     27  H   UNL     1      49.061  30.589 104.419  1.00  0.00     0.293 HD
ENDBRANCH   8  26
TORSDOF 6
ENDMDL
MODEL 8
REMARK VINA RESULT:    -4.202      2.074      3.830
REMARK INTER + INTRA:          -5.370
REMARK INTER:                  -5.392
REMARK INTRA:                   0.022
REMARK UNBOUND:                -0.309
REMARK SMILES O=c1c(O)c(-c2ccc(O)c(O)c2)oc2cc(O)cc(O)c12
REMARK SMILES IDX 5 1 3 2 2 3 1 4 22 5 20 6 19 7 17 8 16 9 15 10 14 11 6 12
REMARK SMILES IDX 7 13 8 14 9 15 13 16 11 17 10 18 12 20 4 22 21 24 18 26
REMARK H PARENT 10 19 12 21 4 23 21 25 18 27
REMARK Flexibility Score: inf
ROOT
ATOM      1  C   UNL     1      45.959  44.541 101.346  1.00  0.00     0.180 A 
ATOM      2  C   UNL     1      44.593  44.799 101.124  1.00  0.00     0.208 A 
ATOM      3  C   UNL     1      44.177  46.124 100.918  1.00  0.00     0.238 A 
ATOM      4  O   UNL     1      42.954  46.368 100.729  1.00  0.00    -0.285 OA
ATOM      5  C   UNL     1      45.132  47.161 100.916  1.00  0.00     0.111 A 
ATOM      6  C   UNL     1      44.795  48.522 100.711  1.00  0.00     0.134 A 
ATOM      7  C   UNL     1      45.806  49.495 100.714  1.00  0.00     0.093 A 
ATOM      8  C   UNL     1      47.141  49.137 100.917  1.00  0.00     0.123 A 
ATOM      9  C   UNL     1      47.478  47.795 101.120  1.00  0.00     0.094 A 
ATOM     10  C   UNL     1      46.486  46.810 101.122  1.00  0.00     0.146 A 
ATOM     11  O   UNL     1      46.833  45.544 101.322  1.00  0.00    -0.452 OA
ENDROOT
BRANCH   1  12
ATOM     12  C   UNL     1      46.472  43.174 101.591  1.00  0.00     0.025 A 
ATOM     13  C   UNL     1      47.274  42.929 102.718  1.00  0.00     0.016 A 
ATOM     14  C   UNL     1      47.751  41.642 102.980  1.00  0.00     0.051 A 
ATOM     15  C   UNL     1      47.421  40.580 102.130  1.00  0.00     0.157 A 
ATOM     16  C   UNL     1      46.125  42.101 100.752  1.00  0.00     0.062 A 
ATOM     17  C   UNL     1      46.603  40.808 101.016  1.00  0.00     0.158 A 
BRANCH  15  18
ATOM     18  O   UNL     1      47.897  39.295 102.387  1.00  0.00    -0.504 OA
ATOM     19  H   UNL     1      47.696  38.521 101.764  1.00  0.00     0.293 HD
ENDBRANCH  15  18
BRANCH  17  20
ATOM     20  O   UNL     1      46.264  39.746 100.180  1.00  0.00    -0.504 OA
ATOM     21  H   UNL     1      46.538  38.794 100.393  1.00  0.00     0.293 HD
ENDBRANCH  17  20
ENDBRANCH   1  12
BRANCH   2  22
ATOM     22  O   UNL     1      43.674  43.748 101.082  1.00  0.00    -0.502 OA
ATOM     23  H   UNL     1      42.905  43.672 101.736  1.00  0.00     0.293 HD
ENDBRANCH   2  22
BRANCH   6  24
ATOM     24  O   UNL     1      43.472  48.912 100.505  1.00  0.00    -0.507 OA
ATOM     25  H   UNL     1      43.143  49.836 100.757  1.00  0.00     0.293 HD
ENDBRANCH   6  24
BRANCH   8  26
ATOM     26  O   UNL     1      48.124  50.124 100.914  1.00  0.00    -0.508 OA
ATOM     27  H   UNL     1      49.064  49.936 101.244  1.00  0.00     0.293 HD
ENDBRANCH   8  26
TORSDOF 6
ENDMDL
MODEL 9
REMARK VINA RESULT:    -3.938      3.894      9.331
REMARK INTER + INTRA:          -5.052
REMARK INTER:                  -5.397
REMARK INTRA:                   0.345
REMARK UNBOUND:                -0.309
REMARK SMILES O=c1c(O)c(-c2ccc(O)c(O)c2)oc2cc(O)cc(O)c12
REMARK SMILES IDX 5 1 3 2 2 3 1 4 22 5 20 6 19 7 17 8 16 9 15 10 14 11 6 12
REMARK SMILES IDX 7 13 8 14 9 15 13 16 11 17 10 18 12 20 4 22 21 24 18 26
REMARK H PARENT 10 19 12 21 4 23 21 25 18 27
REMARK Flexibility Score: inf
ROOT
ATOM      1  C   UNL     1      46.943  36.960 100.771  1.00  0.00     0.180 A 
ATOM      2  C   UNL     1      47.035  35.964 101.761  1.00  0.00     0.208 A 
ATOM      3  C   UNL     1      46.990  34.616 101.374  1.00  0.00     0.238 A 
ATOM      4  O   UNL     1      47.060  33.715 102.255  1.00  0.00    -0.285 OA
ATOM      5  C   UNL     1      46.874  34.287 100.008  1.00  0.00     0.111 A 
ATOM      6  C   UNL     1      46.825  32.953  99.536  1.00  0.00     0.134 A 
ATOM      7  C   UNL     1      46.719  32.707  98.158  1.00  0.00     0.093 A 
ATOM      8  C   UNL     1      46.661  33.765  97.248  1.00  0.00     0.123 A 
ATOM      9  C   UNL     1      46.708  35.085  97.710  1.00  0.00     0.094 A 
ATOM     10  C   UNL     1      46.813  35.351  99.078  1.00  0.00     0.146 A 
ATOM     11  O   UNL     1      46.850  36.612  99.490  1.00  0.00    -0.452 OA
ENDROOT
BRANCH   1  12
ATOM     12  C   UNL     1      46.965  38.403 101.102  1.00  0.00     0.025 A 
ATOM     13  C   UNL     1      46.336  39.318 100.241  1.00  0.00     0.016 A 
ATOM     14  C   UNL     1      46.325  40.682 100.544  1.00  0.00     0.051 A 
ATOM     15  C   UNL     1      46.928  41.148 101.719  1.00  0.00     0.157 A 
ATOM     16  C   UNL     1      47.550  38.874 102.290  1.00  0.00     0.062 A 
ATOM     17  C   UNL     1      47.538  40.243 102.596  1.00  0.00     0.158 A 
BRANCH  15  18
ATOM     18  O   UNL     1      46.921  42.509 102.024  1.00  0.00    -0.504 OA
ATOM     19  H   UNL     1      47.676  43.120 101.735  1.00  0.00     0.293 HD
ENDBRANCH  15  18
BRANCH  17  20
ATOM     20  O   UNL     1      48.125  40.709 103.771  1.00  0.00    -0.504 OA
ATOM     21  H   UNL     1      49.125  40.857 103.842  1.00  0.00     0.293 HD
ENDBRANCH  17  20
ENDBRANCH   1  12
BRANCH   2  22
ATOM     22  O   UNL     1      47.199  36.316 103.104  1.00  0.00    -0.502 OA
ATOM     23  H   UNL     1      46.563  36.942 103.582  1.00  0.00     0.293 HD
ENDBRANCH   2  22
BRANCH   6  24
ATOM     24  O   UNL     1      46.882  31.874 100.419  1.00  0.00    -0.507 OA
ATOM     25  H   UNL     1      46.496  31.931 101.354  1.00  0.00     0.293 HD
ENDBRANCH   6  24
BRANCH   8  26
ATOM     26  O   UNL     1      46.555  33.493  95.886  1.00  0.00    -0.508 OA
ATOM     27  H   UNL     1      45.751  33.011  95.502  1.00  0.00     0.293 HD
ENDBRANCH   8  26
TORSDOF 6
ENDMDL
