MODEL 1
REMARK VINA RESULT:    -2.537      0.000      0.000
REMARK INTER + INTRA:          -8.116
REMARK INTER:                  -6.394
REMARK INTRA:                  -1.722
REMARK UNBOUND:                -1.722
REMARK SMILES CCCCCCCCCCCCCCCCCCCCCCCCCCCC(=O)[O-]
REMARK SMILES IDX 15 1 16 2 17 3 18 4 19 5 20 6 21 7 22 8 23 9 24 10 25 11
REMARK SMILES IDX 26 12 27 13 28 14 29 15 30 16 14 17 13 18 12 19 11 20 10 21
REMARK SMILES IDX 9 22 8 23 7 24 6 25 5 26 4 27 3 28 2 29 1 30
REMARK H PARENT
REMARK Flexibility Score: inf
ROOT
ATOM      1  C   UNL     1     -44.332 -29.431  -0.745  1.00  0.00     0.000 C 
ENDROOT
BRANCH   1   2
ATOM      2  C   UNL     1     -43.026 -30.119  -0.309  1.00  0.00     0.000 C 
BRANCH   2   3
ATOM      3  C   UNL     1     -41.847 -29.143  -0.173  1.00  0.00     0.000 C 
BRANCH   3   4
ATOM      4  C   UNL     1     -42.298 -27.675  -0.354  1.00  0.00     0.000 C 
BRANCH   4   5
ATOM      5  C   UNL     1     -43.058 -27.133   0.869  1.00  0.00     0.000 C 
BRANCH   5   6
ATOM      6  C   UNL     1     -44.308 -26.312   0.475  1.00  0.00     0.000 C 
BRANCH   6   7
ATOM      7  C   UNL     1     -45.055 -25.724   1.682  1.00  0.00     0.000 C 
BRANCH   7   8
ATOM      8  C   UNL     1     -46.482 -26.283   1.828  1.00  0.00     0.000 C 
BRANCH   8   9
ATOM      9  C   UNL     1     -46.499 -27.826   1.852  1.00  0.00     0.000 C 
BRANCH   9  10
ATOM     10  C   UNL     1     -45.923 -28.433   3.146  1.00  0.00     0.000 C 
BRANCH  10  11
ATOM     11  C   UNL     1     -46.639 -28.004   4.438  1.00  0.00     0.000 C 
BRANCH  11  12
ATOM     12  C   UNL     1     -45.977 -28.583   5.701  1.00  0.00     0.006 C 
BRANCH  12  13
ATOM     13  C   UNL     1     -46.407 -27.840   6.973  1.00  0.00     0.053 C 
BRANCH  13  14
ATOM     14  C   UNL     1     -45.993 -26.400   6.937  1.00  0.00     0.041 C 
ATOM     15  O   UNL     1     -44.942 -26.058   6.334  1.00  0.00    -0.550 OA
ATOM     16  O   UNL     1     -46.784 -25.433   7.545  1.00  0.00    -0.550 OA
ENDBRANCH  13  14
ENDBRANCH  12  13
ENDBRANCH  11  12
ENDBRANCH  10  11
ENDBRANCH   9  10
ENDBRANCH   8   9
ENDBRANCH   7   8
ENDBRANCH   6   7
ENDBRANCH   5   6
ENDBRANCH   4   5
ENDBRANCH   3   4
ENDBRANCH   2   3
ENDBRANCH   1   2
BRANCH   1  17
ATOM     17  C   UNL     1     -45.610 -30.125  -0.225  1.00  0.00     0.000 C 
BRANCH  17  18
ATOM     18  C   UNL     1     -46.749 -30.109  -1.258  1.00  0.00     0.000 C 
BRANCH  18  19
ATOM     19  C   UNL     1     -46.321 -29.513  -2.608  1.00  0.00     0.000 C 
BRANCH  19  20
ATOM     20  C   UNL     1     -47.120 -30.081  -3.794  1.00  0.00     0.000 C 
BRANCH  20  21
ATOM     21  C   UNL     1     -46.391 -29.885  -5.136  1.00  0.00     0.000 C 
BRANCH  21  22
ATOM     22  C   UNL     1     -46.055 -28.410  -5.418  1.00  0.00    -0.000 C 
BRANCH  22  23
ATOM     23  C   UNL     1     -46.828 -27.854  -6.626  1.00  0.00    -0.000 C 
BRANCH  23  24
ATOM     24  C   UNL     1     -47.118 -28.931  -7.688  1.00  0.00    -0.000 C 
BRANCH  24  25
ATOM     25  C   UNL     1     -47.123 -28.361  -9.117  1.00  0.00    -0.000 C 
BRANCH  25  26
ATOM     26  C   UNL     1     -45.969 -28.850 -10.014  1.00  0.00    -0.000 C 
BRANCH  26  27
ATOM     27  C   UNL     1     -44.758 -29.407  -9.229  1.00  0.00    -0.000 C 
BRANCH  27  28
ATOM     28  C   UNL     1     -43.397 -29.077  -9.869  1.00  0.00    -0.000 C 
BRANCH  28  29
ATOM     29  C   UNL     1     -42.217 -29.345  -8.923  1.00  0.00    -0.003 C 
ATOM     30  C   UNL     1     -42.711 -29.781  -7.544  1.00  0.00     0.004 C 
ENDBRANCH  28  29
ENDBRANCH  27  28
ENDBRANCH  26  27
ENDBRANCH  25  26
ENDBRANCH  24  25
ENDBRANCH  23  24
ENDBRANCH  22  23
ENDBRANCH  21  22
ENDBRANCH  20  21
ENDBRANCH  19  20
ENDBRANCH  18  19
ENDBRANCH  17  18
ENDBRANCH   1  17
TORSDOF 26
ENDMDL
MODEL 2
REMARK VINA RESULT:    -1.942      4.273     10.963
REMARK INTER + INTRA:          -6.615
REMARK INTER:                  -6.481
REMARK INTRA:                  -0.134
REMARK UNBOUND:                -1.722
REMARK SMILES CCCCCCCCCCCCCCCCCCCCCCCCCCCC(=O)[O-]
REMARK SMILES IDX 15 1 16 2 17 3 18 4 19 5 20 6 21 7 22 8 23 9 24 10 25 11
REMARK SMILES IDX 26 12 27 13 28 14 29 15 30 16 14 17 13 18 12 19 11 20 10 21
REMARK SMILES IDX 9 22 8 23 7 24 6 25 5 26 4 27 3 28 2 29 1 30
REMARK H PARENT
REMARK Flexibility Score: inf
ROOT
ATOM      1  C   UNL     1     -43.001 -26.813  -1.539  1.00  0.00     0.000 C 
ENDROOT
BRANCH   1   2
ATOM      2  C   UNL     1     -44.346 -26.534  -2.232  1.00  0.00     0.000 C 
BRANCH   2   3
ATOM      3  C   UNL     1     -44.722 -27.601  -3.273  1.00  0.00     0.000 C 
BRANCH   3   4
ATOM      4  C   UNL     1     -45.803 -28.566  -2.734  1.00  0.00     0.000 C 
BRANCH   4   5
ATOM      5  C   UNL     1     -46.935 -28.813  -3.746  1.00  0.00     0.000 C 
BRANCH   5   6
ATOM      6  C   UNL     1     -46.416 -28.945  -5.197  1.00  0.00     0.000 C 
BRANCH   6   7
ATOM      7  C   UNL     1     -45.149 -29.807  -5.313  1.00  0.00     0.000 C 
BRANCH   7   8
ATOM      8  C   UNL     1     -44.720 -30.038  -6.773  1.00  0.00     0.000 C 
BRANCH   8   9
ATOM      9  C   UNL     1     -43.186 -30.118  -6.921  1.00  0.00     0.000 C 
BRANCH   9  10
ATOM     10  C   UNL     1     -42.624 -29.242  -8.058  1.00  0.00     0.000 C 
BRANCH  10  11
ATOM     11  C   UNL     1     -43.378 -27.921  -8.290  1.00  0.00     0.000 C 
BRANCH  11  12
ATOM     12  C   UNL     1     -44.086 -27.877  -9.656  1.00  0.00     0.006 C 
BRANCH  12  13
ATOM     13  C   UNL     1     -45.432 -27.143  -9.587  1.00  0.00     0.053 C 
BRANCH  13  14
ATOM     14  C   UNL     1     -46.542 -28.063  -9.179  1.00  0.00     0.041 C 
ATOM     15  O   UNL     1     -47.058 -27.965  -8.035  1.00  0.00    -0.550 OA
ATOM     16  O   UNL     1     -47.026 -29.009 -10.074  1.00  0.00    -0.550 OA
ENDBRANCH  13  14
ENDBRANCH  12  13
ENDBRANCH  11  12
ENDBRANCH  10  11
ENDBRANCH   9  10
ENDBRANCH   8   9
ENDBRANCH   7   8
ENDBRANCH   6   7
ENDBRANCH   5   6
ENDBRANCH   4   5
ENDBRANCH   3   4
ENDBRANCH   2   3
ENDBRANCH   1   2
BRANCH   1  17
ATOM     17  C   UNL     1     -43.138 -27.421  -0.127  1.00  0.00     0.000 C 
BRANCH  17  18
ATOM     18  C   UNL     1     -41.976 -28.369   0.220  1.00  0.00     0.000 C 
BRANCH  18  19
ATOM     19  C   UNL     1     -42.370 -29.852   0.127  1.00  0.00     0.000 C 
BRANCH  19  20
ATOM     20  C   UNL     1     -43.600 -30.091  -0.766  1.00  0.00     0.000 C 
BRANCH  20  21
ATOM     21  C   UNL     1     -44.912 -30.095   0.040  1.00  0.00     0.000 C 
BRANCH  21  22
ATOM     22  C   UNL     1     -45.149 -28.773   0.793  1.00  0.00    -0.000 C 
BRANCH  22  23
ATOM     23  C   UNL     1     -46.618 -28.321   0.735  1.00  0.00    -0.000 C 
BRANCH  23  24
ATOM     24  C   UNL     1     -46.779 -26.805   0.950  1.00  0.00    -0.000 C 
BRANCH  24  25
ATOM     25  C   UNL     1     -46.613 -26.400   2.425  1.00  0.00    -0.000 C 
BRANCH  25  26
ATOM     26  C   UNL     1     -46.988 -27.494   3.444  1.00  0.00    -0.000 C 
BRANCH  26  27
ATOM     27  C   UNL     1     -46.631 -27.137   4.906  1.00  0.00    -0.000 C 
BRANCH  27  28
ATOM     28  C   UNL     1     -45.755 -28.191   5.608  1.00  0.00    -0.000 C 
BRANCH  28  29
ATOM     29  C   UNL     1     -45.321 -27.758   7.016  1.00  0.00    -0.003 C 
ATOM     30  C   UNL     1     -46.217 -26.639   7.544  1.00  0.00     0.004 C 
ENDBRANCH  28  29
ENDBRANCH  27  28
ENDBRANCH  26  27
ENDBRANCH  25  26
ENDBRANCH  24  25
ENDBRANCH  23  24
ENDBRANCH  22  23
ENDBRANCH  21  22
ENDBRANCH  20  21
ENDBRANCH  19  20
ENDBRANCH  18  19
ENDBRANCH  17  18
ENDBRANCH   1  17
TORSDOF 26
ENDMDL
MODEL 3
REMARK VINA RESULT:    -1.847      4.219     11.120
REMARK INTER + INTRA:          -6.378
REMARK INTER:                  -6.735
REMARK INTRA:                   0.358
REMARK UNBOUND:                -1.722
REMARK SMILES CCCCCCCCCCCCCCCCCCCCCCCCCCCC(=O)[O-]
REMARK SMILES IDX 15 1 16 2 17 3 18 4 19 5 20 6 21 7 22 8 23 9 24 10 25 11
REMARK SMILES IDX 26 12 27 13 28 14 29 15 30 16 14 17 13 18 12 19 11 20 10 21
REMARK SMILES IDX 9 22 8 23 7 24 6 25 5 26 4 27 3 28 2 29 1 30
REMARK H PARENT
REMARK Flexibility Score: inf
ROOT
ATOM      1  C   UNL     1     -44.800 -29.377  -1.890  1.00  0.00     0.000 C 
ENDROOT
BRANCH   1   2
ATOM      2  C   UNL     1     -46.265 -29.834  -1.776  1.00  0.00     0.000 C 
BRANCH   2   3
ATOM      3  C   UNL     1     -46.930 -30.072  -3.141  1.00  0.00     0.000 C 
BRANCH   3   4
ATOM      4  C   UNL     1     -45.947 -29.816  -4.307  1.00  0.00     0.000 C 
BRANCH   4   5
ATOM      5  C   UNL     1     -46.196 -28.469  -5.007  1.00  0.00     0.000 C 
BRANCH   5   6
ATOM      6  C   UNL     1     -44.889 -27.681  -5.259  1.00  0.00     0.000 C 
BRANCH   6   7
ATOM      7  C   UNL     1     -44.368 -27.811  -6.699  1.00  0.00     0.000 C 
BRANCH   7   8
ATOM      8  C   UNL     1     -44.759 -26.611  -7.581  1.00  0.00     0.000 C 
BRANCH   8   9
ATOM      9  C   UNL     1     -46.036 -26.888  -8.403  1.00  0.00     0.000 C 
BRANCH   9  10
ATOM     10  C   UNL     1     -45.891 -28.052  -9.404  1.00  0.00     0.000 C 
BRANCH  10  11
ATOM     11  C   UNL     1     -45.472 -29.394  -8.780  1.00  0.00     0.000 C 
BRANCH  11  12
ATOM     12  C   UNL     1     -44.352 -30.090  -9.574  1.00  0.00     0.006 C 
BRANCH  12  13
ATOM     13  C   UNL     1     -43.210 -29.130  -9.929  1.00  0.00     0.053 C 
BRANCH  13  14
ATOM     14  C   UNL     1     -42.008 -29.360  -9.063  1.00  0.00     0.041 C 
ATOM     15  O   UNL     1     -40.917 -29.722  -9.577  1.00  0.00    -0.550 OA
ATOM     16  O   UNL     1     -42.087 -29.145  -7.693  1.00  0.00    -0.550 OA
ENDBRANCH  13  14
ENDBRANCH  12  13
ENDBRANCH  11  12
ENDBRANCH  10  11
ENDBRANCH   9  10
ENDBRANCH   8   9
ENDBRANCH   7   8
ENDBRANCH   6   7
ENDBRANCH   5   6
ENDBRANCH   4   5
ENDBRANCH   3   4
ENDBRANCH   2   3
ENDBRANCH   1   2
BRANCH   1  17
ATOM     17  C   UNL     1     -43.878 -29.943  -0.788  1.00  0.00     0.000 C 
BRANCH  17  18
ATOM     18  C   UNL     1     -42.390 -29.870  -1.171  1.00  0.00     0.000 C 
BRANCH  18  19
ATOM     19  C   UNL     1     -41.492 -29.453   0.005  1.00  0.00     0.000 C 
BRANCH  19  20
ATOM     20  C   UNL     1     -41.427 -27.927   0.197  1.00  0.00     0.000 C 
BRANCH  20  21
ATOM     21  C   UNL     1     -42.634 -27.208  -0.433  1.00  0.00     0.000 C 
BRANCH  21  22
ATOM     22  C   UNL     1     -43.909 -27.333   0.420  1.00  0.00    -0.000 C 
BRANCH  22  23
ATOM     23  C   UNL     1     -44.488 -25.962   0.810  1.00  0.00    -0.000 C 
BRANCH  23  24
ATOM     24  C   UNL     1     -45.661 -26.076   1.801  1.00  0.00    -0.000 C 
BRANCH  24  25
ATOM     25  C   UNL     1     -46.228 -27.504   1.880  1.00  0.00    -0.000 C 
BRANCH  25  26
ATOM     26  C   UNL     1     -46.720 -27.930   3.276  1.00  0.00    -0.000 C 
BRANCH  26  27
ATOM     27  C   UNL     1     -46.040 -27.170   4.440  1.00  0.00    -0.000 C 
BRANCH  27  28
ATOM     28  C   UNL     1     -46.391 -27.721   5.834  1.00  0.00    -0.000 C 
BRANCH  28  29
ATOM     29  C   UNL     1     -45.148 -28.112   6.647  1.00  0.00    -0.003 C 
ATOM     30  C   UNL     1     -45.057 -29.628   6.812  1.00  0.00     0.004 C 
ENDBRANCH  28  29
ENDBRANCH  27  28
ENDBRANCH  26  27
ENDBRANCH  25  26
ENDBRANCH  24  25
ENDBRANCH  23  24
ENDBRANCH  22  23
ENDBRANCH  21  22
ENDBRANCH  20  21
ENDBRANCH  19  20
ENDBRANCH  18  19
ENDBRANCH  17  18
ENDBRANCH   1  17
TORSDOF 26
ENDMDL
MODEL 4
REMARK VINA RESULT:    -1.204      1.580      2.630
REMARK INTER + INTRA:          -4.755
REMARK INTER:                  -4.707
REMARK INTRA:                  -0.049
REMARK UNBOUND:                -1.722
REMARK SMILES CCCCCCCCCCCCCCCCCCCCCCCCCCCC(=O)[O-]
REMARK SMILES IDX 15 1 16 2 17 3 18 4 19 5 20 6 21 7 22 8 23 9 24 10 25 11
REMARK SMILES IDX 26 12 27 13 28 14 29 15 30 16 14 17 13 18 12 19 11 20 10 21
REMARK SMILES IDX 9 22 8 23 7 24 6 25 5 26 4 27 3 28 2 29 1 30
REMARK H PARENT
REMARK Flexibility Score: inf
ROOT
ATOM      1  C   UNL     1     -41.552 -27.722  -1.006  1.00  0.00     0.000 C 
ENDROOT
BRANCH   1   2
ATOM      2  C   UNL     1     -42.025 -28.263   0.354  1.00  0.00     0.000 C 
BRANCH   2   3
ATOM      3  C   UNL     1     -42.263 -29.781   0.350  1.00  0.00     0.000 C 
BRANCH   3   4
ATOM      4  C   UNL     1     -43.768 -30.122   0.457  1.00  0.00     0.000 C 
BRANCH   4   5
ATOM      5  C   UNL     1     -44.625 -28.905   0.843  1.00  0.00     0.000 C 
BRANCH   5   6
ATOM      6  C   UNL     1     -46.006 -29.308   1.412  1.00  0.00     0.000 C 
BRANCH   6   7
ATOM      7  C   UNL     1     -46.592 -28.268   2.380  1.00  0.00     0.000 C 
BRANCH   7   8
ATOM      8  C   UNL     1     -47.091 -28.895   3.694  1.00  0.00     0.000 C 
BRANCH   8   9
ATOM      9  C   UNL     1     -46.065 -29.882   4.292  1.00  0.00     0.000 C 
BRANCH   9  10
ATOM     10  C   UNL     1     -45.850 -29.712   5.808  1.00  0.00     0.000 C 
BRANCH  10  11
ATOM     11  C   UNL     1     -45.537 -28.275   6.260  1.00  0.00     0.000 C 
BRANCH  11  12
ATOM     12  C   UNL     1     -45.680 -28.090   7.782  1.00  0.00     0.006 C 
BRANCH  12  13
ATOM     13  C   UNL     1     -46.900 -27.235   8.148  1.00  0.00     0.053 C 
BRANCH  13  14
ATOM     14  C   UNL     1     -46.879 -25.912   7.443  1.00  0.00     0.041 C 
ATOM     15  O   UNL     1     -46.770 -24.845   8.102  1.00  0.00    -0.550 OA
ATOM     16  O   UNL     1     -46.950 -25.862   6.057  1.00  0.00    -0.550 OA
ENDBRANCH  13  14
ENDBRANCH  12  13
ENDBRANCH  11  12
ENDBRANCH  10  11
ENDBRANCH   9  10
ENDBRANCH   8   9
ENDBRANCH   7   8
ENDBRANCH   6   7
ENDBRANCH   5   6
ENDBRANCH   4   5
ENDBRANCH   3   4
ENDBRANCH   2   3
ENDBRANCH   1   2
BRANCH   1  17
ATOM     17  C   UNL     1     -42.514 -26.695  -1.641  1.00  0.00     0.000 C 
BRANCH  17  18
ATOM     18  C   UNL     1     -43.980 -26.939  -1.244  1.00  0.00     0.000 C 
BRANCH  18  19
ATOM     19  C   UNL     1     -44.603 -28.141  -1.972  1.00  0.00     0.000 C 
BRANCH  19  20
ATOM     20  C   UNL     1     -45.752 -27.741  -2.915  1.00  0.00     0.000 C 
BRANCH  20  21
ATOM     21  C   UNL     1     -46.573 -28.957  -3.381  1.00  0.00     0.000 C 
BRANCH  21  22
ATOM     22  C   UNL     1     -47.125 -28.787  -4.809  1.00  0.00    -0.000 C 
BRANCH  22  23
ATOM     23  C   UNL     1     -47.073 -30.095  -5.616  1.00  0.00    -0.000 C 
BRANCH  23  24
ATOM     24  C   UNL     1     -46.698 -29.865  -7.091  1.00  0.00    -0.000 C 
BRANCH  24  25
ATOM     25  C   UNL     1     -45.202 -29.556  -7.276  1.00  0.00    -0.000 C 
BRANCH  25  26
ATOM     26  C   UNL     1     -44.900 -28.242  -8.022  1.00  0.00    -0.000 C 
BRANCH  26  27
ATOM     27  C   UNL     1     -43.445 -27.744  -7.850  1.00  0.00    -0.000 C 
BRANCH  27  28
ATOM     28  C   UNL     1     -42.478 -28.817  -7.319  1.00  0.00    -0.000 C 
BRANCH  28  29
ATOM     29  C   UNL     1     -42.124 -29.872  -8.378  1.00  0.00    -0.003 C 
ATOM     30  C   UNL     1     -41.720 -29.211  -9.694  1.00  0.00     0.004 C 
ENDBRANCH  28  29
ENDBRANCH  27  28
ENDBRANCH  26  27
ENDBRANCH  25  26
ENDBRANCH  24  25
ENDBRANCH  23  24
ENDBRANCH  22  23
ENDBRANCH  21  22
ENDBRANCH  20  21
ENDBRANCH  19  20
ENDBRANCH  18  19
ENDBRANCH  17  18
ENDBRANCH   1  17
TORSDOF 26
ENDMDL
MODEL 5
REMARK VINA RESULT:    -1.199      4.118     12.307
REMARK INTER + INTRA:          -4.745
REMARK INTER:                  -5.985
REMARK INTRA:                   1.240
REMARK UNBOUND:                -1.722
REMARK SMILES CCCCCCCCCCCCCCCCCCCCCCCCCCCC(=O)[O-]
REMARK SMILES IDX 15 1 16 2 17 3 18 4 19 5 20 6 21 7 22 8 23 9 24 10 25 11
REMARK SMILES IDX 26 12 27 13 28 14 29 15 30 16 14 17 13 18 12 19 11 20 10 21
REMARK SMILES IDX 9 22 8 23 7 24 6 25 5 26 4 27 3 28 2 29 1 30
REMARK H PARENT
REMARK Flexibility Score: inf
ROOT
ATOM      1  C   UNL     1     -44.391 -27.963  -2.362  1.00  0.00     0.000 C 
ENDROOT
BRANCH   1   2
ATOM      2  C   UNL     1     -44.438 -27.442  -3.809  1.00  0.00     0.000 C 
BRANCH   2   3
ATOM      3  C   UNL     1     -45.803 -27.657  -4.483  1.00  0.00     0.000 C 
BRANCH   3   4
ATOM      4  C   UNL     1     -46.643 -28.723  -3.742  1.00  0.00     0.000 C 
BRANCH   4   5
ATOM      5  C   UNL     1     -46.669 -30.074  -4.478  1.00  0.00     0.000 C 
BRANCH   5   6
ATOM      6  C   UNL     1     -47.060 -29.930  -5.968  1.00  0.00     0.000 C 
BRANCH   6   7
ATOM      7  C   UNL     1     -46.362 -28.754  -6.669  1.00  0.00     0.000 C 
BRANCH   7   8
ATOM      8  C   UNL     1     -47.125 -28.268  -7.915  1.00  0.00     0.000 C 
BRANCH   8   9
ATOM      9  C   UNL     1     -46.170 -27.873  -9.061  1.00  0.00     0.000 C 
BRANCH   9  10
ATOM     10  C   UNL     1     -45.815 -29.040 -10.004  1.00  0.00     0.000 C 
BRANCH  10  11
ATOM     11  C   UNL     1     -44.870 -30.093  -9.403  1.00  0.00     0.000 C 
BRANCH  11  12
ATOM     12  C   UNL     1     -43.438 -29.987  -9.956  1.00  0.00     0.006 C 
BRANCH  12  13
ATOM     13  C   UNL     1     -42.689 -28.770  -9.398  1.00  0.00     0.053 C 
BRANCH  13  14
ATOM     14  C   UNL     1     -42.560 -28.839  -7.906  1.00  0.00     0.041 C 
ATOM     15  O   UNL     1     -43.001 -27.904  -7.188  1.00  0.00    -0.550 OA
ATOM     16  O   UNL     1     -41.978 -29.951  -7.309  1.00  0.00    -0.550 OA
ENDBRANCH  13  14
ENDBRANCH  12  13
ENDBRANCH  11  12
ENDBRANCH  10  11
ENDBRANCH   9  10
ENDBRANCH   8   9
ENDBRANCH   7   8
ENDBRANCH   6   7
ENDBRANCH   5   6
ENDBRANCH   4   5
ENDBRANCH   3   4
ENDBRANCH   2   3
ENDBRANCH   1   2
BRANCH   1  17
ATOM     17  C   UNL     1     -45.669 -27.670  -1.548  1.00  0.00     0.000 C 
BRANCH  17  18
ATOM     18  C   UNL     1     -45.410 -27.652  -0.032  1.00  0.00     0.000 C 
BRANCH  18  19
ATOM     19  C   UNL     1     -46.521 -26.938   0.755  1.00  0.00     0.000 C 
BRANCH  19  20
ATOM     20  C   UNL     1     -46.007 -26.265   2.040  1.00  0.00     0.000 C 
BRANCH  20  21
ATOM     21  C   UNL     1     -46.915 -26.551   3.250  1.00  0.00     0.000 C 
BRANCH  21  22
ATOM     22  C   UNL     1     -46.163 -27.235   4.407  1.00  0.00    -0.000 C 
BRANCH  22  23
ATOM     23  C   UNL     1     -46.279 -28.768   4.354  1.00  0.00    -0.000 C 
BRANCH  23  24
ATOM     24  C   UNL     1     -45.244 -29.470   5.252  1.00  0.00    -0.000 C 
BRANCH  24  25
ATOM     25  C   UNL     1     -45.309 -28.988   6.712  1.00  0.00    -0.000 C 
BRANCH  25  26
ATOM     26  C   UNL     1     -46.730 -28.731   7.248  1.00  0.00    -0.000 C 
BRANCH  26  27
ATOM     27  C   UNL     1     -47.125 -27.236   7.289  1.00  0.00    -0.000 C 
BRANCH  27  28
ATOM     28  C   UNL     1     -46.621 -26.494   8.540  1.00  0.00    -0.000 C 
BRANCH  28  29
ATOM     29  C   UNL     1     -46.750 -24.968   8.417  1.00  0.00    -0.003 C 
ATOM     30  C   UNL     1     -46.882 -24.318   9.792  1.00  0.00     0.004 C 
ENDBRANCH  28  29
ENDBRANCH  27  28
ENDBRANCH  26  27
ENDBRANCH  25  26
ENDBRANCH  24  25
ENDBRANCH  23  24
ENDBRANCH  22  23
ENDBRANCH  21  22
ENDBRANCH  20  21
ENDBRANCH  19  20
ENDBRANCH  18  19
ENDBRANCH  17  18
ENDBRANCH   1  17
TORSDOF 26
ENDMDL
MODEL 6
REMARK VINA RESULT:    -0.662      3.847     11.212
REMARK INTER + INTRA:          -3.391
REMARK INTER:                  -4.675
REMARK INTRA:                   1.283
REMARK UNBOUND:                -1.722
REMARK SMILES CCCCCCCCCCCCCCCCCCCCCCCCCCCC(=O)[O-]
REMARK SMILES IDX 15 1 16 2 17 3 18 4 19 5 20 6 21 7 22 8 23 9 24 10 25 11
REMARK SMILES IDX 26 12 27 13 28 14 29 15 30 16 14 17 13 18 12 19 11 20 10 21
REMARK SMILES IDX 9 22 8 23 7 24 6 25 5 26 4 27 3 28 2 29 1 30
REMARK H PARENT
REMARK Flexibility Score: inf
ROOT
ATOM      1  C   UNL     1     -43.445 -28.707  -1.268  1.00  0.00     0.000 C 
ENDROOT
BRANCH   1   2
ATOM      2  C   UNL     1     -44.179 -30.046  -1.464  1.00  0.00     0.000 C 
BRANCH   2   3
ATOM      3  C   UNL     1     -45.264 -29.985  -2.550  1.00  0.00     0.000 C 
BRANCH   3   4
ATOM      4  C   UNL     1     -46.158 -28.734  -2.393  1.00  0.00     0.000 C 
BRANCH   4   5
ATOM      5  C   UNL     1     -46.791 -28.287  -3.722  1.00  0.00     0.000 C 
BRANCH   5   6
ATOM      6  C   UNL     1     -47.119 -29.478  -4.653  1.00  0.00     0.000 C 
BRANCH   6   7
ATOM      7  C   UNL     1     -46.825 -29.191  -6.134  1.00  0.00     0.000 C 
BRANCH   7   8
ATOM      8  C   UNL     1     -46.923 -27.694  -6.479  1.00  0.00     0.000 C 
BRANCH   8   9
ATOM      9  C   UNL     1     -46.268 -27.369  -7.839  1.00  0.00     0.000 C 
BRANCH   9  10
ATOM     10  C   UNL     1     -46.314 -28.535  -8.845  1.00  0.00     0.000 C 
BRANCH  10  11
ATOM     11  C   UNL     1     -45.460 -28.334 -10.109  1.00  0.00     0.000 C 
BRANCH  11  12
ATOM     12  C   UNL     1     -44.022 -28.856  -9.940  1.00  0.00     0.006 C 
BRANCH  12  13
ATOM     13  C   UNL     1     -43.302 -28.197  -8.756  1.00  0.00     0.053 C 
BRANCH  13  14
ATOM     14  C   UNL     1     -42.948 -29.199  -7.699  1.00  0.00     0.041 C 
ATOM     15  O   UNL     1     -43.604 -29.246  -6.625  1.00  0.00    -0.550 OA
ATOM     16  O   UNL     1     -41.913 -30.100  -7.914  1.00  0.00    -0.550 OA
ENDBRANCH  13  14
ENDBRANCH  12  13
ENDBRANCH  11  12
ENDBRANCH  10  11
ENDBRANCH   9  10
ENDBRANCH   8   9
ENDBRANCH   7   8
ENDBRANCH   6   7
ENDBRANCH   5   6
ENDBRANCH   4   5
ENDBRANCH   3   4
ENDBRANCH   2   3
ENDBRANCH   1   2
BRANCH   1  17
ATOM     17  C   UNL     1     -42.039 -28.848  -0.645  1.00  0.00     0.000 C 
BRANCH  17  18
ATOM     18  C   UNL     1     -41.732 -27.734   0.370  1.00  0.00     0.000 C 
BRANCH  18  19
ATOM     19  C   UNL     1     -43.001 -27.059   0.917  1.00  0.00     0.000 C 
BRANCH  19  20
ATOM     20  C   UNL     1     -44.023 -26.725  -0.184  1.00  0.00     0.000 C 
BRANCH  20  21
ATOM     21  C   UNL     1     -45.421 -27.289   0.129  1.00  0.00     0.000 C 
BRANCH  21  22
ATOM     22  C   UNL     1     -45.491 -27.965   1.511  1.00  0.00    -0.000 C 
BRANCH  22  23
ATOM     23  C   UNL     1     -46.920 -28.400   1.877  1.00  0.00    -0.000 C 
BRANCH  23  24
ATOM     24  C   UNL     1     -46.955 -29.369   3.074  1.00  0.00    -0.000 C 
BRANCH  24  25
ATOM     25  C   UNL     1     -46.168 -28.837   4.284  1.00  0.00    -0.000 C 
BRANCH  25  26
ATOM     26  C   UNL     1     -46.631 -29.382   5.649  1.00  0.00    -0.000 C 
BRANCH  26  27
ATOM     27  C   UNL     1     -45.681 -29.034   6.818  1.00  0.00    -0.000 C 
BRANCH  27  28
ATOM     28  C   UNL     1     -45.932 -27.645   7.432  1.00  0.00    -0.000 C 
BRANCH  28  29
ATOM     29  C   UNL     1     -45.636 -26.501   6.451  1.00  0.00    -0.003 C 
ATOM     30  C   UNL     1     -46.930 -25.867   5.944  1.00  0.00     0.004 C 
ENDBRANCH  28  29
ENDBRANCH  27  28
ENDBRANCH  26  27
ENDBRANCH  25  26
ENDBRANCH  24  25
ENDBRANCH  23  24
ENDBRANCH  22  23
ENDBRANCH  21  22
ENDBRANCH  20  21
ENDBRANCH  19  20
ENDBRANCH  18  19
ENDBRANCH  17  18
ENDBRANCH   1  17
TORSDOF 26
ENDMDL
MODEL 7
REMARK VINA RESULT:    -0.586      1.755      3.160
REMARK INTER + INTRA:          -3.199
REMARK INTER:                  -5.061
REMARK INTRA:                   1.863
REMARK UNBOUND:                -1.722
REMARK SMILES CCCCCCCCCCCCCCCCCCCCCCCCCCCC(=O)[O-]
REMARK SMILES IDX 15 1 16 2 17 3 18 4 19 5 20 6 21 7 22 8 23 9 24 10 25 11
REMARK SMILES IDX 26 12 27 13 28 14 29 15 30 16 14 17 13 18 12 19 11 20 10 21
REMARK SMILES IDX 9 22 8 23 7 24 6 25 5 26 4 27 3 28 2 29 1 30
REMARK H PARENT
REMARK Flexibility Score: inf
ROOT
ATOM      1  C   UNL     1     -44.354 -27.583  -0.094  1.00  0.00     0.000 C 
ENDROOT
BRANCH   1   2
ATOM      2  C   UNL     1     -45.328 -27.730   1.088  1.00  0.00     0.000 C 
BRANCH   2   3
ATOM      3  C   UNL     1     -46.789 -27.451   0.703  1.00  0.00     0.000 C 
BRANCH   3   4
ATOM      4  C   UNL     1     -47.114 -25.940   0.757  1.00  0.00     0.000 C 
BRANCH   4   5
ATOM      5  C   UNL     1     -46.943 -25.346   2.166  1.00  0.00     0.000 C 
BRANCH   5   6
ATOM      6  C   UNL     1     -47.124 -26.403   3.281  1.00  0.00     0.000 C 
BRANCH   6   7
ATOM      7  C   UNL     1     -46.274 -26.122   4.529  1.00  0.00     0.000 C 
BRANCH   7   8
ATOM      8  C   UNL     1     -46.978 -26.540   5.833  1.00  0.00     0.000 C 
BRANCH   8   9
ATOM      9  C   UNL     1     -47.009 -28.073   6.009  1.00  0.00     0.000 C 
BRANCH   9  10
ATOM     10  C   UNL     1     -46.367 -28.845   4.839  1.00  0.00     0.000 C 
BRANCH  10  11
ATOM     11  C   UNL     1     -45.252 -29.823   5.245  1.00  0.00     0.000 C 
BRANCH  11  12
ATOM     12  C   UNL     1     -45.249 -30.125   6.754  1.00  0.00     0.006 C 
BRANCH  12  13
ATOM     13  C   UNL     1     -46.646 -29.988   7.375  1.00  0.00     0.053 C 
BRANCH  13  14
ATOM     14  C   UNL     1     -46.620 -29.135   8.607  1.00  0.00     0.041 C 
ATOM     15  O   UNL     1     -47.125 -29.557   9.680  1.00  0.00    -0.550 OA
ATOM     16  O   UNL     1     -46.013 -27.886   8.575  1.00  0.00    -0.550 OA
ENDBRANCH  13  14
ENDBRANCH  12  13
ENDBRANCH  11  12
ENDBRANCH  10  11
ENDBRANCH   9  10
ENDBRANCH   8   9
ENDBRANCH   7   8
ENDBRANCH   6   7
ENDBRANCH   5   6
ENDBRANCH   4   5
ENDBRANCH   3   4
ENDBRANCH   2   3
ENDBRANCH   1   2
BRANCH   1  17
ATOM     17  C   UNL     1     -43.123 -28.511  -0.012  1.00  0.00     0.000 C 
BRANCH  17  18
ATOM     18  C   UNL     1     -43.190 -29.667  -1.026  1.00  0.00     0.000 C 
BRANCH  18  19
ATOM     19  C   UNL     1     -44.630 -30.020  -1.433  1.00  0.00     0.000 C 
BRANCH  19  20
ATOM     20  C   UNL     1     -44.818 -30.098  -2.959  1.00  0.00     0.000 C 
BRANCH  20  21
ATOM     21  C   UNL     1     -46.279 -29.853  -3.378  1.00  0.00     0.000 C 
BRANCH  21  22
ATOM     22  C   UNL     1     -46.438 -28.611  -4.275  1.00  0.00    -0.000 C 
BRANCH  22  23
ATOM     23  C   UNL     1     -46.887 -28.972  -5.700  1.00  0.00    -0.000 C 
BRANCH  23  24
ATOM     24  C   UNL     1     -45.733 -29.513  -6.564  1.00  0.00    -0.000 C 
BRANCH  24  25
ATOM     25  C   UNL     1     -44.476 -28.629  -6.488  1.00  0.00    -0.000 C 
BRANCH  25  26
ATOM     26  C   UNL     1     -44.474 -27.422  -7.445  1.00  0.00    -0.000 C 
BRANCH  26  27
ATOM     27  C   UNL     1     -43.419 -27.518  -8.573  1.00  0.00    -0.000 C 
BRANCH  27  28
ATOM     28  C   UNL     1     -42.319 -28.563  -8.309  1.00  0.00    -0.000 C 
BRANCH  28  29
ATOM     29  C   UNL     1     -42.483 -29.826  -9.167  1.00  0.00    -0.003 C 
ATOM     30  C   UNL     1     -43.923 -29.971  -9.655  1.00  0.00     0.004 C 
ENDBRANCH  28  29
ENDBRANCH  27  28
ENDBRANCH  26  27
ENDBRANCH  25  26
ENDBRANCH  24  25
ENDBRANCH  23  24
ENDBRANCH  22  23
ENDBRANCH  21  22
ENDBRANCH  20  21
ENDBRANCH  19  20
ENDBRANCH  18  19
ENDBRANCH  17  18
ENDBRANCH   1  17
TORSDOF 26
ENDMDL
MODEL 8
REMARK VINA RESULT:    -0.121      4.076     10.832
REMARK INTER + INTRA:          -2.028
REMARK INTER:                  -4.009
REMARK INTRA:                   1.981
REMARK UNBOUND:                -1.722
REMARK SMILES CCCCCCCCCCCCCCCCCCCCCCCCCCCC(=O)[O-]
REMARK SMILES IDX 15 1 16 2 17 3 18 4 19 5 20 6 21 7 22 8 23 9 24 10 25 11
REMARK SMILES IDX 26 12 27 13 28 14 29 15 30 16 14 17 13 18 12 19 11 20 10 21
REMARK SMILES IDX 9 22 8 23 7 24 6 25 5 26 4 27 3 28 2 29 1 30
REMARK H PARENT
REMARK Flexibility Score: inf
ROOT
ATOM      1  C   UNL     1     -42.100 -27.289  -0.456  1.00  0.00     0.000 C 
ENDROOT
BRANCH   1   2
ATOM      2  C   UNL     1     -42.125 -28.648   0.266  1.00  0.00     0.000 C 
BRANCH   2   3
ATOM      3  C   UNL     1     -43.476 -29.369   0.148  1.00  0.00     0.000 C 
BRANCH   3   4
ATOM      4  C   UNL     1     -43.610 -30.113  -1.200  1.00  0.00     0.000 C 
BRANCH   4   5
ATOM      5  C   UNL     1     -44.983 -29.901  -1.861  1.00  0.00     0.000 C 
BRANCH   5   6
ATOM      6  C   UNL     1     -44.946 -30.125  -3.392  1.00  0.00     0.000 C 
BRANCH   6   7
ATOM      7  C   UNL     1     -46.232 -29.678  -4.103  1.00  0.00     0.000 C 
BRANCH   7   8
ATOM      8  C   UNL     1     -46.164 -29.869  -5.629  1.00  0.00     0.000 C 
BRANCH   8   9
ATOM      9  C   UNL     1     -46.346 -28.537  -6.388  1.00  0.00     0.000 C 
BRANCH   9  10
ATOM     10  C   UNL     1     -46.852 -28.710  -7.834  1.00  0.00     0.000 C 
BRANCH  10  11
ATOM     11  C   UNL     1     -46.031 -27.964  -8.900  1.00  0.00     0.000 C 
BRANCH  11  12
ATOM     12  C   UNL     1     -45.011 -28.875  -9.605  1.00  0.00     0.006 C 
BRANCH  12  13
ATOM     13  C   UNL     1     -44.288 -29.805  -8.621  1.00  0.00     0.053 C 
BRANCH  13  14
ATOM     14  C   UNL     1     -43.114 -29.127  -7.982  1.00  0.00     0.041 C 
ATOM     15  O   UNL     1     -42.108 -29.798  -7.633  1.00  0.00    -0.550 OA
ATOM     16  O   UNL     1     -43.121 -27.750  -7.800  1.00  0.00    -0.550 OA
ENDBRANCH  13  14
ENDBRANCH  12  13
ENDBRANCH  11  12
ENDBRANCH  10  11
ENDBRANCH   9  10
ENDBRANCH   8   9
ENDBRANCH   7   8
ENDBRANCH   6   7
ENDBRANCH   5   6
ENDBRANCH   4   5
ENDBRANCH   3   4
ENDBRANCH   2   3
ENDBRANCH   1   2
BRANCH   1  17
ATOM     17  C   UNL     1     -43.411 -26.484  -0.324  1.00  0.00     0.000 C 
BRANCH  17  18
ATOM     18  C   UNL     1     -44.218 -26.455  -1.633  1.00  0.00     0.000 C 
BRANCH  18  19
ATOM     19  C   UNL     1     -45.230 -27.608  -1.735  1.00  0.00     0.000 C 
BRANCH  19  20
ATOM     20  C   UNL     1     -46.553 -27.310  -1.007  1.00  0.00     0.000 C 
BRANCH  20  21
ATOM     21  C   UNL     1     -47.030 -28.500  -0.155  1.00  0.00     0.000 C 
BRANCH  21  22
ATOM     22  C   UNL     1     -47.094 -28.166   1.347  1.00  0.00    -0.000 C 
BRANCH  22  23
ATOM     23  C   UNL     1     -46.152 -27.013   1.730  1.00  0.00    -0.000 C 
BRANCH  23  24
ATOM     24  C   UNL     1     -46.560 -26.329   3.048  1.00  0.00    -0.000 C 
BRANCH  24  25
ATOM     25  C   UNL     1     -46.692 -27.326   4.212  1.00  0.00    -0.000 C 
BRANCH  25  26
ATOM     26  C   UNL     1     -45.740 -27.070   5.396  1.00  0.00    -0.000 C 
BRANCH  26  27
ATOM     27  C   UNL     1     -46.345 -27.422   6.775  1.00  0.00    -0.000 C 
BRANCH  27  28
ATOM     28  C   UNL     1     -47.095 -28.766   6.801  1.00  0.00    -0.000 C 
BRANCH  28  29
ATOM     29  C   UNL     1     -46.206 -29.949   6.388  1.00  0.00    -0.003 C 
ATOM     30  C   UNL     1     -44.774 -29.753   6.880  1.00  0.00     0.004 C 
ENDBRANCH  28  29
ENDBRANCH  27  28
ENDBRANCH  26  27
ENDBRANCH  25  26
ENDBRANCH  24  25
ENDBRANCH  23  24
ENDBRANCH  22  23
ENDBRANCH  21  22
ENDBRANCH  20  21
ENDBRANCH  19  20
ENDBRANCH  18  19
ENDBRANCH  17  18
ENDBRANCH   1  17
TORSDOF 26
ENDMDL
MODEL 9
REMARK VINA RESULT:     0.454      3.937     10.530
REMARK INTER + INTRA:          -0.579
REMARK INTER:                  -1.317
REMARK INTRA:                   0.738
REMARK UNBOUND:                -1.722
REMARK SMILES CCCCCCCCCCCCCCCCCCCCCCCCCCCC(=O)[O-]
REMARK SMILES IDX 15 1 16 2 17 3 18 4 19 5 20 6 21 7 22 8 23 9 24 10 25 11
REMARK SMILES IDX 26 12 27 13 28 14 29 15 30 16 14 17 13 18 12 19 11 20 10 21
REMARK SMILES IDX 9 22 8 23 7 24 6 25 5 26 4 27 3 28 2 29 1 30
REMARK H PARENT
REMARK Flexibility Score: inf
ROOT
ATOM      1  C   UNL     1     -44.356 -27.714  -2.435  1.00  0.00     0.000 C 
ENDROOT
BRANCH   1   2
ATOM      2  C   UNL     1     -44.485 -27.265  -3.902  1.00  0.00     0.000 C 
BRANCH   2   3
ATOM      3  C   UNL     1     -45.908 -27.425  -4.459  1.00  0.00     0.000 C 
BRANCH   3   4
ATOM      4  C   UNL     1     -46.711 -28.488  -3.675  1.00  0.00     0.000 C 
BRANCH   4   5
ATOM      5  C   UNL     1     -46.790 -29.836  -4.413  1.00  0.00     0.000 C 
BRANCH   5   6
ATOM      6  C   UNL     1     -47.094 -29.669  -5.920  1.00  0.00     0.000 C 
BRANCH   6   7
ATOM      7  C   UNL     1     -46.538 -28.365  -6.513  1.00  0.00     0.000 C 
BRANCH   7   8
ATOM      8  C   UNL     1     -47.035 -28.105  -7.946  1.00  0.00     0.000 C 
BRANCH   8   9
ATOM      9  C   UNL     1     -45.877 -27.760  -8.907  1.00  0.00     0.000 C 
BRANCH   9  10
ATOM     10  C   UNL     1     -45.713 -28.763 -10.066  1.00  0.00     0.000 C 
BRANCH  10  11
ATOM     11  C   UNL     1     -44.624 -29.828  -9.851  1.00  0.00     0.000 C 
BRANCH  11  12
ATOM     12  C   UNL     1     -43.202 -29.256  -9.993  1.00  0.00     0.006 C 
BRANCH  12  13
ATOM     13  C   UNL     1     -42.309 -29.622  -8.800  1.00  0.00     0.053 C 
BRANCH  13  14
ATOM     14  C   UNL     1     -42.661 -28.820  -7.583  1.00  0.00     0.041 C 
ATOM     15  O   UNL     1     -42.576 -29.338  -6.438  1.00  0.00    -0.550 OA
ATOM     16  O   UNL     1     -43.053 -27.494  -7.712  1.00  0.00    -0.550 OA
ENDBRANCH  13  14
ENDBRANCH  12  13
ENDBRANCH  11  12
ENDBRANCH  10  11
ENDBRANCH   9  10
ENDBRANCH   8   9
ENDBRANCH   7   8
ENDBRANCH   6   7
ENDBRANCH   5   6
ENDBRANCH   4   5
ENDBRANCH   3   4
ENDBRANCH   2   3
ENDBRANCH   1   2
BRANCH   1  17
ATOM     17  C   UNL     1     -45.488 -27.199  -1.520  1.00  0.00     0.000 C 
BRANCH  17  18
ATOM     18  C   UNL     1     -45.017 -26.974  -0.073  1.00  0.00     0.000 C 
BRANCH  18  19
ATOM     19  C   UNL     1     -46.031 -26.183   0.768  1.00  0.00     0.000 C 
BRANCH  19  20
ATOM     20  C   UNL     1     -45.369 -25.357   1.885  1.00  0.00     0.000 C 
BRANCH  20  21
ATOM     21  C   UNL     1     -46.161 -25.420   3.204  1.00  0.00     0.000 C 
BRANCH  21  22
ATOM     22  C   UNL     1     -45.910 -26.724   3.984  1.00  0.00    -0.000 C 
BRANCH  22  23
ATOM     23  C   UNL     1     -47.108 -27.685   3.915  1.00  0.00    -0.000 C 
BRANCH  23  24
ATOM     24  C   UNL     1     -46.892 -28.960   4.752  1.00  0.00    -0.000 C 
BRANCH  24  25
ATOM     25  C   UNL     1     -46.331 -30.124   3.917  1.00  0.00    -0.000 C 
BRANCH  25  26
ATOM     26  C   UNL     1     -45.296 -29.716   2.850  1.00  0.00    -0.000 C 
BRANCH  26  27
ATOM     27  C   UNL     1     -45.833 -29.779   1.401  1.00  0.00    -0.000 C 
BRANCH  27  28
ATOM     28  C   UNL     1     -44.759 -30.125   0.353  1.00  0.00    -0.000 C 
BRANCH  28  29
ATOM     29  C   UNL     1     -43.373 -29.573   0.721  1.00  0.00    -0.003 C 
ATOM     30  C   UNL     1     -42.336 -29.956  -0.332  1.00  0.00     0.004 C 
ENDBRANCH  28  29
ENDBRANCH  27  28
ENDBRANCH  26  27
ENDBRANCH  25  26
ENDBRANCH  24  25
ENDBRANCH  23  24
ENDBRANCH  22  23
ENDBRANCH  21  22
ENDBRANCH  20  21
ENDBRANCH  19  20
ENDBRANCH  18  19
ENDBRANCH  17  18
ENDBRANCH   1  17
TORSDOF 26
ENDMDL
