MODEL 1
REMARK VINA RESULT:    -5.494      0.000      0.000
REMARK INTER + INTRA:          -5.816
REMARK INTER:                  -5.816
REMARK INTRA:                   0.000
REMARK UNBOUND:                 0.000
REMARK SMILES Cc1cc(O)c(C)c(C)c1O
REMARK SMILES IDX 1 1 2 2 3 3 4 4 6 5 8 6 10 7 9 8 7 9 11 10 5 12
REMARK H PARENT 11 11 5 13
REMARK Flexibility Score: inf
ROOT
ATOM      1  C   UNL     1      -5.760   9.133 -17.502  1.00  0.00     0.048 C 
ATOM      2  C   UNL     1      -6.049   8.984 -16.031  1.00  0.00    -0.005 A 
ATOM      3  C   UNL     1      -7.269   8.433 -15.628  1.00  0.00     0.053 A 
ATOM      4  C   UNL     1      -7.583   8.286 -14.279  1.00  0.00     0.119 A 
ATOM      5  C   UNL     1      -6.673   8.718 -13.285  1.00  0.00    -0.003 A 
ATOM      6  C   UNL     1      -5.402   9.222 -13.683  1.00  0.00    -0.002 A 
ATOM      7  C   UNL     1      -5.107   9.377 -15.057  1.00  0.00     0.121 A 
ATOM      8  C   UNL     1      -4.370   9.619 -12.651  1.00  0.00     0.049 C 
ATOM      9  C   UNL     1      -7.060   8.606 -11.827  1.00  0.00     0.049 C 
ENDROOT
BRANCH   7  10
ATOM     10  O   UNL     1      -3.875   9.923 -15.433  1.00  0.00    -0.507 OA
ATOM     11  H   UNL     1      -3.389  10.628 -14.896  1.00  0.00     0.293 HD
ENDBRANCH   7  10
BRANCH   4  12
ATOM     12  O   UNL     1      -8.810   7.697 -13.960  1.00  0.00    -0.508 OA
ATOM     13  H   UNL     1      -9.627   7.749 -14.554  1.00  0.00     0.293 HD
ENDBRANCH   4  12
TORSDOF 2
ENDMDL
MODEL 2
REMARK VINA RESULT:    -5.410      1.211      4.215
REMARK INTER + INTRA:          -5.726
REMARK INTER:                  -5.726
REMARK INTRA:                   0.000
REMARK UNBOUND:                 0.000
REMARK SMILES Cc1cc(O)c(C)c(C)c1O
REMARK SMILES IDX 1 1 2 2 3 3 4 4 6 5 8 6 10 7 9 8 7 9 11 10 5 12
REMARK H PARENT 11 11 5 13
REMARK Flexibility Score: inf
ROOT
ATOM      1  C   UNL     1      -4.473   9.237 -12.246  1.00  0.00     0.048 C 
ATOM      2  C   UNL     1      -5.057   9.163 -13.633  1.00  0.00    -0.005 A 
ATOM      3  C   UNL     1      -4.253   9.484 -14.730  1.00  0.00     0.053 A 
ATOM      4  C   UNL     1      -4.754   9.440 -16.029  1.00  0.00     0.119 A 
ATOM      5  C   UNL     1      -6.105   9.089 -16.259  1.00  0.00    -0.003 A 
ATOM      6  C   UNL     1      -6.916   8.699 -15.156  1.00  0.00    -0.002 A 
ATOM      7  C   UNL     1      -6.394   8.764 -13.843  1.00  0.00     0.121 A 
ATOM      8  C   UNL     1      -8.342   8.239 -15.368  1.00  0.00     0.049 C 
ATOM      9  C   UNL     1      -6.645   9.108 -17.672  1.00  0.00     0.049 C 
ENDROOT
BRANCH   7  10
ATOM     10  O   UNL     1      -7.218   8.429 -12.764  1.00  0.00    -0.507 OA
ATOM     11  H   UNL     1      -6.937   8.517 -11.797  1.00  0.00     0.293 HD
ENDBRANCH   7  10
BRANCH   4  12
ATOM     12  O   UNL     1      -3.875   9.746 -17.073  1.00  0.00    -0.508 OA
ATOM     13  H   UNL     1      -4.021  10.506 -17.723  1.00  0.00     0.293 HD
ENDBRANCH   4  12
TORSDOF 2
ENDMDL
MODEL 3
REMARK VINA RESULT:    -5.378      1.738      2.962
REMARK INTER + INTRA:          -5.693
REMARK INTER:                  -5.693
REMARK INTRA:                   0.000
REMARK UNBOUND:                 0.000
REMARK SMILES Cc1cc(O)c(C)c(C)c1O
REMARK SMILES IDX 1 1 2 2 3 3 4 4 6 5 8 6 10 7 9 8 7 9 11 10 5 12
REMARK H PARENT 11 11 5 13
REMARK Flexibility Score: inf
ROOT
ATOM      1  C   UNL     1      -3.884   9.415 -17.096  1.00  0.00     0.048 C 
ATOM      2  C   UNL     1      -4.639   9.272 -15.801  1.00  0.00    -0.005 A 
ATOM      3  C   UNL     1      -3.962   9.454 -14.592  1.00  0.00     0.053 A 
ATOM      4  C   UNL     1      -4.618   9.321 -13.370  1.00  0.00     0.119 A 
ATOM      5  C   UNL     1      -5.988   8.973 -13.333  1.00  0.00    -0.003 A 
ATOM      6  C   UNL     1      -6.704   8.847 -14.557  1.00  0.00    -0.002 A 
ATOM      7  C   UNL     1      -6.018   8.972 -15.787  1.00  0.00     0.121 A 
ATOM      8  C   UNL     1      -8.189   8.556 -14.559  1.00  0.00     0.049 C 
ATOM      9  C   UNL     1      -6.666   8.773 -11.995  1.00  0.00     0.049 C 
ENDROOT
BRANCH   7  10
ATOM     10  O   UNL     1      -6.723   8.793 -16.983  1.00  0.00    -0.507 OA
ATOM     11  H   UNL     1      -6.703   9.455 -17.747  1.00  0.00     0.293 HD
ENDBRANCH   7  10
BRANCH   4  12
ATOM     12  O   UNL     1      -3.875   9.550 -12.208  1.00  0.00    -0.508 OA
ATOM     13  H   UNL     1      -3.283   8.853 -11.776  1.00  0.00     0.293 HD
ENDBRANCH   4  12
TORSDOF 2
ENDMDL
MODEL 4
REMARK VINA RESULT:    -5.344      1.361      4.079
REMARK INTER + INTRA:          -5.657
REMARK INTER:                  -5.657
REMARK INTRA:                   0.000
REMARK UNBOUND:                 0.000
REMARK SMILES Cc1cc(O)c(C)c(C)c1O
REMARK SMILES IDX 1 1 2 2 3 3 4 4 6 5 8 6 10 7 9 8 7 9 11 10 5 12
REMARK H PARENT 11 11 5 13
REMARK Flexibility Score: inf
ROOT
ATOM      1  C   UNL     1      -8.577   7.968 -12.123  1.00  0.00     0.048 C 
ATOM      2  C   UNL     1      -7.375   8.377 -12.933  1.00  0.00    -0.005 A 
ATOM      3  C   UNL     1      -6.196   8.735 -12.272  1.00  0.00     0.053 A 
ATOM      4  C   UNL     1      -5.063   9.131 -12.980  1.00  0.00     0.119 A 
ATOM      5  C   UNL     1      -5.096   9.200 -14.393  1.00  0.00    -0.003 A 
ATOM      6  C   UNL     1      -6.269   8.777 -15.080  1.00  0.00    -0.002 A 
ATOM      7  C   UNL     1      -7.414   8.392 -14.343  1.00  0.00     0.121 A 
ATOM      8  C   UNL     1      -6.317   8.758 -16.592  1.00  0.00     0.049 C 
ATOM      9  C   UNL     1      -3.875   9.691 -15.139  1.00  0.00     0.049 C 
ENDROOT
BRANCH   7  10
ATOM     10  O   UNL     1      -8.577   8.030 -15.030  1.00  0.00    -0.507 OA
ATOM     11  H   UNL     1      -9.117   7.202 -14.818  1.00  0.00     0.293 HD
ENDBRANCH   7  10
BRANCH   4  12
ATOM     12  O   UNL     1      -3.916   9.443 -12.245  1.00  0.00    -0.508 OA
ATOM     13  H   UNL     1      -3.433  10.329 -12.311  1.00  0.00     0.293 HD
ENDBRANCH   4  12
TORSDOF 2
ENDMDL
MODEL 5
REMARK VINA RESULT:    -5.277      1.437      3.338
REMARK INTER + INTRA:          -5.585
REMARK INTER:                  -5.585
REMARK INTRA:                   0.000
REMARK UNBOUND:                 0.000
REMARK SMILES Cc1cc(O)c(C)c(C)c1O
REMARK SMILES IDX 1 1 2 2 3 3 4 4 6 5 8 6 10 7 9 8 7 9 11 10 5 12
REMARK H PARENT 11 11 5 13
REMARK Flexibility Score: inf
ROOT
ATOM      1  C   UNL     1      -9.209   7.832 -13.897  1.00  0.00     0.048 C 
ATOM      2  C   UNL     1      -7.838   8.294 -14.314  1.00  0.00    -0.005 A 
ATOM      3  C   UNL     1      -7.560   8.472 -15.673  1.00  0.00     0.053 A 
ATOM      4  C   UNL     1      -6.302   8.887 -16.104  1.00  0.00     0.119 A 
ATOM      5  C   UNL     1      -5.268   9.115 -15.166  1.00  0.00    -0.003 A 
ATOM      6  C   UNL     1      -5.556   9.000 -13.777  1.00  0.00    -0.002 A 
ATOM      7  C   UNL     1      -6.835   8.563 -13.359  1.00  0.00     0.121 A 
ATOM      8  C   UNL     1      -4.501   9.314 -12.739  1.00  0.00     0.049 C 
ATOM      9  C   UNL     1      -3.893   9.506 -15.660  1.00  0.00     0.049 C 
ENDROOT
BRANCH   7  10
ATOM     10  O   UNL     1      -7.088   8.402 -11.992  1.00  0.00    -0.507 OA
ATOM     11  H   UNL     1      -7.295   7.511 -11.563  1.00  0.00     0.293 HD
ENDBRANCH   7  10
BRANCH   4  12
ATOM     12  O   UNL     1      -6.117   9.070 -17.477  1.00  0.00    -0.508 OA
ATOM     13  H   UNL     1      -5.461   8.535 -18.030  1.00  0.00     0.293 HD
ENDBRANCH   4  12
TORSDOF 2
ENDMDL
MODEL 6
REMARK VINA RESULT:    -5.202      1.954      2.999
REMARK INTER + INTRA:          -5.506
REMARK INTER:                  -5.506
REMARK INTRA:                   0.000
REMARK UNBOUND:                 0.000
REMARK SMILES Cc1cc(O)c(C)c(C)c1O
REMARK SMILES IDX 1 1 2 2 3 3 4 4 6 5 8 6 10 7 9 8 7 9 11 10 5 12
REMARK H PARENT 11 11 5 13
REMARK Flexibility Score: inf
ROOT
ATOM      1  C   UNL     1      -4.144  10.100 -14.655  1.00  0.00     0.048 C 
ATOM      2  C   UNL     1      -5.425   9.626 -14.020  1.00  0.00    -0.005 A 
ATOM      3  C   UNL     1      -5.926  10.303 -12.904  1.00  0.00     0.053 A 
ATOM      4  C   UNL     1      -7.101   9.893 -12.279  1.00  0.00     0.119 A 
ATOM      5  C   UNL     1      -7.800   8.758 -12.754  1.00  0.00    -0.003 A 
ATOM      6  C   UNL     1      -7.336   8.099 -13.927  1.00  0.00    -0.002 A 
ATOM      7  C   UNL     1      -6.133   8.522 -14.539  1.00  0.00     0.121 A 
ATOM      8  C   UNL     1      -8.101   6.933 -14.514  1.00  0.00     0.049 C 
ATOM      9  C   UNL     1      -9.040   8.294 -12.022  1.00  0.00     0.049 C 
ENDROOT
BRANCH   7  10
ATOM     10  O   UNL     1      -5.660   7.831 -15.660  1.00  0.00    -0.507 OA
ATOM     11  H   UNL     1      -6.137   7.818 -16.552  1.00  0.00     0.293 HD
ENDBRANCH   7  10
BRANCH   4  12
ATOM     12  O   UNL     1      -7.549  10.643 -11.188  1.00  0.00    -0.508 OA
ATOM     13  H   UNL     1      -6.992  11.351 -10.728  1.00  0.00     0.293 HD
ENDBRANCH   4  12
TORSDOF 2
ENDMDL
MODEL 7
REMARK VINA RESULT:    -5.086      0.834      2.964
REMARK INTER + INTRA:          -5.383
REMARK INTER:                  -5.383
REMARK INTRA:                   0.000
REMARK UNBOUND:                 0.000
REMARK SMILES Cc1cc(O)c(C)c(C)c1O
REMARK SMILES IDX 1 1 2 2 3 3 4 4 6 5 8 6 10 7 9 8 7 9 11 10 5 12
REMARK H PARENT 11 11 5 13
REMARK Flexibility Score: inf
ROOT
ATOM      1  C   UNL     1      -3.876   9.489 -12.644  1.00  0.00     0.048 C 
ATOM      2  C   UNL     1      -5.121   9.224 -13.448  1.00  0.00    -0.005 A 
ATOM      3  C   UNL     1      -6.333   9.014 -12.783  1.00  0.00     0.053 A 
ATOM      4  C   UNL     1      -7.507   8.754 -13.486  1.00  0.00     0.119 A 
ATOM      5  C   UNL     1      -7.487   8.675 -14.899  1.00  0.00    -0.003 A 
ATOM      6  C   UNL     1      -6.273   8.950 -15.590  1.00  0.00    -0.002 A 
ATOM      7  C   UNL     1      -5.089   9.197 -14.859  1.00  0.00     0.121 A 
ATOM      8  C   UNL     1      -6.229   8.955 -17.103  1.00  0.00     0.049 C 
ATOM      9  C   UNL     1      -8.760   8.331 -15.639  1.00  0.00     0.049 C 
ENDROOT
BRANCH   7  10
ATOM     10  O   UNL     1      -3.892   9.413 -15.551  1.00  0.00    -0.507 OA
ATOM     11  H   UNL     1      -3.695   9.022 -16.462  1.00  0.00     0.293 HD
ENDBRANCH   7  10
BRANCH   4  12
ATOM     12  O   UNL     1      -8.681   8.587 -12.747  1.00  0.00    -0.508 OA
ATOM     13  H   UNL     1      -8.763   8.821 -11.766  1.00  0.00     0.293 HD
ENDBRANCH   4  12
TORSDOF 2
ENDMDL
MODEL 8
REMARK VINA RESULT:    -5.013      1.412      4.492
REMARK INTER + INTRA:          -5.306
REMARK INTER:                  -5.306
REMARK INTRA:                   0.000
REMARK UNBOUND:                 0.000
REMARK SMILES Cc1cc(O)c(C)c(C)c1O
REMARK SMILES IDX 1 1 2 2 3 3 4 4 6 5 8 6 10 7 9 8 7 9 11 10 5 12
REMARK H PARENT 11 11 5 13
REMARK Flexibility Score: inf
ROOT
ATOM      1  C   UNL     1      -7.989  10.287 -10.741  1.00  0.00     0.048 C 
ATOM      2  C   UNL     1      -7.410   9.724 -12.012  1.00  0.00    -0.005 A 
ATOM      3  C   UNL     1      -6.268  10.314 -12.563  1.00  0.00     0.053 A 
ATOM      4  C   UNL     1      -5.705   9.834 -13.743  1.00  0.00     0.119 A 
ATOM      5  C   UNL     1      -6.299   8.744 -14.422  1.00  0.00    -0.003 A 
ATOM      6  C   UNL     1      -7.422   8.094 -13.839  1.00  0.00    -0.002 A 
ATOM      7  C   UNL     1      -7.989   8.606 -12.648  1.00  0.00     0.121 A 
ATOM      8  C   UNL     1      -8.037   6.875 -14.491  1.00  0.00     0.049 C 
ATOM      9  C   UNL     1      -5.706   8.277 -15.733  1.00  0.00     0.049 C 
ENDROOT
BRANCH   7  10
ATOM     10  O   UNL     1      -9.126   7.989 -12.114  1.00  0.00    -0.507 OA
ATOM     11  H   UNL     1      -9.091   7.267 -11.407  1.00  0.00     0.293 HD
ENDBRANCH   7  10
BRANCH   4  12
ATOM     12  O   UNL     1      -4.546  10.461 -14.210  1.00  0.00    -0.508 OA
ATOM     13  H   UNL     1      -4.166  10.318 -15.136  1.00  0.00     0.293 HD
ENDBRANCH   4  12
TORSDOF 2
ENDMDL
MODEL 9
REMARK VINA RESULT:    -4.990      1.705      2.718
REMARK INTER + INTRA:          -5.282
REMARK INTER:                  -5.282
REMARK INTRA:                   0.000
REMARK UNBOUND:                 0.000
REMARK SMILES Cc1cc(O)c(C)c(C)c1O
REMARK SMILES IDX 1 1 2 2 3 3 4 4 6 5 8 6 10 7 9 8 7 9 11 10 5 12
REMARK H PARENT 11 11 5 13
REMARK Flexibility Score: inf
ROOT
ATOM      1  C   UNL     1      -8.982   8.374 -15.625  1.00  0.00     0.048 C 
ATOM      2  C   UNL     1      -7.643   8.632 -14.985  1.00  0.00    -0.005 A 
ATOM      3  C   UNL     1      -7.523   8.545 -13.595  1.00  0.00     0.053 A 
ATOM      4  C   UNL     1      -6.308   8.787 -12.959  1.00  0.00     0.119 A 
ATOM      5  C   UNL     1      -5.169   9.151 -13.716  1.00  0.00    -0.003 A 
ATOM      6  C   UNL     1      -5.263   9.181 -15.136  1.00  0.00    -0.002 A 
ATOM      7  C   UNL     1      -6.509   8.947 -15.762  1.00  0.00     0.121 A 
ATOM      8  C   UNL     1      -4.049   9.487 -15.985  1.00  0.00     0.049 C 
ATOM      9  C   UNL     1      -3.875   9.469 -13.000  1.00  0.00     0.049 C 
ENDROOT
BRANCH   7  10
ATOM     10  O   UNL     1      -6.599   9.033 -17.156  1.00  0.00    -0.507 OA
ATOM     11  H   UNL     1      -6.042   9.665 -17.714  1.00  0.00     0.293 HD
ENDBRANCH   7  10
BRANCH   4  12
ATOM     12  O   UNL     1      -6.265   8.648 -11.569  1.00  0.00    -0.508 OA
ATOM     13  H   UNL     1      -5.596   9.124 -10.979  1.00  0.00     0.293 HD
ENDBRANCH   4  12
TORSDOF 2
ENDMDL
