MODEL 1
REMARK VINA RESULT:    -6.496      0.000      0.000
REMARK INTER + INTRA:          -8.006
REMARK INTER:                  -7.635
REMARK INTRA:                  -0.371
REMARK UNBOUND:                -0.371
REMARK SMILES C=C[C@@]1(C)CC[C@@H](C(=C)C)C[C@H]1C(=C)C
REMARK SMILES IDX 7 1 6 2 5 3 3 4 12 5 11 6 4 7 8 8 10 9 9 10 13 11 14 12
REMARK SMILES IDX 15 13 2 14 1 15
REMARK H PARENT
REMARK Flexibility Score: inf
ROOT
ATOM      1  C   UNL     1     111.264 110.749 107.756  1.00  0.00     0.015 C 
ATOM      2  C   UNL     1     112.689 110.266 108.079  1.00  0.00     0.009 C 
ATOM      3  C   UNL     1     113.266 110.967 109.320  1.00  0.00     0.012 C 
ATOM      4  C   UNL     1     112.347 110.959 110.583  1.00  0.00    -0.008 C 
ATOM      5  C   UNL     1     110.871 111.341 110.195  1.00  0.00     0.024 C 
ATOM      6  C   UNL     1     110.327 110.583 108.965  1.00  0.00     0.017 C 
ATOM      7  C   UNL     1     112.890 112.063 111.529  1.00  0.00     0.016 C 
ENDROOT
BRANCH   1   8
ATOM      8  C   UNL     1     110.709 110.039 106.529  1.00  0.00    -0.077 C 
ATOM      9  C   UNL     1     109.223 109.881 106.319  1.00  0.00     0.039 C 
ATOM     10  C   UNL     1     111.543 109.539 105.605  1.00  0.00     0.008 C 
ENDBRANCH   1   8
BRANCH   5  11
ATOM     11  C   UNL     1     109.889 111.304 111.371  1.00  0.00    -0.077 C 
ATOM     12  C   UNL     1     109.198 110.197 111.691  1.00  0.00     0.008 C 
ATOM     13  C   UNL     1     109.658 112.547 112.195  1.00  0.00     0.039 C 
ENDBRANCH   5  11
BRANCH   4  14
ATOM     14  C   UNL     1     112.470 109.637 111.355  1.00  0.00    -0.028 C 
ATOM     15  C   UNL     1     112.945 109.489 112.599  1.00  0.00     0.004 C 
ENDBRANCH   4  14
TORSDOF 3
ENDMDL
MODEL 2
REMARK VINA RESULT:    -6.474      3.332      4.890
REMARK INTER + INTRA:          -7.980
REMARK INTER:                  -7.609
REMARK INTRA:                  -0.371
REMARK UNBOUND:                -0.371
REMARK SMILES C=C[C@@]1(C)CC[C@@H](C(=C)C)C[C@H]1C(=C)C
REMARK SMILES IDX 7 1 6 2 5 3 3 4 12 5 11 6 4 7 8 8 10 9 9 10 13 11 14 12
REMARK SMILES IDX 15 13 2 14 1 15
REMARK H PARENT
REMARK Flexibility Score: inf
ROOT
ATOM      1  C   UNL     1     111.262 110.761 112.646  1.00  0.00     0.015 C 
ATOM      2  C   UNL     1     112.685 110.268 112.964  1.00  0.00     0.009 C 
ATOM      3  C   UNL     1     113.269 110.963 114.205  1.00  0.00     0.012 C 
ATOM      4  C   UNL     1     112.353 110.958 115.471  1.00  0.00    -0.008 C 
ATOM      5  C   UNL     1     110.879 111.351 115.087  1.00  0.00     0.024 C 
ATOM      6  C   UNL     1     110.327 110.599 113.857  1.00  0.00     0.017 C 
ATOM      7  C   UNL     1     112.906 112.057 116.417  1.00  0.00     0.016 C 
ENDROOT
BRANCH   1   8
ATOM      8  C   UNL     1     110.700 110.057 111.419  1.00  0.00    -0.077 C 
ATOM      9  C   UNL     1     109.211 109.939 111.196  1.00  0.00     0.039 C 
ATOM     10  C   UNL     1     111.528 109.527 110.506  1.00  0.00     0.008 C 
ENDBRANCH   1   8
BRANCH   5  11
ATOM     11  C   UNL     1     109.900 111.317 116.265  1.00  0.00    -0.077 C 
ATOM     12  C   UNL     1     109.168 110.229 116.556  1.00  0.00     0.008 C 
ATOM     13  C   UNL     1     109.720 112.544 117.125  1.00  0.00     0.039 C 
ENDBRANCH   5  11
BRANCH   4  14
ATOM     14  C   UNL     1     112.470 109.633 116.240  1.00  0.00    -0.028 C 
ATOM     15  C   UNL     1     112.917 109.484 117.493  1.00  0.00     0.004 C 
ENDBRANCH   4  14
TORSDOF 3
ENDMDL
MODEL 3
REMARK VINA RESULT:    -6.462      1.518      3.334
REMARK INTER + INTRA:          -7.966
REMARK INTER:                  -7.602
REMARK INTRA:                  -0.364
REMARK UNBOUND:                -0.371
REMARK SMILES C=C[C@@]1(C)CC[C@@H](C(=C)C)C[C@H]1C(=C)C
REMARK SMILES IDX 7 1 6 2 5 3 3 4 12 5 11 6 4 7 8 8 10 9 9 10 13 11 14 12
REMARK SMILES IDX 15 13 2 14 1 15
REMARK H PARENT
REMARK Flexibility Score: inf
ROOT
ATOM      1  C   UNL     1     110.943 111.530 107.516  1.00  0.00     0.015 C 
ATOM      2  C   UNL     1     109.549 112.098 107.838  1.00  0.00     0.009 C 
ATOM      3  C   UNL     1     108.926 111.424 109.071  1.00  0.00     0.012 C 
ATOM      4  C   UNL     1     109.839 111.366 110.338  1.00  0.00    -0.008 C 
ATOM      5  C   UNL     1     111.290 110.896 109.951  1.00  0.00     0.024 C 
ATOM      6  C   UNL     1     111.884 111.628 108.730  1.00  0.00     0.017 C 
ATOM      7  C   UNL     1     109.224 110.289 111.272  1.00  0.00     0.016 C 
ENDROOT
BRANCH   1   8
ATOM      8  C   UNL     1     111.545 112.214 106.297  1.00  0.00    -0.077 C 
ATOM      9  C   UNL     1     113.033 112.441 106.179  1.00  0.00     0.039 C 
ATOM     10  C   UNL     1     110.753 112.630 105.296  1.00  0.00     0.008 C 
ENDBRANCH   1   8
BRANCH   5  11
ATOM     11  C   UNL     1     112.267 110.863 111.131  1.00  0.00    -0.077 C 
ATOM     12  C   UNL     1     112.405 109.780 111.914  1.00  0.00     0.008 C 
ATOM     13  C   UNL     1     113.091 112.083 111.456  1.00  0.00     0.039 C 
ENDBRANCH   5  11
BRANCH   4  14
ATOM     14  C   UNL     1     109.794 112.687 111.120  1.00  0.00    -0.028 C 
ATOM     15  C   UNL     1     109.376 112.844 112.382  1.00  0.00     0.004 C 
ENDBRANCH   4  14
TORSDOF 3
ENDMDL
MODEL 4
REMARK VINA RESULT:    -6.448      3.117      5.656
REMARK INTER + INTRA:          -7.950
REMARK INTER:                  -7.594
REMARK INTRA:                  -0.356
REMARK UNBOUND:                -0.371
REMARK SMILES C=C[C@@]1(C)CC[C@@H](C(=C)C)C[C@H]1C(=C)C
REMARK SMILES IDX 7 1 6 2 5 3 3 4 12 5 11 6 4 7 8 8 10 9 9 10 13 11 14 12
REMARK SMILES IDX 15 13 2 14 1 15
REMARK H PARENT
REMARK Flexibility Score: inf
ROOT
ATOM      1  C   UNL     1     110.912 111.530 112.338  1.00  0.00     0.015 C 
ATOM      2  C   UNL     1     109.531 112.099 112.707  1.00  0.00     0.009 C 
ATOM      3  C   UNL     1     108.942 111.416 113.952  1.00  0.00     0.012 C 
ATOM      4  C   UNL     1     109.893 111.343 115.190  1.00  0.00    -0.008 C 
ATOM      5  C   UNL     1     111.330 110.872 114.756  1.00  0.00     0.024 C 
ATOM      6  C   UNL     1     111.890 111.613 113.523  1.00  0.00     0.017 C 
ATOM      7  C   UNL     1     109.303 110.260 116.133  1.00  0.00     0.016 C 
ENDROOT
BRANCH   1   8
ATOM      8  C   UNL     1     111.480 112.223 111.107  1.00  0.00    -0.077 C 
ATOM      9  C   UNL     1     112.953 112.530 110.990  1.00  0.00     0.039 C 
ATOM     10  C   UNL     1     110.670 112.574 110.097  1.00  0.00     0.008 C 
ENDBRANCH   1   8
BRANCH   5  11
ATOM     11  C   UNL     1     112.342 110.824 115.905  1.00  0.00    -0.077 C 
ATOM     12  C   UNL     1     112.545 109.713 116.633  1.00  0.00     0.008 C 
ATOM     13  C   UNL     1     113.128 112.061 116.263  1.00  0.00     0.039 C 
ENDBRANCH   5  11
BRANCH   4  14
ATOM     14  C   UNL     1     109.877 112.657 115.985  1.00  0.00    -0.028 C 
ATOM     15  C   UNL     1     109.460 112.812 117.248  1.00  0.00     0.004 C 
ENDBRANCH   4  14
TORSDOF 3
ENDMDL
MODEL 5
REMARK VINA RESULT:    -6.420      1.600      5.534
REMARK INTER + INTRA:          -7.917
REMARK INTER:                  -7.569
REMARK INTRA:                  -0.348
REMARK UNBOUND:                -0.371
REMARK SMILES C=C[C@@]1(C)CC[C@@H](C(=C)C)C[C@H]1C(=C)C
REMARK SMILES IDX 7 1 6 2 5 3 3 4 12 5 11 6 4 7 8 8 10 9 9 10 13 11 14 12
REMARK SMILES IDX 15 13 2 14 1 15
REMARK H PARENT
REMARK Flexibility Score: inf
ROOT
ATOM      1  C   UNL     1     111.115 112.301 110.036  1.00  0.00     0.015 C 
ATOM      2  C   UNL     1     109.596 112.246 109.799  1.00  0.00     0.009 C 
ATOM      3  C   UNL     1     109.232 112.539 108.334  1.00  0.00     0.012 C 
ATOM      4  C   UNL     1     110.019 111.710 107.269  1.00  0.00    -0.008 C 
ATOM      5  C   UNL     1     111.555 111.688 107.610  1.00  0.00     0.024 C 
ATOM      6  C   UNL     1     111.867 111.353 109.084  1.00  0.00     0.017 C 
ATOM      7  C   UNL     1     109.843 112.453 105.917  1.00  0.00     0.016 C 
ENDROOT
BRANCH   1   8
ATOM      8  C   UNL     1     111.454 112.002 111.490  1.00  0.00    -0.077 C 
ATOM      9  C   UNL     1     112.874 112.084 111.997  1.00  0.00     0.039 C 
ATOM     10  C   UNL     1     110.485 111.659 112.352  1.00  0.00     0.008 C 
ENDBRANCH   1   8
BRANCH   5  11
ATOM     11  C   UNL     1     112.394 110.849 106.642  1.00  0.00    -0.077 C 
ATOM     12  C   UNL     1     112.823 111.332 105.464  1.00  0.00     0.008 C 
ATOM     13  C   UNL     1     112.741 109.423 106.991  1.00  0.00     0.039 C 
ENDBRANCH   5  11
BRANCH   4  14
ATOM     14  C   UNL     1     109.399 110.318 107.075  1.00  0.00    -0.028 C 
ATOM     15  C   UNL     1     109.013 109.780 105.911  1.00  0.00     0.004 C 
ENDBRANCH   4  14
TORSDOF 3
ENDMDL
MODEL 6
REMARK VINA RESULT:    -6.409      2.559      5.937
REMARK INTER + INTRA:          -7.904
REMARK INTER:                  -7.589
REMARK INTRA:                  -0.315
REMARK UNBOUND:                -0.371
REMARK SMILES C=C[C@@]1(C)CC[C@@H](C(=C)C)C[C@H]1C(=C)C
REMARK SMILES IDX 7 1 6 2 5 3 3 4 12 5 11 6 4 7 8 8 10 9 9 10 13 11 14 12
REMARK SMILES IDX 15 13 2 14 1 15
REMARK H PARENT
REMARK Flexibility Score: inf
ROOT
ATOM      1  C   UNL     1     110.989 109.914 114.902  1.00  0.00     0.015 C 
ATOM      2  C   UNL     1     112.511 109.878 114.680  1.00  0.00     0.009 C 
ATOM      3  C   UNL     1     112.870 109.607 113.209  1.00  0.00     0.012 C 
ATOM      4  C   UNL     1     112.148 110.517 112.163  1.00  0.00    -0.008 C 
ATOM      5  C   UNL     1     110.613 110.627 112.493  1.00  0.00     0.024 C 
ATOM      6  C   UNL     1     110.308 110.936 113.975  1.00  0.00     0.017 C 
ATOM      7  C   UNL     1     112.289 109.805 110.791  1.00  0.00     0.016 C 
ENDROOT
BRANCH   1   8
ATOM      8  C   UNL     1     110.655 110.189 116.362  1.00  0.00    -0.077 C 
ATOM      9  C   UNL     1     111.742 110.402 117.389  1.00  0.00     0.039 C 
ATOM     10  C   UNL     1     109.376 110.251 116.762  1.00  0.00     0.008 C 
ENDBRANCH   1   8
BRANCH   5  11
ATOM     11  C   UNL     1     109.838 111.547 111.545  1.00  0.00    -0.077 C 
ATOM     12  C   UNL     1     109.477 111.160 110.310  1.00  0.00     0.008 C 
ATOM     13  C   UNL     1     109.481 112.946 111.982  1.00  0.00     0.039 C 
ENDBRANCH   5  11
BRANCH   4  14
ATOM     14  C   UNL     1     112.857 111.871 112.017  1.00  0.00    -0.028 C 
ATOM     15  C   UNL     1     113.224 112.452 110.868  1.00  0.00     0.004 C 
ENDBRANCH   4  14
TORSDOF 3
ENDMDL
MODEL 7
REMARK VINA RESULT:    -6.390      2.631      6.552
REMARK INTER + INTRA:          -7.882
REMARK INTER:                  -7.532
REMARK INTRA:                  -0.350
REMARK UNBOUND:                -0.371
REMARK SMILES C=C[C@@]1(C)CC[C@@H](C(=C)C)C[C@H]1C(=C)C
REMARK SMILES IDX 7 1 6 2 5 3 3 4 12 5 11 6 4 7 8 8 10 9 9 10 13 11 14 12
REMARK SMILES IDX 15 13 2 14 1 15
REMARK H PARENT
REMARK Flexibility Score: inf
ROOT
ATOM      1  C   UNL     1     111.070 112.342 114.944  1.00  0.00     0.015 C 
ATOM      2  C   UNL     1     109.557 112.294 114.671  1.00  0.00     0.009 C 
ATOM      3  C   UNL     1     109.231 112.577 113.195  1.00  0.00     0.012 C 
ATOM      4  C   UNL     1     110.038 111.734 112.156  1.00  0.00    -0.008 C 
ATOM      5  C   UNL     1     111.565 111.707 112.535  1.00  0.00     0.024 C 
ATOM      6  C   UNL     1     111.840 111.383 114.019  1.00  0.00     0.017 C 
ATOM      7  C   UNL     1     109.900 112.468 110.794  1.00  0.00     0.016 C 
ENDROOT
BRANCH   1   8
ATOM      8  C   UNL     1     111.372 112.054 116.408  1.00  0.00    -0.077 C 
ATOM      9  C   UNL     1     112.781 111.791 116.882  1.00  0.00     0.039 C 
ATOM     10  C   UNL     1     110.378 112.031 117.310  1.00  0.00     0.008 C 
ENDBRANCH   1   8
BRANCH   5  11
ATOM     11  C   UNL     1     112.423 110.855 111.594  1.00  0.00    -0.077 C 
ATOM     12  C   UNL     1     112.909 111.336 110.438  1.00  0.00     0.008 C 
ATOM     13  C   UNL     1     112.723 109.419 111.947  1.00  0.00     0.039 C 
ENDBRANCH   5  11
BRANCH   4  14
ATOM     14  C   UNL     1     109.415 110.345 111.958  1.00  0.00    -0.028 C 
ATOM     15  C   UNL     1     109.048 109.802 110.790  1.00  0.00     0.004 C 
ENDBRANCH   4  14
TORSDOF 3
ENDMDL
MODEL 8
REMARK VINA RESULT:    -6.385      1.592      4.829
REMARK INTER + INTRA:          -7.876
REMARK INTER:                  -7.549
REMARK INTRA:                  -0.327
REMARK UNBOUND:                -0.371
REMARK SMILES C=C[C@@]1(C)CC[C@@H](C(=C)C)C[C@H]1C(=C)C
REMARK SMILES IDX 7 1 6 2 5 3 3 4 12 5 11 6 4 7 8 8 10 9 9 10 13 11 14 12
REMARK SMILES IDX 15 13 2 14 1 15
REMARK H PARENT
REMARK Flexibility Score: inf
ROOT
ATOM      1  C   UNL     1     110.982 109.903 109.906  1.00  0.00     0.015 C 
ATOM      2  C   UNL     1     112.507 109.885 109.708  1.00  0.00     0.009 C 
ATOM      3  C   UNL     1     112.893 109.631 108.242  1.00  0.00     0.012 C 
ATOM      4  C   UNL     1     112.180 110.543 107.192  1.00  0.00    -0.008 C 
ATOM      5  C   UNL     1     110.639 110.635 107.497  1.00  0.00     0.024 C 
ATOM      6  C   UNL     1     110.306 110.927 108.976  1.00  0.00     0.017 C 
ATOM      7  C   UNL     1     112.351 109.845 105.816  1.00  0.00     0.016 C 
ENDROOT
BRANCH   1   8
ATOM      8  C   UNL     1     110.621 110.162 111.362  1.00  0.00    -0.077 C 
ATOM      9  C   UNL     1     109.182 110.250 111.810  1.00  0.00     0.039 C 
ATOM     10  C   UNL     1     111.588 110.317 112.280  1.00  0.00     0.008 C 
ENDBRANCH   1   8
BRANCH   5  11
ATOM     11  C   UNL     1     109.871 111.556 106.544  1.00  0.00    -0.077 C 
ATOM     12  C   UNL     1     109.518 112.806 106.888  1.00  0.00     0.008 C 
ATOM     13  C   UNL     1     109.466 111.055 105.180  1.00  0.00     0.039 C 
ENDBRANCH   5  11
BRANCH   4  14
ATOM     14  C   UNL     1     112.878 111.906 107.070  1.00  0.00    -0.028 C 
ATOM     15  C   UNL     1     113.257 112.500 105.932  1.00  0.00     0.004 C 
ENDBRANCH   4  14
TORSDOF 3
ENDMDL
MODEL 9
REMARK VINA RESULT:    -6.264      1.418      4.758
REMARK INTER + INTRA:          -7.734
REMARK INTER:                  -7.490
REMARK INTRA:                  -0.244
REMARK UNBOUND:                -0.371
REMARK SMILES C=C[C@@]1(C)CC[C@@H](C(=C)C)C[C@H]1C(=C)C
REMARK SMILES IDX 7 1 6 2 5 3 3 4 12 5 11 6 4 7 8 8 10 9 9 10 13 11 14 12
REMARK SMILES IDX 15 13 2 14 1 15
REMARK H PARENT
REMARK Flexibility Score: inf
ROOT
ATOM      1  C   UNL     1     110.173 110.181 112.149  1.00  0.00     0.015 C 
ATOM      2  C   UNL     1     111.696 110.326 112.316  1.00  0.00     0.009 C 
ATOM      3  C   UNL     1     112.457 109.867 111.061  1.00  0.00     0.012 C 
ATOM      4  C   UNL     1     111.957 110.478 109.712  1.00  0.00    -0.008 C 
ATOM      5  C   UNL     1     110.387 110.421 109.629  1.00  0.00     0.024 C 
ATOM      6  C   UNL     1     109.671 110.926 110.900  1.00  0.00     0.017 C 
ATOM      7  C   UNL     1     112.525 109.574 108.585  1.00  0.00     0.016 C 
ENDROOT
BRANCH   1   8
ATOM      8  C   UNL     1     109.439 110.646 113.399  1.00  0.00    -0.077 C 
ATOM      9  C   UNL     1     109.445 109.823 114.665  1.00  0.00     0.039 C 
ATOM     10  C   UNL     1     108.768 111.808 113.394  1.00  0.00     0.008 C 
ENDBRANCH   1   8
BRANCH   5  11
ATOM     11  C   UNL     1     109.809 111.050 108.357  1.00  0.00    -0.077 C 
ATOM     12  C   UNL     1     109.573 112.369 108.256  1.00  0.00     0.008 C 
ATOM     13  C   UNL     1     109.463 110.175 107.178  1.00  0.00     0.039 C 
ENDBRANCH   5  11
BRANCH   4  14
ATOM     14  C   UNL     1     112.548 111.876 109.478  1.00  0.00    -0.028 C 
ATOM     15  C   UNL     1     112.848 112.775 110.424  1.00  0.00     0.004 C 
ENDBRANCH   4  14
TORSDOF 3
ENDMDL
