MODEL 1
REMARK VINA RESULT:    -5.950      0.000      0.000
REMARK INTER + INTRA:         -11.697
REMARK INTER:                  -9.428
REMARK INTRA:                  -2.269
REMARK UNBOUND:                -2.269
REMARK SMILES C[C@H]1O[C@@H](O[C@@H]2[C@@H](Oc3cc(O)c4c(c3)O[C@@H](c3ccc(O)cc3)CC4=O)O[C@H](CO)[C@@H](O)[C@H]2O)[C@H](O)[C@H](O)[C@H]1O
REMARK SMILES IDX 6 1 34 2 32 3 29 4 28 5 7 6 5 7 4 8 1 9 2 10 40 11 3 12
REMARK SMILES IDX 38 13 36 14 41 15 39 17 37 19 35 21 8 23 9 24 10 25 15 26
REMARK SMILES IDX 11 27 14 28 13 29 16 30 26 31 17 32 27 33 25 34 12 35 18 37
REMARK SMILES IDX 19 38 24 39 20 40 23 41 21 42 22 43 33 45 30 47 31 48
REMARK H PARENT 41 16 39 18 37 20 35 22 12 36 22 44 33 46 31 49
REMARK Flexibility Score: inf
ROOT
ATOM      1  C   UNL     1      28.310  -6.203 -28.732  1.00  0.00     0.221 C 
ATOM      2  C   UNL     1      27.940  -7.203 -29.849  1.00  0.00     0.181 C 
ATOM      3  C   UNL     1      28.581  -6.811 -31.199  1.00  0.00     0.177 C 
ATOM      4  C   UNL     1      30.071  -6.446 -31.024  1.00  0.00     0.179 C 
ATOM      5  O   UNL     1      30.222  -5.427 -30.050  1.00  0.00    -0.332 OA
ATOM      6  C   UNL     1      29.821  -5.868 -28.762  1.00  0.00     0.339 C 
ENDROOT
BRANCH   1   7
ATOM      7  O   UNL     1      27.568  -5.010 -28.940  1.00  0.00    -0.337 OA
BRANCH   7   8
ATOM      8  C   UNL     1      26.257  -5.092 -28.401  1.00  0.00     0.282 C 
ATOM      9  C   UNL     1      27.283  -2.145 -28.492  1.00  0.00     0.041 C 
ATOM     10  C   UNL     1      26.024  -2.767 -27.862  1.00  0.00     0.150 C 
ATOM     11  C   UNL     1      26.155  -3.056 -26.344  1.00  0.00     0.174 C 
ATOM     12  O   UNL     1      25.539  -3.880 -28.610  1.00  0.00    -0.344 OA
ATOM     13  C   UNL     1      26.940  -4.349 -26.093  1.00  0.00     0.179 C 
ATOM     14  C   UNL     1      26.327  -5.488 -26.918  1.00  0.00     0.202 C 
BRANCH  11  15
ATOM     15  O   UNL     1      26.784  -1.987 -25.684  1.00  0.00    -0.388 OA
ATOM     16  H   UNL     1      27.760  -2.182 -25.676  1.00  0.00     0.211 HD
ENDBRANCH  11  15
BRANCH  13  17
ATOM     17  O   UNL     1      26.900  -4.685 -24.728  1.00  0.00    -0.387 OA
ATOM     18  H   UNL     1      26.069  -5.208 -24.581  1.00  0.00     0.211 HD
ENDBRANCH  13  17
BRANCH  14  19
ATOM     19  O   UNL     1      25.032  -5.789 -26.460  1.00  0.00    -0.385 OA
ATOM     20  H   UNL     1      24.541  -6.196 -27.220  1.00  0.00     0.211 HD
ENDBRANCH  14  19
ENDBRANCH   7   8
ENDBRANCH   1   7
BRANCH   2  21
ATOM     21  O   UNL     1      28.242  -8.528 -29.475  1.00  0.00    -0.387 OA
ATOM     22  H   UNL     1      29.106  -8.533 -28.996  1.00  0.00     0.211 HD
ENDBRANCH   2  21
BRANCH   6  23
ATOM     23  O   UNL     1      30.608  -6.978 -28.317  1.00  0.00    -0.462 OA
BRANCH  23  24
ATOM     24  C   UNL     1      30.516  -7.565 -27.044  1.00  0.00     0.130 A 
ATOM     25  C   UNL     1      31.228  -8.727 -26.692  1.00  0.00     0.093 A 
ATOM     26  C   UNL     1      29.673  -6.970 -26.102  1.00  0.00     0.094 A 
ATOM     27  C   UNL     1      31.097  -9.285 -25.412  1.00  0.00     0.133 A 
ATOM     28  C   UNL     1      29.517  -7.529 -24.832  1.00  0.00     0.138 A 
ATOM     29  C   UNL     1      30.242  -8.677 -24.468  1.00  0.00     0.102 A 
ATOM     30  O   UNL     1      28.635  -6.933 -23.926  1.00  0.00    -0.484 OA
ATOM     31  C   UNL     1      30.093  -9.185 -23.082  1.00  0.00     0.174 C 
ATOM     32  C   UNL     1      28.132  -7.620 -22.778  1.00  0.00     0.211 C 
ATOM     33  O   UNL     1      30.695 -10.227 -22.702  1.00  0.00    -0.294 OA
ATOM     34  C   UNL     1      29.254  -8.428 -22.088  1.00  0.00     0.131 C 
BRANCH  27  35
ATOM     35  O   UNL     1      31.815 -10.436 -25.088  1.00  0.00    -0.507 OA
ATOM     36  H   UNL     1      31.392 -11.357 -25.124  1.00  0.00     0.293 HD
ENDBRANCH  27  35
BRANCH  32  37
ATOM     37  C   UNL     1      26.898  -8.422 -23.176  1.00  0.00    -0.007 A 
ATOM     38  C   UNL     1      25.856  -7.897 -23.971  1.00  0.00     0.011 A 
ATOM     39  C   UNL     1      26.759  -9.725 -22.662  1.00  0.00     0.011 A 
ATOM     40  C   UNL     1      24.723  -8.667 -24.254  1.00  0.00     0.046 A 
ATOM     41  C   UNL     1      25.626 -10.492 -22.948  1.00  0.00     0.046 A 
ATOM     42  C   UNL     1      24.604  -9.964 -23.745  1.00  0.00     0.115 A 
BRANCH  42  43
ATOM     43  O   UNL     1      23.466 -10.716 -24.034  1.00  0.00    -0.508 OA
ATOM     44  H   UNL     1      22.736 -10.360 -24.638  1.00  0.00     0.293 HD
ENDBRANCH  42  43
ENDBRANCH  32  37
ENDBRANCH  23  24
ENDBRANCH   6  23
BRANCH   3  45
ATOM     45  O   UNL     1      28.452  -7.872 -32.112  1.00  0.00    -0.387 OA
ATOM     46  H   UNL     1      29.082  -8.581 -31.815  1.00  0.00     0.211 HD
ENDBRANCH   3  45
BRANCH   4  47
ATOM     47  C   UNL     1      30.663  -5.933 -32.341  1.00  0.00     0.191 C 
BRANCH  47  48
ATOM     48  O   UNL     1      31.136  -4.625 -32.166  1.00  0.00    -0.394 OA
ATOM     49  H   UNL     1      31.779  -4.659 -31.414  1.00  0.00     0.210 HD
ENDBRANCH  47  48
ENDBRANCH   4  47
TORSDOF 14
ENDMDL
MODEL 2
REMARK VINA RESULT:    -5.904      3.911      8.025
REMARK INTER + INTRA:         -11.624
REMARK INTER:                  -9.986
REMARK INTRA:                  -1.638
REMARK UNBOUND:                -2.269
REMARK SMILES C[C@H]1O[C@@H](O[C@@H]2[C@@H](Oc3cc(O)c4c(c3)O[C@@H](c3ccc(O)cc3)CC4=O)O[C@H](CO)[C@@H](O)[C@H]2O)[C@H](O)[C@H](O)[C@H]1O
REMARK SMILES IDX 6 1 34 2 32 3 29 4 28 5 7 6 5 7 4 8 1 9 2 10 40 11 3 12
REMARK SMILES IDX 38 13 36 14 41 15 39 17 37 19 35 21 8 23 9 24 10 25 15 26
REMARK SMILES IDX 11 27 14 28 13 29 16 30 26 31 17 32 27 33 25 34 12 35 18 37
REMARK SMILES IDX 19 38 24 39 20 40 23 41 21 42 22 43 33 45 30 47 31 48
REMARK H PARENT 41 16 39 18 37 20 35 22 12 36 22 44 33 46 31 49
REMARK Flexibility Score: inf
ROOT
ATOM      1  C   UNL     1      28.189  -4.837 -27.344  1.00  0.00     0.221 C 
ATOM      2  C   UNL     1      28.838  -3.466 -27.055  1.00  0.00     0.181 C 
ATOM      3  C   UNL     1      28.472  -2.424 -28.136  1.00  0.00     0.177 C 
ATOM      4  C   UNL     1      26.960  -2.453 -28.450  1.00  0.00     0.179 C 
ATOM      5  O   UNL     1      26.554  -3.762 -28.815  1.00  0.00    -0.332 OA
ATOM      6  C   UNL     1      26.701  -4.676 -27.741  1.00  0.00     0.339 C 
ENDROOT
BRANCH   1   7
ATOM      7  O   UNL     1      28.891  -5.443 -28.419  1.00  0.00    -0.337 OA
BRANCH   7   8
ATOM      8  C   UNL     1      28.795  -6.860 -28.393  1.00  0.00     0.282 C 
ATOM      9  C   UNL     1      31.467  -5.911 -29.699  1.00  0.00     0.041 C 
ATOM     10  C   UNL     1      30.828  -7.307 -29.582  1.00  0.00     0.150 C 
ATOM     11  C   UNL     1      30.047  -7.752 -30.847  1.00  0.00     0.174 C 
ATOM     12  O   UNL     1      30.085  -7.463 -28.375  1.00  0.00    -0.344 OA
ATOM     13  C   UNL     1      28.659  -7.102 -30.897  1.00  0.00     0.179 C 
ATOM     14  C   UNL     1      27.932  -7.346 -29.568  1.00  0.00     0.202 C 
BRANCH  11  15
ATOM     15  O   UNL     1      30.760  -7.430 -32.014  1.00  0.00    -0.388 OA
ATOM     16  H   UNL     1      30.462  -8.061 -32.723  1.00  0.00     0.211 HD
ENDBRANCH  11  15
BRANCH  13  17
ATOM     17  O   UNL     1      27.905  -7.646 -31.951  1.00  0.00    -0.387 OA
ATOM     18  H   UNL     1      27.957  -8.634 -31.865  1.00  0.00     0.211 HD
ENDBRANCH  13  17
BRANCH  14  19
ATOM     19  O   UNL     1      27.655  -8.715 -29.400  1.00  0.00    -0.385 OA
ATOM     20  H   UNL     1      26.832  -8.781 -28.849  1.00  0.00     0.211 HD
ENDBRANCH  14  19
ENDBRANCH   7   8
ENDBRANCH   1   7
BRANCH   2  21
ATOM     21  O   UNL     1      28.539  -3.018 -25.754  1.00  0.00    -0.387 OA
ATOM     22  H   UNL     1      27.883  -3.637 -25.348  1.00  0.00     0.211 HD
ENDBRANCH   2  21
BRANCH   6  23
ATOM     23  O   UNL     1      25.902  -4.300 -26.615  1.00  0.00    -0.462 OA
BRANCH  23  24
ATOM     24  C   UNL     1      24.517  -4.514 -26.510  1.00  0.00     0.130 A 
ATOM     25  C   UNL     1      23.969  -5.623 -25.838  1.00  0.00     0.093 A 
ATOM     26  C   UNL     1      23.659  -3.588 -27.109  1.00  0.00     0.094 A 
ATOM     27  C   UNL     1      22.581  -5.802 -25.767  1.00  0.00     0.133 A 
ATOM     28  C   UNL     1      22.275  -3.768 -27.065  1.00  0.00     0.138 A 
ATOM     29  C   UNL     1      21.722  -4.862 -26.376  1.00  0.00     0.102 A 
ATOM     30  O   UNL     1      21.444  -2.845 -27.709  1.00  0.00    -0.484 OA
ATOM     31  C   UNL     1      20.244  -4.963 -26.300  1.00  0.00     0.174 C 
ATOM     32  C   UNL     1      20.083  -3.136 -28.038  1.00  0.00     0.211 C 
ATOM     33  O   UNL     1      19.687  -5.936 -25.720  1.00  0.00    -0.294 OA
ATOM     34  C   UNL     1      19.383  -3.869 -26.872  1.00  0.00     0.131 C 
BRANCH  27  35
ATOM     35  O   UNL     1      22.065  -6.909 -25.093  1.00  0.00    -0.507 OA
ATOM     36  H   UNL     1      21.146  -7.283 -25.306  1.00  0.00     0.293 HD
ENDBRANCH  27  35
BRANCH  32  37
ATOM     37  C   UNL     1      20.035  -3.849 -29.384  1.00  0.00    -0.007 A 
ATOM     38  C   UNL     1      19.331  -5.054 -29.597  1.00  0.00     0.011 A 
ATOM     39  C   UNL     1      20.791  -3.316 -30.445  1.00  0.00     0.011 A 
ATOM     40  C   UNL     1      19.372  -5.690 -30.843  1.00  0.00     0.046 A 
ATOM     41  C   UNL     1      20.829  -3.954 -31.689  1.00  0.00     0.046 A 
ATOM     42  C   UNL     1      20.120  -5.143 -31.890  1.00  0.00     0.115 A 
BRANCH  42  43
ATOM     43  O   UNL     1      20.153  -5.791 -33.124  1.00  0.00    -0.508 OA
ATOM     44  H   UNL     1      21.029  -6.026 -33.575  1.00  0.00     0.293 HD
ENDBRANCH  42  43
ENDBRANCH  32  37
ENDBRANCH  23  24
ENDBRANCH   6  23
BRANCH   3  45
ATOM     45  O   UNL     1      28.847  -1.140 -27.704  1.00  0.00    -0.387 OA
ATOM     46  H   UNL     1      29.635  -1.259 -27.110  1.00  0.00     0.211 HD
ENDBRANCH   3  45
BRANCH   4  47
ATOM     47  C   UNL     1      26.629  -1.512 -29.613  1.00  0.00     0.191 C 
BRANCH  47  48
ATOM     48  O   UNL     1      25.706  -2.129 -30.468  1.00  0.00    -0.394 OA
ATOM     49  H   UNL     1      24.953  -1.494 -30.573  1.00  0.00     0.210 HD
ENDBRANCH  47  48
ENDBRANCH   4  47
TORSDOF 14
ENDMDL
MODEL 3
REMARK VINA RESULT:    -5.790      3.762      7.920
REMARK INTER + INTRA:         -11.444
REMARK INTER:                  -9.639
REMARK INTRA:                  -1.805
REMARK UNBOUND:                -2.269
REMARK SMILES C[C@H]1O[C@@H](O[C@@H]2[C@@H](Oc3cc(O)c4c(c3)O[C@@H](c3ccc(O)cc3)CC4=O)O[C@H](CO)[C@@H](O)[C@H]2O)[C@H](O)[C@H](O)[C@H]1O
REMARK SMILES IDX 6 1 34 2 32 3 29 4 28 5 7 6 5 7 4 8 1 9 2 10 40 11 3 12
REMARK SMILES IDX 38 13 36 14 41 15 39 17 37 19 35 21 8 23 9 24 10 25 15 26
REMARK SMILES IDX 11 27 14 28 13 29 16 30 26 31 17 32 27 33 25 34 12 35 18 37
REMARK SMILES IDX 19 38 24 39 20 40 23 41 21 42 22 43 33 45 30 47 31 48
REMARK H PARENT 41 16 39 18 37 20 35 22 12 36 22 44 33 46 31 49
REMARK Flexibility Score: inf
ROOT
ATOM      1  C   UNL     1      28.442  -6.028 -26.419  1.00  0.00     0.221 C 
ATOM      2  C   UNL     1      29.122  -5.580 -27.731  1.00  0.00     0.181 C 
ATOM      3  C   UNL     1      28.765  -6.518 -28.906  1.00  0.00     0.177 C 
ATOM      4  C   UNL     1      27.249  -6.812 -28.944  1.00  0.00     0.179 C 
ATOM      5  O   UNL     1      26.813  -7.332 -27.700  1.00  0.00    -0.332 OA
ATOM      6  C   UNL     1      26.954  -6.382 -26.656  1.00  0.00     0.339 C 
ENDROOT
BRANCH   1   7
ATOM      7  O   UNL     1      29.120  -7.180 -25.938  1.00  0.00    -0.337 OA
BRANCH   7   8
ATOM      8  C   UNL     1      29.950  -6.888 -24.824  1.00  0.00     0.282 C 
ATOM      9  C   UNL     1      31.516  -8.398 -27.063  1.00  0.00     0.041 C 
ATOM     10  C   UNL     1      31.911  -8.012 -25.626  1.00  0.00     0.150 C 
ATOM     11  C   UNL     1      31.736  -9.157 -24.595  1.00  0.00     0.174 C 
ATOM     12  O   UNL     1      31.316  -6.783 -25.213  1.00  0.00    -0.344 OA
ATOM     13  C   UNL     1      30.268  -9.301 -24.171  1.00  0.00     0.179 C 
ATOM     14  C   UNL     1      29.730  -7.936 -23.722  1.00  0.00     0.202 C 
BRANCH  11  15
ATOM     15  O   UNL     1      32.197 -10.376 -25.118  1.00  0.00    -0.388 OA
ATOM     16  H   UNL     1      31.394 -10.923 -25.338  1.00  0.00     0.211 HD
ENDBRANCH  11  15
BRANCH  13  17
ATOM     17  O   UNL     1      30.155 -10.221 -23.115  1.00  0.00    -0.387 OA
ATOM     18  H   UNL     1      30.854 -10.913 -23.255  1.00  0.00     0.211 HD
ENDBRANCH  13  17
BRANCH  14  19
ATOM     19  O   UNL     1      30.377  -7.512 -22.547  1.00  0.00    -0.385 OA
ATOM     20  H   UNL     1      30.807  -8.312 -22.146  1.00  0.00     0.211 HD
ENDBRANCH  14  19
ENDBRANCH   7   8
ENDBRANCH   1   7
BRANCH   2  21
ATOM     21  O   UNL     1      28.846  -4.228 -28.019  1.00  0.00    -0.387 OA
ATOM     22  H   UNL     1      28.397  -4.177 -28.897  1.00  0.00     0.211 HD
ENDBRANCH   2  21
BRANCH   6  23
ATOM     23  O   UNL     1      26.174  -5.208 -26.904  1.00  0.00    -0.462 OA
BRANCH  23  24
ATOM     24  C   UNL     1      24.781  -5.122 -26.740  1.00  0.00     0.130 A 
ATOM     25  C   UNL     1      24.049  -6.050 -25.975  1.00  0.00     0.093 A 
ATOM     26  C   UNL     1      24.105  -4.077 -27.373  1.00  0.00     0.094 A 
ATOM     27  C   UNL     1      22.658  -5.932 -25.848  1.00  0.00     0.133 A 
ATOM     28  C   UNL     1      22.717  -3.962 -27.272  1.00  0.00     0.138 A 
ATOM     29  C   UNL     1      21.983  -4.874 -26.493  1.00  0.00     0.102 A 
ATOM     30  O   UNL     1      22.065  -2.928 -27.952  1.00  0.00    -0.484 OA
ATOM     31  C   UNL     1      20.521  -4.661 -26.362  1.00  0.00     0.174 C 
ATOM     32  C   UNL     1      20.660  -2.948 -28.216  1.00  0.00     0.211 C 
ATOM     33  O   UNL     1      19.804  -5.459 -25.699  1.00  0.00    -0.294 OA
ATOM     34  C   UNL     1      19.878  -3.448 -26.980  1.00  0.00     0.131 C 
BRANCH  27  35
ATOM     35  O   UNL     1      21.957  -6.865 -25.083  1.00  0.00    -0.507 OA
ATOM     36  H   UNL     1      22.433  -7.593 -24.562  1.00  0.00     0.293 HD
ENDBRANCH  27  35
BRANCH  32  37
ATOM     37  C   UNL     1      20.405  -3.717 -29.507  1.00  0.00    -0.007 A 
ATOM     38  C   UNL     1      19.557  -4.844 -29.584  1.00  0.00     0.011 A 
ATOM     39  C   UNL     1      21.108  -3.326 -30.662  1.00  0.00     0.011 A 
ATOM     40  C   UNL     1      19.409  -5.540 -30.788  1.00  0.00     0.046 A 
ATOM     41  C   UNL     1      20.957  -4.023 -31.864  1.00  0.00     0.046 A 
ATOM     42  C   UNL     1      20.107  -5.133 -31.930  1.00  0.00     0.115 A 
BRANCH  42  43
ATOM     43  O   UNL     1      19.951  -5.840 -33.121  1.00  0.00    -0.508 OA
ATOM     44  H   UNL     1      19.101  -6.352 -33.325  1.00  0.00     0.293 HD
ENDBRANCH  42  43
ENDBRANCH  32  37
ENDBRANCH  23  24
ENDBRANCH   6  23
BRANCH   3  45
ATOM     45  O   UNL     1      29.171  -5.935 -30.119  1.00  0.00    -0.387 OA
ATOM     46  H   UNL     1      28.342  -5.650 -30.589  1.00  0.00     0.211 HD
ENDBRANCH   3  45
BRANCH   4  47
ATOM     47  C   UNL     1      26.924  -7.845 -30.029  1.00  0.00     0.191 C 
BRANCH  47  48
ATOM     48  O   UNL     1      27.095  -7.267 -31.294  1.00  0.00    -0.394 OA
ATOM     49  H   UNL     1      28.008  -6.884 -31.306  1.00  0.00     0.210 HD
ENDBRANCH  47  48
ENDBRANCH   4  47
TORSDOF 14
ENDMDL
MODEL 4
REMARK VINA RESULT:    -5.789      1.987      5.898
REMARK INTER + INTRA:         -11.441
REMARK INTER:                  -9.558
REMARK INTRA:                  -1.883
REMARK UNBOUND:                -2.269
REMARK SMILES C[C@H]1O[C@@H](O[C@@H]2[C@@H](Oc3cc(O)c4c(c3)O[C@@H](c3ccc(O)cc3)CC4=O)O[C@H](CO)[C@@H](O)[C@H]2O)[C@H](O)[C@H](O)[C@H]1O
REMARK SMILES IDX 6 1 34 2 32 3 29 4 28 5 7 6 5 7 4 8 1 9 2 10 40 11 3 12
REMARK SMILES IDX 38 13 36 14 41 15 39 17 37 19 35 21 8 23 9 24 10 25 15 26
REMARK SMILES IDX 11 27 14 28 13 29 16 30 26 31 17 32 27 33 25 34 12 35 18 37
REMARK SMILES IDX 19 38 24 39 20 40 23 41 21 42 22 43 33 45 30 47 31 48
REMARK H PARENT 41 16 39 18 37 20 35 22 12 36 22 44 33 46 31 49
REMARK Flexibility Score: inf
ROOT
ATOM      1  C   UNL     1      27.327  -4.624 -27.487  1.00  0.00     0.221 C 
ATOM      2  C   UNL     1      28.204  -3.443 -27.016  1.00  0.00     0.181 C 
ATOM      3  C   UNL     1      28.151  -2.263 -28.012  1.00  0.00     0.177 C 
ATOM      4  C   UNL     1      26.699  -1.956 -28.439  1.00  0.00     0.179 C 
ATOM      5  O   UNL     1      26.079  -3.119 -28.962  1.00  0.00    -0.332 OA
ATOM      6  C   UNL     1      25.944  -4.130 -27.976  1.00  0.00     0.339 C 
ENDROOT
BRANCH   1   7
ATOM      7  O   UNL     1      27.994  -5.270 -28.562  1.00  0.00    -0.337 OA
BRANCH   7   8
ATOM      8  C   UNL     1      27.967  -6.684 -28.439  1.00  0.00     0.282 C 
ATOM      9  C   UNL     1      30.739  -5.669 -29.452  1.00  0.00     0.041 C 
ATOM     10  C   UNL     1      30.163  -7.089 -29.313  1.00  0.00     0.150 C 
ATOM     11  C   UNL     1      29.584  -7.668 -30.630  1.00  0.00     0.174 C 
ATOM     12  O   UNL     1      29.271  -7.205 -28.205  1.00  0.00    -0.344 OA
ATOM     13  C   UNL     1      28.184  -7.109 -30.912  1.00  0.00     0.179 C 
ATOM     14  C   UNL     1      27.297  -7.303 -29.675  1.00  0.00     0.202 C 
BRANCH  11  15
ATOM     15  O   UNL     1      30.431  -7.386 -31.715  1.00  0.00    -0.388 OA
ATOM     16  H   UNL     1      31.278  -7.023 -31.339  1.00  0.00     0.211 HD
ENDBRANCH  11  15
BRANCH  13  17
ATOM     17  O   UNL     1      27.608  -7.771 -32.011  1.00  0.00    -0.387 OA
ATOM     18  H   UNL     1      26.712  -8.088 -31.722  1.00  0.00     0.211 HD
ENDBRANCH  13  17
BRANCH  14  19
ATOM     19  O   UNL     1      27.070  -8.671 -29.440  1.00  0.00    -0.385 OA
ATOM     20  H   UNL     1      26.843  -8.768 -28.479  1.00  0.00     0.211 HD
ENDBRANCH  14  19
ENDBRANCH   7   8
ENDBRANCH   1   7
BRANCH   2  21
ATOM     21  O   UNL     1      27.878  -3.052 -25.702  1.00  0.00    -0.387 OA
ATOM     22  H   UNL     1      28.266  -2.159 -25.532  1.00  0.00     0.211 HD
ENDBRANCH   2  21
BRANCH   6  23
ATOM     23  O   UNL     1      25.132  -3.693 -26.882  1.00  0.00    -0.462 OA
BRANCH  23  24
ATOM     24  C   UNL     1      24.725  -4.507 -25.812  1.00  0.00     0.130 A 
ATOM     25  C   UNL     1      24.383  -3.986 -24.549  1.00  0.00     0.093 A 
ATOM     26  C   UNL     1      24.671  -5.888 -26.016  1.00  0.00     0.094 A 
ATOM     27  C   UNL     1      23.993  -4.837 -23.506  1.00  0.00     0.133 A 
ATOM     28  C   UNL     1      24.305  -6.748 -24.979  1.00  0.00     0.138 A 
ATOM     29  C   UNL     1      23.942  -6.231 -23.722  1.00  0.00     0.102 A 
ATOM     30  O   UNL     1      24.300  -8.128 -25.203  1.00  0.00    -0.484 OA
ATOM     31  C   UNL     1      23.492  -7.185 -22.679  1.00  0.00     0.174 C 
ATOM     32  C   UNL     1      24.312  -9.080 -24.137  1.00  0.00     0.211 C 
ATOM     33  O   UNL     1      23.179  -6.787 -21.523  1.00  0.00    -0.294 OA
ATOM     34  C   UNL     1      23.351  -8.648 -23.006  1.00  0.00     0.131 C 
BRANCH  27  35
ATOM     35  O   UNL     1      23.658  -4.294 -22.266  1.00  0.00    -0.507 OA
ATOM     36  H   UNL     1      23.914  -3.347 -22.011  1.00  0.00     0.293 HD
ENDBRANCH  27  35
BRANCH  32  37
ATOM     37  C   UNL     1      25.752  -9.336 -23.710  1.00  0.00    -0.007 A 
ATOM     38  C   UNL     1      26.834  -8.518 -24.105  1.00  0.00     0.011 A 
ATOM     39  C   UNL     1      26.024 -10.486 -22.947  1.00  0.00     0.011 A 
ATOM     40  C   UNL     1      28.142  -8.839 -23.726  1.00  0.00     0.046 A 
ATOM     41  C   UNL     1      27.332 -10.803 -22.568  1.00  0.00     0.046 A 
ATOM     42  C   UNL     1      28.395  -9.980 -22.958  1.00  0.00     0.115 A 
BRANCH  42  43
ATOM     43  O   UNL     1      29.704 -10.288 -22.592  1.00  0.00    -0.508 OA
ATOM     44  H   UNL     1      29.909 -11.021 -21.924  1.00  0.00     0.293 HD
ENDBRANCH  42  43
ENDBRANCH  32  37
ENDBRANCH  23  24
ENDBRANCH   6  23
BRANCH   3  45
ATOM     45  O   UNL     1      28.730  -1.122 -27.428  1.00  0.00    -0.387 OA
ATOM     46  H   UNL     1      28.795  -1.305 -26.453  1.00  0.00     0.211 HD
ENDBRANCH   3  45
BRANCH   4  47
ATOM     47  C   UNL     1      26.669  -0.875 -29.525  1.00  0.00     0.191 C 
BRANCH  47  48
ATOM     48  O   UNL     1      26.674   0.392 -28.926  1.00  0.00    -0.394 OA
ATOM     49  H   UNL     1      27.606   0.559 -28.633  1.00  0.00     0.210 HD
ENDBRANCH  47  48
ENDBRANCH   4  47
TORSDOF 14
ENDMDL
MODEL 5
REMARK VINA RESULT:    -5.741      1.156      1.979
REMARK INTER + INTRA:         -11.366
REMARK INTER:                  -9.446
REMARK INTRA:                  -1.920
REMARK UNBOUND:                -2.269
REMARK SMILES C[C@H]1O[C@@H](O[C@@H]2[C@@H](Oc3cc(O)c4c(c3)O[C@@H](c3ccc(O)cc3)CC4=O)O[C@H](CO)[C@@H](O)[C@H]2O)[C@H](O)[C@H](O)[C@H]1O
REMARK SMILES IDX 6 1 34 2 32 3 29 4 28 5 7 6 5 7 4 8 1 9 2 10 40 11 3 12
REMARK SMILES IDX 38 13 36 14 41 15 39 17 37 19 35 21 8 23 9 24 10 25 15 26
REMARK SMILES IDX 11 27 14 28 13 29 16 30 26 31 17 32 27 33 25 34 12 35 18 37
REMARK SMILES IDX 19 38 24 39 20 40 23 41 21 42 22 43 33 45 30 47 31 48
REMARK H PARENT 41 16 39 18 37 20 35 22 12 36 22 44 33 46 31 49
REMARK Flexibility Score: inf
ROOT
ATOM      1  C   UNL     1      28.998  -6.117 -29.021  1.00  0.00     0.221 C 
ATOM      2  C   UNL     1      28.590  -7.159 -30.085  1.00  0.00     0.181 C 
ATOM      3  C   UNL     1      29.151  -6.798 -31.479  1.00  0.00     0.177 C 
ATOM      4  C   UNL     1      30.640  -6.399 -31.396  1.00  0.00     0.179 C 
ATOM      5  O   UNL     1      30.822  -5.347 -30.463  1.00  0.00    -0.332 OA
ATOM      6  C   UNL     1      30.499  -5.755 -29.143  1.00  0.00     0.339 C 
ENDROOT
BRANCH   1   7
ATOM      7  O   UNL     1      28.222  -4.945 -29.226  1.00  0.00    -0.337 OA
BRANCH   7   8
ATOM      8  C   UNL     1      28.558  -3.912 -28.312  1.00  0.00     0.282 C 
ATOM      9  C   UNL     1      25.849  -5.272 -27.567  1.00  0.00     0.041 C 
ATOM     10  C   UNL     1      26.554  -4.025 -27.002  1.00  0.00     0.150 C 
ATOM     11  C   UNL     1      26.035  -2.686 -27.591  1.00  0.00     0.174 C 
ATOM     12  O   UNL     1      27.974  -4.145 -27.035  1.00  0.00    -0.344 OA
ATOM     13  C   UNL     1      26.639  -2.421 -28.976  1.00  0.00     0.179 C 
ATOM     14  C   UNL     1      28.166  -2.548 -28.901  1.00  0.00     0.202 C 
BRANCH  11  15
ATOM     15  O   UNL     1      24.634  -2.689 -27.681  1.00  0.00    -0.388 OA
ATOM     16  H   UNL     1      24.396  -2.317 -28.573  1.00  0.00     0.211 HD
ENDBRANCH  11  15
BRANCH  13  17
ATOM     17  O   UNL     1      26.296  -1.131 -29.417  1.00  0.00    -0.387 OA
ATOM     18  H   UNL     1      25.926  -0.645 -28.633  1.00  0.00     0.211 HD
ENDBRANCH  13  17
BRANCH  14  19
ATOM     19  O   UNL     1      28.708  -1.527 -28.099  1.00  0.00    -0.385 OA
ATOM     20  H   UNL     1      28.892  -0.755 -28.695  1.00  0.00     0.211 HD
ENDBRANCH  14  19
ENDBRANCH   7   8
ENDBRANCH   1   7
BRANCH   2  21
ATOM     21  O   UNL     1      28.938  -8.465 -29.688  1.00  0.00    -0.387 OA
ATOM     22  H   UNL     1      28.283  -8.777 -29.017  1.00  0.00     0.211 HD
ENDBRANCH   2  21
BRANCH   6  23
ATOM     23  O   UNL     1      31.330  -6.834 -28.707  1.00  0.00    -0.462 OA
BRANCH  23  24
ATOM     24  C   UNL     1      31.160  -7.542 -27.505  1.00  0.00     0.130 A 
ATOM     25  C   UNL     1      31.649  -8.848 -27.318  1.00  0.00     0.093 A 
ATOM     26  C   UNL     1      30.466  -6.918 -26.465  1.00  0.00     0.094 A 
ATOM     27  C   UNL     1      31.445  -9.521 -26.105  1.00  0.00     0.133 A 
ATOM     28  C   UNL     1      30.238  -7.586 -25.260  1.00  0.00     0.138 A 
ATOM     29  C   UNL     1      30.743  -8.883 -25.060  1.00  0.00     0.102 A 
ATOM     30  O   UNL     1      29.505  -6.950 -24.254  1.00  0.00    -0.484 OA
ATOM     31  C   UNL     1      30.533  -9.516 -23.735  1.00  0.00     0.174 C 
ATOM     32  C   UNL     1      28.908  -7.665 -23.169  1.00  0.00     0.211 C 
ATOM     33  O   UNL     1      30.938 -10.688 -23.502  1.00  0.00    -0.294 OA
ATOM     34  C   UNL     1      29.875  -8.741 -22.625  1.00  0.00     0.131 C 
BRANCH  27  35
ATOM     35  O   UNL     1      31.942 -10.814 -25.945  1.00  0.00    -0.507 OA
ATOM     36  H   UNL     1      32.262 -11.365 -26.735  1.00  0.00     0.293 HD
ENDBRANCH  27  35
BRANCH  32  37
ATOM     37  C   UNL     1      27.537  -8.173 -23.598  1.00  0.00    -0.007 A 
ATOM     38  C   UNL     1      26.711  -7.491 -24.518  1.00  0.00     0.011 A 
ATOM     39  C   UNL     1      27.042  -9.342 -22.990  1.00  0.00     0.011 A 
ATOM     40  C   UNL     1      25.438  -7.981 -24.828  1.00  0.00     0.046 A 
ATOM     41  C   UNL     1      25.770  -9.830 -23.303  1.00  0.00     0.046 A 
ATOM     42  C   UNL     1      24.964  -9.150 -24.223  1.00  0.00     0.115 A 
BRANCH  42  43
ATOM     43  O   UNL     1      23.692  -9.623 -24.541  1.00  0.00    -0.508 OA
ATOM     44  H   UNL     1      23.542 -10.579 -24.838  1.00  0.00     0.293 HD
ENDBRANCH  42  43
ENDBRANCH  32  37
ENDBRANCH  23  24
ENDBRANCH   6  23
BRANCH   3  45
ATOM     45  O   UNL     1      28.995  -7.890 -32.351  1.00  0.00    -0.387 OA
ATOM     46  H   UNL     1      28.293  -7.632 -33.007  1.00  0.00     0.211 HD
ENDBRANCH   3  45
BRANCH   4  47
ATOM     47  C   UNL     1      31.150  -5.917 -32.759  1.00  0.00     0.191 C 
BRANCH  47  48
ATOM     48  O   UNL     1      30.793  -4.576 -32.946  1.00  0.00    -0.394 OA
ATOM     49  H   UNL     1      31.436  -4.038 -32.418  1.00  0.00     0.210 HD
ENDBRANCH  47  48
ENDBRANCH   4  47
TORSDOF 14
ENDMDL
MODEL 6
REMARK VINA RESULT:    -5.637      3.076      6.808
REMARK INTER + INTRA:         -11.201
REMARK INTER:                  -9.516
REMARK INTRA:                  -1.685
REMARK UNBOUND:                -2.269
REMARK SMILES C[C@H]1O[C@@H](O[C@@H]2[C@@H](Oc3cc(O)c4c(c3)O[C@@H](c3ccc(O)cc3)CC4=O)O[C@H](CO)[C@@H](O)[C@H]2O)[C@H](O)[C@H](O)[C@H]1O
REMARK SMILES IDX 6 1 34 2 32 3 29 4 28 5 7 6 5 7 4 8 1 9 2 10 40 11 3 12
REMARK SMILES IDX 38 13 36 14 41 15 39 17 37 19 35 21 8 23 9 24 10 25 15 26
REMARK SMILES IDX 11 27 14 28 13 29 16 30 26 31 17 32 27 33 25 34 12 35 18 37
REMARK SMILES IDX 19 38 24 39 20 40 23 41 21 42 22 43 33 45 30 47 31 48
REMARK H PARENT 41 16 39 18 37 20 35 22 12 36 22 44 33 46 31 49
REMARK Flexibility Score: inf
ROOT
ATOM      1  C   UNL     1      29.729  -6.007 -28.283  1.00  0.00     0.221 C 
ATOM      2  C   UNL     1      30.221  -5.355 -29.593  1.00  0.00     0.181 C 
ATOM      3  C   UNL     1      30.198  -6.356 -30.770  1.00  0.00     0.177 C 
ATOM      4  C   UNL     1      28.868  -7.139 -30.812  1.00  0.00     0.179 C 
ATOM      5  O   UNL     1      28.628  -7.777 -29.568  1.00  0.00    -0.332 OA
ATOM      6  C   UNL     1      28.444  -6.836 -28.523  1.00  0.00     0.339 C 
ENDROOT
BRANCH   1   7
ATOM      7  O   UNL     1      30.751  -6.868 -27.803  1.00  0.00    -0.337 OA
BRANCH   7   8
ATOM      8  C   UNL     1      31.198  -6.501 -26.507  1.00  0.00     0.282 C 
ATOM      9  C   UNL     1      32.870  -8.865 -27.673  1.00  0.00     0.041 C 
ATOM     10  C   UNL     1      32.851  -8.222 -26.275  1.00  0.00     0.150 C 
ATOM     11  C   UNL     1      31.981  -8.985 -25.241  1.00  0.00     0.174 C 
ATOM     12  O   UNL     1      32.573  -6.824 -26.326  1.00  0.00    -0.344 OA
ATOM     13  C   UNL     1      30.493  -8.665 -25.427  1.00  0.00     0.179 C 
ATOM     14  C   UNL     1      30.296  -7.143 -25.442  1.00  0.00     0.202 C 
BRANCH  11  15
ATOM     15  O   UNL     1      32.181 -10.371 -25.346  1.00  0.00    -0.388 OA
ATOM     16  H   UNL     1      31.827 -10.782 -24.511  1.00  0.00     0.211 HD
ENDBRANCH  11  15
BRANCH  13  17
ATOM     17  O   UNL     1      29.741  -9.225 -24.379  1.00  0.00    -0.387 OA
ATOM     18  H   UNL     1      30.384  -9.497 -23.673  1.00  0.00     0.211 HD
ENDBRANCH  13  17
BRANCH  14  19
ATOM     19  O   UNL     1      30.602  -6.593 -24.185  1.00  0.00    -0.385 OA
ATOM     20  H   UNL     1      29.753  -6.250 -23.802  1.00  0.00     0.211 HD
ENDBRANCH  14  19
ENDBRANCH   7   8
ENDBRANCH   1   7
BRANCH   2  21
ATOM     21  O   UNL     1      29.511  -4.173 -29.879  1.00  0.00    -0.387 OA
ATOM     22  H   UNL     1      28.769  -4.390 -30.495  1.00  0.00     0.211 HD
ENDBRANCH   2  21
BRANCH   6  23
ATOM     23  O   UNL     1      27.317  -5.989 -28.770  1.00  0.00    -0.462 OA
BRANCH  23  24
ATOM     24  C   UNL     1      26.250  -5.795 -27.877  1.00  0.00     0.130 A 
ATOM     25  C   UNL     1      25.898  -6.744 -26.899  1.00  0.00     0.093 A 
ATOM     26  C   UNL     1      25.509  -4.615 -27.980  1.00  0.00     0.094 A 
ATOM     27  C   UNL     1      24.817  -6.514 -26.035  1.00  0.00     0.133 A 
ATOM     28  C   UNL     1      24.418  -4.384 -27.140  1.00  0.00     0.138 A 
ATOM     29  C   UNL     1      24.074  -5.319 -26.148  1.00  0.00     0.102 A 
ATOM     30  O   UNL     1      23.671  -3.212 -27.295  1.00  0.00    -0.484 OA
ATOM     31  C   UNL     1      22.950  -4.989 -25.238  1.00  0.00     0.174 C 
ATOM     32  C   UNL     1      22.353  -3.064 -26.763  1.00  0.00     0.211 C 
ATOM     33  O   UNL     1      22.577  -5.797 -24.344  1.00  0.00    -0.294 OA
ATOM     34  C   UNL     1      22.271  -3.649 -25.335  1.00  0.00     0.131 C 
BRANCH  27  35
ATOM     35  O   UNL     1      24.490  -7.470 -25.074  1.00  0.00    -0.507 OA
ATOM     36  H   UNL     1      23.527  -7.715 -24.871  1.00  0.00     0.293 HD
ENDBRANCH  27  35
BRANCH  32  37
ATOM     37  C   UNL     1      21.345  -3.624 -27.759  1.00  0.00    -0.007 A 
ATOM     38  C   UNL     1      20.350  -4.563 -27.409  1.00  0.00     0.011 A 
ATOM     39  C   UNL     1      21.462  -3.241 -29.108  1.00  0.00     0.011 A 
ATOM     40  C   UNL     1      19.490  -5.082 -28.383  1.00  0.00     0.046 A 
ATOM     41  C   UNL     1      20.600  -3.761 -30.078  1.00  0.00     0.046 A 
ATOM     42  C   UNL     1      19.612  -4.684 -29.718  1.00  0.00     0.115 A 
BRANCH  42  43
ATOM     43  O   UNL     1      18.749  -5.214 -30.676  1.00  0.00    -0.508 OA
ATOM     44  H   UNL     1      18.046  -5.901 -30.434  1.00  0.00     0.293 HD
ENDBRANCH  42  43
ENDBRANCH  32  37
ENDBRANCH  23  24
ENDBRANCH   6  23
BRANCH   3  45
ATOM     45  O   UNL     1      30.388  -5.669 -31.982  1.00  0.00    -0.387 OA
ATOM     46  H   UNL     1      29.989  -6.235 -32.695  1.00  0.00     0.211 HD
ENDBRANCH   3  45
BRANCH   4  47
ATOM     47  C   UNL     1      28.907  -8.219 -31.898  1.00  0.00     0.191 C 
BRANCH  47  48
ATOM     48  O   UNL     1      30.086  -8.965 -31.777  1.00  0.00    -0.394 OA
ATOM     49  H   UNL     1      30.718  -8.407 -31.256  1.00  0.00     0.210 HD
ENDBRANCH  47  48
ENDBRANCH   4  47
TORSDOF 14
ENDMDL
MODEL 7
REMARK VINA RESULT:    -5.599     10.537     14.280
REMARK INTER + INTRA:         -11.141
REMARK INTER:                  -8.921
REMARK INTRA:                  -2.220
REMARK UNBOUND:                -2.269
REMARK SMILES C[C@H]1O[C@@H](O[C@@H]2[C@@H](Oc3cc(O)c4c(c3)O[C@@H](c3ccc(O)cc3)CC4=O)O[C@H](CO)[C@@H](O)[C@H]2O)[C@H](O)[C@H](O)[C@H]1O
REMARK SMILES IDX 6 1 34 2 32 3 29 4 28 5 7 6 5 7 4 8 1 9 2 10 40 11 3 12
REMARK SMILES IDX 38 13 36 14 41 15 39 17 37 19 35 21 8 23 9 24 10 25 15 26
REMARK SMILES IDX 11 27 14 28 13 29 16 30 26 31 17 32 27 33 25 34 12 35 18 37
REMARK SMILES IDX 19 38 24 39 20 40 23 41 21 42 22 43 33 45 30 47 31 48
REMARK H PARENT 41 16 39 18 37 20 35 22 12 36 22 44 33 46 31 49
REMARK Flexibility Score: inf
ROOT
ATOM      1  C   UNL     1      26.801   1.161 -17.626  1.00  0.00     0.221 C 
ATOM      2  C   UNL     1      28.076   1.216 -16.756  1.00  0.00     0.181 C 
ATOM      3  C   UNL     1      28.868  -0.108 -16.823  1.00  0.00     0.177 C 
ATOM      4  C   UNL     1      29.012  -0.600 -18.280  1.00  0.00     0.179 C 
ATOM      5  O   UNL     1      27.739  -0.713 -18.894  1.00  0.00    -0.332 OA
ATOM      6  C   UNL     1      27.102   0.549 -19.016  1.00  0.00     0.339 C 
ENDROOT
BRANCH   1   7
ATOM      7  O   UNL     1      25.845   0.348 -16.962  1.00  0.00    -0.337 OA
BRANCH   7   8
ATOM      8  C   UNL     1      24.699   1.085 -16.563  1.00  0.00     0.282 C 
ATOM      9  C   UNL     1      24.423  -1.943 -15.857  1.00  0.00     0.041 C 
ATOM     10  C   UNL     1      23.414  -0.783 -15.783  1.00  0.00     0.150 C 
ATOM     11  C   UNL     1      22.459  -0.698 -17.003  1.00  0.00     0.174 C 
ATOM     12  O   UNL     1      24.040   0.459 -15.467  1.00  0.00    -0.344 OA
ATOM     13  C   UNL     1      23.152  -0.040 -18.203  1.00  0.00     0.179 C 
ATOM     14  C   UNL     1      23.769   1.295 -17.768  1.00  0.00     0.202 C 
BRANCH  11  15
ATOM     15  O   UNL     1      21.997  -1.973 -17.366  1.00  0.00    -0.388 OA
ATOM     16  H   UNL     1      21.532  -2.354 -16.573  1.00  0.00     0.211 HD
ENDBRANCH  11  15
BRANCH  13  17
ATOM     17  O   UNL     1      22.226   0.184 -19.236  1.00  0.00    -0.387 OA
ATOM     18  H   UNL     1      22.165  -0.657 -19.760  1.00  0.00     0.211 HD
ENDBRANCH  13  17
BRANCH  14  19
ATOM     19  O   UNL     1      22.762   2.214 -17.419  1.00  0.00    -0.385 OA
ATOM     20  H   UNL     1      21.895   1.813 -17.690  1.00  0.00     0.211 HD
ENDBRANCH  14  19
ENDBRANCH   7   8
ENDBRANCH   1   7
BRANCH   2  21
ATOM     21  O   UNL     1      28.870   2.335 -17.077  1.00  0.00    -0.387 OA
ATOM     22  H   UNL     1      28.319   2.980 -17.584  1.00  0.00     0.211 HD
ENDBRANCH   2  21
BRANCH   6  23
ATOM     23  O   UNL     1      27.867   1.448 -19.825  1.00  0.00    -0.462 OA
BRANCH  23  24
ATOM     24  C   UNL     1      27.321   2.455 -20.639  1.00  0.00     0.130 A 
ATOM     25  C   UNL     1      28.118   3.354 -21.372  1.00  0.00     0.093 A 
ATOM     26  C   UNL     1      25.930   2.565 -20.708  1.00  0.00     0.094 A 
ATOM     27  C   UNL     1      27.529   4.351 -22.163  1.00  0.00     0.133 A 
ATOM     28  C   UNL     1      25.332   3.568 -21.474  1.00  0.00     0.138 A 
ATOM     29  C   UNL     1      26.123   4.455 -22.226  1.00  0.00     0.102 A 
ATOM     30  O   UNL     1      23.938   3.678 -21.490  1.00  0.00    -0.484 OA
ATOM     31  C   UNL     1      25.433   5.453 -23.079  1.00  0.00     0.174 C 
ATOM     32  C   UNL     1      23.265   4.863 -21.921  1.00  0.00     0.211 C 
ATOM     33  O   UNL     1      26.087   6.294 -23.755  1.00  0.00    -0.294 OA
ATOM     34  C   UNL     1      23.932   5.440 -23.190  1.00  0.00     0.131 C 
BRANCH  27  35
ATOM     35  O   UNL     1      28.343   5.227 -22.881  1.00  0.00    -0.507 OA
ATOM     36  H   UNL     1      27.977   5.798 -23.635  1.00  0.00     0.293 HD
ENDBRANCH  27  35
BRANCH  32  37
ATOM     37  C   UNL     1      23.149   5.828 -20.747  1.00  0.00    -0.007 A 
ATOM     38  C   UNL     1      23.173   5.412 -19.397  1.00  0.00     0.011 A 
ATOM     39  C   UNL     1      22.933   7.190 -21.025  1.00  0.00     0.011 A 
ATOM     40  C   UNL     1      23.005   6.341 -18.365  1.00  0.00     0.046 A 
ATOM     41  C   UNL     1      22.767   8.116 -19.991  1.00  0.00     0.046 A 
ATOM     42  C   UNL     1      22.801   7.693 -18.658  1.00  0.00     0.115 A 
BRANCH  42  43
ATOM     43  O   UNL     1      22.632   8.605 -17.617  1.00  0.00    -0.508 OA
ATOM     44  H   UNL     1      21.759   9.101 -17.485  1.00  0.00     0.293 HD
ENDBRANCH  42  43
ENDBRANCH  32  37
ENDBRANCH  23  24
ENDBRANCH   6  23
BRANCH   3  45
ATOM     45  O   UNL     1      30.140   0.070 -16.250  1.00  0.00    -0.387 OA
ATOM     46  H   UNL     1      30.658   0.639 -16.879  1.00  0.00     0.211 HD
ENDBRANCH   3  45
BRANCH   4  47
ATOM     47  C   UNL     1      29.683  -1.977 -18.324  1.00  0.00     0.191 C 
BRANCH  47  48
ATOM     48  O   UNL     1      29.481  -2.638 -17.105  1.00  0.00    -0.394 OA
ATOM     49  H   UNL     1      28.501  -2.737 -16.999  1.00  0.00     0.210 HD
ENDBRANCH  47  48
ENDBRANCH   4  47
TORSDOF 14
ENDMDL
MODEL 8
REMARK VINA RESULT:    -5.461      3.027      6.579
REMARK INTER + INTRA:         -10.923
REMARK INTER:                  -9.167
REMARK INTRA:                  -1.756
REMARK UNBOUND:                -2.269
REMARK SMILES C[C@H]1O[C@@H](O[C@@H]2[C@@H](Oc3cc(O)c4c(c3)O[C@@H](c3ccc(O)cc3)CC4=O)O[C@H](CO)[C@@H](O)[C@H]2O)[C@H](O)[C@H](O)[C@H]1O
REMARK SMILES IDX 6 1 34 2 32 3 29 4 28 5 7 6 5 7 4 8 1 9 2 10 40 11 3 12
REMARK SMILES IDX 38 13 36 14 41 15 39 17 37 19 35 21 8 23 9 24 10 25 15 26
REMARK SMILES IDX 11 27 14 28 13 29 16 30 26 31 17 32 27 33 25 34 12 35 18 37
REMARK SMILES IDX 19 38 24 39 20 40 23 41 21 42 22 43 33 45 30 47 31 48
REMARK H PARENT 41 16 39 18 37 20 35 22 12 36 22 44 33 46 31 49
REMARK Flexibility Score: inf
ROOT
ATOM      1  C   UNL     1      26.564  -3.442 -26.944  1.00  0.00     0.221 C 
ATOM      2  C   UNL     1      25.809  -3.906 -25.680  1.00  0.00     0.181 C 
ATOM      3  C   UNL     1      24.285  -3.690 -25.816  1.00  0.00     0.177 C 
ATOM      4  C   UNL     1      23.770  -4.187 -27.185  1.00  0.00     0.179 C 
ATOM      5  O   UNL     1      24.490  -3.570 -28.240  1.00  0.00    -0.332 OA
ATOM      6  C   UNL     1      25.859  -3.942 -28.228  1.00  0.00     0.339 C 
ENDROOT
BRANCH   1   7
ATOM      7  O   UNL     1      26.586  -2.022 -26.952  1.00  0.00    -0.337 OA
BRANCH   7   8
ATOM      8  C   UNL     1      27.870  -1.507 -27.272  1.00  0.00     0.282 C 
ATOM      9  C   UNL     1      26.336   0.368 -25.303  1.00  0.00     0.041 C 
ATOM     10  C   UNL     1      27.663   0.552 -26.062  1.00  0.00     0.150 C 
ATOM     11  C   UNL     1      27.530   1.367 -27.375  1.00  0.00     0.174 C 
ATOM     12  O   UNL     1      28.367  -0.677 -26.227  1.00  0.00    -0.344 OA
ATOM     13  C   UNL     1      26.981   0.498 -28.513  1.00  0.00     0.179 C 
ATOM     14  C   UNL     1      27.818  -0.783 -28.627  1.00  0.00     0.202 C 
BRANCH  11  15
ATOM     15  O   UNL     1      26.696   2.482 -27.190  1.00  0.00    -0.388 OA
ATOM     16  H   UNL     1      27.173   3.107 -26.578  1.00  0.00     0.211 HD
ENDBRANCH  11  15
BRANCH  13  17
ATOM     17  O   UNL     1      27.031   1.200 -29.729  1.00  0.00    -0.387 OA
ATOM     18  H   UNL     1      27.971   1.498 -29.855  1.00  0.00     0.211 HD
ENDBRANCH  13  17
BRANCH  14  19
ATOM     19  O   UNL     1      29.129  -0.482 -29.038  1.00  0.00    -0.385 OA
ATOM     20  H   UNL     1      29.062   0.223 -29.734  1.00  0.00     0.211 HD
ENDBRANCH  14  19
ENDBRANCH   7   8
ENDBRANCH   1   7
BRANCH   2  21
ATOM     21  O   UNL     1      26.135  -5.235 -25.343  1.00  0.00    -0.387 OA
ATOM     22  H   UNL     1      27.056  -5.253 -24.983  1.00  0.00     0.211 HD
ENDBRANCH   2  21
BRANCH   6  23
ATOM     23  O   UNL     1      26.023  -5.353 -28.395  1.00  0.00    -0.462 OA
BRANCH  23  24
ATOM     24  C   UNL     1      27.154  -5.967 -28.958  1.00  0.00     0.130 A 
ATOM     25  C   UNL     1      27.063  -6.963 -29.949  1.00  0.00     0.093 A 
ATOM     26  C   UNL     1      28.414  -5.574 -28.501  1.00  0.00     0.094 A 
ATOM     27  C   UNL     1      28.219  -7.557 -30.474  1.00  0.00     0.133 A 
ATOM     28  C   UNL     1      29.572  -6.174 -29.000  1.00  0.00     0.138 A 
ATOM     29  C   UNL     1      29.488  -7.154 -30.005  1.00  0.00     0.102 A 
ATOM     30  O   UNL     1      30.817  -5.787 -28.493  1.00  0.00    -0.484 OA
ATOM     31  C   UNL     1      30.753  -7.704 -30.550  1.00  0.00     0.174 C 
ATOM     32  C   UNL     1      31.994  -6.583 -28.655  1.00  0.00     0.211 C 
ATOM     33  O   UNL     1      30.744  -8.605 -31.434  1.00  0.00    -0.294 OA
ATOM     34  C   UNL     1      32.075  -7.152 -30.090  1.00  0.00     0.131 C 
BRANCH  27  35
ATOM     35  O   UNL     1      28.101  -8.539 -31.457  1.00  0.00    -0.507 OA
ATOM     36  H   UNL     1      27.227  -9.028 -31.620  1.00  0.00     0.293 HD
ENDBRANCH  27  35
BRANCH  32  37
ATOM     37  C   UNL     1      32.059  -7.615 -27.536  1.00  0.00    -0.007 A 
ATOM     38  C   UNL     1      32.188  -9.002 -27.768  1.00  0.00     0.011 A 
ATOM     39  C   UNL     1      31.907  -7.167 -26.211  1.00  0.00     0.011 A 
ATOM     40  C   UNL     1      32.185  -9.904 -26.699  1.00  0.00     0.046 A 
ATOM     41  C   UNL     1      31.906  -8.072 -25.144  1.00  0.00     0.046 A 
ATOM     42  C   UNL     1      32.043  -9.443 -25.386  1.00  0.00     0.115 A 
BRANCH  42  43
ATOM     43  O   UNL     1      32.039 -10.355 -24.332  1.00  0.00    -0.508 OA
ATOM     44  H   UNL     1      32.323 -10.086 -23.398  1.00  0.00     0.293 HD
ENDBRANCH  42  43
ENDBRANCH  32  37
ENDBRANCH  23  24
ENDBRANCH   6  23
BRANCH   3  45
ATOM     45  O   UNL     1      23.615  -4.363 -24.780  1.00  0.00    -0.387 OA
ATOM     46  H   UNL     1      23.057  -3.685 -24.314  1.00  0.00     0.211 HD
ENDBRANCH   3  45
BRANCH   4  47
ATOM     47  C   UNL     1      22.286  -3.849 -27.363  1.00  0.00     0.191 C 
BRANCH  47  48
ATOM     48  O   UNL     1      21.962  -2.732 -26.582  1.00  0.00    -0.394 OA
ATOM     49  H   UNL     1      21.785  -3.071 -25.669  1.00  0.00     0.210 HD
ENDBRANCH  47  48
ENDBRANCH   4  47
TORSDOF 14
ENDMDL
MODEL 9
REMARK VINA RESULT:    -5.414      2.117      8.452
REMARK INTER + INTRA:         -10.849
REMARK INTER:                  -8.892
REMARK INTRA:                  -1.956
REMARK UNBOUND:                -2.269
REMARK SMILES C[C@H]1O[C@@H](O[C@@H]2[C@@H](Oc3cc(O)c4c(c3)O[C@@H](c3ccc(O)cc3)CC4=O)O[C@H](CO)[C@@H](O)[C@H]2O)[C@H](O)[C@H](O)[C@H]1O
REMARK SMILES IDX 6 1 34 2 32 3 29 4 28 5 7 6 5 7 4 8 1 9 2 10 40 11 3 12
REMARK SMILES IDX 38 13 36 14 41 15 39 17 37 19 35 21 8 23 9 24 10 25 15 26
REMARK SMILES IDX 11 27 14 28 13 29 16 30 26 31 17 32 27 33 25 34 12 35 18 37
REMARK SMILES IDX 19 38 24 39 20 40 23 41 21 42 22 43 33 45 30 47 31 48
REMARK H PARENT 41 16 39 18 37 20 35 22 12 36 22 44 33 46 31 49
REMARK Flexibility Score: inf
ROOT
ATOM      1  C   UNL     1      28.806  -9.528 -23.208  1.00  0.00     0.221 C 
ATOM      2  C   UNL     1      27.913 -10.458 -22.358  1.00  0.00     0.181 C 
ATOM      3  C   UNL     1      27.617  -9.849 -20.969  1.00  0.00     0.177 C 
ATOM      4  C   UNL     1      27.205  -8.365 -21.086  1.00  0.00     0.179 C 
ATOM      5  O   UNL     1      28.194  -7.630 -21.787  1.00  0.00    -0.332 OA
ATOM      6  C   UNL     1      28.314  -8.063 -23.133  1.00  0.00     0.339 C 
ENDROOT
BRANCH   1   7
ATOM      7  O   UNL     1      30.130  -9.597 -22.698  1.00  0.00    -0.337 OA
BRANCH   7   8
ATOM      8  C   UNL     1      30.992 -10.344 -23.543  1.00  0.00     0.282 C 
ATOM      9  C   UNL     1      32.563  -8.211 -21.893  1.00  0.00     0.041 C 
ATOM     10  C   UNL     1      33.002  -9.137 -23.041  1.00  0.00     0.150 C 
ATOM     11  C   UNL     1      33.001  -8.459 -24.436  1.00  0.00     0.174 C 
ATOM     12  O   UNL     1      32.315 -10.387 -23.020  1.00  0.00    -0.344 OA
ATOM     13  C   UNL     1      31.582  -8.386 -25.015  1.00  0.00     0.179 C 
ATOM     14  C   UNL     1      30.941  -9.779 -24.971  1.00  0.00     0.202 C 
BRANCH  11  15
ATOM     15  O   UNL     1      33.547  -7.167 -24.364  1.00  0.00    -0.388 OA
ATOM     16  H   UNL     1      34.479  -7.223 -24.708  1.00  0.00     0.211 HD
ENDBRANCH  11  15
BRANCH  13  17
ATOM     17  O   UNL     1      31.622  -7.929 -26.343  1.00  0.00    -0.387 OA
ATOM     18  H   UNL     1      31.922  -6.982 -26.316  1.00  0.00     0.211 HD
ENDBRANCH  13  17
BRANCH  14  19
ATOM     19  O   UNL     1      31.612 -10.659 -25.840  1.00  0.00    -0.385 OA
ATOM     20  H   UNL     1      31.102 -11.511 -25.844  1.00  0.00     0.211 HD
ENDBRANCH  14  19
ENDBRANCH   7   8
ENDBRANCH   1   7
BRANCH   2  21
ATOM     21  O   UNL     1      26.738 -10.817 -23.049  1.00  0.00    -0.387 OA
ATOM     22  H   UNL     1      26.563 -10.141 -23.749  1.00  0.00     0.211 HD
ENDBRANCH   2  21
BRANCH   6  23
ATOM     23  O   UNL     1      27.089  -7.889 -23.853  1.00  0.00    -0.462 OA
BRANCH  23  24
ATOM     24  C   UNL     1      26.911  -7.002 -24.927  1.00  0.00     0.130 A 
ATOM     25  C   UNL     1      25.645  -6.525 -25.316  1.00  0.00     0.093 A 
ATOM     26  C   UNL     1      28.041  -6.590 -25.638  1.00  0.00     0.094 A 
ATOM     27  C   UNL     1      25.513  -5.649 -26.403  1.00  0.00     0.133 A 
ATOM     28  C   UNL     1      27.921  -5.735 -26.736  1.00  0.00     0.138 A 
ATOM     29  C   UNL     1      26.660  -5.240 -27.115  1.00  0.00     0.102 A 
ATOM     30  O   UNL     1      29.067  -5.375 -27.451  1.00  0.00    -0.484 OA
ATOM     31  C   UNL     1      26.600  -4.279 -28.243  1.00  0.00     0.174 C 
ATOM     32  C   UNL     1      29.008  -4.833 -28.773  1.00  0.00     0.211 C 
ATOM     33  O   UNL     1      25.497  -3.819 -28.649  1.00  0.00    -0.294 OA
ATOM     34  C   UNL     1      27.870  -3.794 -28.889  1.00  0.00     0.131 C 
BRANCH  27  35
ATOM     35  O   UNL     1      24.246  -5.192 -26.766  1.00  0.00    -0.507 OA
ATOM     36  H   UNL     1      23.401  -5.649 -26.442  1.00  0.00     0.293 HD
ENDBRANCH  27  35
BRANCH  32  37
ATOM     37  C   UNL     1      28.957  -5.975 -29.780  1.00  0.00    -0.007 A 
ATOM     38  C   UNL     1      27.764  -6.410 -30.399  1.00  0.00     0.011 A 
ATOM     39  C   UNL     1      30.147  -6.678 -30.048  1.00  0.00     0.011 A 
ATOM     40  C   UNL     1      27.775  -7.502 -31.273  1.00  0.00     0.046 A 
ATOM     41  C   UNL     1      30.154  -7.768 -30.923  1.00  0.00     0.046 A 
ATOM     42  C   UNL     1      28.967  -8.184 -31.537  1.00  0.00     0.115 A 
BRANCH  42  43
ATOM     43  O   UNL     1      28.960  -9.272 -32.408  1.00  0.00    -0.508 OA
ATOM     44  H   UNL     1      28.133  -9.844 -32.534  1.00  0.00     0.293 HD
ENDBRANCH  42  43
ENDBRANCH  32  37
ENDBRANCH  23  24
ENDBRANCH   6  23
BRANCH   3  45
ATOM     45  O   UNL     1      26.596 -10.581 -20.338  1.00  0.00    -0.387 OA
ATOM     46  H   UNL     1      26.988 -10.953 -19.503  1.00  0.00     0.211 HD
ENDBRANCH   3  45
BRANCH   4  47
ATOM     47  C   UNL     1      27.043  -7.736 -19.698  1.00  0.00     0.191 C 
BRANCH  47  48
ATOM     48  O   UNL     1      25.810  -8.117 -19.152  1.00  0.00    -0.394 OA
ATOM     49  H   UNL     1      25.473  -8.861 -19.713  1.00  0.00     0.210 HD
ENDBRANCH  47  48
ENDBRANCH   4  47
TORSDOF 14
ENDMDL
