MODEL 1
REMARK VINA RESULT:    -6.413      0.000      0.000
REMARK INTER + INTRA:          -8.062
REMARK INTER:                  -7.725
REMARK INTRA:                  -0.337
REMARK UNBOUND:                -0.337
REMARK SMILES CCCCc1oc(O)c2ccccc12
REMARK SMILES IDX 4 1 5 2 7 3 6 4 9 5 14 6 10 7 13 8 11 9 12 10 8 11 3 13 2 14
REMARK SMILES IDX 1 15
REMARK H PARENT 8 12
REMARK Flexibility Score: inf
ROOT
ATOM      1  C   UNL     1      75.271  28.178  -2.912  1.00  0.00     0.076 C 
ENDROOT
BRANCH   1   2
ATOM      2  C   UNL     1      76.501  27.385  -2.579  1.00  0.00     0.116 A 
ATOM      3  C   UNL     1      77.953  25.809  -2.646  1.00  0.00     0.290 A 
ATOM      4  O   UNL     1      76.841  26.264  -3.191  1.00  0.00    -0.430 OA
ATOM      5  C   UNL     1      78.358  26.653  -1.639  1.00  0.00     0.066 A 
ATOM      6  C   UNL     1      77.433  27.661  -1.591  1.00  0.00     0.027 A 
ATOM      7  C   UNL     1      79.446  26.605  -0.772  1.00  0.00     0.016 A 
ATOM      8  C   UNL     1      77.528  28.699  -0.663  1.00  0.00     0.012 A 
ATOM      9  C   UNL     1      79.572  27.640   0.175  1.00  0.00     0.001 A 
ATOM     10  C   UNL     1      78.617  28.680   0.229  1.00  0.00     0.001 A 
BRANCH   3  11
ATOM     11  O   UNL     1      78.602  24.644  -3.041  1.00  0.00    -0.480 OA
ATOM     12  H   UNL     1      79.087  24.604  -3.929  1.00  0.00     0.297 HD
ENDBRANCH   3  11
ENDBRANCH   1   2
BRANCH   1  13
ATOM     13  C   UNL     1      73.994  27.350  -2.723  1.00  0.00     0.008 C 
BRANCH  13  14
ATOM     14  C   UNL     1      73.280  27.670  -1.403  1.00  0.00    -0.003 C 
ATOM     15  C   UNL     1      73.955  28.830  -0.679  1.00  0.00     0.004 C 
ENDBRANCH  13  14
ENDBRANCH   1  13
TORSDOF 4
ENDMDL
MODEL 2
REMARK VINA RESULT:    -5.283      1.951      2.805
REMARK INTER + INTRA:          -6.702
REMARK INTER:                  -6.848
REMARK INTRA:                   0.146
REMARK UNBOUND:                -0.337
REMARK SMILES CCCCc1oc(O)c2ccccc12
REMARK SMILES IDX 4 1 5 2 7 3 6 4 9 5 14 6 10 7 13 8 11 9 12 10 8 11 3 13 2 14
REMARK SMILES IDX 1 15
REMARK H PARENT 8 12
REMARK Flexibility Score: inf
ROOT
ATOM      1  C   UNL     1      75.611  29.125  -2.196  1.00  0.00     0.076 C 
ENDROOT
BRANCH   1   2
ATOM      2  C   UNL     1      76.811  28.538  -1.512  1.00  0.00     0.116 A 
ATOM      3  C   UNL     1      78.436  28.340  -0.127  1.00  0.00     0.290 A 
ATOM      4  O   UNL     1      77.404  29.089  -0.467  1.00  0.00    -0.430 OA
ATOM      5  C   UNL     1      78.530  27.263  -0.977  1.00  0.00     0.066 A 
ATOM      6  C   UNL     1      77.495  27.387  -1.864  1.00  0.00     0.027 A 
ATOM      7  C   UNL     1      79.438  26.210  -1.040  1.00  0.00     0.016 A 
ATOM      8  C   UNL     1      77.295  26.459  -2.888  1.00  0.00     0.012 A 
ATOM      9  C   UNL     1      79.261  25.256  -2.060  1.00  0.00     0.001 A 
ATOM     10  C   UNL     1      78.196  25.381  -2.980  1.00  0.00     0.001 A 
BRANCH   3  11
ATOM     11  O   UNL     1      79.292  28.617   0.933  1.00  0.00    -0.480 OA
ATOM     12  H   UNL     1      80.202  28.175   0.986  1.00  0.00     0.297 HD
ENDBRANCH   3  11
ENDBRANCH   1   2
BRANCH   1  13
ATOM     13  C   UNL     1      74.736  28.039  -2.835  1.00  0.00     0.008 C 
BRANCH  13  14
ATOM     14  C   UNL     1      73.744  27.427  -1.837  1.00  0.00    -0.003 C 
ATOM     15  C   UNL     1      73.448  28.392  -0.693  1.00  0.00     0.004 C 
ENDBRANCH  13  14
ENDBRANCH   1  13
TORSDOF 4
ENDMDL
MODEL 3
REMARK VINA RESULT:    -4.509     10.056     11.013
REMARK INTER + INTRA:          -5.769
REMARK INTER:                  -5.444
REMARK INTRA:                  -0.325
REMARK UNBOUND:                -0.337
REMARK SMILES CCCCc1oc(O)c2ccccc12
REMARK SMILES IDX 4 1 5 2 7 3 6 4 9 5 14 6 10 7 13 8 11 9 12 10 8 11 3 13 2 14
REMARK SMILES IDX 1 15
REMARK H PARENT 8 12
REMARK Flexibility Score: inf
ROOT
ATOM      1  C   UNL     1      75.245  27.059   7.610  1.00  0.00     0.076 C 
ENDROOT
BRANCH   1   2
ATOM      2  C   UNL     1      76.188  26.257   8.458  1.00  0.00     0.116 A 
ATOM      3  C   UNL     1      76.946  24.628   9.628  1.00  0.00     0.290 A 
ATOM      4  O   UNL     1      75.929  25.036   8.893  1.00  0.00    -0.430 OA
ATOM      5  C   UNL     1      77.905  25.611   9.682  1.00  0.00     0.066 A 
ATOM      6  C   UNL     1      77.425  26.654   8.938  1.00  0.00     0.027 A 
ATOM      7  C   UNL     1      79.138  25.667  10.328  1.00  0.00     0.016 A 
ATOM      8  C   UNL     1      78.147  27.840   8.787  1.00  0.00     0.012 A 
ATOM      9  C   UNL     1      79.892  26.849  10.193  1.00  0.00     0.001 A 
ATOM     10  C   UNL     1      79.398  27.929   9.427  1.00  0.00     0.001 A 
BRANCH   3  11
ATOM     11  O   UNL     1      77.017  23.386  10.249  1.00  0.00    -0.480 OA
ATOM     12  H   UNL     1      77.706  23.213  10.971  1.00  0.00     0.297 HD
ENDBRANCH   3  11
ENDBRANCH   1   2
BRANCH   1  13
ATOM     13  C   UNL     1      74.269  27.876   8.466  1.00  0.00     0.008 C 
BRANCH  13  14
ATOM     14  C   UNL     1      72.860  27.266   8.487  1.00  0.00    -0.003 C 
ATOM     15  C   UNL     1      72.713  26.261   9.625  1.00  0.00     0.004 C 
ENDBRANCH  13  14
ENDBRANCH   1  13
TORSDOF 4
ENDMDL
MODEL 4
REMARK VINA RESULT:    -4.391     10.570     11.487
REMARK INTER + INTRA:          -5.627
REMARK INTER:                  -5.222
REMARK INTRA:                  -0.405
REMARK UNBOUND:                -0.337
REMARK SMILES CCCCc1oc(O)c2ccccc12
REMARK SMILES IDX 4 1 5 2 7 3 6 4 9 5 14 6 10 7 13 8 11 9 12 10 8 11 3 13 2 14
REMARK SMILES IDX 1 15
REMARK H PARENT 8 12
REMARK Flexibility Score: inf
ROOT
ATOM      1  C   UNL     1      74.614  28.254   9.052  1.00  0.00     0.076 C 
ENDROOT
BRANCH   1   2
ATOM      2  C   UNL     1      75.443  27.003   9.016  1.00  0.00     0.116 A 
ATOM      3  C   UNL     1      76.273  25.164   8.290  1.00  0.00     0.290 A 
ATOM      4  O   UNL     1      75.472  26.169   7.991  1.00  0.00    -0.430 OA
ATOM      5  C   UNL     1      76.786  25.338   9.554  1.00  0.00     0.066 A 
ATOM      6  C   UNL     1      76.257  26.510  10.022  1.00  0.00     0.027 A 
ATOM      7  C   UNL     1      77.655  24.561  10.315  1.00  0.00     0.016 A 
ATOM      8  C   UNL     1      76.559  26.991  11.298  1.00  0.00     0.012 A 
ATOM      9  C   UNL     1      77.981  25.020  11.605  1.00  0.00     0.001 A 
ATOM     10  C   UNL     1      77.435  26.229  12.094  1.00  0.00     0.001 A 
BRANCH   3  11
ATOM     11  O   UNL     1      76.543  24.096   7.442  1.00  0.00    -0.480 OA
ATOM     12  H   UNL     1      75.800  23.473   7.150  1.00  0.00     0.297 HD
ENDBRANCH   3  11
ENDBRANCH   1   2
BRANCH   1  13
ATOM     13  C   UNL     1      73.256  28.015   9.724  1.00  0.00     0.008 C 
BRANCH  13  14
ATOM     14  C   UNL     1      72.257  27.317   8.790  1.00  0.00    -0.003 C 
ATOM     15  C   UNL     1      72.020  25.873   9.220  1.00  0.00     0.004 C 
ENDBRANCH  13  14
ENDBRANCH   1  13
TORSDOF 4
ENDMDL
MODEL 5
REMARK VINA RESULT:    -4.345     10.030     12.058
REMARK INTER + INTRA:          -5.572
REMARK INTER:                  -5.395
REMARK INTRA:                  -0.177
REMARK UNBOUND:                -0.337
REMARK SMILES CCCCc1oc(O)c2ccccc12
REMARK SMILES IDX 4 1 5 2 7 3 6 4 9 5 14 6 10 7 13 8 11 9 12 10 8 11 3 13 2 14
REMARK SMILES IDX 1 15
REMARK H PARENT 8 12
REMARK Flexibility Score: inf
ROOT
ATOM      1  C   UNL     1      79.986  27.122  10.004  1.00  0.00     0.076 C 
ENDROOT
BRANCH   1   2
ATOM      2  C   UNL     1      78.727  26.347   9.743  1.00  0.00     0.116 A 
ATOM      3  C   UNL     1      77.320  24.730   9.780  1.00  0.00     0.290 A 
ATOM      4  O   UNL     1      78.500  25.132  10.211  1.00  0.00    -0.430 OA
ATOM      5  C   UNL     1      76.751  25.708   8.998  1.00  0.00     0.066 A 
ATOM      6  C   UNL     1      77.647  26.742   8.971  1.00  0.00     0.027 A 
ATOM      7  C   UNL     1      75.539  25.759   8.316  1.00  0.00     0.016 A 
ATOM      8  C   UNL     1      77.394  27.910   8.249  1.00  0.00     0.012 A 
ATOM      9  C   UNL     1      75.253  26.925   7.580  1.00  0.00     0.001 A 
ATOM     10  C   UNL     1      76.176  27.994   7.546  1.00  0.00     0.001 A 
BRANCH   3  11
ATOM     11  O   UNL     1      76.754  23.495  10.078  1.00  0.00    -0.480 OA
ATOM     12  H   UNL     1      76.231  22.988   9.375  1.00  0.00     0.297 HD
ENDBRANCH   3  11
ENDBRANCH   1   2
BRANCH   1  13
ATOM     13  C   UNL     1      81.214  26.204  10.060  1.00  0.00     0.008 C 
BRANCH  13  14
ATOM     14  C   UNL     1      82.506  26.977  10.360  1.00  0.00    -0.003 C 
ATOM     15  C   UNL     1      83.400  27.053   9.126  1.00  0.00     0.004 C 
ENDBRANCH  13  14
ENDBRANCH   1  13
TORSDOF 4
ENDMDL
MODEL 6
REMARK VINA RESULT:    -4.309     10.108     11.214
REMARK INTER + INTRA:          -5.528
REMARK INTER:                  -5.240
REMARK INTRA:                  -0.288
REMARK UNBOUND:                -0.337
REMARK SMILES CCCCc1oc(O)c2ccccc12
REMARK SMILES IDX 4 1 5 2 7 3 6 4 9 5 14 6 10 7 13 8 11 9 12 10 8 11 3 13 2 14
REMARK SMILES IDX 1 15
REMARK H PARENT 8 12
REMARK Flexibility Score: inf
ROOT
ATOM      1  C   UNL     1      77.222  27.871   7.846  1.00  0.00     0.076 C 
ENDROOT
BRANCH   1   2
ATOM      2  C   UNL     1      77.312  26.588   8.619  1.00  0.00     0.116 A 
ATOM      3  C   UNL     1      76.762  24.662   9.386  1.00  0.00     0.290 A 
ATOM      4  O   UNL     1      76.394  25.637   8.577  1.00  0.00    -0.430 OA
ATOM      5  C   UNL     1      77.958  24.981   9.985  1.00  0.00     0.066 A 
ATOM      6  C   UNL     1      78.313  26.210   9.500  1.00  0.00     0.027 A 
ATOM      7  C   UNL     1      78.741  24.296  10.911  1.00  0.00     0.016 A 
ATOM      8  C   UNL     1      79.483  26.850   9.911  1.00  0.00     0.012 A 
ATOM      9  C   UNL     1      79.930  24.914  11.344  1.00  0.00     0.001 A 
ATOM     10  C   UNL     1      80.298  26.185  10.847  1.00  0.00     0.001 A 
BRANCH   3  11
ATOM     11  O   UNL     1      76.034  23.497   9.593  1.00  0.00    -0.480 OA
ATOM     12  H   UNL     1      75.189  23.513  10.151  1.00  0.00     0.297 HD
ENDBRANCH   3  11
ENDBRANCH   1   2
BRANCH   1  13
ATOM     13  C   UNL     1      75.848  28.039   7.185  1.00  0.00     0.008 C 
BRANCH  13  14
ATOM     14  C   UNL     1      74.845  28.758   8.097  1.00  0.00    -0.003 C 
ATOM     15  C   UNL     1      73.680  27.844   8.463  1.00  0.00     0.004 C 
ENDBRANCH  13  14
ENDBRANCH   1  13
TORSDOF 4
ENDMDL
MODEL 7
REMARK VINA RESULT:    -4.263     10.045     11.815
REMARK INTER + INTRA:          -5.472
REMARK INTER:                  -5.212
REMARK INTRA:                  -0.260
REMARK UNBOUND:                -0.337
REMARK SMILES CCCCc1oc(O)c2ccccc12
REMARK SMILES IDX 4 1 5 2 7 3 6 4 9 5 14 6 10 7 13 8 11 9 12 10 8 11 3 13 2 14
REMARK SMILES IDX 1 15
REMARK H PARENT 8 12
REMARK Flexibility Score: inf
ROOT
ATOM      1  C   UNL     1      79.430  25.468   9.831  1.00  0.00     0.076 C 
ENDROOT
BRANCH   1   2
ATOM      2  C   UNL     1      78.017  25.559   9.334  1.00  0.00     0.116 A 
ATOM      3  C   UNL     1      75.980  25.005   8.962  1.00  0.00     0.290 A 
ATOM      4  O   UNL     1      77.100  24.632   9.551  1.00  0.00    -0.430 OA
ATOM      5  C   UNL     1      76.164  26.213   8.332  1.00  0.00     0.066 A 
ATOM      6  C   UNL     1      77.464  26.570   8.566  1.00  0.00     0.027 A 
ATOM      7  C   UNL     1      75.302  27.005   7.577  1.00  0.00     0.016 A 
ATOM      8  C   UNL     1      78.002  27.752   8.054  1.00  0.00     0.012 A 
ATOM      9  C   UNL     1      75.814  28.205   7.049  1.00  0.00     0.001 A 
ATOM     10  C   UNL     1      77.157  28.576   7.286  1.00  0.00     0.001 A 
BRANCH   3  11
ATOM     11  O   UNL     1      74.800  24.269   8.982  1.00  0.00    -0.480 OA
ATOM     12  H   UNL     1      74.826  23.261   9.069  1.00  0.00     0.297 HD
ENDBRANCH   3  11
ENDBRANCH   1   2
BRANCH   1  13
ATOM     13  C   UNL     1      79.500  25.549  11.361  1.00  0.00     0.008 C 
BRANCH  13  14
ATOM     14  C   UNL     1      79.553  24.162  12.018  1.00  0.00    -0.003 C 
ATOM     15  C   UNL     1      79.980  23.095  11.015  1.00  0.00     0.004 C 
ENDBRANCH  13  14
ENDBRANCH   1  13
TORSDOF 4
ENDMDL
MODEL 8
REMARK VINA RESULT:    -4.215     10.466     11.893
REMARK INTER + INTRA:          -5.415
REMARK INTER:                  -5.094
REMARK INTRA:                  -0.320
REMARK UNBOUND:                -0.337
REMARK SMILES CCCCc1oc(O)c2ccccc12
REMARK SMILES IDX 4 1 5 2 7 3 6 4 9 5 14 6 10 7 13 8 11 9 12 10 8 11 3 13 2 14
REMARK SMILES IDX 1 15
REMARK H PARENT 8 12
REMARK Flexibility Score: inf
ROOT
ATOM      1  C   UNL     1      78.487  25.528   8.779  1.00  0.00     0.076 C 
ENDROOT
BRANCH   1   2
ATOM      2  C   UNL     1      76.996  25.376   8.856  1.00  0.00     0.116 A 
ATOM      3  C   UNL     1      75.080  24.431   9.043  1.00  0.00     0.290 A 
ATOM      4  O   UNL     1      76.383  24.222   9.056  1.00  0.00    -0.430 OA
ATOM      5  C   UNL     1      74.824  25.764   8.823  1.00  0.00     0.066 A 
ATOM      6  C   UNL     1      76.045  26.371   8.701  1.00  0.00     0.027 A 
ATOM      7  C   UNL     1      73.630  26.472   8.714  1.00  0.00     0.016 A 
ATOM      8  C   UNL     1      76.159  27.741   8.455  1.00  0.00     0.012 A 
ATOM      9  C   UNL     1      73.713  27.856   8.468  1.00  0.00     0.001 A 
ATOM     10  C   UNL     1      74.971  28.486   8.339  1.00  0.00     0.001 A 
BRANCH   3  11
ATOM     11  O   UNL     1      74.124  23.438   9.223  1.00  0.00    -0.480 OA
ATOM     12  H   UNL     1      74.176  22.815  10.020  1.00  0.00     0.297 HD
ENDBRANCH   3  11
ENDBRANCH   1   2
BRANCH   1  13
ATOM     13  C   UNL     1      79.129  25.520  10.172  1.00  0.00     0.008 C 
BRANCH  13  14
ATOM     14  C   UNL     1      79.851  24.200  10.475  1.00  0.00    -0.003 C 
ATOM     15  C   UNL     1      79.008  23.307  11.379  1.00  0.00     0.004 C 
ENDBRANCH  13  14
ENDBRANCH   1  13
TORSDOF 4
ENDMDL
MODEL 9
REMARK VINA RESULT:    -4.198     10.670     11.956
REMARK INTER + INTRA:          -5.394
REMARK INTER:                  -4.891
REMARK INTRA:                  -0.502
REMARK UNBOUND:                -0.337
REMARK SMILES CCCCc1oc(O)c2ccccc12
REMARK SMILES IDX 4 1 5 2 7 3 6 4 9 5 14 6 10 7 13 8 11 9 12 10 8 11 3 13 2 14
REMARK SMILES IDX 1 15
REMARK H PARENT 8 12
REMARK Flexibility Score: inf
ROOT
ATOM      1  C   UNL     1      76.567  25.153   8.470  1.00  0.00     0.076 C 
ENDROOT
BRANCH   1   2
ATOM      2  C   UNL     1      75.098  25.138   8.780  1.00  0.00     0.116 A 
ATOM      3  C   UNL     1      73.152  24.368   9.247  1.00  0.00     0.290 A 
ATOM      4  O   UNL     1      74.414  24.039   9.045  1.00  0.00    -0.430 OA
ATOM      5  C   UNL     1      72.998  25.727   9.107  1.00  0.00     0.066 A 
ATOM      6  C   UNL     1      74.238  26.223   8.807  1.00  0.00     0.027 A 
ATOM      7  C   UNL     1      71.877  26.547   9.210  1.00  0.00     0.016 A 
ATOM      8  C   UNL     1      74.447  27.585   8.583  1.00  0.00     0.012 A 
ATOM      9  C   UNL     1      72.056  27.926   8.992  1.00  0.00     0.001 A 
ATOM     10  C   UNL     1      73.334  28.442   8.680  1.00  0.00     0.001 A 
BRANCH   3  11
ATOM     11  O   UNL     1      72.143  23.462   9.551  1.00  0.00    -0.480 OA
ATOM     12  H   UNL     1      72.060  23.081  10.486  1.00  0.00     0.297 HD
ENDBRANCH   3  11
ENDBRANCH   1   2
BRANCH   1  13
ATOM     13  C   UNL     1      77.416  25.080   9.745  1.00  0.00     0.008 C 
BRANCH  13  14
ATOM     14  C   UNL     1      77.905  26.462  10.201  1.00  0.00    -0.003 C 
ATOM     15  C   UNL     1      78.172  27.373   9.007  1.00  0.00     0.004 C 
ENDBRANCH  13  14
ENDBRANCH   1  13
TORSDOF 4
ENDMDL
