MODEL 1
REMARK VINA RESULT:    -4.567      0.000      0.000
REMARK INTER + INTRA:          -4.612
REMARK INTER:                  -5.635
REMARK INTRA:                   1.022
REMARK UNBOUND:                 1.022
REMARK SMILES C=C1[C@H]2CC[C@@H]3[C@H]2C(C)(C)CCC[C@]13C
REMARK SMILES IDX 14 1 6 2 7 3 3 4 2 5 1 6 4 7 5 8 15 9 8 10 9 11 10 12 11 13
REMARK SMILES IDX 13 15 12 16
REMARK H PARENT
REMARK Flexibility Score: 80.00
ROOT
ATOM      1  C   UNL     1       6.328   6.891  12.929  1.00  0.00    -0.008 C 
ATOM      2  C   UNL     1       6.542   8.371  13.431  1.00  0.00     0.003 C 
ATOM      3  C   UNL     1       6.862   8.231  14.936  1.00  0.00     0.006 C 
ATOM      4  C   UNL     1       7.972   7.212  14.716  1.00  0.00     0.019 C 
ATOM      5  C   UNL     1       7.282   6.183  13.866  1.00  0.00    -0.068 C 
ATOM      6  C   UNL     1       7.561   4.874  13.877  1.00  0.00     0.009 C 
ATOM      7  C   UNL     1       8.911   8.006  13.778  1.00  0.00     0.008 C 
ATOM      8  C   UNL     1       7.930   8.883  12.960  1.00  0.00     0.005 C 
ATOM      9  C   UNL     1       6.760   6.652  11.457  1.00  0.00     0.016 C 
ENDROOT
BRANCH   3  10
ATOM     10  C   UNL     1       5.722   7.897  15.973  1.00  0.00    -0.032 C 
ATOM     11  C   UNL     1       6.371   7.532  17.331  1.00  0.00     0.011 C 
ATOM     12  C   UNL     1       4.888   9.185  16.213  1.00  0.00     0.011 C 
BRANCH  10  13
ATOM     13  C   UNL     1       4.780   6.723  15.585  1.00  0.00     0.007 CG0
ATOM     14  G   UNL     1       4.056   6.904  14.250  1.00  0.00     0.000 G0
ENDBRANCH  10  13
ENDBRANCH   3  10
BRANCH   1  15
ATOM     15  C   UNL     1       4.862   6.388  13.062  1.00  0.00     0.011 C 
BRANCH  15  16
ATOM     16  C   UNL     1       4.056   6.899  14.254  1.00  0.00     0.001 CG0
ATOM     17  G   UNL     1       4.785   6.723  15.587  1.00  0.00     0.000 G0
ENDBRANCH  15  16
ENDBRANCH   1  15
TORSDOF 0
ENDMDL
MODEL 2
REMARK VINA RESULT:    -4.379      1.568      4.134
REMARK INTER + INTRA:          -4.381
REMARK INTER:                  -5.403
REMARK INTRA:                   1.022
REMARK UNBOUND:                 1.022
REMARK SMILES C=C1[C@H]2CC[C@@H]3[C@H]2C(C)(C)CCC[C@]13C
REMARK SMILES IDX 14 1 6 2 7 3 3 4 2 5 1 6 4 7 5 8 15 9 8 10 9 11 10 12 11 13
REMARK SMILES IDX 13 15 12 16
REMARK H PARENT
REMARK Flexibility Score: 80.00
ROOT
ATOM      1  C   UNL     1       5.353   8.646  15.628  1.00  0.00    -0.008 C 
ATOM      2  C   UNL     1       4.636   7.803  14.504  1.00  0.00     0.003 C 
ATOM      3  C   UNL     1       5.513   6.541  14.343  1.00  0.00     0.006 C 
ATOM      4  C   UNL     1       5.499   6.209  15.829  1.00  0.00     0.019 C 
ATOM      5  C   UNL     1       5.937   7.511  16.440  1.00  0.00    -0.068 C 
ATOM      6  C   UNL     1       6.636   7.622  17.576  1.00  0.00     0.009 C 
ATOM      7  C   UNL     1       3.979   6.089  16.083  1.00  0.00     0.008 C 
ATOM      8  C   UNL     1       3.374   7.117  15.094  1.00  0.00     0.005 C 
ATOM      9  C   UNL     1       4.384   9.481  16.509  1.00  0.00     0.016 C 
ENDROOT
BRANCH   3  10
ATOM     10  C   UNL     1       6.900   6.616  13.596  1.00  0.00    -0.032 C 
ATOM     11  C   UNL     1       7.675   5.298  13.846  1.00  0.00     0.011 C 
ATOM     12  C   UNL     1       6.629   6.688  12.069  1.00  0.00     0.011 C 
BRANCH  10  13
ATOM     13  C   UNL     1       7.834   7.783  14.023  1.00  0.00     0.007 CG0
ATOM     14  G   UNL     1       7.220   9.175  13.871  1.00  0.00     0.000 G0
ENDBRANCH  10  13
ENDBRANCH   3  10
BRANCH   1  15
ATOM     15  C   UNL     1       6.434   9.625  15.087  1.00  0.00     0.011 C 
BRANCH  15  16
ATOM     16  C   UNL     1       7.230   9.175  13.863  1.00  0.00     0.001 CG0
ATOM     17  G   UNL     1       7.840   7.782  14.027  1.00  0.00     0.000 G0
ENDBRANCH  15  16
ENDBRANCH   1  15
TORSDOF 0
ENDMDL
MODEL 3
REMARK VINA RESULT:    -4.073      3.337      5.281
REMARK INTER + INTRA:          -4.003
REMARK INTER:                  -5.024
REMARK INTRA:                   1.021
REMARK UNBOUND:                 1.022
REMARK SMILES C=C1[C@H]2CC[C@@H]3[C@H]2C(C)(C)CCC[C@]13C
REMARK SMILES IDX 14 1 6 2 7 3 3 4 2 5 1 6 4 7 5 8 15 9 8 10 9 11 10 12 11 13
REMARK SMILES IDX 13 15 12 16
REMARK H PARENT
REMARK Flexibility Score: 80.00
ROOT
ATOM      1  C   UNL     1       5.052   8.029  17.568  1.00  0.00    -0.008 C 
ATOM      2  C   UNL     1       3.789   7.112  17.339  1.00  0.00     0.003 C 
ATOM      3  C   UNL     1       2.691   8.079  16.841  1.00  0.00     0.006 C 
ATOM      4  C   UNL     1       3.558   8.666  15.735  1.00  0.00     0.019 C 
ATOM      5  C   UNL     1       4.797   9.059  16.490  1.00  0.00    -0.068 C 
ATOM      6  C   UNL     1       5.586  10.093  16.174  1.00  0.00     0.009 C 
ATOM      7  C   UNL     1       3.911   7.389  14.937  1.00  0.00     0.008 C 
ATOM      8  C   UNL     1       3.971   6.295  16.032  1.00  0.00     0.005 C 
ATOM      9  C   UNL     1       6.407   7.316  17.306  1.00  0.00     0.016 C 
ENDROOT
BRANCH   3  10
ATOM     10  C   UNL     1       1.970   9.061  17.840  1.00  0.00    -0.032 C 
ATOM     11  C   UNL     1       1.146  10.090  17.026  1.00  0.00     0.011 C 
ATOM     12  C   UNL     1       0.951   8.243  18.680  1.00  0.00     0.011 C 
BRANCH  10  13
ATOM     13  C   UNL     1       2.904   9.870  18.784  1.00  0.00     0.007 CG0
ATOM     14  G   UNL     1       3.808   9.010  19.670  1.00  0.00     0.000 G0
ENDBRANCH  10  13
ENDBRANCH   3  10
BRANCH   1  15
ATOM     15  C   UNL     1       5.131   8.648  18.994  1.00  0.00     0.011 C 
BRANCH  15  16
ATOM     16  C   UNL     1       3.811   9.023  19.662  1.00  0.00     0.001 CG0
ATOM     17  G   UNL     1       2.902   9.860  18.762  1.00  0.00     0.000 G0
ENDBRANCH  15  16
ENDBRANCH   1  15
TORSDOF 0
ENDMDL
MODEL 4
REMARK VINA RESULT:    -4.030     11.910     14.583
REMARK INTER + INTRA:          -3.951
REMARK INTER:                  -4.967
REMARK INTRA:                   1.016
REMARK UNBOUND:                 1.022
REMARK SMILES C=C1[C@H]2CC[C@@H]3[C@H]2C(C)(C)CCC[C@]13C
REMARK SMILES IDX 14 1 6 2 7 3 3 4 2 5 1 6 4 7 5 8 15 9 8 10 9 11 10 12 11 13
REMARK SMILES IDX 13 15 12 16
REMARK H PARENT
REMARK Flexibility Score: 80.00
ROOT
ATOM      1  C   UNL     1      11.119   5.461  28.709  1.00  0.00    -0.008 C 
ATOM      2  C   UNL     1      10.958   7.004  28.420  1.00  0.00     0.003 C 
ATOM      3  C   UNL     1      10.765   7.096  26.890  1.00  0.00     0.006 C 
ATOM      4  C   UNL     1       9.633   6.077  26.862  1.00  0.00     0.019 C 
ATOM      5  C   UNL     1      10.242   4.920  27.602  1.00  0.00    -0.068 C 
ATOM      6  C   UNL     1       9.956   3.633  27.370  1.00  0.00     0.009 C 
ATOM      7  C   UNL     1       8.625   6.741  27.829  1.00  0.00     0.008 C 
ATOM      8  C   UNL     1       9.538   7.466  28.848  1.00  0.00     0.005 C 
ATOM      9  C   UNL     1      10.563   5.014  30.089  1.00  0.00     0.016 C 
ENDROOT
BRANCH   3  10
ATOM     10  C   UNL     1      11.985   6.900  25.912  1.00  0.00    -0.032 C 
ATOM     11  C   UNL     1      11.450   6.747  24.467  1.00  0.00     0.011 C 
ATOM     12  C   UNL     1      12.841   8.195  25.933  1.00  0.00     0.011 C 
BRANCH  10  13
ATOM     13  C   UNL     1      12.887   5.666  26.198  1.00  0.00     0.007 CG0
ATOM     14  G   UNL     1      13.497   5.637  27.600  1.00  0.00     0.000 G0
ENDBRANCH  10  13
ENDBRANCH   3  10
BRANCH   1  15
ATOM     15  C   UNL     1      12.588   4.956  28.623  1.00  0.00     0.011 C 
BRANCH  15  16
ATOM     16  C   UNL     1      13.496   5.629  27.598  1.00  0.00     0.001 CG0
ATOM     17  G   UNL     1      12.886   5.671  26.196  1.00  0.00     0.000 G0
ENDBRANCH  15  16
ENDBRANCH   1  15
TORSDOF 0
ENDMDL
MODEL 5
REMARK VINA RESULT:    -3.902      1.355      2.706
REMARK INTER + INTRA:          -3.792
REMARK INTER:                  -4.814
REMARK INTRA:                   1.022
REMARK UNBOUND:                 1.022
REMARK SMILES C=C1[C@H]2CC[C@@H]3[C@H]2C(C)(C)CCC[C@]13C
REMARK SMILES IDX 14 1 6 2 7 3 3 4 2 5 1 6 4 7 5 8 15 9 8 10 9 11 10 12 11 13
REMARK SMILES IDX 13 15 12 16
REMARK H PARENT
REMARK Flexibility Score: 80.00
ROOT
ATOM      1  C   UNL     1       7.507   7.990  13.299  1.00  0.00    -0.008 C 
ATOM      2  C   UNL     1       7.926   7.111  14.540  1.00  0.00     0.003 C 
ATOM      3  C   UNL     1       6.613   6.444  15.006  1.00  0.00     0.006 C 
ATOM      4  C   UNL     1       6.270   5.901  13.625  1.00  0.00     0.019 C 
ATOM      5  C   UNL     1       6.373   7.136  12.775  1.00  0.00    -0.068 C 
ATOM      6  C   UNL     1       5.644   7.368  11.677  1.00  0.00     0.009 C 
ATOM      7  C   UNL     1       7.528   5.052  13.329  1.00  0.00     0.008 C 
ATOM      8  C   UNL     1       8.657   5.833  14.047  1.00  0.00     0.005 C 
ATOM      9  C   UNL     1       8.611   8.123  12.215  1.00  0.00     0.016 C 
ENDROOT
BRANCH   3  10
ATOM     10  C   UNL     1       5.522   7.273  15.787  1.00  0.00    -0.032 C 
ATOM     11  C   UNL     1       4.218   6.442  15.860  1.00  0.00     0.011 C 
ATOM     12  C   UNL     1       6.009   7.465  17.249  1.00  0.00     0.011 C 
BRANCH  10  13
ATOM     13  C   UNL     1       5.152   8.650  15.168  1.00  0.00     0.007 CG0
ATOM     14  G   UNL     1       6.334   9.605  14.991  1.00  0.00     0.000 G0
ENDBRANCH  10  13
ENDBRANCH   3  10
BRANCH   1  15
ATOM     15  C   UNL     1       7.058   9.432  13.672  1.00  0.00     0.011 C 
BRANCH  15  16
ATOM     16  C   UNL     1       6.321   9.610  14.997  1.00  0.00     0.001 CG0
ATOM     17  G   UNL     1       5.148   8.642  15.162  1.00  0.00     0.000 G0
ENDBRANCH  15  16
ENDBRANCH   1  15
TORSDOF 0
ENDMDL
MODEL 6
REMARK VINA RESULT:    -3.892     10.332     12.575
REMARK INTER + INTRA:          -3.780
REMARK INTER:                  -4.808
REMARK INTRA:                   1.028
REMARK UNBOUND:                 1.022
REMARK SMILES C=C1[C@H]2CC[C@@H]3[C@H]2C(C)(C)CCC[C@]13C
REMARK SMILES IDX 14 1 6 2 7 3 3 4 2 5 1 6 4 7 5 8 15 9 8 10 9 11 10 12 11 13
REMARK SMILES IDX 13 15 12 16
REMARK H PARENT
REMARK Flexibility Score: 80.00
ROOT
ATOM      1  C   UNL     1      12.199   7.655  24.839  1.00  0.00    -0.008 C 
ATOM      2  C   UNL     1      12.597   9.110  25.298  1.00  0.00     0.003 C 
ATOM      3  C   UNL     1      13.151   9.784  24.023  1.00  0.00     0.006 C 
ATOM      4  C   UNL     1      11.933   9.436  23.178  1.00  0.00     0.019 C 
ATOM      5  C   UNL     1      11.813   7.955  23.407  1.00  0.00    -0.068 C 
ATOM      6  C   UNL     1      11.337   7.082  22.511  1.00  0.00     0.009 C 
ATOM      7  C   UNL     1      10.810  10.105  24.003  1.00  0.00     0.008 C 
ATOM      8  C   UNL     1      11.316   9.971  25.461  1.00  0.00     0.005 C 
ATOM      9  C   UNL     1      10.982   7.060  25.599  1.00  0.00     0.016 C 
ENDROOT
BRANCH   3  10
ATOM     10  C   UNL     1      14.583   9.416  23.476  1.00  0.00    -0.032 C 
ATOM     11  C   UNL     1      14.747  10.013  22.057  1.00  0.00     0.011 C 
ATOM     12  C   UNL     1      15.643  10.110  24.375  1.00  0.00     0.011 C 
BRANCH  10  13
ATOM     13  C   UNL     1      14.895   7.896  23.371  1.00  0.00     0.007 CG0
ATOM     14  G   UNL     1      14.778   7.131  24.690  1.00  0.00     0.000 G0
ENDBRANCH  10  13
ENDBRANCH   3  10
BRANCH   1  15
ATOM     15  C   UNL     1      13.356   6.621  24.951  1.00  0.00     0.011 C 
BRANCH  15  16
ATOM     16  C   UNL     1      14.771   7.129  24.684  1.00  0.00     0.001 CG0
ATOM     17  G   UNL     1      14.891   7.899  23.368  1.00  0.00     0.000 G0
ENDBRANCH  15  16
ENDBRANCH   1  15
TORSDOF 0
ENDMDL
MODEL 7
REMARK VINA RESULT:    -3.817      9.335     11.658
REMARK INTER + INTRA:          -3.687
REMARK INTER:                  -4.709
REMARK INTRA:                   1.022
REMARK UNBOUND:                 1.022
REMARK SMILES C=C1[C@H]2CC[C@@H]3[C@H]2C(C)(C)CCC[C@]13C
REMARK SMILES IDX 14 1 6 2 7 3 3 4 2 5 1 6 4 7 5 8 15 9 8 10 9 11 10 12 11 13
REMARK SMILES IDX 13 15 12 16
REMARK H PARENT
REMARK Flexibility Score: 80.00
ROOT
ATOM      1  C   UNL     1      12.936   7.819  24.774  1.00  0.00    -0.008 C 
ATOM      2  C   UNL     1      13.972   7.612  23.603  1.00  0.00     0.003 C 
ATOM      3  C   UNL     1      13.603   8.691  22.560  1.00  0.00     0.006 C 
ATOM      4  C   UNL     1      13.639   9.832  23.568  1.00  0.00     0.019 C 
ATOM      5  C   UNL     1      12.736   9.314  24.652  1.00  0.00    -0.068 C 
ATOM      6  C   UNL     1      11.971  10.081  25.438  1.00  0.00     0.009 C 
ATOM      7  C   UNL     1      15.086   9.704  24.097  1.00  0.00     0.008 C 
ATOM      8  C   UNL     1      15.354   8.180  24.025  1.00  0.00     0.005 C 
ATOM      9  C   UNL     1      13.495   7.475  26.182  1.00  0.00     0.016 C 
ENDROOT
BRANCH   3  10
ATOM     10  C   UNL     1      12.328   8.525  21.648  1.00  0.00    -0.032 C 
ATOM     11  C   UNL     1      12.050   9.867  20.927  1.00  0.00     0.011 C 
ATOM     12  C   UNL     1      12.652   7.486  20.540  1.00  0.00     0.011 C 
BRANCH  10  13
ATOM     13  C   UNL     1      11.020   8.122  22.384  1.00  0.00     0.007 CG0
ATOM     14  G   UNL     1      11.116   6.821  23.182  1.00  0.00     0.000 G0
ENDBRANCH  10  13
ENDBRANCH   3  10
BRANCH   1  15
ATOM     15  C   UNL     1      11.617   7.013  24.597  1.00  0.00     0.011 C 
BRANCH  15  16
ATOM     16  C   UNL     1      11.108   6.816  23.172  1.00  0.00     0.001 CG0
ATOM     17  G   UNL     1      11.011   8.125  22.386  1.00  0.00     0.000 G0
ENDBRANCH  15  16
ENDBRANCH   1  15
TORSDOF 0
ENDMDL
MODEL 8
REMARK VINA RESULT:    -3.756      3.019      4.528
REMARK INTER + INTRA:          -3.612
REMARK INTER:                  -4.617
REMARK INTRA:                   1.004
REMARK UNBOUND:                 1.022
REMARK SMILES C=C1[C@H]2CC[C@@H]3[C@H]2C(C)(C)CCC[C@]13C
REMARK SMILES IDX 14 1 6 2 7 3 3 4 2 5 1 6 4 7 5 8 15 9 8 10 9 11 10 12 11 13
REMARK SMILES IDX 13 15 12 16
REMARK H PARENT
REMARK Flexibility Score: 80.00
ROOT
ATOM      1  C   UNL     1       3.602   8.448  17.055  1.00  0.00    -0.008 C 
ATOM      2  C   UNL     1       4.855   9.406  17.084  1.00  0.00     0.003 C 
ATOM      3  C   UNL     1       5.965   8.575  17.764  1.00  0.00     0.006 C 
ATOM      4  C   UNL     1       5.796   7.383  16.832  1.00  0.00     0.019 C 
ATOM      5  C   UNL     1       4.319   7.122  16.931  1.00  0.00    -0.068 C 
ATOM      6  C   UNL     1       3.749   5.916  16.816  1.00  0.00     0.009 C 
ATOM      7  C   UNL     1       6.037   8.054  15.460  1.00  0.00     0.008 C 
ATOM      8  C   UNL     1       5.480   9.484  15.665  1.00  0.00     0.005 C 
ATOM      9  C   UNL     1       2.669   8.661  15.832  1.00  0.00     0.016 C 
ENDROOT
BRANCH   3  10
ATOM     10  C   UNL     1       5.946   8.328  19.321  1.00  0.00    -0.032 C 
ATOM     11  C   UNL     1       6.976   7.224  19.667  1.00  0.00     0.011 C 
ATOM     12  C   UNL     1       6.430   9.623  20.028  1.00  0.00     0.011 C 
BRANCH  10  13
ATOM     13  C   UNL     1       4.580   7.881  19.916  1.00  0.00     0.007 CG0
ATOM     14  G   UNL     1       3.424   8.844  19.644  1.00  0.00     0.000 G0
ENDBRANCH  10  13
ENDBRANCH   3  10
BRANCH   1  15
ATOM     15  C   UNL     1       2.711   8.540  18.328  1.00  0.00     0.011 C 
BRANCH  15  16
ATOM     16  C   UNL     1       3.417   8.827  19.651  1.00  0.00     0.001 CG0
ATOM     17  G   UNL     1       4.584   7.876  19.924  1.00  0.00     0.000 G0
ENDBRANCH  15  16
ENDBRANCH   1  15
TORSDOF 0
ENDMDL
MODEL 9
REMARK VINA RESULT:    -3.638     11.033     13.325
REMARK INTER + INTRA:          -3.466
REMARK INTER:                  -4.494
REMARK INTRA:                   1.028
REMARK UNBOUND:                 1.022
REMARK SMILES C=C1[C@H]2CC[C@@H]3[C@H]2C(C)(C)CCC[C@]13C
REMARK SMILES IDX 14 1 6 2 7 3 3 4 2 5 1 6 4 7 5 8 15 9 8 10 9 11 10 12 11 13
REMARK SMILES IDX 13 15 12 16
REMARK H PARENT
REMARK Flexibility Score: 80.00
ROOT
ATOM      1  C   UNL     1      12.681   7.690  23.968  1.00  0.00    -0.008 C 
ATOM      2  C   UNL     1      13.732   6.609  24.432  1.00  0.00     0.003 C 
ATOM      3  C   UNL     1      14.709   7.382  25.345  1.00  0.00     0.006 C 
ATOM      4  C   UNL     1      13.605   7.961  26.220  1.00  0.00     0.019 C 
ATOM      5  C   UNL     1      12.690   8.572  25.196  1.00  0.00    -0.068 C 
ATOM      6  C   UNL     1      11.936   9.659  25.402  1.00  0.00     0.009 C 
ATOM      7  C   UNL     1      12.919   6.666  26.711  1.00  0.00     0.008 C 
ATOM      8  C   UNL     1      13.095   5.698  25.515  1.00  0.00     0.005 C 
ATOM      9  C   UNL     1      11.253   7.125  23.735  1.00  0.00     0.016 C 
ENDROOT
BRANCH   3  10
ATOM     10  C   UNL     1      15.781   8.362  24.730  1.00  0.00    -0.032 C 
ATOM     11  C   UNL     1      16.408   9.199  25.872  1.00  0.00     0.011 C 
ATOM     12  C   UNL     1      16.929   7.510  24.123  1.00  0.00     0.011 C 
BRANCH  10  13
ATOM     13  C   UNL     1      15.248   9.364  23.668  1.00  0.00     0.007 CG0
ATOM     14  G   UNL     1      14.575   8.710  22.460  1.00  0.00     0.000 G0
ENDBRANCH  10  13
ENDBRANCH   3  10
BRANCH   1  15
ATOM     15  C   UNL     1      13.089   8.448  22.672  1.00  0.00     0.011 C 
BRANCH  15  16
ATOM     16  C   UNL     1      14.577   8.713  22.460  1.00  0.00     0.001 CG0
ATOM     17  G   UNL     1      15.249   9.355  23.675  1.00  0.00     0.000 G0
ENDBRANCH  15  16
ENDBRANCH   1  15
TORSDOF 0
ENDMDL
