MODEL 1
REMARK VINA RESULT:    -6.904      0.000      0.000
REMARK INTER + INTRA:          -8.386
REMARK INTER:                  -8.114
REMARK INTRA:                  -0.271
REMARK UNBOUND:                -0.271
REMARK SMILES O=c1c(O)c(-c2ccc(O)cc2)oc2cc(O)cc(O)c12
REMARK SMILES IDX 5 1 3 2 2 3 1 4 21 5 19 6 18 7 16 8 15 9 14 10 13 11 6 12
REMARK SMILES IDX 7 13 8 14 9 15 12 16 11 17 10 18 4 20 20 22 17 24
REMARK H PARENT 10 19 4 21 20 23 17 25
REMARK Flexibility Score: inf
ROOT
ATOM      1  C   UNL     1      -7.970 -20.101  -6.406  1.00  0.00     0.180 A 
ATOM      2  C   UNL     1      -8.203 -18.991  -7.242  1.00  0.00     0.208 A 
ATOM      3  C   UNL     1      -9.516 -18.521  -7.394  1.00  0.00     0.238 A 
ATOM      4  O   UNL     1      -9.738 -17.534  -8.148  1.00  0.00    -0.285 OA
ATOM      5  C   UNL     1     -10.567 -19.151  -6.697  1.00  0.00     0.111 A 
ATOM      6  C   UNL     1     -11.918 -18.736  -6.792  1.00  0.00     0.134 A 
ATOM      7  C   UNL     1     -12.906 -19.409  -6.058  1.00  0.00     0.093 A 
ATOM      8  C   UNL     1     -12.571 -20.485  -5.233  1.00  0.00     0.123 A 
ATOM      9  C   UNL     1     -11.239 -20.899  -5.136  1.00  0.00     0.094 A 
ATOM     10  C   UNL     1     -10.240 -20.243  -5.860  1.00  0.00     0.146 A 
ATOM     11  O   UNL     1      -8.984 -20.660  -5.753  1.00  0.00    -0.452 OA
ENDROOT
BRANCH   1  12
ATOM     12  C   UNL     1      -6.616 -20.667  -6.210  1.00  0.00     0.021 A 
ATOM     13  C   UNL     1      -6.188 -21.808  -6.913  1.00  0.00     0.016 A 
ATOM     14  C   UNL     1      -4.913 -22.338  -6.692  1.00  0.00     0.047 A 
ATOM     15  C   UNL     1      -4.057 -21.746  -5.760  1.00  0.00     0.115 A 
ATOM     16  C   UNL     1      -5.757 -20.091  -5.259  1.00  0.00     0.016 A 
ATOM     17  C   UNL     1      -4.482 -20.623  -5.040  1.00  0.00     0.047 A 
BRANCH  15  18
ATOM     18  O   UNL     1      -2.789 -22.285  -5.552  1.00  0.00    -0.508 OA
ATOM     19  H   UNL     1      -2.629 -23.012  -4.862  1.00  0.00     0.293 HD
ENDBRANCH  15  18
ENDBRANCH   1  12
BRANCH   2  20
ATOM     20  O   UNL     1      -7.137 -18.354  -7.883  1.00  0.00    -0.502 OA
ATOM     21  H   UNL     1      -6.429 -17.838  -7.375  1.00  0.00     0.293 HD
ENDBRANCH   2  20
BRANCH   6  22
ATOM     22  O   UNL     1     -12.284 -17.663  -7.607  1.00  0.00    -0.507 OA
ATOM     23  H   UNL     1     -11.783 -17.449  -8.462  1.00  0.00     0.293 HD
ENDBRANCH   6  22
BRANCH   8  24
ATOM     24  O   UNL     1     -13.571 -21.137  -4.515  1.00  0.00    -0.508 OA
ATOM     25  H   UNL     1     -14.547 -21.056  -4.772  1.00  0.00     0.293 HD
ENDBRANCH   8  24
TORSDOF 5
ENDMDL
MODEL 2
REMARK VINA RESULT:    -6.773     13.057     16.096
REMARK INTER + INTRA:          -8.232
REMARK INTER:                  -7.935
REMARK INTRA:                  -0.297
REMARK UNBOUND:                -0.271
REMARK SMILES O=c1c(O)c(-c2ccc(O)cc2)oc2cc(O)cc(O)c12
REMARK SMILES IDX 5 1 3 2 2 3 1 4 21 5 19 6 18 7 16 8 15 9 14 10 13 11 6 12
REMARK SMILES IDX 7 13 8 14 9 15 12 16 11 17 10 18 4 20 20 22 17 24
REMARK H PARENT 10 19 4 21 20 23 17 25
REMARK Flexibility Score: inf
ROOT
ATOM      1  C   UNL     1     -13.791 -10.102 -16.327  1.00  0.00     0.180 A 
ATOM      2  C   UNL     1     -13.348  -8.938 -16.987  1.00  0.00     0.208 A 
ATOM      3  C   UNL     1     -11.996  -8.836 -17.346  1.00  0.00     0.238 A 
ATOM      4  O   UNL     1     -11.586  -7.795 -17.928  1.00  0.00    -0.285 OA
ATOM      5  C   UNL     1     -11.116  -9.900 -17.060  1.00  0.00     0.111 A 
ATOM      6  C   UNL     1      -9.740  -9.878 -17.393  1.00  0.00     0.134 A 
ATOM      7  C   UNL     1      -8.931 -10.982 -17.083  1.00  0.00     0.093 A 
ATOM      8  C   UNL     1      -9.469 -12.104 -16.450  1.00  0.00     0.123 A 
ATOM      9  C   UNL     1     -10.828 -12.131 -16.118  1.00  0.00     0.094 A 
ATOM     10  C   UNL     1     -11.650 -11.041 -16.417  1.00  0.00     0.146 A 
ATOM     11  O   UNL     1     -12.936 -11.091 -16.087  1.00  0.00    -0.452 OA
ENDROOT
BRANCH   1  12
ATOM     12  C   UNL     1     -15.198 -10.276 -15.899  1.00  0.00     0.021 A 
ATOM     13  C   UNL     1     -15.656  -9.783 -14.663  1.00  0.00     0.016 A 
ATOM     14  C   UNL     1     -16.983  -9.981 -14.271  1.00  0.00     0.047 A 
ATOM     15  C   UNL     1     -17.864 -10.685 -15.097  1.00  0.00     0.115 A 
ATOM     16  C   UNL     1     -16.083 -11.001 -16.714  1.00  0.00     0.016 A 
ATOM     17  C   UNL     1     -17.410 -11.197 -16.319  1.00  0.00     0.047 A 
BRANCH  15  18
ATOM     18  O   UNL     1     -19.184 -10.873 -14.693  1.00  0.00    -0.508 OA
ATOM     19  H   UNL     1     -19.507 -10.566 -13.782  1.00  0.00     0.293 HD
ENDBRANCH  15  18
ENDBRANCH   1  12
BRANCH   2  20
ATOM     20  O   UNL     1     -14.251  -7.920 -17.303  1.00  0.00    -0.502 OA
ATOM     21  H   UNL     1     -14.293  -7.499 -18.223  1.00  0.00     0.293 HD
ENDBRANCH   2  20
BRANCH   6  22
ATOM     22  O   UNL     1      -9.172  -8.772 -18.027  1.00  0.00    -0.507 OA
ATOM     23  H   UNL     1      -8.977  -8.771 -19.022  1.00  0.00     0.293 HD
ENDBRANCH   6  22
BRANCH   8  24
ATOM     24  O   UNL     1      -8.645 -13.187 -16.152  1.00  0.00    -0.508 OA
ATOM     25  H   UNL     1      -8.999 -14.135 -16.145  1.00  0.00     0.293 HD
ENDBRANCH   8  24
TORSDOF 5
ENDMDL
MODEL 3
REMARK VINA RESULT:    -6.623     14.549     15.527
REMARK INTER + INTRA:          -8.056
REMARK INTER:                  -7.848
REMARK INTRA:                  -0.208
REMARK UNBOUND:                -0.271
REMARK SMILES O=c1c(O)c(-c2ccc(O)cc2)oc2cc(O)cc(O)c12
REMARK SMILES IDX 5 1 3 2 2 3 1 4 21 5 19 6 18 7 16 8 15 9 14 10 13 11 6 12
REMARK SMILES IDX 7 13 8 14 9 15 12 16 11 17 10 18 4 20 20 22 17 24
REMARK H PARENT 10 19 4 21 20 23 17 25
REMARK Flexibility Score: inf
ROOT
ATOM      1  C   UNL     1     -13.277  -9.709 -16.349  1.00  0.00     0.180 A 
ATOM      2  C   UNL     1     -13.566  -9.428 -14.999  1.00  0.00     0.208 A 
ATOM      3  C   UNL     1     -14.832  -9.763 -14.494  1.00  0.00     0.238 A 
ATOM      4  O   UNL     1     -15.106  -9.507 -13.290  1.00  0.00    -0.285 OA
ATOM      5  C   UNL     1     -15.775 -10.387 -15.335  1.00  0.00     0.111 A 
ATOM      6  C   UNL     1     -17.071 -10.761 -14.902  1.00  0.00     0.134 A 
ATOM      7  C   UNL     1     -17.950 -11.388 -15.798  1.00  0.00     0.093 A 
ATOM      8  C   UNL     1     -17.561 -11.649 -17.113  1.00  0.00     0.123 A 
ATOM      9  C   UNL     1     -16.282 -11.282 -17.546  1.00  0.00     0.094 A 
ATOM     10  C   UNL     1     -15.392 -10.655 -16.670  1.00  0.00     0.146 A 
ATOM     11  O   UNL     1     -14.186 -10.312 -17.108  1.00  0.00    -0.452 OA
ENDROOT
BRANCH   1  12
ATOM     12  C   UNL     1     -11.972  -9.369 -16.961  1.00  0.00     0.021 A 
ATOM     13  C   UNL     1     -10.803 -10.086 -16.645  1.00  0.00     0.016 A 
ATOM     14  C   UNL     1      -9.578  -9.729 -17.217  1.00  0.00     0.047 A 
ATOM     15  C   UNL     1      -9.501  -8.647 -18.098  1.00  0.00     0.115 A 
ATOM     16  C   UNL     1     -11.883  -8.269 -17.830  1.00  0.00     0.016 A 
ATOM     17  C   UNL     1     -10.656  -7.915 -18.401  1.00  0.00     0.047 A 
BRANCH  15  18
ATOM     18  O   UNL     1      -8.274  -8.304 -18.661  1.00  0.00    -0.508 OA
ATOM     19  H   UNL     1      -8.215  -7.849 -19.565  1.00  0.00     0.293 HD
ENDBRANCH  15  18
ENDBRANCH   1  12
BRANCH   2  20
ATOM     20  O   UNL     1     -12.596  -8.853 -14.174  1.00  0.00    -0.502 OA
ATOM     21  H   UNL     1     -12.342  -9.252 -13.278  1.00  0.00     0.293 HD
ENDBRANCH   2  20
BRANCH   6  22
ATOM     22  O   UNL     1     -17.490 -10.515 -13.593  1.00  0.00    -0.507 OA
ATOM     23  H   UNL     1     -18.375 -10.862 -13.243  1.00  0.00     0.293 HD
ENDBRANCH   6  22
BRANCH   8  24
ATOM     24  O   UNL     1     -18.452 -12.273 -17.982  1.00  0.00    -0.508 OA
ATOM     25  H   UNL     1     -18.325 -12.238 -18.987  1.00  0.00     0.293 HD
ENDBRANCH   8  24
TORSDOF 5
ENDMDL
MODEL 4
REMARK VINA RESULT:    -6.497      2.809      6.957
REMARK INTER + INTRA:          -7.908
REMARK INTER:                  -7.633
REMARK INTRA:                  -0.275
REMARK UNBOUND:                -0.271
REMARK SMILES O=c1c(O)c(-c2ccc(O)cc2)oc2cc(O)cc(O)c12
REMARK SMILES IDX 5 1 3 2 2 3 1 4 21 5 19 6 18 7 16 8 15 9 14 10 13 11 6 12
REMARK SMILES IDX 7 13 8 14 9 15 12 16 11 17 10 18 4 20 20 22 17 24
REMARK H PARENT 10 19 4 21 20 23 17 25
REMARK Flexibility Score: inf
ROOT
ATOM      1  C   UNL     1      -8.108 -19.265  -7.656  1.00  0.00     0.180 A 
ATOM      2  C   UNL     1      -7.707 -20.136  -8.689  1.00  0.00     0.208 A 
ATOM      3  C   UNL     1      -6.402 -20.035  -9.193  1.00  0.00     0.238 A 
ATOM      4  O   UNL     1      -6.035 -20.802 -10.124  1.00  0.00    -0.285 OA
ATOM      5  C   UNL     1      -5.516 -19.083  -8.648  1.00  0.00     0.111 A 
ATOM      6  C   UNL     1      -4.183 -18.919  -9.097  1.00  0.00     0.134 A 
ATOM      7  C   UNL     1      -3.360 -17.955  -8.495  1.00  0.00     0.093 A 
ATOM      8  C   UNL     1      -3.841 -17.154  -7.457  1.00  0.00     0.123 A 
ATOM      9  C   UNL     1      -5.157 -17.311  -7.010  1.00  0.00     0.094 A 
ATOM     10  C   UNL     1      -5.993 -18.265  -7.597  1.00  0.00     0.146 A 
ATOM     11  O   UNL     1      -7.241 -18.390  -7.157  1.00  0.00    -0.452 OA
ENDROOT
BRANCH   1  12
ATOM     12  C   UNL     1      -9.474 -19.298  -7.086  1.00  0.00     0.021 A 
ATOM     13  C   UNL     1      -9.830 -20.222  -6.087  1.00  0.00     0.016 A 
ATOM     14  C   UNL     1     -11.134 -20.250  -5.581  1.00  0.00     0.047 A 
ATOM     15  C   UNL     1     -12.099 -19.367  -6.074  1.00  0.00     0.115 A 
ATOM     16  C   UNL     1     -10.455 -18.428  -7.591  1.00  0.00     0.016 A 
ATOM     17  C   UNL     1     -11.757 -18.458  -7.083  1.00  0.00     0.047 A 
BRANCH  15  18
ATOM     18  O   UNL     1     -13.393 -19.405  -5.560  1.00  0.00    -0.508 OA
ATOM     19  H   UNL     1     -13.660 -20.079  -4.850  1.00  0.00     0.293 HD
ENDBRANCH  15  18
ENDBRANCH   1  12
BRANCH   2  20
ATOM     20  O   UNL     1      -8.589 -21.104  -9.177  1.00  0.00    -0.502 OA
ATOM     21  H   UNL     1      -8.365 -22.091  -9.176  1.00  0.00     0.293 HD
ENDBRANCH   2  20
BRANCH   6  22
ATOM     22  O   UNL     1      -3.672 -19.704 -10.131  1.00  0.00    -0.507 OA
ATOM     23  H   UNL     1      -2.917 -20.363  -9.976  1.00  0.00     0.293 HD
ENDBRANCH   6  22
BRANCH   8  24
ATOM     24  O   UNL     1      -3.004 -16.204  -6.877  1.00  0.00    -0.508 OA
ATOM     25  H   UNL     1      -2.765 -15.345  -7.357  1.00  0.00     0.293 HD
ENDBRANCH   8  24
TORSDOF 5
ENDMDL
MODEL 5
REMARK VINA RESULT:    -6.425      5.319      6.622
REMARK INTER + INTRA:          -7.823
REMARK INTER:                  -7.582
REMARK INTRA:                  -0.242
REMARK UNBOUND:                -0.271
REMARK SMILES O=c1c(O)c(-c2ccc(O)cc2)oc2cc(O)cc(O)c12
REMARK SMILES IDX 5 1 3 2 2 3 1 4 21 5 19 6 18 7 16 8 15 9 14 10 13 11 6 12
REMARK SMILES IDX 7 13 8 14 9 15 12 16 11 17 10 18 4 20 20 22 17 24
REMARK H PARENT 10 19 4 21 20 23 17 25
REMARK Flexibility Score: inf
ROOT
ATOM      1  C   UNL     1     -11.659 -22.072 -10.204  1.00  0.00     0.180 A 
ATOM      2  C   UNL     1     -10.447 -21.484  -9.789  1.00  0.00     0.208 A 
ATOM      3  C   UNL     1     -10.459 -20.613  -8.689  1.00  0.00     0.238 A 
ATOM      4  O   UNL     1      -9.383 -20.073  -8.314  1.00  0.00    -0.285 OA
ATOM      5  C   UNL     1     -11.670 -20.360  -8.013  1.00  0.00     0.111 A 
ATOM      6  C   UNL     1     -11.767 -19.499  -6.893  1.00  0.00     0.134 A 
ATOM      7  C   UNL     1     -13.009 -19.307  -6.268  1.00  0.00     0.093 A 
ATOM      8  C   UNL     1     -14.151 -19.957  -6.739  1.00  0.00     0.123 A 
ATOM      9  C   UNL     1     -14.062 -20.808  -7.845  1.00  0.00     0.094 A 
ATOM     10  C   UNL     1     -12.835 -21.012  -8.482  1.00  0.00     0.146 A 
ATOM     11  O   UNL     1     -12.779 -21.822  -9.534  1.00  0.00    -0.452 OA
ENDROOT
BRANCH   1  12
ATOM     12  C   UNL     1     -11.731 -22.985 -11.368  1.00  0.00     0.021 A 
ATOM     13  C   UNL     1     -11.649 -22.503 -12.687  1.00  0.00     0.016 A 
ATOM     14  C   UNL     1     -11.744 -23.383 -13.769  1.00  0.00     0.047 A 
ATOM     15  C   UNL     1     -11.935 -24.750 -13.550  1.00  0.00     0.115 A 
ATOM     16  C   UNL     1     -11.944 -24.358 -11.156  1.00  0.00     0.016 A 
ATOM     17  C   UNL     1     -12.038 -25.236 -12.240  1.00  0.00     0.047 A 
BRANCH  15  18
ATOM     18  O   UNL     1     -12.027 -25.615 -14.638  1.00  0.00    -0.508 OA
ATOM     19  H   UNL     1     -11.473 -26.462 -14.689  1.00  0.00     0.293 HD
ENDBRANCH  15  18
ENDBRANCH   1  12
BRANCH   2  20
ATOM     20  O   UNL     1      -9.252 -21.790 -10.446  1.00  0.00    -0.502 OA
ATOM     21  H   UNL     1      -8.388 -21.962  -9.946  1.00  0.00     0.293 HD
ENDBRANCH   2  20
BRANCH   6  22
ATOM     22  O   UNL     1     -10.643 -18.836  -6.398  1.00  0.00    -0.507 OA
ATOM     23  H   UNL     1     -10.096 -18.211  -6.977  1.00  0.00     0.293 HD
ENDBRANCH   6  22
BRANCH   8  24
ATOM     24  O   UNL     1     -15.372 -19.749  -6.101  1.00  0.00    -0.508 OA
ATOM     25  H   UNL     1     -15.421 -19.412  -5.147  1.00  0.00     0.293 HD
ENDBRANCH   8  24
TORSDOF 5
ENDMDL
MODEL 6
REMARK VINA RESULT:    -6.189     11.399     14.648
REMARK INTER + INTRA:          -7.546
REMARK INTER:                  -7.258
REMARK INTRA:                  -0.289
REMARK UNBOUND:                -0.271
REMARK SMILES O=c1c(O)c(-c2ccc(O)cc2)oc2cc(O)cc(O)c12
REMARK SMILES IDX 5 1 3 2 2 3 1 4 21 5 19 6 18 7 16 8 15 9 14 10 13 11 6 12
REMARK SMILES IDX 7 13 8 14 9 15 12 16 11 17 10 18 4 20 20 22 17 24
REMARK H PARENT 10 19 4 21 20 23 17 25
REMARK Flexibility Score: inf
ROOT
ATOM      1  C   UNL     1     -11.416 -10.907 -15.954  1.00  0.00     0.180 A 
ATOM      2  C   UNL     1     -10.588 -10.287 -16.912  1.00  0.00     0.208 A 
ATOM      3  C   UNL     1      -9.438 -10.961 -17.351  1.00  0.00     0.238 A 
ATOM      4  O   UNL     1      -8.684 -10.412 -18.200  1.00  0.00    -0.285 OA
ATOM      5  C   UNL     1      -9.145 -12.244 -16.844  1.00  0.00     0.111 A 
ATOM      6  C   UNL     1      -8.009 -12.991 -17.238  1.00  0.00     0.134 A 
ATOM      7  C   UNL     1      -7.792 -14.266 -16.694  1.00  0.00     0.093 A 
ATOM      8  C   UNL     1      -8.687 -14.808 -15.769  1.00  0.00     0.123 A 
ATOM      9  C   UNL     1      -9.811 -14.074 -15.376  1.00  0.00     0.094 A 
ATOM     10  C   UNL     1     -10.044 -12.801 -15.904  1.00  0.00     0.146 A 
ATOM     11  O   UNL     1     -11.116 -12.123 -15.510  1.00  0.00    -0.452 OA
ENDROOT
BRANCH   1  12
ATOM     12  C   UNL     1     -12.635 -10.252 -15.428  1.00  0.00     0.021 A 
ATOM     13  C   UNL     1     -12.571  -9.313 -14.382  1.00  0.00     0.016 A 
ATOM     14  C   UNL     1     -13.740  -8.727 -13.886  1.00  0.00     0.047 A 
ATOM     15  C   UNL     1     -14.984  -9.079 -14.416  1.00  0.00     0.115 A 
ATOM     16  C   UNL     1     -13.891 -10.617 -15.941  1.00  0.00     0.016 A 
ATOM     17  C   UNL     1     -15.058 -10.029 -15.443  1.00  0.00     0.047 A 
BRANCH  15  18
ATOM     18  O   UNL     1     -16.139  -8.485 -13.912  1.00  0.00    -0.508 OA
ATOM     19  H   UNL     1     -16.171  -7.498 -13.686  1.00  0.00     0.293 HD
ENDBRANCH  15  18
ENDBRANCH   1  12
BRANCH   2  20
ATOM     20  O   UNL     1     -10.927  -9.036 -17.435  1.00  0.00    -0.502 OA
ATOM     21  H   UNL     1     -10.396  -8.200 -17.227  1.00  0.00     0.293 HD
ENDBRANCH   2  20
BRANCH   6  22
ATOM     22  O   UNL     1      -7.097 -12.478 -18.161  1.00  0.00    -0.507 OA
ATOM     23  H   UNL     1      -6.430 -11.758 -17.908  1.00  0.00     0.293 HD
ENDBRANCH   6  22
BRANCH   8  24
ATOM     24  O   UNL     1      -8.449 -16.076 -15.244  1.00  0.00    -0.508 OA
ATOM     25  H   UNL     1      -7.751 -16.692 -15.642  1.00  0.00     0.293 HD
ENDBRANCH   8  24
TORSDOF 5
ENDMDL
MODEL 7
REMARK VINA RESULT:    -6.166     12.125     15.450
REMARK INTER + INTRA:          -7.519
REMARK INTER:                  -7.459
REMARK INTRA:                  -0.060
REMARK UNBOUND:                -0.271
REMARK SMILES O=c1c(O)c(-c2ccc(O)cc2)oc2cc(O)cc(O)c12
REMARK SMILES IDX 5 1 3 2 2 3 1 4 21 5 19 6 18 7 16 8 15 9 14 10 13 11 6 12
REMARK SMILES IDX 7 13 8 14 9 15 12 16 11 17 10 18 4 20 20 22 17 24
REMARK H PARENT 10 19 4 21 20 23 17 25
REMARK Flexibility Score: inf
ROOT
ATOM      1  C   UNL     1     -12.417 -10.194 -16.112  1.00  0.00     0.180 A 
ATOM      2  C   UNL     1     -11.873  -9.466 -17.189  1.00  0.00     0.208 A 
ATOM      3  C   UNL     1     -10.665  -9.897 -17.757  1.00  0.00     0.238 A 
ATOM      4  O   UNL     1     -10.164  -9.248 -18.715  1.00  0.00    -0.285 OA
ATOM      5  C   UNL     1     -10.033 -11.054 -17.257  1.00  0.00     0.111 A 
ATOM      6  C   UNL     1      -8.815 -11.557 -17.776  1.00  0.00     0.134 A 
ATOM      7  C   UNL     1      -8.254 -12.721 -17.229  1.00  0.00     0.093 A 
ATOM      8  C   UNL     1      -8.883 -13.389 -16.177  1.00  0.00     0.123 A 
ATOM      9  C   UNL     1     -10.085 -12.896 -15.660  1.00  0.00     0.094 A 
ATOM     10  C   UNL     1     -10.660 -11.738 -16.190  1.00  0.00     0.146 A 
ATOM     11  O   UNL     1     -11.800 -11.288 -15.676  1.00  0.00    -0.452 OA
ENDROOT
BRANCH   1  12
ATOM     12  C   UNL     1     -13.677  -9.791 -15.447  1.00  0.00     0.021 A 
ATOM     13  C   UNL     1     -13.842  -8.504 -14.904  1.00  0.00     0.016 A 
ATOM     14  C   UNL     1     -15.033  -8.155 -14.259  1.00  0.00     0.047 A 
ATOM     15  C   UNL     1     -16.066  -9.089 -14.136  1.00  0.00     0.115 A 
ATOM     16  C   UNL     1     -14.711 -10.731 -15.300  1.00  0.00     0.016 A 
ATOM     17  C   UNL     1     -15.902 -10.379 -14.655  1.00  0.00     0.047 A 
BRANCH  15  18
ATOM     18  O   UNL     1     -17.247  -8.726 -13.492  1.00  0.00    -0.508 OA
ATOM     19  H   UNL     1     -17.554  -9.195 -12.647  1.00  0.00     0.293 HD
ENDBRANCH  15  18
ENDBRANCH   1  12
BRANCH   2  20
ATOM     20  O   UNL     1     -12.545  -8.352 -17.698  1.00  0.00    -0.502 OA
ATOM     21  H   UNL     1     -13.429  -8.429 -18.187  1.00  0.00     0.293 HD
ENDBRANCH   2  20
BRANCH   6  22
ATOM     22  O   UNL     1      -8.163 -10.913 -18.828  1.00  0.00    -0.507 OA
ATOM     23  H   UNL     1      -7.549 -10.122 -18.670  1.00  0.00     0.293 HD
ENDBRANCH   6  22
BRANCH   8  24
ATOM     24  O   UNL     1      -8.305 -14.542 -15.652  1.00  0.00    -0.508 OA
ATOM     25  H   UNL     1      -8.008 -14.593 -14.685  1.00  0.00     0.293 HD
ENDBRANCH   8  24
TORSDOF 5
ENDMDL
MODEL 8
REMARK VINA RESULT:    -6.105      2.432      2.884
REMARK INTER + INTRA:          -7.447
REMARK INTER:                  -7.184
REMARK INTRA:                  -0.263
REMARK UNBOUND:                -0.271
REMARK SMILES O=c1c(O)c(-c2ccc(O)cc2)oc2cc(O)cc(O)c12
REMARK SMILES IDX 5 1 3 2 2 3 1 4 21 5 19 6 18 7 16 8 15 9 14 10 13 11 6 12
REMARK SMILES IDX 7 13 8 14 9 15 12 16 11 17 10 18 4 20 20 22 17 24
REMARK H PARENT 10 19 4 21 20 23 17 25
REMARK Flexibility Score: inf
ROOT
ATOM      1  C   UNL     1      -9.285 -20.006  -7.370  1.00  0.00     0.180 A 
ATOM      2  C   UNL     1      -9.517 -20.628  -8.613  1.00  0.00     0.208 A 
ATOM      3  C   UNL     1     -10.832 -20.966  -8.967  1.00  0.00     0.238 A 
ATOM      4  O   UNL     1     -11.050 -21.533 -10.072  1.00  0.00    -0.285 OA
ATOM      5  C   UNL     1     -11.890 -20.662  -8.087  1.00  0.00     0.111 A 
ATOM      6  C   UNL     1     -13.244 -20.966  -8.370  1.00  0.00     0.134 A 
ATOM      7  C   UNL     1     -14.243 -20.622  -7.446  1.00  0.00     0.093 A 
ATOM      8  C   UNL     1     -13.915 -19.981  -6.250  1.00  0.00     0.123 A 
ATOM      9  C   UNL     1     -12.580 -19.679  -5.964  1.00  0.00     0.094 A 
ATOM     10  C   UNL     1     -11.571 -20.015  -6.871  1.00  0.00     0.146 A 
ATOM     11  O   UNL     1     -10.310 -19.721  -6.573  1.00  0.00    -0.452 OA
ENDROOT
BRANCH   1  12
ATOM     12  C   UNL     1      -7.924 -19.636  -6.918  1.00  0.00     0.021 A 
ATOM     13  C   UNL     1      -7.290 -18.468  -7.379  1.00  0.00     0.016 A 
ATOM     14  C   UNL     1      -5.995 -18.153  -6.956  1.00  0.00     0.047 A 
ATOM     15  C   UNL     1      -5.313 -19.004  -6.081  1.00  0.00     0.115 A 
ATOM     16  C   UNL     1      -7.225 -20.497  -6.056  1.00  0.00     0.016 A 
ATOM     17  C   UNL     1      -5.930 -20.179  -5.634  1.00  0.00     0.047 A 
BRANCH  15  18
ATOM     18  O   UNL     1      -4.024 -18.676  -5.668  1.00  0.00    -0.508 OA
ATOM     19  H   UNL     1      -3.423 -19.358  -5.218  1.00  0.00     0.293 HD
ENDBRANCH  15  18
ENDBRANCH   1  12
BRANCH   2  20
ATOM     20  O   UNL     1      -8.456 -20.874  -9.489  1.00  0.00    -0.502 OA
ATOM     21  H   UNL     1      -7.569 -20.390  -9.415  1.00  0.00     0.293 HD
ENDBRANCH   2  20
BRANCH   6  22
ATOM     22  O   UNL     1     -13.604 -21.605  -9.558  1.00  0.00    -0.507 OA
ATOM     23  H   UNL     1     -13.687 -22.613  -9.616  1.00  0.00     0.293 HD
ENDBRANCH   6  22
BRANCH   8  24
ATOM     24  O   UNL     1     -14.925 -19.650  -5.349  1.00  0.00    -0.508 OA
ATOM     25  H   UNL     1     -15.458 -20.363  -4.865  1.00  0.00     0.293 HD
ENDBRANCH   8  24
TORSDOF 5
ENDMDL
MODEL 9
REMARK VINA RESULT:    -6.028     11.895     13.954
REMARK INTER + INTRA:          -7.357
REMARK INTER:                  -7.091
REMARK INTRA:                  -0.266
REMARK UNBOUND:                -0.271
REMARK SMILES O=c1c(O)c(-c2ccc(O)cc2)oc2cc(O)cc(O)c12
REMARK SMILES IDX 5 1 3 2 2 3 1 4 21 5 19 6 18 7 16 8 15 9 14 10 13 11 6 12
REMARK SMILES IDX 7 13 8 14 9 15 12 16 11 17 10 18 4 20 20 22 17 24
REMARK H PARENT 10 19 4 21 20 23 17 25
REMARK Flexibility Score: inf
ROOT
ATOM      1  C   UNL     1     -11.323 -11.550 -16.470  1.00  0.00     0.180 A 
ATOM      2  C   UNL     1     -10.925 -10.477 -17.293  1.00  0.00     0.208 A 
ATOM      3  C   UNL     1     -11.658  -9.282 -17.249  1.00  0.00     0.238 A 
ATOM      4  O   UNL     1     -11.318  -8.319 -17.989  1.00  0.00    -0.285 OA
ATOM      5  C   UNL     1     -12.759  -9.171 -16.376  1.00  0.00     0.111 A 
ATOM      6  C   UNL     1     -13.548  -8.000 -16.269  1.00  0.00     0.134 A 
ATOM      7  C   UNL     1     -14.623  -7.964 -15.367  1.00  0.00     0.093 A 
ATOM      8  C   UNL     1     -14.922  -9.073 -14.573  1.00  0.00     0.123 A 
ATOM      9  C   UNL     1     -14.147 -10.232 -14.675  1.00  0.00     0.094 A 
ATOM     10  C   UNL     1     -13.074 -10.288 -15.567  1.00  0.00     0.146 A 
ATOM     11  O   UNL     1     -12.357 -11.404 -15.648  1.00  0.00    -0.452 OA
ENDROOT
BRANCH   1  12
ATOM     12  C   UNL     1     -10.611 -12.849 -16.474  1.00  0.00     0.021 A 
ATOM     13  C   UNL     1     -10.821 -13.798 -17.491  1.00  0.00     0.016 A 
ATOM     14  C   UNL     1     -10.155 -15.028 -17.458  1.00  0.00     0.047 A 
ATOM     15  C   UNL     1      -9.287 -15.330 -16.407  1.00  0.00     0.115 A 
ATOM     16  C   UNL     1      -9.753 -13.169 -15.408  1.00  0.00     0.016 A 
ATOM     17  C   UNL     1      -9.089 -14.400 -15.379  1.00  0.00     0.047 A 
BRANCH  15  18
ATOM     18  O   UNL     1      -8.630 -16.559 -16.389  1.00  0.00    -0.508 OA
ATOM     19  H   UNL     1      -7.623 -16.622 -16.482  1.00  0.00     0.293 HD
ENDBRANCH  15  18
ENDBRANCH   1  12
BRANCH   2  20
ATOM     20  O   UNL     1      -9.800 -10.597 -18.114  1.00  0.00    -0.502 OA
ATOM     21  H   UNL     1      -9.742 -11.281 -18.858  1.00  0.00     0.293 HD
ENDBRANCH   2  20
BRANCH   6  22
ATOM     22  O   UNL     1     -13.272  -6.875 -17.048  1.00  0.00    -0.507 OA
ATOM     23  H   UNL     1     -13.830  -6.641 -17.861  1.00  0.00     0.293 HD
ENDBRANCH   6  22
BRANCH   8  24
ATOM     24  O   UNL     1     -15.995  -9.012 -13.686  1.00  0.00    -0.508 OA
ATOM     25  H   UNL     1     -15.872  -9.173 -12.694  1.00  0.00     0.293 HD
ENDBRANCH   8  24
TORSDOF 5
ENDMDL
