MODEL 1
REMARK VINA RESULT:    -4.173      0.000      0.000
REMARK INTER + INTRA:          -5.758
REMARK INTER:                  -5.637
REMARK INTRA:                  -0.121
REMARK UNBOUND:                -0.121
REMARK SMILES [NH3+]CCCC[C@@H]([NH3+])C(=O)[O-]
REMARK SMILES IDX 4 1 3 2 2 3 1 4 5 8 6 9 7 10 8 14 9 15 10 16
REMARK H PARENT 1 5 1 6 1 7 7 11 7 12 7 13
REMARK Flexibility Score: inf
ROOT
ATOM      1  C   UNL     1     -39.122  20.364 -29.818  1.00  0.00     0.012 C 
ENDROOT
BRANCH   1   2
ATOM      2  C   UNL     1     -39.828  21.502 -29.072  1.00  0.00     0.061 C 
BRANCH   2   3
ATOM      3  C   UNL     1     -38.813  22.454 -28.425  1.00  0.00     0.258 C 
BRANCH   3   4
ATOM      4  N   UNL     1     -39.489  23.513 -27.677  1.00  0.00    -0.358 N 
ATOM      5  H   UNL     1     -39.869  24.231 -28.337  1.00  0.00     0.344 HD
ATOM      6  H   UNL     1     -40.281  23.097 -27.136  1.00  0.00     0.344 HD
ATOM      7  H   UNL     1     -38.821  23.963 -27.009  1.00  0.00     0.344 HD
ENDBRANCH   3   4
ENDBRANCH   2   3
ENDBRANCH   1   2
BRANCH   1   8
ATOM      8  C   UNL     1     -39.002  19.115 -28.927  1.00  0.00     0.072 C 
BRANCH   8   9
ATOM      9  C   UNL     1     -37.550  18.637 -28.694  1.00  0.00     0.227 C 
BRANCH   9  10
ATOM     10  N   UNL     1     -37.310  18.264 -27.293  1.00  0.00    -0.350 N 
ATOM     11  H   UNL     1     -37.658  17.292 -27.119  1.00  0.00     0.345 HD
ATOM     12  H   UNL     1     -37.834  18.915 -26.664  1.00  0.00     0.345 HD
ATOM     13  H   UNL     1     -36.294  18.312 -27.053  1.00  0.00     0.345 HD
ENDBRANCH   9  10
BRANCH   9  14
ATOM     14  C   UNL     1     -37.180  17.517 -29.631  1.00  0.00     0.099 C 
ATOM     15  O   UNL     1     -35.967  17.282 -29.879  1.00  0.00    -0.544 OA
ATOM     16  O   UNL     1     -38.162  16.765 -30.267  1.00  0.00    -0.544 OA
ENDBRANCH   9  14
ENDBRANCH   8   9
ENDBRANCH   1   8
TORSDOF 7
ENDMDL
MODEL 2
REMARK VINA RESULT:    -4.171      3.197      5.132
REMARK INTER + INTRA:          -5.755
REMARK INTER:                  -5.661
REMARK INTRA:                  -0.094
REMARK UNBOUND:                -0.121
REMARK SMILES [NH3+]CCCC[C@@H]([NH3+])C(=O)[O-]
REMARK SMILES IDX 4 1 3 2 2 3 1 4 5 8 6 9 7 10 8 14 9 15 10 16
REMARK H PARENT 1 5 1 6 1 7 7 11 7 12 7 13
REMARK Flexibility Score: inf
ROOT
ATOM      1  C   UNL     1     -38.050  18.426 -30.089  1.00  0.00     0.012 C 
ENDROOT
BRANCH   1   2
ATOM      2  C   UNL     1     -37.537  16.988 -29.946  1.00  0.00     0.061 C 
BRANCH   2   3
ATOM      3  C   UNL     1     -36.027  16.911 -30.207  1.00  0.00     0.258 C 
BRANCH   3   4
ATOM      4  N   UNL     1     -35.654  15.602 -30.744  1.00  0.00    -0.358 N 
ATOM      5  H   UNL     1     -36.311  15.329 -31.511  1.00  0.00     0.344 HD
ATOM      6  H   UNL     1     -34.684  15.655 -31.131  1.00  0.00     0.344 HD
ATOM      7  H   UNL     1     -35.678  14.884 -29.984  1.00  0.00     0.344 HD
ENDBRANCH   3   4
ENDBRANCH   2   3
ENDBRANCH   1   2
BRANCH   1   8
ATOM      8  C   UNL     1     -38.577  18.957 -28.745  1.00  0.00     0.072 C 
BRANCH   8   9
ATOM      9  C   UNL     1     -39.963  19.637 -28.829  1.00  0.00     0.227 C 
BRANCH   9  10
ATOM     10  N   UNL     1     -40.793  19.346 -27.652  1.00  0.00    -0.350 N 
ATOM     11  H   UNL     1     -40.183  19.095 -26.839  1.00  0.00     0.345 HD
ATOM     12  H   UNL     1     -41.415  18.530 -27.857  1.00  0.00     0.345 HD
ATOM     13  H   UNL     1     -41.390  20.164 -27.392  1.00  0.00     0.345 HD
ENDBRANCH   9  10
BRANCH   9  14
ATOM     14  C   UNL     1     -39.838  21.122 -29.058  1.00  0.00     0.099 C 
ATOM     15  O   UNL     1     -38.774  21.717 -28.741  1.00  0.00    -0.544 OA
ATOM     16  O   UNL     1     -40.902  21.855 -29.571  1.00  0.00    -0.544 OA
ENDBRANCH   9  14
ENDBRANCH   8   9
ENDBRANCH   1   8
TORSDOF 7
ENDMDL
MODEL 3
REMARK VINA RESULT:    -4.086      2.859      4.960
REMARK INTER + INTRA:          -5.640
REMARK INTER:                  -5.571
REMARK INTRA:                  -0.070
REMARK UNBOUND:                -0.121
REMARK SMILES [NH3+]CCCC[C@@H]([NH3+])C(=O)[O-]
REMARK SMILES IDX 4 1 3 2 2 3 1 4 5 8 6 9 7 10 8 14 9 15 10 16
REMARK H PARENT 1 5 1 6 1 7 7 11 7 12 7 13
REMARK Flexibility Score: inf
ROOT
ATOM      1  C   UNL     1     -38.439  18.181 -30.436  1.00  0.00     0.012 C 
ENDROOT
BRANCH   1   2
ATOM      2  C   UNL     1     -37.731  16.899 -29.982  1.00  0.00     0.061 C 
BRANCH   2   3
ATOM      3  C   UNL     1     -36.222  16.975 -30.252  1.00  0.00     0.258 C 
BRANCH   3   4
ATOM      4  N   UNL     1     -35.708  15.688 -30.719  1.00  0.00    -0.358 N 
ATOM      5  H   UNL     1     -34.667  15.729 -30.810  1.00  0.00     0.344 HD
ATOM      6  H   UNL     1     -35.958  14.947 -30.024  1.00  0.00     0.344 HD
ATOM      7  H   UNL     1     -36.137  15.445 -31.642  1.00  0.00     0.344 HD
ENDBRANCH   3   4
ENDBRANCH   2   3
ENDBRANCH   1   2
BRANCH   1   8
ATOM      8  C   UNL     1     -39.167  18.852 -29.258  1.00  0.00     0.072 C 
BRANCH   8   9
ATOM      9  C   UNL     1     -39.274  20.391 -29.369  1.00  0.00     0.227 C 
BRANCH   9  10
ATOM     10  N   UNL     1     -40.514  20.902 -28.769  1.00  0.00    -0.350 N 
ATOM     11  H   UNL     1     -40.778  20.317 -27.943  1.00  0.00     0.345 HD
ATOM     12  H   UNL     1     -41.289  20.847 -29.469  1.00  0.00     0.345 HD
ATOM     13  H   UNL     1     -40.410  21.897 -28.464  1.00  0.00     0.345 HD
ENDBRANCH   9  10
BRANCH   9  14
ATOM     14  C   UNL     1     -38.062  21.073 -28.789  1.00  0.00     0.099 C 
ATOM     15  O   UNL     1     -38.045  22.328 -28.673  1.00  0.00    -0.544 OA
ATOM     16  O   UNL     1     -36.938  20.340 -28.424  1.00  0.00    -0.544 OA
ENDBRANCH   9  14
ENDBRANCH   8   9
ENDBRANCH   1   8
TORSDOF 7
ENDMDL
MODEL 4
REMARK VINA RESULT:    -4.071      1.837      2.043
REMARK INTER + INTRA:          -5.620
REMARK INTER:                  -5.434
REMARK INTRA:                  -0.185
REMARK UNBOUND:                -0.121
REMARK SMILES [NH3+]CCCC[C@@H]([NH3+])C(=O)[O-]
REMARK SMILES IDX 4 1 3 2 2 3 1 4 5 8 6 9 7 10 8 14 9 15 10 16
REMARK H PARENT 1 5 1 6 1 7 7 11 7 12 7 13
REMARK Flexibility Score: inf
ROOT
ATOM      1  C   UNL     1     -37.184  20.899 -28.991  1.00  0.00     0.012 C 
ENDROOT
BRANCH   1   2
ATOM      2  C   UNL     1     -37.606  22.336 -28.660  1.00  0.00     0.061 C 
BRANCH   2   3
ATOM      3  C   UNL     1     -39.126  22.438 -28.477  1.00  0.00     0.258 C 
BRANCH   3   4
ATOM      4  N   UNL     1     -39.479  23.600 -27.662  1.00  0.00    -0.358 N 
ATOM      5  H   UNL     1     -39.020  24.459 -28.044  1.00  0.00     0.344 HD
ATOM      6  H   UNL     1     -40.516  23.732 -27.685  1.00  0.00     0.344 HD
ATOM      7  H   UNL     1     -39.178  23.448 -26.672  1.00  0.00     0.344 HD
ENDBRANCH   3   4
ENDBRANCH   2   3
ENDBRANCH   1   2
BRANCH   1   8
ATOM      8  C   UNL     1     -38.383  19.940 -28.896  1.00  0.00     0.072 C 
BRANCH   8   9
ATOM      9  C   UNL     1     -38.741  19.236 -30.225  1.00  0.00     0.227 C 
BRANCH   9  10
ATOM     10  N   UNL     1     -38.096  19.875 -31.380  1.00  0.00    -0.350 N 
ATOM     11  H   UNL     1     -37.236  20.386 -31.070  1.00  0.00     0.345 HD
ATOM     12  H   UNL     1     -38.752  20.570 -31.805  1.00  0.00     0.345 HD
ATOM     13  H   UNL     1     -37.833  19.174 -32.110  1.00  0.00     0.345 HD
ENDBRANCH   9  10
BRANCH   9  14
ATOM     14  C   UNL     1     -38.431  17.761 -30.171  1.00  0.00     0.099 C 
ATOM     15  O   UNL     1     -37.525  17.339 -29.404  1.00  0.00    -0.544 OA
ATOM     16  O   UNL     1     -39.100  16.862 -30.994  1.00  0.00    -0.544 OA
ENDBRANCH   9  14
ENDBRANCH   8   9
ENDBRANCH   1   8
TORSDOF 7
ENDMDL
MODEL 5
REMARK VINA RESULT:    -4.035     13.252     13.661
REMARK INTER + INTRA:          -5.572
REMARK INTER:                  -5.145
REMARK INTRA:                  -0.427
REMARK UNBOUND:                -0.121
REMARK SMILES [NH3+]CCCC[C@@H]([NH3+])C(=O)[O-]
REMARK SMILES IDX 4 1 3 2 2 3 1 4 5 8 6 9 7 10 8 14 9 15 10 16
REMARK H PARENT 1 5 1 6 1 7 7 11 7 12 7 13
REMARK Flexibility Score: inf
ROOT
ATOM      1  C   UNL     1     -51.489  15.959 -31.843  1.00  0.00     0.012 C 
ENDROOT
BRANCH   1   2
ATOM      2  C   UNL     1     -52.339  17.115 -31.301  1.00  0.00     0.061 C 
BRANCH   2   3
ATOM      3  C   UNL     1     -51.519  18.014 -30.368  1.00  0.00     0.258 C 
BRANCH   3   4
ATOM      4  N   UNL     1     -52.192  18.186 -29.081  1.00  0.00    -0.358 N 
ATOM      5  H   UNL     1     -51.563  17.880 -28.303  1.00  0.00     0.344 HD
ATOM      6  H   UNL     1     -52.426  19.197 -28.949  1.00  0.00     0.344 HD
ATOM      7  H   UNL     1     -53.077  17.628 -29.062  1.00  0.00     0.344 HD
ENDBRANCH   3   4
ENDBRANCH   2   3
ENDBRANCH   1   2
BRANCH   1   8
ATOM      8  C   UNL     1     -50.287  15.684 -30.923  1.00  0.00     0.072 C 
BRANCH   8   9
ATOM      9  C   UNL     1     -50.194  14.227 -30.416  1.00  0.00     0.227 C 
BRANCH   9  10
ATOM     10  N   UNL     1     -48.804  13.809 -30.185  1.00  0.00    -0.350 N 
ATOM     11  H   UNL     1     -48.783  12.833 -29.809  1.00  0.00     0.345 HD
ATOM     12  H   UNL     1     -48.364  14.442 -29.477  1.00  0.00     0.345 HD
ATOM     13  H   UNL     1     -48.241  13.850 -31.065  1.00  0.00     0.345 HD
ENDBRANCH   9  10
BRANCH   9  14
ATOM     14  C   UNL     1     -51.042  14.013 -29.188  1.00  0.00     0.099 C 
ATOM     15  O   UNL     1     -51.337  12.843 -28.826  1.00  0.00    -0.544 OA
ATOM     16  O   UNL     1     -51.543  15.094 -28.472  1.00  0.00    -0.544 OA
ENDBRANCH   9  14
ENDBRANCH   8   9
ENDBRANCH   1   8
TORSDOF 7
ENDMDL
MODEL 6
REMARK VINA RESULT:    -4.024      2.705      4.293
REMARK INTER + INTRA:          -5.557
REMARK INTER:                  -5.148
REMARK INTRA:                  -0.409
REMARK UNBOUND:                -0.121
REMARK SMILES [NH3+]CCCC[C@@H]([NH3+])C(=O)[O-]
REMARK SMILES IDX 4 1 3 2 2 3 1 4 5 8 6 9 7 10 8 14 9 15 10 16
REMARK H PARENT 1 5 1 6 1 7 7 11 7 12 7 13
REMARK Flexibility Score: inf
ROOT
ATOM      1  C   UNL     1     -37.428  17.476 -29.759  1.00  0.00     0.012 C 
ENDROOT
BRANCH   1   2
ATOM      2  C   UNL     1     -36.144  18.270 -29.493  1.00  0.00     0.061 C 
BRANCH   2   3
ATOM      3  C   UNL     1     -36.023  18.646 -28.010  1.00  0.00     0.258 C 
BRANCH   3   4
ATOM      4  N   UNL     1     -37.234  18.279 -27.277  1.00  0.00    -0.358 N 
ATOM      5  H   UNL     1     -38.067  18.749 -27.701  1.00  0.00     0.344 HD
ATOM      6  H   UNL     1     -37.366  17.243 -27.330  1.00  0.00     0.344 HD
ATOM      7  H   UNL     1     -37.143  18.558 -26.272  1.00  0.00     0.344 HD
ENDBRANCH   3   4
ENDBRANCH   2   3
ENDBRANCH   1   2
BRANCH   1   8
ATOM      8  C   UNL     1     -38.394  18.278 -30.649  1.00  0.00     0.072 C 
BRANCH   8   9
ATOM      9  C   UNL     1     -38.392  19.800 -30.381  1.00  0.00     0.227 C 
BRANCH   9  10
ATOM     10  N   UNL     1     -38.463  20.580 -31.624  1.00  0.00    -0.350 N 
ATOM     11  H   UNL     1     -38.016  21.516 -31.483  1.00  0.00     0.345 HD
ATOM     12  H   UNL     1     -39.466  20.733 -31.882  1.00  0.00     0.345 HD
ATOM     13  H   UNL     1     -37.986  20.088 -32.413  1.00  0.00     0.345 HD
ENDBRANCH   9  10
BRANCH   9  14
ATOM     14  C   UNL     1     -39.487  20.195 -29.423  1.00  0.00     0.099 C 
ATOM     15  O   UNL     1     -39.766  19.447 -28.447  1.00  0.00    -0.544 OA
ATOM     16  O   UNL     1     -40.228  21.353 -29.627  1.00  0.00    -0.544 OA
ENDBRANCH   9  14
ENDBRANCH   8   9
ENDBRANCH   1   8
TORSDOF 7
ENDMDL
MODEL 7
REMARK VINA RESULT:    -3.959      2.722      3.948
REMARK INTER + INTRA:          -5.469
REMARK INTER:                  -4.902
REMARK INTRA:                  -0.568
REMARK UNBOUND:                -0.121
REMARK SMILES [NH3+]CCCC[C@@H]([NH3+])C(=O)[O-]
REMARK SMILES IDX 4 1 3 2 2 3 1 4 5 8 6 9 7 10 8 14 9 15 10 16
REMARK H PARENT 1 5 1 6 1 7 7 11 7 12 7 13
REMARK Flexibility Score: inf
ROOT
ATOM      1  C   UNL     1     -36.973  19.744 -28.620  1.00  0.00     0.012 C 
ENDROOT
BRANCH   1   2
ATOM      2  C   UNL     1     -35.878  18.825 -28.065  1.00  0.00     0.061 C 
BRANCH   2   3
ATOM      3  C   UNL     1     -34.762  18.610 -29.095  1.00  0.00     0.258 C 
BRANCH   3   4
ATOM      4  N   UNL     1     -34.971  17.371 -29.843  1.00  0.00    -0.358 N 
ATOM      5  H   UNL     1     -35.171  16.584 -29.185  1.00  0.00     0.344 HD
ATOM      6  H   UNL     1     -35.788  17.493 -30.484  1.00  0.00     0.344 HD
ATOM      7  H   UNL     1     -34.123  17.150 -30.414  1.00  0.00     0.344 HD
ENDBRANCH   3   4
ENDBRANCH   2   3
ENDBRANCH   1   2
BRANCH   1   8
ATOM      8  C   UNL     1     -38.310  18.992 -28.744  1.00  0.00     0.072 C 
BRANCH   8   9
ATOM      9  C   UNL     1     -38.741  18.697 -30.199  1.00  0.00     0.227 C 
BRANCH   9  10
ATOM     10  N   UNL     1     -37.996  19.509 -31.171  1.00  0.00    -0.350 N 
ATOM     11  H   UNL     1     -37.832  20.467 -30.783  1.00  0.00     0.345 HD
ATOM     12  H   UNL     1     -38.558  19.604 -32.049  1.00  0.00     0.345 HD
ATOM     13  H   UNL     1     -37.076  19.074 -31.409  1.00  0.00     0.345 HD
ENDBRANCH   9  10
BRANCH   9  14
ATOM     14  C   UNL     1     -38.638  17.228 -30.520  1.00  0.00     0.099 C 
ATOM     15  O   UNL     1     -37.748  16.527 -29.968  1.00  0.00    -0.544 OA
ATOM     16  O   UNL     1     -39.483  16.642 -31.455  1.00  0.00    -0.544 OA
ENDBRANCH   9  14
ENDBRANCH   8   9
ENDBRANCH   1   8
TORSDOF 7
ENDMDL
MODEL 8
REMARK VINA RESULT:    -3.945     14.666     15.783
REMARK INTER + INTRA:          -5.450
REMARK INTER:                  -4.931
REMARK INTRA:                  -0.519
REMARK UNBOUND:                -0.121
REMARK SMILES [NH3+]CCCC[C@@H]([NH3+])C(=O)[O-]
REMARK SMILES IDX 4 1 3 2 2 3 1 4 5 8 6 9 7 10 8 14 9 15 10 16
REMARK H PARENT 1 5 1 6 1 7 7 11 7 12 7 13
REMARK Flexibility Score: inf
ROOT
ATOM      1  C   UNL     1     -49.126   9.188 -32.282  1.00  0.00     0.012 C 
ENDROOT
BRANCH   1   2
ATOM      2  C   UNL     1     -49.864   7.907 -32.688  1.00  0.00     0.061 C 
BRANCH   2   3
ATOM      3  C   UNL     1     -48.963   6.992 -33.527  1.00  0.00     0.258 C 
BRANCH   3   4
ATOM      4  N   UNL     1     -48.394   5.922 -32.707  1.00  0.00    -0.358 N 
ATOM      5  H   UNL     1     -49.118   5.193 -32.515  1.00  0.00     0.344 HD
ATOM      6  H   UNL     1     -47.598   5.482 -33.224  1.00  0.00     0.344 HD
ATOM      7  H   UNL     1     -48.036   6.314 -31.805  1.00  0.00     0.344 HD
ENDBRANCH   3   4
ENDBRANCH   2   3
ENDBRANCH   1   2
BRANCH   1   8
ATOM      8  C   UNL     1     -48.872   9.217 -30.764  1.00  0.00     0.072 C 
BRANCH   8   9
ATOM      9  C   UNL     1     -47.427   8.851 -30.354  1.00  0.00     0.227 C 
BRANCH   9  10
ATOM     10  N   UNL     1     -46.765   9.944 -29.629  1.00  0.00    -0.350 N 
ATOM     11  H   UNL     1     -46.985  10.859 -30.086  1.00  0.00     0.345 HD
ATOM     12  H   UNL     1     -45.728   9.804 -29.661  1.00  0.00     0.345 HD
ATOM     13  H   UNL     1     -47.066   9.978 -28.629  1.00  0.00     0.345 HD
ENDBRANCH   9  10
BRANCH   9  14
ATOM     14  C   UNL     1     -47.385   7.566 -29.567  1.00  0.00     0.099 C 
ATOM     15  O   UNL     1     -46.457   7.370 -28.738  1.00  0.00    -0.544 OA
ATOM     16  O   UNL     1     -48.332   6.570 -29.778  1.00  0.00    -0.544 OA
ENDBRANCH   9  14
ENDBRANCH   8   9
ENDBRANCH   1   8
TORSDOF 7
ENDMDL
MODEL 9
REMARK VINA RESULT:    -3.787     13.652     14.653
REMARK INTER + INTRA:          -5.236
REMARK INTER:                  -4.760
REMARK INTRA:                  -0.476
REMARK UNBOUND:                -0.121
REMARK SMILES [NH3+]CCCC[C@@H]([NH3+])C(=O)[O-]
REMARK SMILES IDX 4 1 3 2 2 3 1 4 5 8 6 9 7 10 8 14 9 15 10 16
REMARK H PARENT 1 5 1 6 1 7 7 11 7 12 7 13
REMARK Flexibility Score: inf
ROOT
ATOM      1  C   UNL     1     -52.222  14.573 -28.871  1.00  0.00     0.012 C 
ENDROOT
BRANCH   1   2
ATOM      2  C   UNL     1     -50.747  14.155 -28.862  1.00  0.00     0.061 C 
BRANCH   2   3
ATOM      3  C   UNL     1     -50.202  14.018 -30.290  1.00  0.00     0.258 C 
BRANCH   3   4
ATOM      4  N   UNL     1     -49.623  15.279 -30.753  1.00  0.00    -0.358 N 
ATOM      5  H   UNL     1     -50.257  15.729 -31.453  1.00  0.00     0.344 HD
ATOM      6  H   UNL     1     -49.509  15.923 -29.937  1.00  0.00     0.344 HD
ATOM      7  H   UNL     1     -48.684  15.106 -31.182  1.00  0.00     0.344 HD
ENDBRANCH   3   4
ENDBRANCH   2   3
ENDBRANCH   1   2
BRANCH   1   8
ATOM      8  C   UNL     1     -52.408  15.940 -28.190  1.00  0.00     0.072 C 
BRANCH   8   9
ATOM      9  C   UNL     1     -53.160  16.982 -29.050  1.00  0.00     0.227 C 
BRANCH   9  10
ATOM     10  N   UNL     1     -53.591  18.144 -28.259  1.00  0.00    -0.350 N 
ATOM     11  H   UNL     1     -53.397  17.975 -27.245  1.00  0.00     0.345 HD
ATOM     12  H   UNL     1     -54.622  18.281 -28.376  1.00  0.00     0.345 HD
ATOM     13  H   UNL     1     -53.101  19.016 -28.561  1.00  0.00     0.345 HD
ENDBRANCH   9  10
BRANCH   9  14
ATOM     14  C   UNL     1     -52.344  17.406 -30.245  1.00  0.00     0.099 C 
ATOM     15  O   UNL     1     -51.182  17.863 -30.080  1.00  0.00    -0.544 OA
ATOM     16  O   UNL     1     -52.876  17.343 -31.528  1.00  0.00    -0.544 OA
ENDBRANCH   9  14
ENDBRANCH   8   9
ENDBRANCH   1   8
TORSDOF 7
ENDMDL
