MODEL 1
REMARK VINA RESULT:    -5.868      0.000      0.000
REMARK INTER + INTRA:          -7.951
REMARK INTER:                  -7.240
REMARK INTRA:                  -0.711
REMARK UNBOUND:                -0.711
REMARK SMILES CC(C)=CCC[C@@H](C)c1ccc(C)cc1
REMARK SMILES IDX 6 1 7 2 8 3 9 4 13 5 12 6 11 7 14 8 10 9 15 10 5 11 4 12
REMARK SMILES IDX 2 13 1 14 3 15
REMARK H PARENT
REMARK Flexibility Score: inf
ROOT
ATOM      1  C   UNL     1     162.459 173.419 139.059  1.00  0.00     0.012 C 
ENDROOT
BRANCH   1   2
ATOM      2  C   UNL     1     163.465 174.461 138.515  1.00  0.00     0.016 C 
ATOM      3  C   UNL     1     164.883 174.259 139.070  1.00  0.00     0.013 C 
BRANCH   2   4
ATOM      4  C   UNL     1     163.482 174.430 136.996  1.00  0.00    -0.045 A 
ATOM      5  C   UNL     1     163.507 174.361 132.678  1.00  0.00     0.044 C 
ATOM      6  C   UNL     1     163.481 174.359 134.177  1.00  0.00    -0.051 A 
ATOM      7  C   UNL     1     162.493 175.076 134.868  1.00  0.00     0.004 A 
ATOM      8  C   UNL     1     164.482 173.696 134.901  1.00  0.00     0.004 A 
ATOM      9  C   UNL     1     162.489 175.105 136.265  1.00  0.00     0.004 A 
ATOM     10  C   UNL     1     164.480 173.724 136.298  1.00  0.00     0.004 A 
ENDBRANCH   2   4
ENDBRANCH   1   2
BRANCH   1  11
ATOM     11  C   UNL     1     163.113 172.095 139.506  1.00  0.00     0.028 C 
BRANCH  11  12
ATOM     12  C   UNL     1     162.903 171.818 140.976  1.00  0.00    -0.028 C 
ATOM     13  C   UNL     1     163.886 171.475 141.838  1.00  0.00    -0.080 C 
ATOM     14  C   UNL     1     163.526 171.246 143.283  1.00  0.00     0.039 C 
ATOM     15  C   UNL     1     165.317 171.284 141.388  1.00  0.00     0.039 C 
ENDBRANCH  11  12
ENDBRANCH   1  11
TORSDOF 4
ENDMDL
MODEL 2
REMARK VINA RESULT:    -5.422     10.276     11.907
REMARK INTER + INTRA:          -7.401
REMARK INTER:                  -5.901
REMARK INTRA:                  -1.500
REMARK UNBOUND:                -0.711
REMARK SMILES CC(C)=CCC[C@@H](C)c1ccc(C)cc1
REMARK SMILES IDX 6 1 7 2 8 3 9 4 13 5 12 6 11 7 14 8 10 9 15 10 5 11 4 12
REMARK SMILES IDX 2 13 1 14 3 15
REMARK H PARENT
REMARK Flexibility Score: inf
ROOT
ATOM      1  C   UNL     1     160.344 162.292 133.014  1.00  0.00     0.012 C 
ENDROOT
BRANCH   1   2
ATOM      2  C   UNL     1     161.031 161.497 134.151  1.00  0.00     0.016 C 
ATOM      3  C   UNL     1     161.481 160.097 133.703  1.00  0.00     0.013 C 
BRANCH   2   4
ATOM      4  C   UNL     1     162.210 162.280 134.700  1.00  0.00    -0.045 A 
ATOM      5  C   UNL     1     165.575 164.513 136.234  1.00  0.00     0.044 C 
ATOM      6  C   UNL     1     164.421 163.711 135.709  1.00  0.00    -0.051 A 
ATOM      7  C   UNL     1     164.365 163.358 134.353  1.00  0.00     0.004 A 
ATOM      8  C   UNL     1     163.357 163.366 136.554  1.00  0.00     0.004 A 
ATOM      9  C   UNL     1     163.273 162.643 133.855  1.00  0.00     0.004 A 
ATOM     10  C   UNL     1     162.264 162.650 136.058  1.00  0.00     0.004 A 
ENDBRANCH   2   4
ENDBRANCH   1   2
BRANCH   1  11
ATOM     11  C   UNL     1     159.923 163.719 133.418  1.00  0.00     0.028 C 
BRANCH  11  12
ATOM     12  C   UNL     1     160.546 164.773 132.535  1.00  0.00    -0.028 C 
ATOM     13  C   UNL     1     161.332 165.778 132.982  1.00  0.00    -0.080 C 
ATOM     14  C   UNL     1     161.899 166.748 131.977  1.00  0.00     0.039 C 
ATOM     15  C   UNL     1     161.627 165.974 134.451  1.00  0.00     0.039 C 
ENDBRANCH  11  12
ENDBRANCH   1  11
TORSDOF 4
ENDMDL
MODEL 3
REMARK VINA RESULT:    -5.393     10.042     11.129
REMARK INTER + INTRA:          -7.365
REMARK INTER:                  -5.900
REMARK INTRA:                  -1.466
REMARK UNBOUND:                -0.711
REMARK SMILES CC(C)=CCC[C@@H](C)c1ccc(C)cc1
REMARK SMILES IDX 6 1 7 2 8 3 9 4 13 5 12 6 11 7 14 8 10 9 15 10 5 11 4 12
REMARK SMILES IDX 2 13 1 14 3 15
REMARK H PARENT
REMARK Flexibility Score: inf
ROOT
ATOM      1  C   UNL     1     163.261 166.050 134.270  1.00  0.00     0.012 C 
ENDROOT
BRANCH   1   2
ATOM      2  C   UNL     1     161.839 166.164 133.669  1.00  0.00     0.016 C 
ATOM      3  C   UNL     1     161.858 166.432 132.156  1.00  0.00     0.013 C 
BRANCH   2   4
ATOM      4  C   UNL     1     161.039 164.910 133.975  1.00  0.00    -0.045 A 
ATOM      5  C   UNL     1     158.764 161.336 134.813  1.00  0.00     0.044 C 
ATOM      6  C   UNL     1     159.527 162.593 134.523  1.00  0.00    -0.051 A 
ATOM      7  C   UNL     1     159.764 162.988 133.199  1.00  0.00     0.004 A 
ATOM      8  C   UNL     1     160.069 163.349 135.572  1.00  0.00     0.004 A 
ATOM      9  C   UNL     1     160.506 164.140 132.926  1.00  0.00     0.004 A 
ATOM     10  C   UNL     1     160.812 164.502 135.303  1.00  0.00     0.004 A 
ENDBRANCH   2   4
ENDBRANCH   1   2
BRANCH   1  11
ATOM     11  C   UNL     1     164.067 164.846 133.744  1.00  0.00     0.028 C 
BRANCH  11  12
ATOM     12  C   UNL     1     164.606 163.983 134.860  1.00  0.00    -0.028 C 
ATOM     13  C   UNL     1     164.259 162.693 135.066  1.00  0.00    -0.080 C 
ATOM     14  C   UNL     1     164.894 161.953 136.214  1.00  0.00     0.039 C 
ATOM     15  C   UNL     1     163.235 161.990 134.204  1.00  0.00     0.039 C 
ENDBRANCH  11  12
ENDBRANCH   1  11
TORSDOF 4
ENDMDL
MODEL 4
REMARK VINA RESULT:    -5.267     10.228     10.988
REMARK INTER + INTRA:          -7.210
REMARK INTER:                  -5.794
REMARK INTRA:                  -1.416
REMARK UNBOUND:                -0.711
REMARK SMILES CC(C)=CCC[C@@H](C)c1ccc(C)cc1
REMARK SMILES IDX 6 1 7 2 8 3 9 4 13 5 12 6 11 7 14 8 10 9 15 10 5 11 4 12
REMARK SMILES IDX 2 13 1 14 3 15
REMARK H PARENT
REMARK Flexibility Score: inf
ROOT
ATOM      1  C   UNL     1     162.347 166.045 134.780  1.00  0.00     0.012 C 
ENDROOT
BRANCH   1   2
ATOM      2  C   UNL     1     161.448 165.791 133.546  1.00  0.00     0.016 C 
ATOM      3  C   UNL     1     161.933 166.546 132.298  1.00  0.00     0.013 C 
BRANCH   2   4
ATOM      4  C   UNL     1     161.359 164.302 133.261  1.00  0.00    -0.045 A 
ATOM      5  C   UNL     1     161.077 160.071 132.437  1.00  0.00     0.044 C 
ATOM      6  C   UNL     1     161.165 161.535 132.752  1.00  0.00    -0.051 A 
ATOM      7  C   UNL     1     160.078 162.381 132.491  1.00  0.00     0.004 A 
ATOM      8  C   UNL     1     162.358 162.081 133.247  1.00  0.00     0.004 A 
ATOM      9  C   UNL     1     160.171 163.751 132.751  1.00  0.00     0.004 A 
ATOM     10  C   UNL     1     162.453 163.450 133.507  1.00  0.00     0.004 A 
ENDBRANCH   2   4
ENDBRANCH   1   2
BRANCH   1  11
ATOM     11  C   UNL     1     161.592 165.988 136.124  1.00  0.00     0.028 C 
BRANCH  11  12
ATOM     12  C   UNL     1     161.864 164.711 136.881  1.00  0.00    -0.028 C 
ATOM     13  C   UNL     1     160.989 163.686 136.991  1.00  0.00    -0.080 C 
ATOM     14  C   UNL     1     161.408 162.464 137.767  1.00  0.00     0.039 C 
ATOM     15  C   UNL     1     159.603 163.745 136.390  1.00  0.00     0.039 C 
ENDBRANCH  11  12
ENDBRANCH   1  11
TORSDOF 4
ENDMDL
MODEL 5
REMARK VINA RESULT:    -5.148      9.389     10.619
REMARK INTER + INTRA:          -7.064
REMARK INTER:                  -5.567
REMARK INTRA:                  -1.497
REMARK UNBOUND:                -0.711
REMARK SMILES CC(C)=CCC[C@@H](C)c1ccc(C)cc1
REMARK SMILES IDX 6 1 7 2 8 3 9 4 13 5 12 6 11 7 14 8 10 9 15 10 5 11 4 12
REMARK SMILES IDX 2 13 1 14 3 15
REMARK H PARENT
REMARK Flexibility Score: inf
ROOT
ATOM      1  C   UNL     1     160.410 164.368 132.782  1.00  0.00     0.012 C 
ENDROOT
BRANCH   1   2
ATOM      2  C   UNL     1     161.601 165.349 132.661  1.00  0.00     0.016 C 
ATOM      3  C   UNL     1     161.173 166.740 132.169  1.00  0.00     0.013 C 
BRANCH   2   4
ATOM      4  C   UNL     1     162.327 165.459 133.991  1.00  0.00    -0.045 A 
ATOM      5  C   UNL     1     164.417 165.771 137.758  1.00  0.00     0.044 C 
ATOM      6  C   UNL     1     163.688 165.632 136.455  1.00  0.00    -0.051 A 
ATOM      7  C   UNL     1     164.401 165.429 135.264  1.00  0.00     0.004 A 
ATOM      8  C   UNL     1     162.294 165.770 136.406  1.00  0.00     0.004 A 
ATOM      9  C   UNL     1     163.726 165.336 134.044  1.00  0.00     0.004 A 
ATOM     10  C   UNL     1     161.617 165.677 135.187  1.00  0.00     0.004 A 
ENDBRANCH   2   4
ENDBRANCH   1   2
BRANCH   1  11
ATOM     11  C   UNL     1     160.826 162.886 132.861  1.00  0.00     0.028 C 
BRANCH  11  12
ATOM     12  C   UNL     1     160.526 162.275 134.208  1.00  0.00    -0.028 C 
ATOM     13  C   UNL     1     161.465 161.848 135.082  1.00  0.00    -0.080 C 
ATOM     14  C   UNL     1     161.013 161.274 136.399  1.00  0.00     0.039 C 
ATOM     15  C   UNL     1     162.941 161.898 134.760  1.00  0.00     0.039 C 
ENDBRANCH  11  12
ENDBRANCH   1  11
TORSDOF 4
ENDMDL
MODEL 6
REMARK VINA RESULT:    -5.139      2.233      6.383
REMARK INTER + INTRA:          -7.052
REMARK INTER:                  -6.396
REMARK INTRA:                  -0.656
REMARK UNBOUND:                -0.711
REMARK SMILES CC(C)=CCC[C@@H](C)c1ccc(C)cc1
REMARK SMILES IDX 6 1 7 2 8 3 9 4 13 5 12 6 11 7 14 8 10 9 15 10 5 11 4 12
REMARK SMILES IDX 2 13 1 14 3 15
REMARK H PARENT
REMARK Flexibility Score: inf
ROOT
ATOM      1  C   UNL     1     164.130 173.383 139.122  1.00  0.00     0.012 C 
ENDROOT
BRANCH   1   2
ATOM      2  C   UNL     1     163.044 172.631 139.928  1.00  0.00     0.016 C 
ATOM      3  C   UNL     1     161.619 173.048 139.529  1.00  0.00     0.013 C 
BRANCH   2   4
ATOM      4  C   UNL     1     163.219 171.131 139.772  1.00  0.00    -0.045 A 
ATOM      5  C   UNL     1     163.749 166.868 139.325  1.00  0.00     0.044 C 
ATOM      6  C   UNL     1     163.557 168.350 139.450  1.00  0.00    -0.051 A 
ATOM      7  C   UNL     1     164.642 169.221 139.272  1.00  0.00     0.004 A 
ATOM      8  C   UNL     1     162.308 168.873 139.812  1.00  0.00     0.004 A 
ATOM      9  C   UNL     1     164.473 170.599 139.424  1.00  0.00     0.004 A 
ATOM     10  C   UNL     1     162.137 170.252 139.964  1.00  0.00     0.004 A 
ENDBRANCH   2   4
ENDBRANCH   1   2
BRANCH   1  11
ATOM     11  C   UNL     1     163.569 174.262 137.986  1.00  0.00     0.028 C 
BRANCH  11  12
ATOM     12  C   UNL     1     164.239 173.986 136.661  1.00  0.00    -0.028 C 
ATOM     13  C   UNL     1     163.754 174.379 135.462  1.00  0.00    -0.080 C 
ATOM     14  C   UNL     1     164.545 174.045 134.224  1.00  0.00     0.039 C 
ATOM     15  C   UNL     1     162.436 175.107 135.329  1.00  0.00     0.039 C 
ENDBRANCH  11  12
ENDBRANCH   1  11
TORSDOF 4
ENDMDL
MODEL 7
REMARK VINA RESULT:    -5.123      9.420     10.419
REMARK INTER + INTRA:          -7.032
REMARK INTER:                  -5.724
REMARK INTRA:                  -1.308
REMARK UNBOUND:                -0.711
REMARK SMILES CC(C)=CCC[C@@H](C)c1ccc(C)cc1
REMARK SMILES IDX 6 1 7 2 8 3 9 4 13 5 12 6 11 7 14 8 10 9 15 10 5 11 4 12
REMARK SMILES IDX 2 13 1 14 3 15
REMARK H PARENT
REMARK Flexibility Score: inf
ROOT
ATOM      1  C   UNL     1     161.860 162.021 136.087  1.00  0.00     0.012 C 
ENDROOT
BRANCH   1   2
ATOM      2  C   UNL     1     161.106 163.344 136.367  1.00  0.00     0.016 C 
ATOM      3  C   UNL     1     161.705 164.126 137.547  1.00  0.00     0.013 C 
BRANCH   2   4
ATOM      4  C   UNL     1     161.082 164.208 135.118  1.00  0.00    -0.045 A 
ATOM      5  C   UNL     1     161.029 166.688 131.582  1.00  0.00     0.044 C 
ATOM      6  C   UNL     1     161.019 165.836 132.816  1.00  0.00    -0.051 A 
ATOM      7  C   UNL     1     161.516 166.340 134.027  1.00  0.00     0.004 A 
ATOM      8  C   UNL     1     160.575 164.508 132.756  1.00  0.00     0.004 A 
ATOM      9  C   UNL     1     161.540 165.536 135.170  1.00  0.00     0.004 A 
ATOM     10  C   UNL     1     160.599 163.702 133.897  1.00  0.00     0.004 A 
ENDBRANCH   2   4
ENDBRANCH   1   2
BRANCH   1  11
ATOM     11  C   UNL     1     163.388 162.187 135.964  1.00  0.00     0.028 C 
BRANCH  11  12
ATOM     12  C   UNL     1     163.801 162.715 134.611  1.00  0.00    -0.028 C 
ATOM     13  C   UNL     1     164.531 163.837 134.417  1.00  0.00    -0.080 C 
ATOM     14  C   UNL     1     164.882 164.230 133.006  1.00  0.00     0.039 C 
ATOM     15  C   UNL     1     164.971 164.716 135.566  1.00  0.00     0.039 C 
ENDBRANCH  11  12
ENDBRANCH   1  11
TORSDOF 4
ENDMDL
MODEL 8
REMARK VINA RESULT:    -5.057      9.816     10.821
REMARK INTER + INTRA:          -6.951
REMARK INTER:                  -5.465
REMARK INTRA:                  -1.485
REMARK UNBOUND:                -0.711
REMARK SMILES CC(C)=CCC[C@@H](C)c1ccc(C)cc1
REMARK SMILES IDX 6 1 7 2 8 3 9 4 13 5 12 6 11 7 14 8 10 9 15 10 5 11 4 12
REMARK SMILES IDX 2 13 1 14 3 15
REMARK H PARENT
REMARK Flexibility Score: inf
ROOT
ATOM      1  C   UNL     1     163.856 162.424 136.089  1.00  0.00     0.012 C 
ENDROOT
BRANCH   1   2
ATOM      2  C   UNL     1     164.012 163.949 136.305  1.00  0.00     0.016 C 
ATOM      3  C   UNL     1     165.483 164.385 136.386  1.00  0.00     0.013 C 
BRANCH   2   4
ATOM      4  C   UNL     1     163.295 164.710 135.204  1.00  0.00    -0.045 A 
ATOM      5  C   UNL     1     161.270 166.858 132.051  1.00  0.00     0.044 C 
ATOM      6  C   UNL     1     161.993 166.136 133.148  1.00  0.00    -0.051 A 
ATOM      7  C   UNL     1     163.036 165.250 132.845  1.00  0.00     0.004 A 
ATOM      8  C   UNL     1     161.587 166.289 134.482  1.00  0.00     0.004 A 
ATOM      9  C   UNL     1     163.687 164.549 133.863  1.00  0.00     0.004 A 
ATOM     10  C   UNL     1     162.236 165.588 135.502  1.00  0.00     0.004 A 
ENDBRANCH   2   4
ENDBRANCH   1   2
BRANCH   1  11
ATOM     11  C   UNL     1     162.397 161.968 135.885  1.00  0.00     0.028 C 
BRANCH  11  12
ATOM     12  C   UNL     1     162.175 161.341 134.529  1.00  0.00    -0.028 C 
ATOM     13  C   UNL     1     161.233 161.742 133.646  1.00  0.00    -0.080 C 
ATOM     14  C   UNL     1     161.142 161.029 132.322  1.00  0.00     0.039 C 
ATOM     15  C   UNL     1     160.256 162.851 133.963  1.00  0.00     0.039 C 
ENDBRANCH  11  12
ENDBRANCH   1  11
TORSDOF 4
ENDMDL
MODEL 9
REMARK VINA RESULT:    -5.017     10.435     11.541
REMARK INTER + INTRA:          -6.901
REMARK INTER:                  -6.154
REMARK INTRA:                  -0.747
REMARK UNBOUND:                -0.711
REMARK SMILES CC(C)=CCC[C@@H](C)c1ccc(C)cc1
REMARK SMILES IDX 6 1 7 2 8 3 9 4 13 5 12 6 11 7 14 8 10 9 15 10 5 11 4 12
REMARK SMILES IDX 2 13 1 14 3 15
REMARK H PARENT
REMARK Flexibility Score: inf
ROOT
ATOM      1  C   UNL     1     160.311 164.223 133.131  1.00  0.00     0.012 C 
ENDROOT
BRANCH   1   2
ATOM      2  C   UNL     1     161.485 165.154 132.741  1.00  0.00     0.016 C 
ATOM      3  C   UNL     1     161.050 166.619 132.588  1.00  0.00     0.013 C 
BRANCH   2   4
ATOM      4  C   UNL     1     162.606 165.039 133.760  1.00  0.00    -0.045 A 
ATOM      5  C   UNL     1     165.776 164.726 136.677  1.00  0.00     0.044 C 
ATOM      6  C   UNL     1     164.689 164.860 135.653  1.00  0.00    -0.051 A 
ATOM      7  C   UNL     1     163.515 165.565 135.955  1.00  0.00     0.004 A 
ATOM      8  C   UNL     1     164.807 164.225 134.408  1.00  0.00     0.004 A 
ATOM      9  C   UNL     1     162.486 165.661 135.015  1.00  0.00     0.004 A 
ATOM     10  C   UNL     1     163.780 164.319 133.466  1.00  0.00     0.004 A 
ENDBRANCH   2   4
ENDBRANCH   1   2
BRANCH   1  11
ATOM     11  C   UNL     1     160.423 162.800 132.550  1.00  0.00     0.028 C 
BRANCH  11  12
ATOM     12  C   UNL     1     160.914 161.799 133.569  1.00  0.00    -0.028 C 
ATOM     13  C   UNL     1     161.180 160.501 133.300  1.00  0.00    -0.080 C 
ATOM     14  C   UNL     1     161.681 159.625 134.418  1.00  0.00     0.039 C 
ATOM     15  C   UNL     1     160.957 159.903 131.930  1.00  0.00     0.039 C 
ENDBRANCH  11  12
ENDBRANCH   1  11
TORSDOF 4
ENDMDL
