MODEL 1
REMARK VINA RESULT:    -7.196      0.000      0.000
REMARK INTER + INTRA:          -7.827
REMARK INTER:                  -7.827
REMARK INTRA:                   0.000
REMARK UNBOUND:                 0.000
REMARK SMILES Cc1cc(O)c2c(c1)C(=O)c1cc(O)cc(O)c1C2=O
REMARK SMILES IDX 1 1 2 2 8 3 7 4 6 5 4 6 3 7 19 8 20 9 18 10 11 11 9 12 10 13
REMARK SMILES IDX 12 14 13 15 15 16 16 17 5 18 17 20 14 22
REMARK H PARENT 5 19 17 21 14 23
REMARK Flexibility Score: inf
ROOT
ATOM      1  C   UNL     1       5.791   5.693 -22.246  1.00  0.00     0.044 C 
ATOM      2  C   UNL     1       5.324   4.534 -23.076  1.00  0.00    -0.047 A 
ATOM      3  C   UNL     1       5.139   3.277 -22.490  1.00  0.00     0.016 A 
ATOM      4  C   UNL     1       4.729   2.179 -23.266  1.00  0.00     0.038 A 
ATOM      5  C   UNL     1       4.501   2.342 -24.651  1.00  0.00     0.076 A 
ATOM      6  C   UNL     1       4.771   3.597 -25.253  1.00  0.00     0.127 A 
ATOM      7  C   UNL     1       5.157   4.681 -24.458  1.00  0.00     0.050 A 
ATOM      8  C   UNL     1       3.927   1.198 -25.406  1.00  0.00     0.201 C 
ATOM      9  O   UNL     1       3.198   1.414 -26.410  1.00  0.00    -0.288 OA
ATOM     10  C   UNL     1       4.060  -0.182 -24.871  1.00  0.00     0.076 A 
ATOM     11  C   UNL     1       4.291  -0.340 -23.486  1.00  0.00     0.041 A 
ATOM     12  C   UNL     1       4.545   0.849 -22.638  1.00  0.00     0.194 C 
ATOM     13  O   UNL     1       4.626   0.724 -21.385  1.00  0.00    -0.289 OA
ATOM     14  C   UNL     1       4.286  -1.626 -22.919  1.00  0.00     0.059 A 
ATOM     15  C   UNL     1       4.068  -2.751 -23.715  1.00  0.00     0.120 A 
ATOM     16  C   UNL     1       3.878  -2.602 -25.091  1.00  0.00     0.093 A 
ATOM     17  C   UNL     1       3.900  -1.335 -25.683  1.00  0.00     0.131 A 
ENDROOT
BRANCH   6  18
ATOM     18  O   UNL     1       4.703   3.802 -26.633  1.00  0.00    -0.507 OA
ATOM     19  H   UNL     1       4.625   3.051 -27.306  1.00  0.00     0.293 HD
ENDBRANCH   6  18
BRANCH  17  20
ATOM     20  O   UNL     1       3.795  -1.271 -27.074  1.00  0.00    -0.507 OA
ATOM     21  H   UNL     1       3.166  -1.847 -27.615  1.00  0.00     0.293 HD
ENDBRANCH  17  20
BRANCH  15  22
ATOM     22  O   UNL     1       4.053  -4.015 -23.129  1.00  0.00    -0.508 OA
ATOM     23  H   UNL     1       3.999  -4.132 -22.124  1.00  0.00     0.293 HD
ENDBRANCH  15  22
TORSDOF 3
ENDMDL
MODEL 2
REMARK VINA RESULT:    -6.909      3.358      4.275
REMARK INTER + INTRA:          -7.514
REMARK INTER:                  -7.514
REMARK INTRA:                   0.000
REMARK UNBOUND:                 0.000
REMARK SMILES Cc1cc(O)c2c(c1)C(=O)c1cc(O)cc(O)c1C2=O
REMARK SMILES IDX 1 1 2 2 8 3 7 4 6 5 4 6 3 7 19 8 20 9 18 10 11 11 9 12 10 13
REMARK SMILES IDX 12 14 13 15 15 16 16 17 5 18 17 20 14 22
REMARK H PARENT 5 19 17 21 14 23
REMARK Flexibility Score: inf
ROOT
ATOM      1  C   UNL     1       2.195   3.511 -28.111  1.00  0.00     0.044 C 
ATOM      2  C   UNL     1       2.674   2.224 -27.507  1.00  0.00    -0.047 A 
ATOM      3  C   UNL     1       1.758   1.321 -26.957  1.00  0.00     0.016 A 
ATOM      4  C   UNL     1       2.199   0.126 -26.363  1.00  0.00     0.038 A 
ATOM      5  C   UNL     1       3.580  -0.169 -26.318  1.00  0.00     0.076 A 
ATOM      6  C   UNL     1       4.508   0.789 -26.802  1.00  0.00     0.127 A 
ATOM      7  C   UNL     1       4.044   1.961 -27.408  1.00  0.00     0.050 A 
ATOM      8  C   UNL     1       3.997  -1.505 -25.818  1.00  0.00     0.201 C 
ATOM      9  O   UNL     1       5.050  -2.038 -26.259  1.00  0.00    -0.288 OA
ATOM     10  C   UNL     1       3.080  -2.286 -24.947  1.00  0.00     0.076 A 
ATOM     11  C   UNL     1       1.700  -1.985 -24.992  1.00  0.00     0.041 A 
ATOM     12  C   UNL     1       1.222  -0.821 -25.775  1.00  0.00     0.194 C 
ATOM     13  O   UNL     1      -0.016  -0.624 -25.920  1.00  0.00    -0.289 OA
ATOM     14  C   UNL     1       0.787  -2.789 -24.289  1.00  0.00     0.059 A 
ATOM     15  C   UNL     1       1.232  -3.874 -23.534  1.00  0.00     0.120 A 
ATOM     16  C   UNL     1       2.599  -4.151 -23.454  1.00  0.00     0.093 A 
ATOM     17  C   UNL     1       3.530  -3.354 -24.127  1.00  0.00     0.131 A 
ENDROOT
BRANCH   6  18
ATOM     18  O   UNL     1       5.890   0.635 -26.670  1.00  0.00    -0.507 OA
ATOM     19  H   UNL     1       6.517   1.394 -26.441  1.00  0.00     0.293 HD
ENDBRANCH   6  18
BRANCH  17  20
ATOM     20  O   UNL     1       4.884  -3.635 -23.928  1.00  0.00    -0.507 OA
ATOM     21  H   UNL     1       5.296  -4.544 -24.081  1.00  0.00     0.293 HD
ENDBRANCH  17  20
BRANCH  15  22
ATOM     22  O   UNL     1       0.307  -4.666 -22.856  1.00  0.00    -0.508 OA
ATOM     23  H   UNL     1      -0.637  -4.343 -22.679  1.00  0.00     0.293 HD
ENDBRANCH  15  22
TORSDOF 3
ENDMDL
MODEL 3
REMARK VINA RESULT:    -6.698      1.456      5.490
REMARK INTER + INTRA:          -7.285
REMARK INTER:                  -7.285
REMARK INTRA:                   0.000
REMARK UNBOUND:                 0.000
REMARK SMILES Cc1cc(O)c2c(c1)C(=O)c1cc(O)cc(O)c1C2=O
REMARK SMILES IDX 1 1 2 2 8 3 7 4 6 5 4 6 3 7 19 8 20 9 18 10 11 11 9 12 10 13
REMARK SMILES IDX 12 14 13 15 15 16 16 17 5 18 17 20 14 22
REMARK H PARENT 5 19 17 21 14 23
REMARK Flexibility Score: inf
ROOT
ATOM      1  C   UNL     1       2.126  -3.899 -22.540  1.00  0.00     0.044 C 
ATOM      2  C   UNL     1       2.683  -2.702 -23.252  1.00  0.00    -0.047 A 
ATOM      3  C   UNL     1       3.212  -1.632 -22.523  1.00  0.00     0.016 A 
ATOM      4  C   UNL     1       3.710  -0.494 -23.180  1.00  0.00     0.038 A 
ATOM      5  C   UNL     1       3.677  -0.426 -24.591  1.00  0.00     0.076 A 
ATOM      6  C   UNL     1       3.064  -1.477 -25.320  1.00  0.00     0.127 A 
ATOM      7  C   UNL     1       2.595  -2.608 -24.645  1.00  0.00     0.050 A 
ATOM      8  C   UNL     1       4.346   0.724 -25.254  1.00  0.00     0.201 C 
ATOM      9  O   UNL     1       4.847   0.580 -26.401  1.00  0.00    -0.288 OA
ATOM     10  C   UNL     1       4.586   1.977 -24.493  1.00  0.00     0.076 A 
ATOM     11  C   UNL     1       4.615   1.906 -23.082  1.00  0.00     0.041 A 
ATOM     12  C   UNL     1       4.261   0.639 -22.398  1.00  0.00     0.194 C 
ATOM     13  O   UNL     1       4.406   0.534 -21.150  1.00  0.00    -0.289 OA
ATOM     14  C   UNL     1       4.974   3.039 -22.332  1.00  0.00     0.059 A 
ATOM     15  C   UNL     1       5.289   4.240 -22.969  1.00  0.00     0.120 A 
ATOM     16  C   UNL     1       5.223   4.326 -24.361  1.00  0.00     0.093 A 
ATOM     17  C   UNL     1       4.848   3.219 -25.129  1.00  0.00     0.131 A 
ENDROOT
BRANCH   6  18
ATOM     18  O   UNL     1       2.868  -1.423 -26.702  1.00  0.00    -0.507 OA
ATOM     19  H   UNL     1       2.435  -0.641 -27.174  1.00  0.00     0.293 HD
ENDBRANCH   6  18
BRANCH  17  20
ATOM     20  O   UNL     1       4.715   3.405 -26.508  1.00  0.00    -0.507 OA
ATOM     21  H   UNL     1       5.028   4.233 -26.993  1.00  0.00     0.293 HD
ENDBRANCH  17  20
BRANCH  15  22
ATOM     22  O   UNL     1       5.655   5.346 -22.205  1.00  0.00    -0.508 OA
ATOM     23  H   UNL     1       5.118   6.205 -22.226  1.00  0.00     0.293 HD
ENDBRANCH  15  22
TORSDOF 3
ENDMDL
MODEL 4
REMARK VINA RESULT:    -6.588      1.771      3.563
REMARK INTER + INTRA:          -7.165
REMARK INTER:                  -7.165
REMARK INTRA:                   0.000
REMARK UNBOUND:                 0.000
REMARK SMILES Cc1cc(O)c2c(c1)C(=O)c1cc(O)cc(O)c1C2=O
REMARK SMILES IDX 1 1 2 2 8 3 7 4 6 5 4 6 3 7 19 8 20 9 18 10 11 11 9 12 10 13
REMARK SMILES IDX 12 14 13 15 15 16 16 17 5 18 17 20 14 22
REMARK H PARENT 5 19 17 21 14 23
REMARK Flexibility Score: inf
ROOT
ATOM      1  C   UNL     1       4.001   7.610 -25.671  1.00  0.00     0.044 C 
ATOM      2  C   UNL     1       4.119   6.256 -25.038  1.00  0.00    -0.047 A 
ATOM      3  C   UNL     1       4.441   5.139 -25.818  1.00  0.00     0.016 A 
ATOM      4  C   UNL     1       4.526   3.861 -25.238  1.00  0.00     0.038 A 
ATOM      5  C   UNL     1       4.285   3.699 -23.856  1.00  0.00     0.076 A 
ATOM      6  C   UNL     1       3.878   4.820 -23.088  1.00  0.00     0.127 A 
ATOM      7  C   UNL     1       3.821   6.085 -23.682  1.00  0.00     0.050 A 
ATOM      8  C   UNL     1       4.530   2.362 -23.253  1.00  0.00     0.201 C 
ATOM      9  O   UNL     1       4.890   2.275 -22.049  1.00  0.00    -0.288 OA
ATOM     10  C   UNL     1       4.531   1.152 -24.116  1.00  0.00     0.076 A 
ATOM     11  C   UNL     1       4.769   1.320 -25.499  1.00  0.00     0.041 A 
ATOM     12  C   UNL     1       4.859   2.683 -26.074  1.00  0.00     0.194 C 
ATOM     13  O   UNL     1       5.195   2.838 -27.280  1.00  0.00    -0.289 OA
ATOM     14  C   UNL     1       4.914   0.192 -26.324  1.00  0.00     0.059 A 
ATOM     15  C   UNL     1       4.811  -1.094 -25.793  1.00  0.00     0.120 A 
ATOM     16  C   UNL     1       4.536  -1.264 -24.434  1.00  0.00     0.093 A 
ATOM     17  C   UNL     1       4.367  -0.158 -23.595  1.00  0.00     0.131 A 
ENDROOT
BRANCH   6  18
ATOM     18  O   UNL     1       3.489   4.718 -21.750  1.00  0.00    -0.507 OA
ATOM     19  H   UNL     1       4.139   4.571 -20.989  1.00  0.00     0.293 HD
ENDBRANCH   6  18
BRANCH  17  20
ATOM     20  O   UNL     1       4.003  -0.403 -22.268  1.00  0.00    -0.507 OA
ATOM     21  H   UNL     1       4.099  -1.303 -21.820  1.00  0.00     0.293 HD
ENDBRANCH  17  20
BRANCH  15  22
ATOM     22  O   UNL     1       4.972  -2.197 -26.628  1.00  0.00    -0.508 OA
ATOM     23  H   UNL     1       4.177  -2.727 -26.965  1.00  0.00     0.293 HD
ENDBRANCH  15  22
TORSDOF 3
ENDMDL
MODEL 5
REMARK VINA RESULT:    -6.330      3.990      4.911
REMARK INTER + INTRA:          -6.885
REMARK INTER:                  -6.885
REMARK INTRA:                   0.000
REMARK UNBOUND:                 0.000
REMARK SMILES Cc1cc(O)c2c(c1)C(=O)c1cc(O)cc(O)c1C2=O
REMARK SMILES IDX 1 1 2 2 8 3 7 4 6 5 4 6 3 7 19 8 20 9 18 10 11 11 9 12 10 13
REMARK SMILES IDX 12 14 13 15 15 16 16 17 5 18 17 20 14 22
REMARK H PARENT 5 19 17 21 14 23
REMARK Flexibility Score: inf
ROOT
ATOM      1  C   UNL     1      -1.910   1.985 -27.781  1.00  0.00     0.044 C 
ATOM      2  C   UNL     1      -0.624   1.273 -27.483  1.00  0.00    -0.047 A 
ATOM      3  C   UNL     1      -0.616   0.157 -26.638  1.00  0.00     0.016 A 
ATOM      4  C   UNL     1       0.587  -0.500 -26.330  1.00  0.00     0.038 A 
ATOM      5  C   UNL     1       1.804  -0.031 -26.876  1.00  0.00     0.076 A 
ATOM      6  C   UNL     1       1.800   1.148 -27.664  1.00  0.00     0.127 A 
ATOM      7  C   UNL     1       0.587   1.772 -27.974  1.00  0.00     0.050 A 
ATOM      8  C   UNL     1       3.031  -0.838 -26.649  1.00  0.00     0.201 C 
ATOM      9  O   UNL     1       3.952  -0.832 -27.509  1.00  0.00    -0.288 OA
ATOM     10  C   UNL     1       3.090  -1.787 -25.507  1.00  0.00     0.076 A 
ATOM     11  C   UNL     1       1.871  -2.250 -24.962  1.00  0.00     0.041 A 
ATOM     12  C   UNL     1       0.587  -1.675 -25.427  1.00  0.00     0.194 C 
ATOM     13  O   UNL     1      -0.505  -2.172 -25.036  1.00  0.00    -0.289 OA
ATOM     14  C   UNL     1       1.883  -3.251 -23.975  1.00  0.00     0.059 A 
ATOM     15  C   UNL     1       3.090  -3.782 -23.518  1.00  0.00     0.120 A 
ATOM     16  C   UNL     1       4.298  -3.299 -24.026  1.00  0.00     0.093 A 
ATOM     17  C   UNL     1       4.314  -2.289 -24.993  1.00  0.00     0.131 A 
ENDROOT
BRANCH   6  18
ATOM     18  O   UNL     1       2.972   1.752 -28.125  1.00  0.00    -0.507 OA
ATOM     19  H   UNL     1       3.242   1.777 -29.099  1.00  0.00     0.293 HD
ENDBRANCH   6  18
BRANCH  17  20
ATOM     20  O   UNL     1       5.559  -1.792 -25.387  1.00  0.00    -0.507 OA
ATOM     21  H   UNL     1       6.347  -2.379 -25.621  1.00  0.00     0.293 HD
ENDBRANCH  17  20
BRANCH  15  22
ATOM     22  O   UNL     1       3.076  -4.783 -22.549  1.00  0.00    -0.508 OA
ATOM     23  H   UNL     1       2.367  -5.506 -22.545  1.00  0.00     0.293 HD
ENDBRANCH  15  22
TORSDOF 3
ENDMDL
MODEL 6
REMARK VINA RESULT:    -6.315      2.539      4.223
REMARK INTER + INTRA:          -6.869
REMARK INTER:                  -6.869
REMARK INTRA:                   0.000
REMARK UNBOUND:                 0.000
REMARK SMILES Cc1cc(O)c2c(c1)C(=O)c1cc(O)cc(O)c1C2=O
REMARK SMILES IDX 1 1 2 2 8 3 7 4 6 5 4 6 3 7 19 8 20 9 18 10 11 11 9 12 10 13
REMARK SMILES IDX 12 14 13 15 15 16 16 17 5 18 17 20 14 22
REMARK H PARENT 5 19 17 21 14 23
REMARK Flexibility Score: inf
ROOT
ATOM      1  C   UNL     1       4.882   3.633 -26.272  1.00  0.00     0.044 C 
ATOM      2  C   UNL     1       4.566   2.392 -25.492  1.00  0.00    -0.047 A 
ATOM      3  C   UNL     1       3.405   1.661 -25.770  1.00  0.00     0.016 A 
ATOM      4  C   UNL     1       3.087   0.512 -25.026  1.00  0.00     0.038 A 
ATOM      5  C   UNL     1       3.943   0.088 -23.986  1.00  0.00     0.076 A 
ATOM      6  C   UNL     1       5.073   0.879 -23.654  1.00  0.00     0.127 A 
ATOM      7  C   UNL     1       5.381   2.007 -24.423  1.00  0.00     0.050 A 
ATOM      8  C   UNL     1       3.652  -1.209 -23.322  1.00  0.00     0.201 C 
ATOM      9  O   UNL     1       4.597  -1.896 -22.849  1.00  0.00    -0.288 OA
ATOM     10  C   UNL     1       2.281  -1.778 -23.382  1.00  0.00     0.076 A 
ATOM     11  C   UNL     1       1.426  -1.349 -24.422  1.00  0.00     0.041 A 
ATOM     12  C   UNL     1       1.850  -0.250 -25.322  1.00  0.00     0.194 C 
ATOM     13  O   UNL     1       1.147   0.050 -26.326  1.00  0.00    -0.289 OA
ATOM     14  C   UNL     1       0.174  -1.962 -24.595  1.00  0.00     0.059 A 
ATOM     15  C   UNL     1      -0.240  -2.983 -23.739  1.00  0.00     0.120 A 
ATOM     16  C   UNL     1       0.585  -3.383 -22.685  1.00  0.00     0.093 A 
ATOM     17  C   UNL     1       1.827  -2.774 -22.479  1.00  0.00     0.131 A 
ENDROOT
BRANCH   6  18
ATOM     18  O   UNL     1       5.890   0.605 -22.555  1.00  0.00    -0.507 OA
ATOM     19  H   UNL     1       5.684  -0.109 -21.870  1.00  0.00     0.293 HD
ENDBRANCH   6  18
BRANCH  17  20
ATOM     20  O   UNL     1       2.556  -3.162 -21.352  1.00  0.00    -0.507 OA
ATOM     21  H   UNL     1       3.508  -2.875 -21.176  1.00  0.00     0.293 HD
ENDBRANCH  17  20
BRANCH  15  22
ATOM     22  O   UNL     1      -1.481  -3.585 -23.937  1.00  0.00    -0.508 OA
ATOM     23  H   UNL     1      -1.722  -4.023 -24.819  1.00  0.00     0.293 HD
ENDBRANCH  15  22
TORSDOF 3
ENDMDL
MODEL 7
REMARK VINA RESULT:    -6.262      1.982      6.528
REMARK INTER + INTRA:          -6.811
REMARK INTER:                  -6.811
REMARK INTRA:                   0.000
REMARK UNBOUND:                 0.000
REMARK SMILES Cc1cc(O)c2c(c1)C(=O)c1cc(O)cc(O)c1C2=O
REMARK SMILES IDX 1 1 2 2 8 3 7 4 6 5 4 6 3 7 19 8 20 9 18 10 11 11 9 12 10 13
REMARK SMILES IDX 12 14 13 15 15 16 16 17 5 18 17 20 14 22
REMARK H PARENT 5 19 17 21 14 23
REMARK Flexibility Score: inf
ROOT
ATOM      1  C   UNL     1       3.864  -2.148 -25.065  1.00  0.00     0.044 C 
ATOM      2  C   UNL     1       4.074  -0.765 -24.524  1.00  0.00    -0.047 A 
ATOM      3  C   UNL     1       3.581   0.346 -25.219  1.00  0.00     0.016 A 
ATOM      4  C   UNL     1       3.797   1.647 -24.734  1.00  0.00     0.038 A 
ATOM      5  C   UNL     1       4.518   1.840 -23.534  1.00  0.00     0.076 A 
ATOM      6  C   UNL     1       5.086   0.717 -22.880  1.00  0.00     0.127 A 
ATOM      7  C   UNL     1       4.840  -0.570 -23.370  1.00  0.00     0.050 A 
ATOM      8  C   UNL     1       4.598   3.216 -22.977  1.00  0.00     0.201 C 
ATOM      9  O   UNL     1       4.689   3.382 -21.732  1.00  0.00    -0.288 OA
ATOM     10  C   UNL     1       4.382   4.386 -23.867  1.00  0.00     0.076 A 
ATOM     11  C   UNL     1       3.663   4.188 -25.067  1.00  0.00     0.041 A 
ATOM     12  C   UNL     1       3.279   2.818 -25.481  1.00  0.00     0.194 C 
ATOM     13  O   UNL     1       2.532   2.648 -26.483  1.00  0.00    -0.289 OA
ATOM     14  C   UNL     1       3.320   5.292 -25.866  1.00  0.00     0.059 A 
ATOM     15  C   UNL     1       3.696   6.582 -25.492  1.00  0.00     0.120 A 
ATOM     16  C   UNL     1       4.441   6.779 -24.327  1.00  0.00     0.093 A 
ATOM     17  C   UNL     1       4.813   5.695 -23.525  1.00  0.00     0.131 A 
ENDROOT
BRANCH   6  18
ATOM     18  O   UNL     1       5.925   0.835 -21.770  1.00  0.00    -0.507 OA
ATOM     19  H   UNL     1       6.017   1.683 -21.226  1.00  0.00     0.293 HD
ENDBRANCH   6  18
BRANCH  17  20
ATOM     20  O   UNL     1       5.635   5.957 -22.426  1.00  0.00    -0.507 OA
ATOM     21  H   UNL     1       6.103   5.238 -21.894  1.00  0.00     0.293 HD
ENDBRANCH  17  20
BRANCH  15  22
ATOM     22  O   UNL     1       3.333   7.663 -26.293  1.00  0.00    -0.508 OA
ATOM     23  H   UNL     1       2.878   8.481 -25.906  1.00  0.00     0.293 HD
ENDBRANCH  15  22
TORSDOF 3
ENDMDL
MODEL 8
REMARK VINA RESULT:    -6.175      1.566      3.359
REMARK INTER + INTRA:          -6.716
REMARK INTER:                  -6.716
REMARK INTRA:                   0.000
REMARK UNBOUND:                 0.000
REMARK SMILES Cc1cc(O)c2c(c1)C(=O)c1cc(O)cc(O)c1C2=O
REMARK SMILES IDX 1 1 2 2 8 3 7 4 6 5 4 6 3 7 19 8 20 9 18 10 11 11 9 12 10 13
REMARK SMILES IDX 12 14 13 15 15 16 16 17 5 18 17 20 14 22
REMARK H PARENT 5 19 17 21 14 23
REMARK Flexibility Score: inf
ROOT
ATOM      1  C   UNL     1       5.157   5.013 -28.124  1.00  0.00     0.044 C 
ATOM      2  C   UNL     1       5.026   4.113 -26.931  1.00  0.00    -0.047 A 
ATOM      3  C   UNL     1       4.969   2.725 -27.098  1.00  0.00     0.016 A 
ATOM      4  C   UNL     1       4.817   1.876 -25.988  1.00  0.00     0.038 A 
ATOM      5  C   UNL     1       4.720   2.425 -24.690  1.00  0.00     0.076 A 
ATOM      6  C   UNL     1       4.695   3.835 -24.536  1.00  0.00     0.127 A 
ATOM      7  C   UNL     1       4.868   4.659 -25.652  1.00  0.00     0.050 A 
ATOM      8  C   UNL     1       4.711   1.493 -23.532  1.00  0.00     0.201 C 
ATOM      9  O   UNL     1       5.188   1.864 -22.427  1.00  0.00    -0.288 OA
ATOM     10  C   UNL     1       4.313   0.075 -23.730  1.00  0.00     0.076 A 
ATOM     11  C   UNL     1       4.408  -0.469 -25.030  1.00  0.00     0.041 A 
ATOM     12  C   UNL     1       4.750   0.407 -26.176  1.00  0.00     0.194 C 
ATOM     13  O   UNL     1       4.959  -0.095 -27.314  1.00  0.00    -0.289 OA
ATOM     14  C   UNL     1       4.173  -1.840 -25.232  1.00  0.00     0.059 A 
ATOM     15  C   UNL     1       3.832  -2.667 -24.161  1.00  0.00     0.120 A 
ATOM     16  C   UNL     1       3.698  -2.125 -22.881  1.00  0.00     0.093 A 
ATOM     17  C   UNL     1       3.906  -0.760 -22.657  1.00  0.00     0.131 A 
ENDROOT
BRANCH   6  18
ATOM     18  O   UNL     1       4.464   4.456 -23.306  1.00  0.00    -0.507 OA
ATOM     19  H   UNL     1       4.987   5.256 -22.977  1.00  0.00     0.293 HD
ENDBRANCH   6  18
BRANCH  17  20
ATOM     20  O   UNL     1       3.664  -0.274 -21.370  1.00  0.00    -0.507 OA
ATOM     21  H   UNL     1       4.086  -0.659 -20.537  1.00  0.00     0.293 HD
ENDBRANCH  17  20
BRANCH  15  22
ATOM     22  O   UNL     1       3.617  -4.025 -24.384  1.00  0.00    -0.508 OA
ATOM     23  H   UNL     1       4.383  -4.658 -24.581  1.00  0.00     0.293 HD
ENDBRANCH  15  22
TORSDOF 3
ENDMDL
