MODEL 1
REMARK VINA RESULT:    -4.150      0.000      0.000
REMARK INTER + INTRA:          -6.918
REMARK INTER:                  -6.334
REMARK INTRA:                  -0.584
REMARK UNBOUND:                -0.584
REMARK SMILES CCCCCCCCCCC(=O)[O-]
REMARK SMILES IDX 7 1 8 2 9 3 10 4 11 5 12 6 13 7 6 8 5 9 4 10 3 11 2 12 1 13
REMARK H PARENT
REMARK Flexibility Score: inf
ROOT
ATOM      1  C   UNL     1      47.725  -9.741 -57.166  1.00  0.00     0.000 C 
ENDROOT
BRANCH   1   2
ATOM      2  C   UNL     1      48.194 -10.838 -56.203  1.00  0.00     0.000 C 
BRANCH   2   3
ATOM      3  C   UNL     1      47.859 -12.230 -56.750  1.00  0.00     0.006 C 
BRANCH   3   4
ATOM      4  C   UNL     1      48.851 -13.277 -56.236  1.00  0.00     0.053 C 
BRANCH   4   5
ATOM      5  C   UNL     1      48.131 -14.508 -55.786  1.00  0.00     0.041 C 
ATOM      6  O   UNL     1      47.208 -14.427 -54.935  1.00  0.00    -0.550 OA
ATOM      7  O   UNL     1      48.513 -15.752 -56.271  1.00  0.00    -0.550 OA
ENDBRANCH   4   5
ENDBRANCH   3   4
ENDBRANCH   2   3
ENDBRANCH   1   2
BRANCH   1   8
ATOM      8  C   UNL     1      48.060  -8.346 -56.615  1.00  0.00     0.000 C 
BRANCH   8   9
ATOM      9  C   UNL     1      47.379  -8.064 -55.266  1.00  0.00    -0.000 C 
BRANCH   9  10
ATOM     10  C   UNL     1      48.305  -7.333 -54.277  1.00  0.00    -0.000 C 
BRANCH  10  11
ATOM     11  C   UNL     1      49.778  -7.754 -54.417  1.00  0.00    -0.000 C 
BRANCH  11  12
ATOM     12  C   UNL     1      50.756  -6.596 -54.682  1.00  0.00    -0.003 C 
ATOM     13  C   UNL     1      50.105  -5.220 -54.546  1.00  0.00     0.004 C 
ENDBRANCH  11  12
ENDBRANCH  10  11
ENDBRANCH   9  10
ENDBRANCH   8   9
ENDBRANCH   1   8
TORSDOF 9
ENDMDL
MODEL 2
REMARK VINA RESULT:    -3.955      5.871      7.821
REMARK INTER + INTRA:          -6.621
REMARK INTER:                  -5.762
REMARK INTRA:                  -0.858
REMARK UNBOUND:                -0.584
REMARK SMILES CCCCCCCCCCC(=O)[O-]
REMARK SMILES IDX 7 1 8 2 9 3 10 4 11 5 12 6 13 7 6 8 5 9 4 10 3 11 2 12 1 13
REMARK H PARENT
REMARK Flexibility Score: inf
ROOT
ATOM      1  C   UNL     1      51.463  -6.054 -55.493  1.00  0.00     0.000 C 
ENDROOT
BRANCH   1   2
ATOM      2  C   UNL     1      51.420  -5.424 -56.890  1.00  0.00     0.000 C 
BRANCH   2   3
ATOM      3  C   UNL     1      52.523  -5.998 -57.787  1.00  0.00     0.006 C 
BRANCH   3   4
ATOM      4  C   UNL     1      52.877  -5.024 -58.914  1.00  0.00     0.053 C 
BRANCH   4   5
ATOM      5  C   UNL     1      53.991  -4.118 -58.494  1.00  0.00     0.041 C 
ATOM      6  O   UNL     1      53.737  -2.981 -58.018  1.00  0.00    -0.550 OA
ATOM      7  O   UNL     1      55.311  -4.509 -58.675  1.00  0.00    -0.550 OA
ENDBRANCH   4   5
ENDBRANCH   3   4
ENDBRANCH   2   3
ENDBRANCH   1   2
BRANCH   1   8
ATOM      8  C   UNL     1      50.441  -5.389 -54.558  1.00  0.00     0.000 C 
BRANCH   8   9
ATOM      9  C   UNL     1      49.253  -6.308 -54.233  1.00  0.00    -0.000 C 
BRANCH   9  10
ATOM     10  C   UNL     1      49.615  -7.801 -54.331  1.00  0.00    -0.000 C 
BRANCH  10  11
ATOM     11  C   UNL     1      48.689  -8.577 -55.284  1.00  0.00    -0.000 C 
BRANCH  11  12
ATOM     12  C   UNL     1      47.877  -7.699 -56.251  1.00  0.00    -0.003 C 
ATOM     13  C   UNL     1      48.523  -7.574 -57.631  1.00  0.00     0.004 C 
ENDBRANCH  11  12
ENDBRANCH  10  11
ENDBRANCH   9  10
ENDBRANCH   8   9
ENDBRANCH   1   8
TORSDOF 9
ENDMDL
MODEL 3
REMARK VINA RESULT:    -3.934      4.626      6.849
REMARK INTER + INTRA:          -6.588
REMARK INTER:                  -5.493
REMARK INTRA:                  -1.094
REMARK UNBOUND:                -0.584
REMARK SMILES CCCCCCCCCCC(=O)[O-]
REMARK SMILES IDX 7 1 8 2 9 3 10 4 11 5 12 6 13 7 6 8 5 9 4 10 3 11 2 12 1 13
REMARK H PARENT
REMARK Flexibility Score: inf
ROOT
ATOM      1  C   UNL     1      51.017  -6.530 -54.715  1.00  0.00     0.000 C 
ENDROOT
BRANCH   1   2
ATOM      2  C   UNL     1      50.324  -5.250 -55.196  1.00  0.00     0.000 C 
BRANCH   2   3
ATOM      3  C   UNL     1      50.639  -4.975 -56.672  1.00  0.00     0.006 C 
BRANCH   3   4
ATOM      4  C   UNL     1      51.203  -6.224 -57.355  1.00  0.00     0.053 C 
BRANCH   4   5
ATOM      5  C   UNL     1      52.400  -5.874 -58.181  1.00  0.00     0.041 C 
ATOM      6  O   UNL     1      52.760  -6.625 -59.125  1.00  0.00    -0.550 OA
ATOM      7  O   UNL     1      53.149  -4.745 -57.877  1.00  0.00    -0.550 OA
ENDBRANCH   4   5
ENDBRANCH   3   4
ENDBRANCH   2   3
ENDBRANCH   1   2
BRANCH   1   8
ATOM      8  C   UNL     1      50.001  -7.510 -54.108  1.00  0.00     0.000 C 
BRANCH   8   9
ATOM      9  C   UNL     1      48.582  -6.925 -54.044  1.00  0.00    -0.000 C 
BRANCH   9  10
ATOM     10  C   UNL     1      47.555  -7.777 -54.811  1.00  0.00    -0.000 C 
BRANCH  10  11
ATOM     11  C   UNL     1      47.506  -7.445 -56.313  1.00  0.00    -0.000 C 
BRANCH  11  12
ATOM     12  C   UNL     1      47.938  -8.593 -57.241  1.00  0.00    -0.003 C 
ATOM     13  C   UNL     1      47.718  -9.975 -56.626  1.00  0.00     0.004 C 
ENDBRANCH  11  12
ENDBRANCH  10  11
ENDBRANCH   9  10
ENDBRANCH   8   9
ENDBRANCH   1   8
TORSDOF 9
ENDMDL
MODEL 4
REMARK VINA RESULT:    -3.918      1.212      1.640
REMARK INTER + INTRA:          -6.563
REMARK INTER:                  -6.062
REMARK INTRA:                  -0.501
REMARK UNBOUND:                -0.584
REMARK SMILES CCCCCCCCCCC(=O)[O-]
REMARK SMILES IDX 7 1 8 2 9 3 10 4 11 5 12 6 13 7 6 8 5 9 4 10 3 11 2 12 1 13
REMARK H PARENT
REMARK Flexibility Score: inf
ROOT
ATOM      1  C   UNL     1      47.860  -8.929 -56.836  1.00  0.00     0.000 C 
ENDROOT
BRANCH   1   2
ATOM      2  C   UNL     1      46.898 -10.097 -57.085  1.00  0.00     0.000 C 
BRANCH   2   3
ATOM      3  C   UNL     1      47.635 -11.296 -57.694  1.00  0.00     0.006 C 
BRANCH   3   4
ATOM      4  C   UNL     1      47.186 -12.606 -57.040  1.00  0.00     0.053 C 
BRANCH   4   5
ATOM      5  C   UNL     1      48.246 -13.125 -56.122  1.00  0.00     0.041 C 
ATOM      6  O   UNL     1      49.196 -12.380 -55.765  1.00  0.00    -0.550 OA
ATOM      7  O   UNL     1      48.212 -14.448 -55.699  1.00  0.00    -0.550 OA
ENDBRANCH   4   5
ENDBRANCH   3   4
ENDBRANCH   2   3
ENDBRANCH   1   2
BRANCH   1   8
ATOM      8  C   UNL     1      48.427  -8.978 -55.409  1.00  0.00     0.000 C 
BRANCH   8   9
ATOM      9  C   UNL     1      48.530  -7.586 -54.767  1.00  0.00    -0.000 C 
BRANCH   9  10
ATOM     10  C   UNL     1      49.848  -7.384 -53.998  1.00  0.00    -0.000 C 
BRANCH  10  11
ATOM     11  C   UNL     1      50.892  -6.589 -54.802  1.00  0.00    -0.000 C 
BRANCH  11  12
ATOM     12  C   UNL     1      50.377  -5.266 -55.395  1.00  0.00    -0.003 C 
ATOM     13  C   UNL     1      50.110  -4.199 -54.334  1.00  0.00     0.004 C 
ENDBRANCH  11  12
ENDBRANCH  10  11
ENDBRANCH   9  10
ENDBRANCH   8   9
ENDBRANCH   1   8
TORSDOF 9
ENDMDL
MODEL 5
REMARK VINA RESULT:    -3.879      4.693      5.869
REMARK INTER + INTRA:          -6.504
REMARK INTER:                  -5.249
REMARK INTRA:                  -1.255
REMARK UNBOUND:                -0.584
REMARK SMILES CCCCCCCCCCC(=O)[O-]
REMARK SMILES IDX 7 1 8 2 9 3 10 4 11 5 12 6 13 7 6 8 5 9 4 10 3 11 2 12 1 13
REMARK H PARENT
REMARK Flexibility Score: inf
ROOT
ATOM      1  C   UNL     1      48.241  -8.138 -57.436  1.00  0.00     0.000 C 
ENDROOT
BRANCH   1   2
ATOM      2  C   UNL     1      47.919  -6.644 -57.567  1.00  0.00     0.000 C 
BRANCH   2   3
ATOM      3  C   UNL     1      49.101  -5.878 -58.171  1.00  0.00     0.006 C 
BRANCH   3   4
ATOM      4  C   UNL     1      50.177  -6.840 -58.683  1.00  0.00     0.053 C 
BRANCH   4   5
ATOM      5  C   UNL     1      51.480  -6.127 -58.856  1.00  0.00     0.041 C 
ATOM      6  O   UNL     1      52.561  -6.772 -58.852  1.00  0.00    -0.550 OA
ATOM      7  O   UNL     1      51.504  -4.743 -58.973  1.00  0.00    -0.550 OA
ENDBRANCH   4   5
ENDBRANCH   3   4
ENDBRANCH   2   3
ENDBRANCH   1   2
BRANCH   1   8
ATOM      8  C   UNL     1      48.053  -8.615 -55.987  1.00  0.00     0.000 C 
BRANCH   8   9
ATOM      9  C   UNL     1      47.554  -7.498 -55.057  1.00  0.00    -0.000 C 
BRANCH   9  10
ATOM     10  C   UNL     1      48.568  -7.150 -53.953  1.00  0.00    -0.000 C 
BRANCH  10  11
ATOM     11  C   UNL     1      50.012  -7.525 -54.329  1.00  0.00    -0.000 C 
BRANCH  11  12
ATOM     12  C   UNL     1      50.838  -6.380 -54.939  1.00  0.00    -0.003 C 
ATOM     13  C   UNL     1      50.294  -4.996 -54.584  1.00  0.00     0.004 C 
ENDBRANCH  11  12
ENDBRANCH  10  11
ENDBRANCH   9  10
ENDBRANCH   8   9
ENDBRANCH   1   8
TORSDOF 9
ENDMDL
MODEL 6
REMARK VINA RESULT:    -3.878      3.778      5.670
REMARK INTER + INTRA:          -6.502
REMARK INTER:                  -5.357
REMARK INTRA:                  -1.145
REMARK UNBOUND:                -0.584
REMARK SMILES CCCCCCCCCCC(=O)[O-]
REMARK SMILES IDX 7 1 8 2 9 3 10 4 11 5 12 6 13 7 6 8 5 9 4 10 3 11 2 12 1 13
REMARK H PARENT
REMARK Flexibility Score: inf
ROOT
ATOM      1  C   UNL     1      51.501  -5.414 -56.537  1.00  0.00     0.000 C 
ENDROOT
BRANCH   1   2
ATOM      2  C   UNL     1      51.520  -6.290 -55.278  1.00  0.00     0.000 C 
BRANCH   2   3
ATOM      3  C   UNL     1      50.124  -6.378 -54.650  1.00  0.00     0.006 C 
BRANCH   3   4
ATOM      4  C   UNL     1      49.781  -7.822 -54.274  1.00  0.00     0.053 C 
BRANCH   4   5
ATOM      5  C   UNL     1      48.427  -8.191 -54.789  1.00  0.00     0.041 C 
ATOM      6  O   UNL     1      47.409  -7.556 -54.409  1.00  0.00    -0.550 OA
ATOM      7  O   UNL     1      48.282  -9.271 -55.652  1.00  0.00    -0.550 OA
ENDBRANCH   4   5
ENDBRANCH   3   4
ENDBRANCH   2   3
ENDBRANCH   1   2
BRANCH   1   8
ATOM      8  C   UNL     1      52.505  -5.930 -57.581  1.00  0.00     0.000 C 
BRANCH   8   9
ATOM      9  C   UNL     1      51.818  -6.630 -58.764  1.00  0.00    -0.000 C 
BRANCH   9  10
ATOM     10  C   UNL     1      50.338  -6.234 -58.909  1.00  0.00    -0.000 C 
BRANCH  10  11
ATOM     11  C   UNL     1      49.383  -7.433 -58.775  1.00  0.00    -0.000 C 
BRANCH  11  12
ATOM     12  C   UNL     1      47.941  -7.068 -58.384  1.00  0.00    -0.003 C 
ATOM     13  C   UNL     1      47.853  -5.797 -57.538  1.00  0.00     0.004 C 
ENDBRANCH  11  12
ENDBRANCH  10  11
ENDBRANCH   9  10
ENDBRANCH   8   9
ENDBRANCH   1   8
TORSDOF 9
ENDMDL
MODEL 7
REMARK VINA RESULT:    -3.849      2.586      4.209
REMARK INTER + INTRA:          -6.458
REMARK INTER:                  -5.616
REMARK INTRA:                  -0.842
REMARK UNBOUND:                -0.584
REMARK SMILES CCCCCCCCCCC(=O)[O-]
REMARK SMILES IDX 7 1 8 2 9 3 10 4 11 5 12 6 13 7 6 8 5 9 4 10 3 11 2 12 1 13
REMARK H PARENT
REMARK Flexibility Score: inf
ROOT
ATOM      1  C   UNL     1      49.332  -7.252 -54.207  1.00  0.00     0.000 C 
ENDROOT
BRANCH   1   2
ATOM      2  C   UNL     1      48.944  -8.507 -54.998  1.00  0.00     0.000 C 
BRANCH   2   3
ATOM      3  C   UNL     1      48.079  -8.147 -56.212  1.00  0.00     0.006 C 
BRANCH   3   4
ATOM      4  C   UNL     1      47.055  -9.247 -56.502  1.00  0.00     0.053 C 
BRANCH   4   5
ATOM      5  C   UNL     1      47.709 -10.408 -57.182  1.00  0.00     0.041 C 
ATOM      6  O   UNL     1      48.004 -10.343 -58.403  1.00  0.00    -0.550 OA
ATOM      7  O   UNL     1      47.948 -11.581 -56.477  1.00  0.00    -0.550 OA
ENDBRANCH   4   5
ENDBRANCH   3   4
ENDBRANCH   2   3
ENDBRANCH   1   2
BRANCH   1   8
ATOM      8  C   UNL     1      50.693  -6.708 -54.671  1.00  0.00     0.000 C 
BRANCH   8   9
ATOM      9  C   UNL     1      50.621  -5.239 -55.115  1.00  0.00    -0.000 C 
BRANCH   9  10
ATOM     10  C   UNL     1      50.850  -5.065 -56.627  1.00  0.00    -0.000 C 
BRANCH  10  11
ATOM     11  C   UNL     1      52.021  -5.913 -57.154  1.00  0.00    -0.000 C 
BRANCH  11  12
ATOM     12  C   UNL     1      51.824  -6.472 -58.574  1.00  0.00    -0.003 C 
ATOM     13  C   UNL     1      50.372  -6.842 -58.875  1.00  0.00     0.004 C 
ENDBRANCH  11  12
ENDBRANCH  10  11
ENDBRANCH   9  10
ENDBRANCH   8   9
ENDBRANCH   1   8
TORSDOF 9
ENDMDL
MODEL 8
REMARK VINA RESULT:    -3.843      1.369      2.201
REMARK INTER + INTRA:          -6.449
REMARK INTER:                  -5.955
REMARK INTRA:                  -0.495
REMARK UNBOUND:                -0.584
REMARK SMILES CCCCCCCCCCC(=O)[O-]
REMARK SMILES IDX 7 1 8 2 9 3 10 4 11 5 12 6 13 7 6 8 5 9 4 10 3 11 2 12 1 13
REMARK H PARENT
REMARK Flexibility Score: inf
ROOT
ATOM      1  C   UNL     1      47.445 -11.974 -57.419  1.00  0.00     0.000 C 
ENDROOT
BRANCH   1   2
ATOM      2  C   UNL     1      48.312 -12.219 -56.178  1.00  0.00     0.000 C 
BRANCH   2   3
ATOM      3  C   UNL     1      48.737 -13.689 -56.086  1.00  0.00     0.006 C 
BRANCH   3   4
ATOM      4  C   UNL     1      47.615 -14.551 -55.502  1.00  0.00     0.053 C 
BRANCH   4   5
ATOM      5  C   UNL     1      47.306 -15.698 -56.411  1.00  0.00     0.041 C 
ATOM      6  O   UNL     1      46.467 -15.563 -57.340  1.00  0.00    -0.550 OA
ATOM      7  O   UNL     1      47.908 -16.932 -56.202  1.00  0.00    -0.550 OA
ENDBRANCH   4   5
ENDBRANCH   3   4
ENDBRANCH   2   3
ENDBRANCH   1   2
BRANCH   1   8
ATOM      8  C   UNL     1      46.840 -10.562 -57.396  1.00  0.00     0.000 C 
BRANCH   8   9
ATOM      9  C   UNL     1      47.613  -9.602 -56.478  1.00  0.00    -0.000 C 
BRANCH   9  10
ATOM     10  C   UNL     1      47.724  -8.183 -57.064  1.00  0.00    -0.000 C 
BRANCH  10  11
ATOM     11  C   UNL     1      48.544  -7.233 -56.173  1.00  0.00    -0.000 C 
BRANCH  11  12
ATOM     12  C   UNL     1      48.527  -7.579 -54.675  1.00  0.00    -0.003 C 
ATOM     13  C   UNL     1      49.927  -7.721 -54.077  1.00  0.00     0.004 C 
ENDBRANCH  11  12
ENDBRANCH  10  11
ENDBRANCH   9  10
ENDBRANCH   8   9
ENDBRANCH   1   8
TORSDOF 9
ENDMDL
MODEL 9
REMARK VINA RESULT:    -3.795      2.480      4.120
REMARK INTER + INTRA:          -6.375
REMARK INTER:                  -5.157
REMARK INTRA:                  -1.218
REMARK UNBOUND:                -0.584
REMARK SMILES CCCCCCCCCCC(=O)[O-]
REMARK SMILES IDX 7 1 8 2 9 3 10 4 11 5 12 6 13 7 6 8 5 9 4 10 3 11 2 12 1 13
REMARK H PARENT
REMARK Flexibility Score: inf
ROOT
ATOM      1  C   UNL     1      49.531  -7.916 -54.476  1.00  0.00     0.000 C 
ENDROOT
BRANCH   1   2
ATOM      2  C   UNL     1      48.108  -7.374 -54.291  1.00  0.00     0.000 C 
BRANCH   2   3
ATOM      3  C   UNL     1      47.148  -7.985 -55.318  1.00  0.00     0.006 C 
BRANCH   3   4
ATOM      4  C   UNL     1      47.918  -8.651 -56.462  1.00  0.00     0.053 C 
BRANCH   4   5
ATOM      5  C   UNL     1      47.362 -10.009 -56.749  1.00  0.00     0.041 C 
ATOM      6  O   UNL     1      46.208 -10.132 -57.237  1.00  0.00    -0.550 OA
ATOM      7  O   UNL     1      48.099 -11.143 -56.432  1.00  0.00    -0.550 OA
ENDBRANCH   4   5
ENDBRANCH   3   4
ENDBRANCH   2   3
ENDBRANCH   1   2
BRANCH   1   8
ATOM      8  C   UNL     1      50.573  -6.805 -54.279  1.00  0.00     0.000 C 
BRANCH   8   9
ATOM      9  C   UNL     1      51.030  -6.181 -55.607  1.00  0.00    -0.000 C 
BRANCH   9  10
ATOM     10  C   UNL     1      50.518  -4.741 -55.792  1.00  0.00    -0.000 C 
BRANCH  10  11
ATOM     11  C   UNL     1      49.185  -4.676 -56.558  1.00  0.00    -0.000 C 
BRANCH  11  12
ATOM     12  C   UNL     1      48.044  -3.970 -55.805  1.00  0.00    -0.003 C 
ATOM     13  C   UNL     1      48.382  -3.678 -54.343  1.00  0.00     0.004 C 
ENDBRANCH  11  12
ENDBRANCH  10  11
ENDBRANCH   9  10
ENDBRANCH   8   9
ENDBRANCH   1   8
TORSDOF 9
ENDMDL
