MODEL 1
REMARK VINA RESULT:    -4.310      0.000      0.000
REMARK INTER + INTRA:          -6.326
REMARK INTER:                  -5.822
REMARK INTRA:                  -0.504
REMARK UNBOUND:                -0.504
REMARK SMILES O=C[C@H](O)[C@@H](O)[C@@H](O)CO
REMARK SMILES IDX 7 1 9 2 10 3 5 5 3 6 2 7 1 8 4 9 6 11 8 13
REMARK H PARENT 10 4 4 10 6 12 8 14
REMARK Flexibility Score: inf
ROOT
ATOM      1  C   UNL     1       6.655  -1.395  -7.462  1.00  0.00     0.171 C 
ENDROOT
BRANCH   1   2
ATOM      2  C   UNL     1       7.740  -2.401  -7.021  1.00  0.00     0.190 C 
BRANCH   2   3
ATOM      3  O   UNL     1       8.131  -2.142  -5.699  1.00  0.00    -0.394 OA
ATOM      4  H   UNL     1       9.056  -1.783  -5.737  1.00  0.00     0.210 HD
ENDBRANCH   2   3
ENDBRANCH   1   2
BRANCH   1   5
ATOM      5  C   UNL     1       7.192  -0.142  -8.210  1.00  0.00     0.181 C 
BRANCH   5   6
ATOM      6  C   UNL     1       7.317   1.122  -7.318  1.00  0.00     0.209 C 
BRANCH   6   7
ATOM      7  C   UNL     1       8.213   2.143  -7.964  1.00  0.00     0.258 C 
ATOM      8  O   UNL     1       9.415   2.143  -7.750  1.00  0.00    -0.300 OA
ENDBRANCH   6   7
BRANCH   6   9
ATOM      9  O   UNL     1       7.822   0.795  -6.048  1.00  0.00    -0.383 OA
ATOM     10  H   UNL     1       7.052   0.492  -5.500  1.00  0.00     0.211 HD
ENDBRANCH   6   9
ENDBRANCH   5   6
BRANCH   5  11
ATOM     11  O   UNL     1       8.384  -0.417  -8.908  1.00  0.00    -0.387 OA
ATOM     12  H   UNL     1       8.745  -1.278  -8.578  1.00  0.00     0.211 HD
ENDBRANCH   5  11
ENDBRANCH   1   5
BRANCH   1  13
ATOM     13  O   UNL     1       5.680  -2.039  -8.243  1.00  0.00    -0.388 OA
ATOM     14  H   UNL     1       6.148  -2.506  -8.983  1.00  0.00     0.211 HD
ENDBRANCH   1  13
TORSDOF 8
ENDMDL
MODEL 2
REMARK VINA RESULT:    -4.247     14.086     15.447
REMARK INTER + INTRA:          -6.241
REMARK INTER:                  -5.942
REMARK INTRA:                  -0.299
REMARK UNBOUND:                -0.504
REMARK SMILES O=C[C@H](O)[C@@H](O)[C@@H](O)CO
REMARK SMILES IDX 7 1 9 2 10 3 5 5 3 6 2 7 1 8 4 9 6 11 8 13
REMARK H PARENT 10 4 4 10 6 12 8 14
REMARK Flexibility Score: inf
ROOT
ATOM      1  C   UNL     1      -7.692  -1.456  -7.020  1.00  0.00     0.171 C 
ENDROOT
BRANCH   1   2
ATOM      2  C   UNL     1      -8.271  -2.026  -8.332  1.00  0.00     0.190 C 
BRANCH   2   3
ATOM      3  O   UNL     1      -9.664  -2.148  -8.233  1.00  0.00    -0.394 OA
ATOM      4  H   UNL     1      -9.996  -1.321  -7.794  1.00  0.00     0.210 HD
ENDBRANCH   2   3
ENDBRANCH   1   2
BRANCH   1   5
ATOM      5  C   UNL     1      -7.178   0.009  -7.115  1.00  0.00     0.181 C 
BRANCH   5   6
ATOM      6  C   UNL     1      -7.206   0.597  -8.551  1.00  0.00     0.209 C 
BRANCH   6   7
ATOM      7  C   UNL     1      -5.983   1.436  -8.806  1.00  0.00     0.258 C 
ATOM      8  O   UNL     1      -5.560   2.198  -7.952  1.00  0.00    -0.300 OA
ENDBRANCH   6   7
BRANCH   6   9
ATOM      9  O   UNL     1      -8.357   1.378  -8.754  1.00  0.00    -0.383 OA
ATOM     10  H   UNL     1      -8.572   1.806  -7.884  1.00  0.00     0.211 HD
ENDBRANCH   6   9
ENDBRANCH   5   6
BRANCH   5  11
ATOM     11  O   UNL     1      -7.819   0.852  -6.186  1.00  0.00    -0.387 OA
ATOM     12  H   UNL     1      -7.967   0.337  -5.351  1.00  0.00     0.211 HD
ENDBRANCH   5  11
ENDBRANCH   1   5
BRANCH   1  13
ATOM     13  O   UNL     1      -8.631  -1.568  -5.980  1.00  0.00    -0.388 OA
ATOM     14  H   UNL     1      -8.625  -0.713  -5.476  1.00  0.00     0.211 HD
ENDBRANCH   1  13
TORSDOF 8
ENDMDL
MODEL 3
REMARK VINA RESULT:    -4.247     14.129     15.784
REMARK INTER + INTRA:          -6.240
REMARK INTER:                  -5.737
REMARK INTRA:                  -0.504
REMARK UNBOUND:                -0.504
REMARK SMILES O=C[C@H](O)[C@@H](O)[C@@H](O)CO
REMARK SMILES IDX 7 1 9 2 10 3 5 5 3 6 2 7 1 8 4 9 6 11 8 13
REMARK H PARENT 10 4 4 10 6 12 8 14
REMARK Flexibility Score: inf
ROOT
ATOM      1  C   UNL     1      -6.662   1.348  -7.506  1.00  0.00     0.171 C 
ENDROOT
BRANCH   1   2
ATOM      2  C   UNL     1      -7.777   2.367  -7.190  1.00  0.00     0.190 C 
BRANCH   2   3
ATOM      3  O   UNL     1      -8.231   2.195  -5.875  1.00  0.00    -0.394 OA
ATOM      4  H   UNL     1      -8.591   1.272  -5.813  1.00  0.00     0.210 HD
ENDBRANCH   2   3
ENDBRANCH   1   2
BRANCH   1   5
ATOM      5  C   UNL     1      -7.138   0.067  -8.248  1.00  0.00     0.181 C 
BRANCH   5   6
ATOM      6  C   UNL     1      -7.311  -1.170  -7.327  1.00  0.00     0.209 C 
BRANCH   6   7
ATOM      7  C   UNL     1      -8.193  -2.200  -7.980  1.00  0.00     0.258 C 
ATOM      8  O   UNL     1      -9.403  -2.174  -7.825  1.00  0.00    -0.300 OA
ENDBRANCH   6   7
BRANCH   6   9
ATOM      9  O   UNL     1      -7.863  -0.802  -6.088  1.00  0.00    -0.383 OA
ATOM     10  H   UNL     1      -7.953  -1.635  -5.554  1.00  0.00     0.211 HD
ENDBRANCH   6   9
ENDBRANCH   5   6
BRANCH   5  11
ATOM     11  O   UNL     1      -8.284   0.309  -9.031  1.00  0.00    -0.387 OA
ATOM     12  H   UNL     1      -8.035   0.206  -9.985  1.00  0.00     0.211 HD
ENDBRANCH   5  11
ENDBRANCH   1   5
BRANCH   1  13
ATOM     13  O   UNL     1      -5.626   1.965  -8.231  1.00  0.00    -0.388 OA
ATOM     14  H   UNL     1      -5.201   2.635  -7.635  1.00  0.00     0.211 HD
ENDBRANCH   1  13
TORSDOF 8
ENDMDL
MODEL 4
REMARK VINA RESULT:    -4.109      1.120      4.318
REMARK INTER + INTRA:          -6.054
REMARK INTER:                  -5.495
REMARK INTRA:                  -0.558
REMARK UNBOUND:                -0.504
REMARK SMILES O=C[C@H](O)[C@@H](O)[C@@H](O)CO
REMARK SMILES IDX 7 1 9 2 10 3 5 5 3 6 2 7 1 8 4 9 6 11 8 13
REMARK H PARENT 10 4 4 10 6 12 8 14
REMARK Flexibility Score: inf
ROOT
ATOM      1  C   UNL     1       8.100   2.556  -7.696  1.00  0.00     0.171 C 
ENDROOT
BRANCH   1   2
ATOM      2  C   UNL     1       7.477   3.179  -8.963  1.00  0.00     0.190 C 
BRANCH   2   3
ATOM      3  O   UNL     1       8.301   2.944 -10.073  1.00  0.00    -0.394 OA
ATOM      4  H   UNL     1       9.044   2.362  -9.764  1.00  0.00     0.210 HD
ENDBRANCH   2   3
ENDBRANCH   1   2
BRANCH   1   5
ATOM      5  C   UNL     1       7.367   1.293  -7.161  1.00  0.00     0.181 C 
BRANCH   5   6
ATOM      6  C   UNL     1       7.212   0.159  -8.209  1.00  0.00     0.209 C 
BRANCH   6   7
ATOM      7  C   UNL     1       6.975  -1.163  -7.531  1.00  0.00     0.258 C 
ATOM      8  O   UNL     1       7.881  -1.736  -6.947  1.00  0.00    -0.300 OA
ENDBRANCH   6   7
BRANCH   6   9
ATOM      9  O   UNL     1       8.352   0.067  -9.024  1.00  0.00    -0.383 OA
ATOM     10  H   UNL     1       9.126   0.354  -8.471  1.00  0.00     0.211 HD
ENDBRANCH   6   9
ENDBRANCH   5   6
BRANCH   5  11
ATOM     11  O   UNL     1       7.932   0.828  -5.957  1.00  0.00    -0.387 OA
ATOM     12  H   UNL     1       8.344   1.599  -5.490  1.00  0.00     0.211 HD
ENDBRANCH   5  11
ENDBRANCH   1   5
BRANCH   1  13
ATOM     13  O   UNL     1       9.459   2.266  -7.910  1.00  0.00    -0.388 OA
ATOM     14  H   UNL     1       9.588   1.295  -7.749  1.00  0.00     0.211 HD
ENDBRANCH   1  13
TORSDOF 8
ENDMDL
MODEL 5
REMARK VINA RESULT:    -4.103      2.896      5.167
REMARK INTER + INTRA:          -6.046
REMARK INTER:                  -5.105
REMARK INTRA:                  -0.941
REMARK UNBOUND:                -0.504
REMARK SMILES O=C[C@H](O)[C@@H](O)[C@@H](O)CO
REMARK SMILES IDX 7 1 9 2 10 3 5 5 3 6 2 7 1 8 4 9 6 11 8 13
REMARK H PARENT 10 4 4 10 6 12 8 14
REMARK Flexibility Score: inf
ROOT
ATOM      1  C   UNL     1       7.774  -3.036  -6.530  1.00  0.00     0.171 C 
ENDROOT
BRANCH   1   2
ATOM      2  C   UNL     1       6.935  -2.191  -7.512  1.00  0.00     0.190 C 
BRANCH   2   3
ATOM      3  O   UNL     1       6.375  -3.013  -8.500  1.00  0.00    -0.394 OA
ATOM      4  H   UNL     1       5.552  -2.559  -8.821  1.00  0.00     0.210 HD
ENDBRANCH   2   3
ENDBRANCH   1   2
BRANCH   1   5
ATOM      5  C   UNL     1       8.965  -3.798  -7.176  1.00  0.00     0.181 C 
BRANCH   5   6
ATOM      6  C   UNL     1       8.686  -5.302  -7.440  1.00  0.00     0.209 C 
BRANCH   6   7
ATOM      7  C   UNL     1       8.715  -5.597  -8.916  1.00  0.00     0.258 C 
ATOM      8  O   UNL     1       7.771  -5.302  -9.630  1.00  0.00    -0.300 OA
ENDBRANCH   6   7
BRANCH   6   9
ATOM      9  O   UNL     1       7.441  -5.683  -6.913  1.00  0.00    -0.383 OA
ATOM     10  H   UNL     1       7.271  -5.102  -6.126  1.00  0.00     0.211 HD
ENDBRANCH   6   9
ENDBRANCH   5   6
BRANCH   5  11
ATOM     11  O   UNL     1       9.449  -3.140  -8.324  1.00  0.00    -0.387 OA
ATOM     12  H   UNL     1       8.926  -3.454  -9.105  1.00  0.00     0.211 HD
ENDBRANCH   5  11
ENDBRANCH   1   5
BRANCH   1  13
ATOM     13  O   UNL     1       8.235  -2.238  -5.468  1.00  0.00    -0.388 OA
ATOM     14  H   UNL     1       7.751  -1.373  -5.510  1.00  0.00     0.211 HD
ENDBRANCH   1  13
TORSDOF 8
ENDMDL
MODEL 6
REMARK VINA RESULT:    -4.091      1.191      3.908
REMARK INTER + INTRA:          -6.030
REMARK INTER:                  -5.508
REMARK INTRA:                  -0.522
REMARK UNBOUND:                -0.504
REMARK SMILES O=C[C@H](O)[C@@H](O)[C@@H](O)CO
REMARK SMILES IDX 7 1 9 2 10 3 5 5 3 6 2 7 1 8 4 9 6 11 8 13
REMARK H PARENT 10 4 4 10 6 12 8 14
REMARK Flexibility Score: inf
ROOT
ATOM      1  C   UNL     1       7.342   1.950  -7.561  1.00  0.00     0.171 C 
ENDROOT
BRANCH   1   2
ATOM      2  C   UNL     1       8.724   2.481  -7.124  1.00  0.00     0.190 C 
BRANCH   2   3
ATOM      3  O   UNL     1       9.697   2.133  -8.072  1.00  0.00    -0.394 OA
ATOM      4  H   UNL     1       9.277   1.480  -8.691  1.00  0.00     0.210 HD
ENDBRANCH   2   3
ENDBRANCH   1   2
BRANCH   1   5
ATOM      5  C   UNL     1       7.050   0.477  -7.157  1.00  0.00     0.181 C 
BRANCH   5   6
ATOM      6  C   UNL     1       7.096  -0.525  -8.341  1.00  0.00     0.209 C 
BRANCH   6   7
ATOM      7  C   UNL     1       7.159  -1.942  -7.838  1.00  0.00     0.258 C 
ATOM      8  O   UNL     1       8.166  -2.366  -7.294  1.00  0.00    -0.300 OA
ENDBRANCH   6   7
BRANCH   6   9
ATOM      9  O   UNL     1       8.203  -0.275  -9.170  1.00  0.00    -0.383 OA
ATOM     10  H   UNL     1       8.393  -1.119  -9.659  1.00  0.00     0.211 HD
ENDBRANCH   6   9
ENDBRANCH   5   6
BRANCH   5  11
ATOM     11  O   UNL     1       7.854   0.059  -6.079  1.00  0.00    -0.387 OA
ATOM     12  H   UNL     1       7.571  -0.854  -5.816  1.00  0.00     0.211 HD
ENDBRANCH   5  11
ENDBRANCH   1   5
BRANCH   1  13
ATOM     13  O   UNL     1       6.321   2.790  -7.081  1.00  0.00    -0.388 OA
ATOM     14  H   UNL     1       5.875   2.320  -6.329  1.00  0.00     0.211 HD
ENDBRANCH   1  13
TORSDOF 8
ENDMDL
MODEL 7
REMARK VINA RESULT:    -4.083     15.385     16.361
REMARK INTER + INTRA:          -6.019
REMARK INTER:                  -5.064
REMARK INTRA:                  -0.954
REMARK UNBOUND:                -0.504
REMARK SMILES O=C[C@H](O)[C@@H](O)[C@@H](O)CO
REMARK SMILES IDX 7 1 9 2 10 3 5 5 3 6 2 7 1 8 4 9 6 11 8 13
REMARK H PARENT 10 4 4 10 6 12 8 14
REMARK Flexibility Score: inf
ROOT
ATOM      1  C   UNL     1      -7.811   3.040  -6.509  1.00  0.00     0.171 C 
ENDROOT
BRANCH   1   2
ATOM      2  C   UNL     1      -6.928   2.196  -7.452  1.00  0.00     0.190 C 
BRANCH   2   3
ATOM      3  O   UNL     1      -6.353   3.012  -8.436  1.00  0.00    -0.394 OA
ATOM      4  H   UNL     1      -5.484   3.329  -8.076  1.00  0.00     0.210 HD
ENDBRANCH   2   3
ENDBRANCH   1   2
BRANCH   1   5
ATOM      5  C   UNL     1      -8.977   3.796  -7.208  1.00  0.00     0.181 C 
BRANCH   5   6
ATOM      6  C   UNL     1      -8.691   5.299  -7.467  1.00  0.00     0.209 C 
BRANCH   6   7
ATOM      7  C   UNL     1      -8.683   5.593  -8.943  1.00  0.00     0.258 C 
ATOM      8  O   UNL     1      -7.723   5.291  -9.634  1.00  0.00    -0.300 OA
ENDBRANCH   6   7
BRANCH   6   9
ATOM      9  O   UNL     1      -7.460   5.682  -6.909  1.00  0.00    -0.383 OA
ATOM     10  H   UNL     1      -7.232   6.568  -7.295  1.00  0.00     0.211 HD
ENDBRANCH   6   9
ENDBRANCH   5   6
BRANCH   5  11
ATOM     11  O   UNL     1      -9.411   3.132  -8.372  1.00  0.00    -0.387 OA
ATOM     12  H   UNL     1     -10.145   3.661  -8.776  1.00  0.00     0.211 HD
ENDBRANCH   5  11
ENDBRANCH   1   5
BRANCH   1  13
ATOM     13  O   UNL     1      -8.314   2.244  -5.465  1.00  0.00    -0.388 OA
ATOM     14  H   UNL     1      -7.759   1.422  -5.420  1.00  0.00     0.211 HD
ENDBRANCH   1  13
TORSDOF 8
ENDMDL
MODEL 8
REMARK VINA RESULT:    -4.055      2.102      2.774
REMARK INTER + INTRA:          -5.981
REMARK INTER:                  -5.548
REMARK INTRA:                  -0.433
REMARK UNBOUND:                -0.504
REMARK SMILES O=C[C@H](O)[C@@H](O)[C@@H](O)CO
REMARK SMILES IDX 7 1 9 2 10 3 5 5 3 6 2 7 1 8 4 9 6 11 8 13
REMARK H PARENT 10 4 4 10 6 12 8 14
REMARK Flexibility Score: inf
ROOT
ATOM      1  C   UNL     1       7.756  -3.854  -6.851  1.00  0.00     0.171 C 
ENDROOT
BRANCH   1   2
ATOM      2  C   UNL     1       8.225  -5.240  -7.343  1.00  0.00     0.190 C 
BRANCH   2   3
ATOM      3  O   UNL     1       7.500  -6.253  -6.698  1.00  0.00    -0.394 OA
ATOM      4  H   UNL     1       7.585  -7.069  -7.257  1.00  0.00     0.210 HD
ENDBRANCH   2   3
ENDBRANCH   1   2
BRANCH   1   5
ATOM      5  C   UNL     1       7.711  -2.753  -7.948  1.00  0.00     0.181 C 
BRANCH   5   6
ATOM      6  C   UNL     1       7.086  -1.413  -7.474  1.00  0.00     0.209 C 
BRANCH   6   7
ATOM      7  C   UNL     1       7.293  -0.336  -8.504  1.00  0.00     0.258 C 
ATOM      8  O   UNL     1       8.262   0.405  -8.446  1.00  0.00    -0.300 OA
ENDBRANCH   6   7
BRANCH   6   9
ATOM      9  O   UNL     1       7.641  -1.002  -6.251  1.00  0.00    -0.383 OA
ATOM     10  H   UNL     1       7.135  -1.467  -5.534  1.00  0.00     0.211 HD
ENDBRANCH   6   9
ENDBRANCH   5   6
BRANCH   5  11
ATOM     11  O   UNL     1       8.968  -2.564  -8.555  1.00  0.00    -0.387 OA
ATOM     12  H   UNL     1       9.636  -2.402  -7.841  1.00  0.00     0.211 HD
ENDBRANCH   5  11
ENDBRANCH   1   5
BRANCH   1  13
ATOM     13  O   UNL     1       6.502  -3.956  -6.223  1.00  0.00    -0.388 OA
ATOM     14  H   UNL     1       6.465  -3.262  -5.514  1.00  0.00     0.211 HD
ENDBRANCH   1  13
TORSDOF 8
ENDMDL
MODEL 9
REMARK VINA RESULT:    -4.037     14.405     15.793
REMARK INTER + INTRA:          -5.957
REMARK INTER:                  -5.486
REMARK INTRA:                  -0.471
REMARK UNBOUND:                -0.504
REMARK SMILES O=C[C@H](O)[C@@H](O)[C@@H](O)CO
REMARK SMILES IDX 7 1 9 2 10 3 5 5 3 6 2 7 1 8 4 9 6 11 8 13
REMARK H PARENT 10 4 4 10 6 12 8 14
REMARK Flexibility Score: inf
ROOT
ATOM      1  C   UNL     1      -7.633   4.012  -6.521  1.00  0.00     0.171 C 
ENDROOT
BRANCH   1   2
ATOM      2  C   UNL     1      -7.943   5.032  -7.637  1.00  0.00     0.190 C 
BRANCH   2   3
ATOM      3  O   UNL     1      -7.874   6.338  -7.132  1.00  0.00    -0.394 OA
ATOM      4  H   UNL     1      -8.547   6.402  -6.405  1.00  0.00     0.210 HD
ENDBRANCH   2   3
ENDBRANCH   1   2
BRANCH   1   5
ATOM      5  C   UNL     1      -7.802   2.522  -6.931  1.00  0.00     0.181 C 
BRANCH   5   6
ATOM      6  C   UNL     1      -6.792   2.044  -8.009  1.00  0.00     0.209 C 
BRANCH   6   7
ATOM      7  C   UNL     1      -7.032   0.600  -8.359  1.00  0.00     0.258 C 
ATOM      8  O   UNL     1      -8.155   0.125  -8.316  1.00  0.00    -0.300 OA
ENDBRANCH   6   7
BRANCH   6   9
ATOM      9  O   UNL     1      -5.469   2.203  -7.565  1.00  0.00    -0.383 OA
ATOM     10  H   UNL     1      -5.439   3.048  -7.044  1.00  0.00     0.211 HD
ENDBRANCH   6   9
ENDBRANCH   5   6
BRANCH   5  11
ATOM     11  O   UNL     1      -7.825   1.667  -5.812  1.00  0.00    -0.387 OA
ATOM     12  H   UNL     1      -6.889   1.463  -5.558  1.00  0.00     0.211 HD
ENDBRANCH   5  11
ENDBRANCH   1   5
BRANCH   1  13
ATOM     13  O   UNL     1      -6.341   4.224  -6.008  1.00  0.00    -0.388 OA
ATOM     14  H   UNL     1      -6.384   5.008  -5.400  1.00  0.00     0.211 HD
ENDBRANCH   1  13
TORSDOF 8
ENDMDL
