MODEL 1
REMARK VINA RESULT:    -4.173      0.000      0.000
REMARK INTER + INTRA:          -4.440
REMARK INTER:                  -4.417
REMARK INTRA:                  -0.023
REMARK UNBOUND:                -0.023
REMARK SMILES O=C([O-])c1cccnc1
REMARK SMILES IDX 4 1 5 2 9 3 6 4 8 5 7 6 2 7 1 8 3 9
REMARK H PARENT
REMARK Flexibility Score: inf
ROOT
ATOM      1  C   UNL     1      32.131  13.125  15.683  1.00  0.00     0.016 A 
ATOM      2  C   UNL     1      33.327  13.151  14.947  1.00  0.00     0.013 A 
ATOM      3  C   UNL     1      31.938  14.098  16.678  1.00  0.00     0.120 A 
ATOM      4  C   UNL     1      34.291  14.125  15.210  1.00  0.00     0.021 A 
ATOM      5  N   UNL     1      32.893  15.036  16.915  1.00  0.00    -0.264 NA
ATOM      6  C   UNL     1      34.054  15.070  16.209  1.00  0.00     0.111 A 
ENDROOT
BRANCH   1   7
ATOM      7  C   UNL     1      31.096  12.101  15.419  1.00  0.00     0.073 C 
ATOM      8  O   UNL     1      31.093  11.458  14.335  1.00  0.00    -0.545 OA
ATOM      9  O   UNL     1      30.113  11.833  16.364  1.00  0.00    -0.545 OA
ENDBRANCH   1   7
TORSDOF 1
ENDMDL
MODEL 2
REMARK VINA RESULT:    -4.130      8.715      9.788
REMARK INTER + INTRA:          -4.395
REMARK INTER:                  -4.378
REMARK INTRA:                  -0.016
REMARK UNBOUND:                -0.023
REMARK SMILES O=C([O-])c1cccnc1
REMARK SMILES IDX 4 1 5 2 9 3 6 4 8 5 7 6 2 7 1 8 3 9
REMARK H PARENT
REMARK Flexibility Score: inf
ROOT
ATOM      1  C   UNL     1      38.968  18.134  11.373  1.00  0.00     0.016 A 
ATOM      2  C   UNL     1      40.253  18.078  11.940  1.00  0.00     0.013 A 
ATOM      3  C   UNL     1      38.849  18.495  10.021  1.00  0.00     0.120 A 
ATOM      4  C   UNL     1      41.374  18.378  11.164  1.00  0.00     0.021 A 
ATOM      5  N   UNL     1      39.957  18.782   9.287  1.00  0.00    -0.264 NA
ATOM      6  C   UNL     1      41.205  18.731   9.825  1.00  0.00     0.111 A 
ENDROOT
BRANCH   1   7
ATOM      7  C   UNL     1      37.767  17.820  12.178  1.00  0.00     0.073 C 
ATOM      8  O   UNL     1      37.144  16.738  12.004  1.00  0.00    -0.545 OA
ATOM      9  O   UNL     1      37.309  18.714  13.138  1.00  0.00    -0.545 OA
ENDBRANCH   1   7
TORSDOF 1
ENDMDL
MODEL 3
REMARK VINA RESULT:    -4.060      7.606      8.808
REMARK INTER + INTRA:          -4.321
REMARK INTER:                  -4.303
REMARK INTRA:                  -0.017
REMARK UNBOUND:                -0.023
REMARK SMILES O=C([O-])c1cccnc1
REMARK SMILES IDX 4 1 5 2 9 3 6 4 8 5 7 6 2 7 1 8 3 9
REMARK H PARENT
REMARK Flexibility Score: inf
ROOT
ATOM      1  C   UNL     1      37.846  17.769  11.608  1.00  0.00     0.016 A 
ATOM      2  C   UNL     1      37.148  18.486  12.594  1.00  0.00     0.013 A 
ATOM      3  C   UNL     1      37.217  16.661  11.016  1.00  0.00     0.120 A 
ATOM      4  C   UNL     1      35.860  18.095  12.965  1.00  0.00     0.021 A 
ATOM      5  N   UNL     1      35.962  16.301  11.396  1.00  0.00    -0.264 NA
ATOM      6  C   UNL     1      35.277  16.988  12.348  1.00  0.00     0.111 A 
ENDROOT
BRANCH   1   7
ATOM      7  C   UNL     1      39.211  18.168  11.200  1.00  0.00     0.073 C 
ATOM      8  O   UNL     1      40.165  18.121  12.022  1.00  0.00    -0.545 OA
ATOM      9  O   UNL     1      39.460  18.599   9.903  1.00  0.00    -0.545 OA
ENDBRANCH   1   7
TORSDOF 1
ENDMDL
MODEL 4
REMARK VINA RESULT:    -4.041      8.631      9.692
REMARK INTER + INTRA:          -4.300
REMARK INTER:                  -4.283
REMARK INTRA:                  -0.017
REMARK UNBOUND:                -0.023
REMARK SMILES O=C([O-])c1cccnc1
REMARK SMILES IDX 4 1 5 2 9 3 6 4 8 5 7 6 2 7 1 8 3 9
REMARK H PARENT
REMARK Flexibility Score: inf
ROOT
ATOM      1  C   UNL     1      38.860  18.116  11.368  1.00  0.00     0.016 A 
ATOM      2  C   UNL     1      38.749  18.325   9.983  1.00  0.00     0.013 A 
ATOM      3  C   UNL     1      40.142  18.117  11.943  1.00  0.00     0.120 A 
ATOM      4  C   UNL     1      39.895  18.525   9.210  1.00  0.00     0.021 A 
ATOM      5  N   UNL     1      41.242  18.314  11.168  1.00  0.00    -0.264 NA
ATOM      6  C   UNL     1      41.146  18.517   9.827  1.00  0.00     0.111 A 
ENDROOT
BRANCH   1   7
ATOM      7  C   UNL     1      37.659  17.902  12.204  1.00  0.00     0.073 C 
ATOM      8  O   UNL     1      36.939  16.880  12.042  1.00  0.00    -0.545 OA
ATOM      9  O   UNL     1      37.308  18.826  13.181  1.00  0.00    -0.545 OA
ENDBRANCH   1   7
TORSDOF 1
ENDMDL
MODEL 5
REMARK VINA RESULT:    -4.023      8.305      9.296
REMARK INTER + INTRA:          -4.281
REMARK INTER:                  -4.262
REMARK INTRA:                  -0.020
REMARK UNBOUND:                -0.023
REMARK SMILES O=C([O-])c1cccnc1
REMARK SMILES IDX 4 1 5 2 9 3 6 4 8 5 7 6 2 7 1 8 3 9
REMARK H PARENT
REMARK Flexibility Score: inf
ROOT
ATOM      1  C   UNL     1      37.924  18.140  10.686  1.00  0.00     0.016 A 
ATOM      2  C   UNL     1      38.220  18.313  12.048  1.00  0.00     0.013 A 
ATOM      3  C   UNL     1      36.586  18.255  10.273  1.00  0.00     0.120 A 
ATOM      4  C   UNL     1      37.198  18.591  12.957  1.00  0.00     0.021 A 
ATOM      5  N   UNL     1      35.609  18.526  11.179  1.00  0.00    -0.264 NA
ATOM      6  C   UNL     1      35.884  18.695  12.499  1.00  0.00     0.111 A 
ENDROOT
BRANCH   1   7
ATOM      7  C   UNL     1      38.993  17.845   9.706  1.00  0.00     0.073 C 
ATOM      8  O   UNL     1      38.823  16.967   8.818  1.00  0.00    -0.545 OA
ATOM      9  O   UNL     1      40.199  18.535   9.750  1.00  0.00    -0.545 OA
ENDBRANCH   1   7
TORSDOF 1
ENDMDL
MODEL 6
REMARK VINA RESULT:    -4.003      7.425      8.081
REMARK INTER + INTRA:          -4.260
REMARK INTER:                  -4.244
REMARK INTRA:                  -0.016
REMARK UNBOUND:                -0.023
REMARK SMILES O=C([O-])c1cccnc1
REMARK SMILES IDX 4 1 5 2 9 3 6 4 8 5 7 6 2 7 1 8 3 9
REMARK H PARENT
REMARK Flexibility Score: inf
ROOT
ATOM      1  C   UNL     1      35.848  18.814  11.840  1.00  0.00     0.016 A 
ATOM      2  C   UNL     1      36.793  18.653  12.868  1.00  0.00     0.013 A 
ATOM      3  C   UNL     1      36.230  18.502  10.525  1.00  0.00     0.120 A 
ATOM      4  C   UNL     1      38.077  18.193  12.572  1.00  0.00     0.021 A 
ATOM      5  N   UNL     1      37.488  18.056  10.264  1.00  0.00    -0.264 NA
ATOM      6  C   UNL     1      38.410  17.897  11.250  1.00  0.00     0.111 A 
ENDROOT
BRANCH   1   7
ATOM      7  C   UNL     1      34.480  19.299  12.133  1.00  0.00     0.073 C 
ATOM      8  O   UNL     1      34.203  20.525  12.041  1.00  0.00    -0.545 OA
ATOM      9  O   UNL     1      33.483  18.409  12.512  1.00  0.00    -0.545 OA
ENDBRANCH   1   7
TORSDOF 1
ENDMDL
MODEL 7
REMARK VINA RESULT:    -3.986      8.325      8.972
REMARK INTER + INTRA:          -4.243
REMARK INTER:                  -4.222
REMARK INTRA:                  -0.021
REMARK UNBOUND:                -0.023
REMARK SMILES O=C([O-])c1cccnc1
REMARK SMILES IDX 4 1 5 2 9 3 6 4 8 5 7 6 2 7 1 8 3 9
REMARK H PARENT
REMARK Flexibility Score: inf
ROOT
ATOM      1  C   UNL     1      37.278  18.089  10.384  1.00  0.00     0.016 A 
ATOM      2  C   UNL     1      36.020  18.401  10.926  1.00  0.00     0.013 A 
ATOM      3  C   UNL     1      38.393  18.090  11.240  1.00  0.00     0.120 A 
ATOM      4  C   UNL     1      35.896  18.702  12.283  1.00  0.00     0.021 A 
ATOM      5  N   UNL     1      38.245  18.387  12.558  1.00  0.00    -0.264 NA
ATOM      6  C   UNL     1      37.032  18.690  13.093  1.00  0.00     0.111 A 
ENDROOT
BRANCH   1   7
ATOM      7  C   UNL     1      37.431  17.766   8.948  1.00  0.00     0.073 C 
ATOM      8  O   UNL     1      38.265  16.900   8.572  1.00  0.00    -0.545 OA
ATOM      9  O   UNL     1      36.655  18.414   7.995  1.00  0.00    -0.545 OA
ENDBRANCH   1   7
TORSDOF 1
ENDMDL
MODEL 8
REMARK VINA RESULT:    -3.945      2.604      3.703
REMARK INTER + INTRA:          -4.199
REMARK INTER:                  -4.176
REMARK INTRA:                  -0.023
REMARK UNBOUND:                -0.023
REMARK SMILES O=C([O-])c1cccnc1
REMARK SMILES IDX 4 1 5 2 9 3 6 4 8 5 7 6 2 7 1 8 3 9
REMARK H PARENT
REMARK Flexibility Score: inf
ROOT
ATOM      1  C   UNL     1      32.366  13.343  15.719  1.00  0.00     0.016 A 
ATOM      2  C   UNL     1      32.150  12.497  14.618  1.00  0.00     0.013 A 
ATOM      3  C   UNL     1      31.432  13.327  16.768  1.00  0.00     0.120 A 
ATOM      4  C   UNL     1      31.028  11.667  14.583  1.00  0.00     0.021 A 
ATOM      5  N   UNL     1      30.347  12.509  16.708  1.00  0.00    -0.264 NA
ATOM      6  C   UNL     1      30.128  11.687  15.648  1.00  0.00     0.111 A 
ENDROOT
BRANCH   1   7
ATOM      7  C   UNL     1      33.549  14.229  15.777  1.00  0.00     0.073 C 
ATOM      8  O   UNL     1      33.646  15.111  16.672  1.00  0.00    -0.545 OA
ATOM      9  O   UNL     1      34.571  14.101  14.844  1.00  0.00    -0.545 OA
ENDBRANCH   1   7
TORSDOF 1
ENDMDL
MODEL 9
REMARK VINA RESULT:    -3.938      1.417      1.447
REMARK INTER + INTRA:          -4.192
REMARK INTER:                  -4.173
REMARK INTRA:                  -0.019
REMARK UNBOUND:                -0.023
REMARK SMILES O=C([O-])c1cccnc1
REMARK SMILES IDX 4 1 5 2 9 3 6 4 8 5 7 6 2 7 1 8 3 9
REMARK H PARENT
REMARK Flexibility Score: inf
ROOT
ATOM      1  C   UNL     1      31.517  13.234  14.841  1.00  0.00     0.016 A 
ATOM      2  C   UNL     1      32.792  12.699  15.090  1.00  0.00     0.013 A 
ATOM      3  C   UNL     1      31.401  14.620  14.643  1.00  0.00     0.120 A 
ATOM      4  C   UNL     1      33.907  13.538  15.137  1.00  0.00     0.021 A 
ATOM      5  N   UNL     1      32.503  15.415  14.694  1.00  0.00    -0.264 NA
ATOM      6  C   UNL     1      33.742  14.908  14.934  1.00  0.00     0.111 A 
ENDROOT
BRANCH   1   7
ATOM      7  C   UNL     1      30.323  12.363  14.787  1.00  0.00     0.073 C 
ATOM      8  O   UNL     1      29.546  12.402  13.795  1.00  0.00    -0.545 OA
ATOM      9  O   UNL     1      30.042  11.487  15.829  1.00  0.00    -0.545 OA
ENDBRANCH   1   7
TORSDOF 1
ENDMDL
