MODEL 1
REMARK VINA RESULT:    -3.713      0.000      0.000
REMARK INTER + INTRA:          -5.402
REMARK INTER:                  -4.907
REMARK INTRA:                  -0.495
REMARK UNBOUND:                -0.495
REMARK SMILES C=C[C@@H](O)CCCCC
REMARK SMILES IDX 6 1 7 2 8 3 9 4 5 5 3 6 2 7 1 8 4 9
REMARK H PARENT 4 10
REMARK Flexibility Score: inf
ROOT
ATOM      1  C   UNL     1     179.857 179.854 185.094  1.00  0.00     0.003 C 
ENDROOT
BRANCH   1   2
ATOM      2  C   UNL     1     180.527 178.493 185.338  1.00  0.00    -0.000 C 
BRANCH   2   3
ATOM      3  C   UNL     1     181.491 178.098 184.209  1.00  0.00    -0.003 C 
ATOM      4  C   UNL     1     181.184 176.719 183.624  1.00  0.00     0.004 C 
ENDBRANCH   2   3
ENDBRANCH   1   2
BRANCH   1   5
ATOM      5  C   UNL     1     179.107 179.865 183.755  1.00  0.00     0.036 C 
BRANCH   5   6
ATOM      6  C   UNL     1     179.331 181.179 182.990  1.00  0.00     0.136 C 
BRANCH   6   7
ATOM      7  C   UNL     1     180.412 181.006 181.951  1.00  0.00    -0.004 C 
ATOM      8  C   UNL     1     180.454 179.926 181.166  1.00  0.00     0.007 C 
ENDBRANCH   6   7
BRANCH   6   9
ATOM      9  O   UNL     1     178.134 181.562 182.362  1.00  0.00    -0.389 OA
ATOM     10  H   UNL     1     178.128 182.555 182.328  1.00  0.00     0.211 HD
ENDBRANCH   6   9
ENDBRANCH   5   6
ENDBRANCH   1   5
TORSDOF 6
ENDMDL
MODEL 2
REMARK VINA RESULT:    -3.585      2.385      3.421
REMARK INTER + INTRA:          -5.233
REMARK INTER:                  -4.908
REMARK INTRA:                  -0.325
REMARK UNBOUND:                -0.495
REMARK SMILES C=C[C@@H](O)CCCCC
REMARK SMILES IDX 6 1 7 2 8 3 9 4 5 5 3 6 2 7 1 8 4 9
REMARK H PARENT 4 10
REMARK Flexibility Score: inf
ROOT
ATOM      1  C   UNL     1     180.814 181.398 186.047  1.00  0.00     0.003 C 
ENDROOT
BRANCH   1   2
ATOM      2  C   UNL     1     181.350 181.093 187.454  1.00  0.00    -0.000 C 
BRANCH   2   3
ATOM      3  C   UNL     1     182.375 179.949 187.462  1.00  0.00    -0.003 C 
ATOM      4  C   UNL     1     183.173 179.877 188.764  1.00  0.00     0.004 C 
ENDBRANCH   2   3
ENDBRANCH   1   2
BRANCH   1   5
ATOM      5  C   UNL     1     179.770 180.357 185.620  1.00  0.00     0.036 C 
BRANCH   5   6
ATOM      6  C   UNL     1     179.781 180.132 184.099  1.00  0.00     0.136 C 
BRANCH   6   7
ATOM      7  C   UNL     1     180.137 178.700 183.782  1.00  0.00    -0.004 C 
ATOM      8  C   UNL     1     180.914 177.981 184.596  1.00  0.00     0.007 C 
ENDBRANCH   6   7
BRANCH   6   9
ATOM      9  O   UNL     1     178.512 180.427 183.575  1.00  0.00    -0.389 OA
ATOM     10  H   UNL     1     178.080 179.560 183.353  1.00  0.00     0.211 HD
ENDBRANCH   6   9
ENDBRANCH   5   6
ENDBRANCH   1   5
TORSDOF 6
ENDMDL
MODEL 3
REMARK VINA RESULT:    -3.559      0.993      1.356
REMARK INTER + INTRA:          -5.199
REMARK INTER:                  -4.783
REMARK INTRA:                  -0.415
REMARK UNBOUND:                -0.495
REMARK SMILES C=C[C@@H](O)CCCCC
REMARK SMILES IDX 6 1 7 2 8 3 9 4 5 5 3 6 2 7 1 8 4 9
REMARK H PARENT 4 10
REMARK Flexibility Score: inf
ROOT
ATOM      1  C   UNL     1     179.614 179.576 185.193  1.00  0.00     0.003 C 
ENDROOT
BRANCH   1   2
ATOM      2  C   UNL     1     180.746 178.538 185.235  1.00  0.00    -0.000 C 
BRANCH   2   3
ATOM      3  C   UNL     1     181.226 178.130 183.834  1.00  0.00    -0.003 C 
ATOM      4  C   UNL     1     181.268 176.615 183.641  1.00  0.00     0.004 C 
ENDBRANCH   2   3
ENDBRANCH   1   2
BRANCH   1   5
ATOM      5  C   UNL     1     179.140 179.814 183.753  1.00  0.00     0.036 C 
BRANCH   5   6
ATOM      6  C   UNL     1     179.136 181.309 183.396  1.00  0.00     0.136 C 
BRANCH   6   7
ATOM      7  C   UNL     1     180.515 181.752 182.972  1.00  0.00    -0.004 C 
ATOM      8  C   UNL     1     181.230 182.602 183.715  1.00  0.00     0.007 C 
ENDBRANCH   6   7
BRANCH   6   9
ATOM      9  O   UNL     1     178.228 181.536 182.348  1.00  0.00    -0.389 OA
ATOM     10  H   UNL     1     178.082 180.663 181.895  1.00  0.00     0.211 HD
ENDBRANCH   6   9
ENDBRANCH   5   6
ENDBRANCH   1   5
TORSDOF 6
ENDMDL
MODEL 4
REMARK VINA RESULT:    -3.536      1.074      1.575
REMARK INTER + INTRA:          -5.168
REMARK INTER:                  -4.937
REMARK INTRA:                  -0.231
REMARK UNBOUND:                -0.495
REMARK SMILES C=C[C@@H](O)CCCCC
REMARK SMILES IDX 6 1 7 2 8 3 9 4 5 5 3 6 2 7 1 8 4 9
REMARK H PARENT 4 10
REMARK Flexibility Score: inf
ROOT
ATOM      1  C   UNL     1     181.068 178.550 184.021  1.00  0.00     0.003 C 
ENDROOT
BRANCH   1   2
ATOM      2  C   UNL     1     180.886 177.039 183.813  1.00  0.00    -0.000 C 
BRANCH   2   3
ATOM      3  C   UNL     1     182.038 176.408 183.017  1.00  0.00    -0.003 C 
ATOM      4  C   UNL     1     182.022 174.881 183.062  1.00  0.00     0.004 C 
ENDBRANCH   2   3
ENDBRANCH   1   2
BRANCH   1   5
ATOM      5  C   UNL     1     179.710 179.258 184.126  1.00  0.00     0.036 C 
BRANCH   5   6
ATOM      6  C   UNL     1     179.647 180.503 183.227  1.00  0.00     0.136 C 
BRANCH   6   7
ATOM      7  C   UNL     1     180.372 180.250 181.927  1.00  0.00    -0.004 C 
ATOM      8  C   UNL     1     180.266 181.094 180.897  1.00  0.00     0.007 C 
ENDBRANCH   6   7
BRANCH   6   9
ATOM      9  O   UNL     1     178.304 180.818 182.961  1.00  0.00    -0.389 OA
ATOM     10  H   UNL     1     178.288 181.330 182.110  1.00  0.00     0.211 HD
ENDBRANCH   6   9
ENDBRANCH   5   6
ENDBRANCH   1   5
TORSDOF 6
ENDMDL
MODEL 5
REMARK VINA RESULT:    -3.491      1.814      3.149
REMARK INTER + INTRA:          -5.109
REMARK INTER:                  -4.681
REMARK INTRA:                  -0.428
REMARK UNBOUND:                -0.495
REMARK SMILES C=C[C@@H](O)CCCCC
REMARK SMILES IDX 6 1 7 2 8 3 9 4 5 5 3 6 2 7 1 8 4 9
REMARK H PARENT 4 10
REMARK Flexibility Score: inf
ROOT
ATOM      1  C   UNL     1     179.741 179.776 183.902  1.00  0.00     0.003 C 
ENDROOT
BRANCH   1   2
ATOM      2  C   UNL     1     180.537 178.669 183.194  1.00  0.00    -0.000 C 
BRANCH   2   3
ATOM      3  C   UNL     1     180.964 177.544 184.149  1.00  0.00    -0.003 C 
ATOM      4  C   UNL     1     181.528 176.328 183.415  1.00  0.00     0.004 C 
ENDBRANCH   2   3
ENDBRANCH   1   2
BRANCH   1   5
ATOM      5  C   UNL     1     179.598 179.477 185.401  1.00  0.00     0.036 C 
BRANCH   5   6
ATOM      6  C   UNL     1     179.745 180.749 186.251  1.00  0.00     0.136 C 
BRANCH   6   7
ATOM      7  C   UNL     1     181.199 181.008 186.563  1.00  0.00    -0.004 C 
ATOM      8  C   UNL     1     182.034 180.009 186.860  1.00  0.00     0.007 C 
ENDBRANCH   6   7
BRANCH   6   9
ATOM      9  O   UNL     1     179.214 181.843 185.548  1.00  0.00    -0.389 OA
ATOM     10  H   UNL     1     178.998 182.543 186.219  1.00  0.00     0.211 HD
ENDBRANCH   6   9
ENDBRANCH   5   6
ENDBRANCH   1   5
TORSDOF 6
ENDMDL
MODEL 6
REMARK VINA RESULT:    -3.440      1.377      1.760
REMARK INTER + INTRA:          -5.042
REMARK INTER:                  -4.489
REMARK INTRA:                  -0.553
REMARK UNBOUND:                -0.495
REMARK SMILES C=C[C@@H](O)CCCCC
REMARK SMILES IDX 6 1 7 2 8 3 9 4 5 5 3 6 2 7 1 8 4 9
REMARK H PARENT 4 10
REMARK Flexibility Score: inf
ROOT
ATOM      1  C   UNL     1     181.305 179.680 185.901  1.00  0.00     0.003 C 
ENDROOT
BRANCH   1   2
ATOM      2  C   UNL     1     181.859 178.682 184.872  1.00  0.00    -0.000 C 
BRANCH   2   3
ATOM      3  C   UNL     1     180.812 177.650 184.426  1.00  0.00    -0.003 C 
ATOM      4  C   UNL     1     181.219 176.908 183.153  1.00  0.00     0.004 C 
ENDBRANCH   2   3
ENDBRANCH   1   2
BRANCH   1   5
ATOM      5  C   UNL     1     179.841 180.028 185.595  1.00  0.00     0.036 C 
BRANCH   5   6
ATOM      6  C   UNL     1     179.731 181.245 184.662  1.00  0.00     0.136 C 
BRANCH   6   7
ATOM      7  C   UNL     1     179.113 180.844 183.345  1.00  0.00    -0.004 C 
ATOM      8  C   UNL     1     179.869 180.576 182.277  1.00  0.00     0.007 C 
ENDBRANCH   6   7
BRANCH   6   9
ATOM      9  O   UNL     1     178.936 182.229 185.273  1.00  0.00    -0.389 OA
ATOM     10  H   UNL     1     178.661 182.865 184.560  1.00  0.00     0.211 HD
ENDBRANCH   6   9
ENDBRANCH   5   6
ENDBRANCH   1   5
TORSDOF 6
ENDMDL
MODEL 7
REMARK VINA RESULT:    -3.416      2.793      4.212
REMARK INTER + INTRA:          -5.009
REMARK INTER:                  -4.792
REMARK INTRA:                  -0.217
REMARK UNBOUND:                -0.495
REMARK SMILES C=C[C@@H](O)CCCCC
REMARK SMILES IDX 6 1 7 2 8 3 9 4 5 5 3 6 2 7 1 8 4 9
REMARK H PARENT 4 10
REMARK Flexibility Score: inf
ROOT
ATOM      1  C   UNL     1     180.435 178.882 185.617  1.00  0.00     0.003 C 
ENDROOT
BRANCH   1   2
ATOM      2  C   UNL     1     180.223 178.962 184.098  1.00  0.00    -0.000 C 
BRANCH   2   3
ATOM      3  C   UNL     1     181.237 178.115 183.314  1.00  0.00    -0.003 C 
ATOM      4  C   UNL     1     181.201 176.638 183.706  1.00  0.00     0.004 C 
ENDBRANCH   2   3
ENDBRANCH   1   2
BRANCH   1   5
ATOM      5  C   UNL     1     181.627 179.746 186.052  1.00  0.00     0.036 C 
BRANCH   5   6
ATOM      6  C   UNL     1     181.177 180.964 186.874  1.00  0.00     0.136 C 
BRANCH   6   7
ATOM      7  C   UNL     1     181.997 181.079 188.136  1.00  0.00    -0.004 C 
ATOM      8  C   UNL     1     182.790 180.084 188.542  1.00  0.00     0.007 C 
ENDBRANCH   6   7
BRANCH   6   9
ATOM      9  O   UNL     1     181.333 182.128 186.105  1.00  0.00    -0.389 OA
ATOM     10  H   UNL     1     182.272 182.431 186.221  1.00  0.00     0.211 HD
ENDBRANCH   6   9
ENDBRANCH   5   6
ENDBRANCH   1   5
TORSDOF 6
ENDMDL
MODEL 8
REMARK VINA RESULT:    -3.411      1.533      2.876
REMARK INTER + INTRA:          -5.003
REMARK INTER:                  -4.784
REMARK INTRA:                  -0.219
REMARK UNBOUND:                -0.495
REMARK SMILES C=C[C@@H](O)CCCCC
REMARK SMILES IDX 6 1 7 2 8 3 9 4 5 5 3 6 2 7 1 8 4 9
REMARK H PARENT 4 10
REMARK Flexibility Score: inf
ROOT
ATOM      1  C   UNL     1     181.688 178.348 183.946  1.00  0.00     0.003 C 
ENDROOT
BRANCH   1   2
ATOM      2  C   UNL     1     181.084 176.946 183.767  1.00  0.00    -0.000 C 
BRANCH   2   3
ATOM      3  C   UNL     1     181.769 176.145 182.650  1.00  0.00    -0.003 C 
ATOM      4  C   UNL     1     181.980 174.677 183.019  1.00  0.00     0.004 C 
ENDBRANCH   2   3
ENDBRANCH   1   2
BRANCH   1   5
ATOM      5  C   UNL     1     180.738 179.427 183.410  1.00  0.00     0.036 C 
BRANCH   5   6
ATOM      6  C   UNL     1     179.394 179.424 184.157  1.00  0.00     0.136 C 
BRANCH   6   7
ATOM      7  C   UNL     1     179.602 179.762 185.613  1.00  0.00    -0.004 C 
ATOM      8  C   UNL     1     179.941 180.996 185.998  1.00  0.00     0.007 C 
ENDBRANCH   6   7
BRANCH   6   9
ATOM      9  O   UNL     1     178.534 180.368 183.574  1.00  0.00    -0.389 OA
ATOM     10  H   UNL     1     178.700 180.348 182.594  1.00  0.00     0.211 HD
ENDBRANCH   6   9
ENDBRANCH   5   6
ENDBRANCH   1   5
TORSDOF 6
ENDMDL
MODEL 9
REMARK VINA RESULT:    -3.313      1.422      2.002
REMARK INTER + INTRA:          -4.874
REMARK INTER:                  -4.635
REMARK INTRA:                  -0.239
REMARK UNBOUND:                -0.495
REMARK SMILES C=C[C@@H](O)CCCCC
REMARK SMILES IDX 6 1 7 2 8 3 9 4 5 5 3 6 2 7 1 8 4 9
REMARK H PARENT 4 10
REMARK Flexibility Score: inf
ROOT
ATOM      1  C   UNL     1     180.484 178.954 184.154  1.00  0.00     0.003 C 
ENDROOT
BRANCH   1   2
ATOM      2  C   UNL     1     180.823 179.032 185.651  1.00  0.00    -0.000 C 
BRANCH   2   3
ATOM      3  C   UNL     1     182.172 179.718 185.916  1.00  0.00    -0.003 C 
ATOM      4  C   UNL     1     182.516 179.789 187.404  1.00  0.00     0.004 C 
ENDBRANCH   2   3
ENDBRANCH   1   2
BRANCH   1   5
ATOM      5  C   UNL     1     179.172 179.691 183.849  1.00  0.00     0.036 C 
BRANCH   5   6
ATOM      6  C   UNL     1     179.419 180.989 183.063  1.00  0.00     0.136 C 
BRANCH   6   7
ATOM      7  C   UNL     1     180.490 180.777 182.021  1.00  0.00    -0.004 C 
ATOM      8  C   UNL     1     180.336 181.216 180.769  1.00  0.00     0.007 C 
ENDBRANCH   6   7
BRANCH   6   9
ATOM      9  O   UNL     1     178.227 181.388 182.437  1.00  0.00    -0.389 OA
ATOM     10  H   UNL     1     178.438 181.541 181.478  1.00  0.00     0.211 HD
ENDBRANCH   6   9
ENDBRANCH   5   6
ENDBRANCH   1   5
TORSDOF 6
ENDMDL
