MODEL 1
REMARK VINA RESULT:    -6.711      0.000      0.000
REMARK INTER + INTRA:         -12.263
REMARK INTER:                 -11.419
REMARK INTRA:                  -0.845
REMARK UNBOUND:                -0.845
REMARK SMILES CCCCCCCCCCCCCC(=O)[O-]
REMARK SMILES IDX 8 1 9 2 10 3 11 4 12 5 13 6 14 7 15 8 16 9 7 10 6 11 5 12
REMARK SMILES IDX 4 13 3 14 2 15 1 16
REMARK H PARENT
REMARK Flexibility Score: inf
ROOT
ATOM      1  C   UNL     1     -21.447 -21.636  31.501  1.00  0.00     0.000 C 
ENDROOT
BRANCH   1   2
ATOM      2  C   UNL     1     -21.521 -20.287  30.765  1.00  0.00     0.000 C 
BRANCH   2   3
ATOM      3  C   UNL     1     -21.796 -20.451  29.261  1.00  0.00     0.000 C 
BRANCH   3   4
ATOM      4  C   UNL     1     -21.146 -19.340  28.419  1.00  0.00     0.000 C 
BRANCH   4   5
ATOM      5  C   UNL     1     -20.750 -18.117  29.261  1.00  0.00     0.006 C 
BRANCH   5   6
ATOM      6  C   UNL     1     -19.239 -17.853  29.244  1.00  0.00     0.053 C 
BRANCH   6   7
ATOM      7  C   UNL     1     -18.825 -17.101  30.470  1.00  0.00     0.041 C 
ATOM      8  O   UNL     1     -18.291 -15.966  30.367  1.00  0.00    -0.550 OA
ATOM      9  O   UNL     1     -19.075 -17.634  31.728  1.00  0.00    -0.550 OA
ENDBRANCH   6   7
ENDBRANCH   5   6
ENDBRANCH   4   5
ENDBRANCH   3   4
ENDBRANCH   2   3
ENDBRANCH   1   2
BRANCH   1  10
ATOM     10  C   UNL     1     -22.731 -22.474  31.329  1.00  0.00     0.000 C 
BRANCH  10  11
ATOM     11  C   UNL     1     -22.491 -23.855  30.691  1.00  0.00    -0.000 C 
BRANCH  11  12
ATOM     12  C   UNL     1     -22.738 -23.924  29.172  1.00  0.00    -0.000 C 
BRANCH  12  13
ATOM     13  C   UNL     1     -23.189 -25.300  28.649  1.00  0.00    -0.000 C 
BRANCH  13  14
ATOM     14  C   UNL     1     -24.619 -25.662  29.075  1.00  0.00    -0.000 C 
BRANCH  14  15
ATOM     15  C   UNL     1     -24.619 -26.858  30.035  1.00  0.00    -0.003 C 
ATOM     16  C   UNL     1     -25.219 -26.481  31.386  1.00  0.00     0.004 C 
ENDBRANCH  14  15
ENDBRANCH  13  14
ENDBRANCH  12  13
ENDBRANCH  11  12
ENDBRANCH  10  11
ENDBRANCH   1  10
TORSDOF 12
ENDMDL
MODEL 2
REMARK VINA RESULT:    -6.679      1.566      2.383
REMARK INTER + INTRA:         -12.210
REMARK INTER:                 -11.470
REMARK INTRA:                  -0.740
REMARK UNBOUND:                -0.845
REMARK SMILES CCCCCCCCCCCCCC(=O)[O-]
REMARK SMILES IDX 8 1 9 2 10 3 11 4 12 5 13 6 14 7 15 8 16 9 7 10 6 11 5 12
REMARK SMILES IDX 4 13 3 14 2 15 1 16
REMARK H PARENT
REMARK Flexibility Score: inf
ROOT
ATOM      1  C   UNL     1     -22.177 -21.995  28.394  1.00  0.00     0.000 C 
ENDROOT
BRANCH   1   2
ATOM      2  C   UNL     1     -21.819 -20.820  29.320  1.00  0.00     0.000 C 
BRANCH   2   3
ATOM      3  C   UNL     1     -21.282 -19.603  28.550  1.00  0.00     0.000 C 
BRANCH   3   4
ATOM      4  C   UNL     1     -20.637 -18.558  29.475  1.00  0.00     0.000 C 
BRANCH   4   5
ATOM      5  C   UNL     1     -20.043 -17.371  28.700  1.00  0.00     0.006 C 
BRANCH   5   6
ATOM      6  C   UNL     1     -18.512 -17.435  28.605  1.00  0.00     0.053 C 
BRANCH   6   7
ATOM      7  C   UNL     1     -17.966 -16.136  28.101  1.00  0.00     0.041 C 
ATOM      8  O   UNL     1     -17.511 -15.284  28.908  1.00  0.00    -0.550 OA
ATOM      9  O   UNL     1     -17.914 -15.888  26.735  1.00  0.00    -0.550 OA
ENDBRANCH   6   7
ENDBRANCH   5   6
ENDBRANCH   4   5
ENDBRANCH   3   4
ENDBRANCH   2   3
ENDBRANCH   1   2
BRANCH   1  10
ATOM     10  C   UNL     1     -22.003 -23.365  29.085  1.00  0.00     0.000 C 
BRANCH  10  11
ATOM     11  C   UNL     1     -21.964 -23.285  30.622  1.00  0.00    -0.000 C 
BRANCH  11  12
ATOM     12  C   UNL     1     -23.263 -23.713  31.330  1.00  0.00    -0.000 C 
BRANCH  12  13
ATOM     13  C   UNL     1     -23.563 -25.223  31.280  1.00  0.00    -0.000 C 
BRANCH  13  14
ATOM     14  C   UNL     1     -25.007 -25.532  30.860  1.00  0.00    -0.000 C 
BRANCH  14  15
ATOM     15  C   UNL     1     -25.090 -25.828  29.358  1.00  0.00    -0.003 C 
ATOM     16  C   UNL     1     -23.848 -26.571  28.873  1.00  0.00     0.004 C 
ENDBRANCH  14  15
ENDBRANCH  13  14
ENDBRANCH  12  13
ENDBRANCH  11  12
ENDBRANCH  10  11
ENDBRANCH   1  10
TORSDOF 12
ENDMDL
MODEL 3
REMARK VINA RESULT:    -6.677      4.784      8.384
REMARK INTER + INTRA:         -12.205
REMARK INTER:                 -11.224
REMARK INTRA:                  -0.980
REMARK UNBOUND:                -0.845
REMARK SMILES CCCCCCCCCCCCCC(=O)[O-]
REMARK SMILES IDX 8 1 9 2 10 3 11 4 12 5 13 6 14 7 15 8 16 9 7 10 6 11 5 12
REMARK SMILES IDX 4 13 3 14 2 15 1 16
REMARK H PARENT
REMARK Flexibility Score: inf
ROOT
ATOM      1  C   UNL     1     -22.070 -22.132  28.375  1.00  0.00     0.000 C 
ENDROOT
BRANCH   1   2
ATOM      2  C   UNL     1     -21.742 -23.431  29.133  1.00  0.00     0.000 C 
BRANCH   2   3
ATOM      3  C   UNL     1     -22.934 -24.400  29.186  1.00  0.00     0.000 C 
BRANCH   3   4
ATOM      4  C   UNL     1     -23.181 -24.953  30.600  1.00  0.00     0.000 C 
BRANCH   4   5
ATOM      5  C   UNL     1     -24.580 -25.570  30.755  1.00  0.00     0.006 C 
BRANCH   5   6
ATOM      6  C   UNL     1     -25.290 -25.769  29.409  1.00  0.00     0.053 C 
BRANCH   6   7
ATOM      7  C   UNL     1     -25.541 -27.223  29.161  1.00  0.00     0.041 C 
ATOM      8  O   UNL     1     -25.383 -27.705  28.009  1.00  0.00    -0.550 OA
ATOM      9  O   UNL     1     -25.902 -28.055  30.213  1.00  0.00    -0.550 OA
ENDBRANCH   6   7
ENDBRANCH   5   6
ENDBRANCH   4   5
ENDBRANCH   3   4
ENDBRANCH   2   3
ENDBRANCH   1   2
BRANCH   1  10
ATOM     10  C   UNL     1     -22.378 -20.956  29.327  1.00  0.00     0.000 C 
BRANCH  10  11
ATOM     11  C   UNL     1     -22.122 -21.275  30.812  1.00  0.00    -0.000 C 
BRANCH  11  12
ATOM     12  C   UNL     1     -20.879 -20.598  31.419  1.00  0.00    -0.000 C 
BRANCH  12  13
ATOM     13  C   UNL     1     -20.781 -19.081  31.173  1.00  0.00    -0.000 C 
BRANCH  13  14
ATOM     14  C   UNL     1     -19.342 -18.607  30.921  1.00  0.00    -0.000 C 
BRANCH  14  15
ATOM     15  C   UNL     1     -19.128 -18.266  29.442  1.00  0.00    -0.003 C 
ATOM     16  C   UNL     1     -20.446 -17.905  28.763  1.00  0.00     0.004 C 
ENDBRANCH  14  15
ENDBRANCH  13  14
ENDBRANCH  12  13
ENDBRANCH  11  12
ENDBRANCH  10  11
ENDBRANCH   1  10
TORSDOF 12
ENDMDL
MODEL 4
REMARK VINA RESULT:    -6.660      4.152      8.188
REMARK INTER + INTRA:         -12.177
REMARK INTER:                 -11.328
REMARK INTRA:                  -0.849
REMARK UNBOUND:                -0.845
REMARK SMILES CCCCCCCCCCCCCC(=O)[O-]
REMARK SMILES IDX 8 1 9 2 10 3 11 4 12 5 13 6 14 7 15 8 16 9 7 10 6 11 5 12
REMARK SMILES IDX 4 13 3 14 2 15 1 16
REMARK H PARENT
REMARK Flexibility Score: inf
ROOT
ATOM      1  C   UNL     1     -22.616 -22.426  31.254  1.00  0.00     0.000 C 
ENDROOT
BRANCH   1   2
ATOM      2  C   UNL     1     -22.260 -23.791  30.642  1.00  0.00     0.000 C 
BRANCH   2   3
ATOM      3  C   UNL     1     -22.175 -23.746  29.107  1.00  0.00     0.000 C 
BRANCH   3   4
ATOM      4  C   UNL     1     -23.217 -24.654  28.432  1.00  0.00     0.000 C 
BRANCH   4   5
ATOM      5  C   UNL     1     -23.361 -26.012  29.138  1.00  0.00     0.006 C 
BRANCH   5   6
ATOM      6  C   UNL     1     -24.797 -26.552  29.092  1.00  0.00     0.053 C 
BRANCH   6   7
ATOM      7  C   UNL     1     -25.213 -27.047  30.441  1.00  0.00     0.041 C 
ATOM      8  O   UNL     1     -24.868 -26.423  31.479  1.00  0.00    -0.550 OA
ATOM      9  O   UNL     1     -26.021 -28.171  30.550  1.00  0.00    -0.550 OA
ENDBRANCH   6   7
ENDBRANCH   5   6
ENDBRANCH   4   5
ENDBRANCH   3   4
ENDBRANCH   2   3
ENDBRANCH   1   2
BRANCH   1  10
ATOM     10  C   UNL     1     -21.369 -21.652  31.733  1.00  0.00     0.000 C 
BRANCH  10  11
ATOM     11  C   UNL     1     -21.227 -20.252  31.105  1.00  0.00    -0.000 C 
BRANCH  11  12
ATOM     12  C   UNL     1     -21.794 -20.117  29.679  1.00  0.00    -0.000 C 
BRANCH  12  13
ATOM     13  C   UNL     1     -20.881 -19.376  28.685  1.00  0.00    -0.000 C 
BRANCH  13  14
ATOM     14  C   UNL     1     -20.622 -17.917  29.084  1.00  0.00    -0.000 C 
BRANCH  14  15
ATOM     15  C   UNL     1     -19.145 -17.699  29.437  1.00  0.00    -0.003 C 
ATOM     16  C   UNL     1     -18.964 -17.475  30.935  1.00  0.00     0.004 C 
ENDBRANCH  14  15
ENDBRANCH  13  14
ENDBRANCH  12  13
ENDBRANCH  11  12
ENDBRANCH  10  11
ENDBRANCH   1  10
TORSDOF 12
ENDMDL
MODEL 5
REMARK VINA RESULT:    -6.654      0.927      1.378
REMARK INTER + INTRA:         -12.167
REMARK INTER:                 -11.445
REMARK INTRA:                  -0.722
REMARK UNBOUND:                -0.845
REMARK SMILES CCCCCCCCCCCCCC(=O)[O-]
REMARK SMILES IDX 8 1 9 2 10 3 11 4 12 5 13 6 14 7 15 8 16 9 7 10 6 11 5 12
REMARK SMILES IDX 4 13 3 14 2 15 1 16
REMARK H PARENT
REMARK Flexibility Score: inf
ROOT
ATOM      1  C   UNL     1     -21.888 -22.037  31.240  1.00  0.00     0.000 C 
ENDROOT
BRANCH   1   2
ATOM      2  C   UNL     1     -22.378 -20.752  30.552  1.00  0.00     0.000 C 
BRANCH   2   3
ATOM      3  C   UNL     1     -22.099 -20.749  29.040  1.00  0.00     0.000 C 
BRANCH   3   4
ATOM      4  C   UNL     1     -21.085 -19.668  28.630  1.00  0.00     0.000 C 
BRANCH   4   5
ATOM      5  C   UNL     1     -20.747 -18.709  29.782  1.00  0.00     0.006 C 
BRANCH   5   6
ATOM      6  C   UNL     1     -19.893 -17.518  29.327  1.00  0.00     0.053 C 
BRANCH   6   7
ATOM      7  C   UNL     1     -18.970 -17.088  30.423  1.00  0.00     0.041 C 
ATOM      8  O   UNL     1     -18.847 -17.791  31.460  1.00  0.00    -0.550 OA
ATOM      9  O   UNL     1     -18.210 -15.935  30.279  1.00  0.00    -0.550 OA
ENDBRANCH   6   7
ENDBRANCH   5   6
ENDBRANCH   4   5
ENDBRANCH   3   4
ENDBRANCH   2   3
ENDBRANCH   1   2
BRANCH   1  10
ATOM     10  C   UNL     1     -23.048 -22.879  31.812  1.00  0.00     0.000 C 
BRANCH  10  11
ATOM     11  C   UNL     1     -23.255 -24.224  31.090  1.00  0.00    -0.000 C 
BRANCH  11  12
ATOM     12  C   UNL     1     -22.513 -24.364  29.747  1.00  0.00    -0.000 C 
BRANCH  12  13
ATOM     13  C   UNL     1     -23.318 -25.049  28.628  1.00  0.00    -0.000 C 
BRANCH  13  14
ATOM     14  C   UNL     1     -23.880 -26.416  29.047  1.00  0.00    -0.000 C 
BRANCH  14  15
ATOM     15  C   UNL     1     -25.413 -26.415  29.002  1.00  0.00    -0.003 C 
ATOM     16  C   UNL     1     -25.943 -27.623  28.235  1.00  0.00     0.004 C 
ENDBRANCH  14  15
ENDBRANCH  13  14
ENDBRANCH  12  13
ENDBRANCH  11  12
ENDBRANCH  10  11
ENDBRANCH   1  10
TORSDOF 12
ENDMDL
MODEL 6
REMARK VINA RESULT:    -6.621      4.402      8.717
REMARK INTER + INTRA:         -12.110
REMARK INTER:                 -11.509
REMARK INTRA:                  -0.600
REMARK UNBOUND:                -0.845
REMARK SMILES CCCCCCCCCCCCCC(=O)[O-]
REMARK SMILES IDX 8 1 9 2 10 3 11 4 12 5 13 6 14 7 15 8 16 9 7 10 6 11 5 12
REMARK SMILES IDX 4 13 3 14 2 15 1 16
REMARK H PARENT
REMARK Flexibility Score: inf
ROOT
ATOM      1  C   UNL     1     -22.100 -20.961  30.716  1.00  0.00     0.000 C 
ENDROOT
BRANCH   1   2
ATOM      2  C   UNL     1     -22.223 -22.362  31.338  1.00  0.00     0.000 C 
BRANCH   2   3
ATOM      3  C   UNL     1     -21.933 -23.484  30.327  1.00  0.00     0.000 C 
BRANCH   3   4
ATOM      4  C   UNL     1     -23.095 -24.485  30.208  1.00  0.00     0.000 C 
BRANCH   4   5
ATOM      5  C   UNL     1     -23.287 -24.996  28.771  1.00  0.00     0.006 C 
BRANCH   5   6
ATOM      6  C   UNL     1     -23.713 -26.469  28.722  1.00  0.00     0.053 C 
BRANCH   6   7
ATOM      7  C   UNL     1     -25.095 -26.632  29.271  1.00  0.00     0.041 C 
ATOM      8  O   UNL     1     -26.070 -26.066  28.711  1.00  0.00    -0.550 OA
ATOM      9  O   UNL     1     -25.313 -27.447  30.374  1.00  0.00    -0.550 OA
ENDBRANCH   6   7
ENDBRANCH   5   6
ENDBRANCH   4   5
ENDBRANCH   3   4
ENDBRANCH   2   3
ENDBRANCH   1   2
BRANCH   1  10
ATOM     10  C   UNL     1     -22.076 -21.000  29.173  1.00  0.00     0.000 C 
BRANCH  10  11
ATOM     11  C   UNL     1     -21.375 -19.788  28.532  1.00  0.00    -0.000 C 
BRANCH  11  12
ATOM     12  C   UNL     1     -20.813 -18.756  29.529  1.00  0.00    -0.000 C 
BRANCH  12  13
ATOM     13  C   UNL     1     -20.286 -17.458  28.892  1.00  0.00    -0.000 C 
BRANCH  13  14
ATOM     14  C   UNL     1     -18.753 -17.415  28.802  1.00  0.00    -0.000 C 
BRANCH  14  15
ATOM     15  C   UNL     1     -18.291 -16.320  27.833  1.00  0.00    -0.003 C 
ATOM     16  C   UNL     1     -17.459 -15.263  28.552  1.00  0.00     0.004 C 
ENDBRANCH  14  15
ENDBRANCH  13  14
ENDBRANCH  12  13
ENDBRANCH  11  12
ENDBRANCH  10  11
ENDBRANCH   1  10
TORSDOF 12
ENDMDL
MODEL 7
REMARK VINA RESULT:    -6.570      5.272      8.957
REMARK INTER + INTRA:         -12.023
REMARK INTER:                 -11.390
REMARK INTRA:                  -0.634
REMARK UNBOUND:                -0.845
REMARK SMILES CCCCCCCCCCCCCC(=O)[O-]
REMARK SMILES IDX 8 1 9 2 10 3 11 4 12 5 13 6 14 7 15 8 16 9 7 10 6 11 5 12
REMARK SMILES IDX 4 13 3 14 2 15 1 16
REMARK H PARENT
REMARK Flexibility Score: inf
ROOT
ATOM      1  C   UNL     1     -22.345 -23.646  30.605  1.00  0.00     0.000 C 
ENDROOT
BRANCH   1   2
ATOM      2  C   UNL     1     -22.287 -23.560  29.070  1.00  0.00     0.000 C 
BRANCH   2   3
ATOM      3  C   UNL     1     -22.967 -24.757  28.385  1.00  0.00     0.000 C 
BRANCH   3   4
ATOM      4  C   UNL     1     -23.868 -25.551  29.346  1.00  0.00     0.000 C 
BRANCH   4   5
ATOM      5  C   UNL     1     -24.390 -26.855  28.722  1.00  0.00     0.006 C 
BRANCH   5   6
ATOM      6  C   UNL     1     -25.917 -26.865  28.567  1.00  0.00     0.053 C 
BRANCH   6   7
ATOM      7  C   UNL     1     -26.376 -28.171  28.000  1.00  0.00     0.041 C 
ATOM      8  O   UNL     1     -26.834 -29.065  28.759  1.00  0.00    -0.550 OA
ATOM      9  O   UNL     1     -26.342 -28.383  26.628  1.00  0.00    -0.550 OA
ENDBRANCH   6   7
ENDBRANCH   5   6
ENDBRANCH   4   5
ENDBRANCH   3   4
ENDBRANCH   2   3
ENDBRANCH   1   2
BRANCH   1  10
ATOM     10  C   UNL     1     -22.559 -22.268  31.266  1.00  0.00     0.000 C 
BRANCH  10  11
ATOM     11  C   UNL     1     -21.269 -21.637  31.821  1.00  0.00    -0.000 C 
BRANCH  11  12
ATOM     12  C   UNL     1     -20.947 -20.230  31.284  1.00  0.00    -0.000 C 
BRANCH  12  13
ATOM     13  C   UNL     1     -21.588 -19.892  29.925  1.00  0.00    -0.000 C 
BRANCH  13  14
ATOM     14  C   UNL     1     -20.611 -19.209  28.957  1.00  0.00    -0.000 C 
BRANCH  14  15
ATOM     15  C   UNL     1     -20.421 -17.731  29.321  1.00  0.00    -0.003 C 
ATOM     16  C   UNL     1     -19.234 -17.128  28.578  1.00  0.00     0.004 C 
ENDBRANCH  14  15
ENDBRANCH  13  14
ENDBRANCH  12  13
ENDBRANCH  11  12
ENDBRANCH  10  11
ENDBRANCH   1  10
TORSDOF 12
ENDMDL
MODEL 8
REMARK VINA RESULT:    -6.519      1.469      2.126
REMARK INTER + INTRA:         -11.936
REMARK INTER:                 -11.439
REMARK INTRA:                  -0.497
REMARK UNBOUND:                -0.845
REMARK SMILES CCCCCCCCCCCCCC(=O)[O-]
REMARK SMILES IDX 8 1 9 2 10 3 11 4 12 5 13 6 14 7 15 8 16 9 7 10 6 11 5 12
REMARK SMILES IDX 4 13 3 14 2 15 1 16
REMARK H PARENT
REMARK Flexibility Score: inf
ROOT
ATOM      1  C   UNL     1     -22.166 -23.287  30.883  1.00  0.00     0.000 C 
ENDROOT
BRANCH   1   2
ATOM      2  C   UNL     1     -21.800 -21.876  31.376  1.00  0.00     0.000 C 
BRANCH   2   3
ATOM      3  C   UNL     1     -21.993 -20.804  30.292  1.00  0.00     0.000 C 
BRANCH   3   4
ATOM      4  C   UNL     1     -21.233 -19.504  30.606  1.00  0.00     0.000 C 
BRANCH   4   5
ATOM      5  C   UNL     1     -20.848 -18.725  29.339  1.00  0.00     0.006 C 
BRANCH   5   6
ATOM      6  C   UNL     1     -19.329 -18.584  29.172  1.00  0.00     0.053 C 
BRANCH   6   7
ATOM      7  C   UNL     1     -18.903 -17.175  29.441  1.00  0.00     0.041 C 
ATOM      8  O   UNL     1     -19.041 -16.680  30.590  1.00  0.00    -0.550 OA
ATOM      9  O   UNL     1     -18.309 -16.425  28.435  1.00  0.00    -0.550 OA
ENDBRANCH   6   7
ENDBRANCH   5   6
ENDBRANCH   4   5
ENDBRANCH   3   4
ENDBRANCH   2   3
ENDBRANCH   1   2
BRANCH   1  10
ATOM     10  C   UNL     1     -22.028 -23.431  29.353  1.00  0.00     0.000 C 
BRANCH  10  11
ATOM     11  C   UNL     1     -23.028 -24.423  28.730  1.00  0.00    -0.000 C 
BRANCH  11  12
ATOM     12  C   UNL     1     -23.622 -25.452  29.711  1.00  0.00    -0.000 C 
BRANCH  12  13
ATOM     13  C   UNL     1     -24.110 -26.761  29.062  1.00  0.00    -0.000 C 
BRANCH  13  14
ATOM     14  C   UNL     1     -25.620 -26.765  28.788  1.00  0.00    -0.000 C 
BRANCH  14  15
ATOM     15  C   UNL     1     -25.997 -27.888  27.812  1.00  0.00    -0.003 C 
ATOM     16  C   UNL     1     -26.866 -28.941  28.492  1.00  0.00     0.004 C 
ENDBRANCH  14  15
ENDBRANCH  13  14
ENDBRANCH  12  13
ENDBRANCH  11  12
ENDBRANCH  10  11
ENDBRANCH   1  10
TORSDOF 12
ENDMDL
MODEL 9
REMARK VINA RESULT:    -6.360      4.122      8.997
REMARK INTER + INTRA:         -11.666
REMARK INTER:                 -11.290
REMARK INTRA:                  -0.376
REMARK UNBOUND:                -0.845
REMARK SMILES CCCCCCCCCCCCCC(=O)[O-]
REMARK SMILES IDX 8 1 9 2 10 3 11 4 12 5 13 6 14 7 15 8 16 9 7 10 6 11 5 12
REMARK SMILES IDX 4 13 3 14 2 15 1 16
REMARK H PARENT
REMARK Flexibility Score: inf
ROOT
ATOM      1  C   UNL     1     -20.977 -19.365  30.442  1.00  0.00     0.000 C 
ENDROOT
BRANCH   1   2
ATOM      2  C   UNL     1     -21.874 -20.614  30.401  1.00  0.00     0.000 C 
BRANCH   2   3
ATOM      3  C   UNL     1     -21.639 -21.550  31.598  1.00  0.00     0.000 C 
BRANCH   3   4
ATOM      4  C   UNL     1     -22.652 -22.706  31.650  1.00  0.00     0.000 C 
BRANCH   4   5
ATOM      5  C   UNL     1     -22.381 -23.777  30.582  1.00  0.00     0.006 C 
BRANCH   5   6
ATOM      6  C   UNL     1     -23.372 -24.946  30.654  1.00  0.00     0.053 C 
BRANCH   6   7
ATOM      7  C   UNL     1     -23.530 -25.579  29.307  1.00  0.00     0.041 C 
ATOM      8  O   UNL     1     -23.205 -24.948  28.268  1.00  0.00    -0.550 OA
ATOM      9  O   UNL     1     -23.991 -26.885  29.204  1.00  0.00    -0.550 OA
ENDBRANCH   6   7
ENDBRANCH   5   6
ENDBRANCH   4   5
ENDBRANCH   3   4
ENDBRANCH   2   3
ENDBRANCH   1   2
BRANCH   1  10
ATOM     10  C   UNL     1     -20.486 -18.945  29.040  1.00  0.00     0.000 C 
BRANCH  10  11
ATOM     11  C   UNL     1     -19.135 -18.205  29.050  1.00  0.00    -0.000 C 
BRANCH  11  12
ATOM     12  C   UNL     1     -19.108 -16.887  28.254  1.00  0.00    -0.000 C 
BRANCH  12  13
ATOM     13  C   UNL     1     -17.955 -15.932  28.618  1.00  0.00    -0.000 C 
BRANCH  13  14
ATOM     14  C   UNL     1     -17.029 -15.633  27.430  1.00  0.00    -0.000 C 
BRANCH  14  15
ATOM     15  C   UNL     1     -17.802 -15.686  26.106  1.00  0.00    -0.003 C 
ATOM     16  C   UNL     1     -16.916 -15.276  24.934  1.00  0.00     0.004 C 
ENDBRANCH  14  15
ENDBRANCH  13  14
ENDBRANCH  12  13
ENDBRANCH  11  12
ENDBRANCH  10  11
ENDBRANCH   1  10
TORSDOF 12
ENDMDL
