MODEL 1
REMARK VINA RESULT:     5.980      0.000      0.000
REMARK INTER + INTRA:           6.155
REMARK INTER:                   6.155
REMARK INTRA:                   0.000
REMARK UNBOUND:                 0.000
REMARK SMILES C=C1[C@H](O)C[C@]23C[C@H]1C(C)(C)[C@@H]2CC[C@@H]3C
REMARK SMILES IDX 16 1 15 2 14 3 13 4 12 5 6 6 7 7 8 8 9 9 10 10 11 11 2 12
REMARK SMILES IDX 1 13 3 14 5 15 4 16
REMARK H PARENT 4 17
REMARK Flexibility Score: inf
ROOT
ATOM      1  C   UNL     1     -41.103  25.242   3.650  1.00  0.00     0.008 C 
ATOM      2  C   UNL     1     -41.706  24.392   4.776  1.00  0.00    -0.008 C 
ATOM      3  C   UNL     1     -42.125  22.963   4.316  1.00  0.00     0.004 C 
ATOM      4  C   UNL     1     -41.958  22.028   5.543  1.00  0.00     0.005 C 
ATOM      5  C   UNL     1     -41.644  23.016   6.653  1.00  0.00     0.002 C 
ATOM      6  C   UNL     1     -40.806  24.110   6.000  1.00  0.00    -0.020 C 
ATOM      7  C   UNL     1     -40.720  25.074   7.173  1.00  0.00     0.016 C 
ATOM      8  C   UNL     1     -40.236  24.095   8.281  1.00  0.00     0.023 C 
ATOM      9  C   UNL     1     -41.024  22.746   8.038  1.00  0.00    -0.025 C 
ATOM     10  C   UNL     1     -40.178  21.446   8.057  1.00  0.00     0.012 C 
ATOM     11  C   UNL     1     -42.125  22.597   9.117  1.00  0.00     0.012 C 
ATOM     12  C   UNL     1     -38.750  23.912   8.075  1.00  0.00    -0.045 C 
ATOM     13  C   UNL     1     -37.925  23.777   9.125  1.00  0.00     0.011 C 
ATOM     14  C   UNL     1     -38.214  23.826   6.658  1.00  0.00     0.140 C 
ATOM     15  C   UNL     1     -39.337  23.658   5.584  1.00  0.00     0.044 C 
ENDROOT
BRANCH  14  16
ATOM     16  O   UNL     1     -37.476  24.989   6.379  1.00  0.00    -0.389 OA
ATOM     17  H   UNL     1     -37.348  25.026   5.395  1.00  0.00     0.211 HD
ENDBRANCH  14  16
TORSDOF 1
ENDMDL
