MODEL 1
REMARK VINA RESULT:    -5.767      0.000      0.000
REMARK INTER + INTRA:         -20.990
REMARK INTER:                 -15.207
REMARK INTRA:                  -5.784
REMARK UNBOUND:                -5.784
REMARK SMILES CCCCCCCCCCCCCCCCCCCCCCCCCCCCCC(=O)[O-]
REMARK SMILES IDX 16 1 17 2 18 3 19 4 20 5 21 6 22 7 23 8 24 9 25 10 26 11
REMARK SMILES IDX 27 12 28 13 29 14 30 15 31 16 32 17 15 18 14 19 13 20 12 21
REMARK SMILES IDX 11 22 10 23 9 24 8 25 7 26 6 27 5 28 4 29 3 30 2 31 1 32
REMARK H PARENT
REMARK Flexibility Score: inf
ROOT
ATOM      1  C   UNL     1     120.879 177.689 128.921  1.00  0.00     0.000 C 
ENDROOT
BRANCH   1   2
ATOM      2  C   UNL     1     121.949 178.704 128.489  1.00  0.00     0.000 C 
BRANCH   2   3
ATOM      3  C   UNL     1     122.269 178.637 126.984  1.00  0.00     0.000 C 
BRANCH   3   4
ATOM      4  C   UNL     1     122.059 177.241 126.359  1.00  0.00     0.000 C 
BRANCH   4   5
ATOM      5  C   UNL     1     123.093 176.917 125.265  1.00  0.00     0.000 C 
BRANCH   5   6
ATOM      6  C   UNL     1     122.446 176.647 123.898  1.00  0.00     0.000 C 
BRANCH   6   7
ATOM      7  C   UNL     1     120.911 176.783 123.927  1.00  0.00     0.000 C 
BRANCH   7   8
ATOM      8  C   UNL     1     120.386 177.793 122.895  1.00  0.00     0.000 C 
BRANCH   8   9
ATOM      9  C   UNL     1     119.203 178.621 123.421  1.00  0.00     0.000 C 
BRANCH   9  10
ATOM     10  C   UNL     1     118.738 178.105 124.791  1.00  0.00     0.000 C 
BRANCH  10  11
ATOM     11  C   UNL     1     118.755 179.198 125.872  1.00  0.00     0.000 C 
BRANCH  11  12
ATOM     12  C   UNL     1     117.554 179.101 126.829  1.00  0.00     0.000 C 
BRANCH  12  13
ATOM     13  C   UNL     1     116.281 179.745 126.252  1.00  0.00     0.006 C 
BRANCH  13  14
ATOM     14  C   UNL     1     115.113 178.766 126.061  1.00  0.00     0.053 C 
BRANCH  14  15
ATOM     15  C   UNL     1     115.038 178.248 124.657  1.00  0.00     0.041 C 
ATOM     16  O   UNL     1     115.491 177.107 124.377  1.00  0.00    -0.550 OA
ATOM     17  O   UNL     1     114.494 179.040 123.651  1.00  0.00    -0.550 OA
ENDBRANCH  14  15
ENDBRANCH  13  14
ENDBRANCH  12  13
ENDBRANCH  11  12
ENDBRANCH  10  11
ENDBRANCH   9  10
ENDBRANCH   8   9
ENDBRANCH   7   8
ENDBRANCH   6   7
ENDBRANCH   5   6
ENDBRANCH   4   5
ENDBRANCH   3   4
ENDBRANCH   2   3
ENDBRANCH   1   2
BRANCH   1  18
ATOM     18  C   UNL     1     120.847 177.480 130.443  1.00  0.00     0.000 C 
BRANCH  18  19
ATOM     19  C   UNL     1     119.484 176.972 130.938  1.00  0.00     0.000 C 
BRANCH  19  20
ATOM     20  C   UNL     1     119.107 175.604 130.345  1.00  0.00     0.000 C 
BRANCH  20  21
ATOM     21  C   UNL     1     117.739 175.076 130.828  1.00  0.00     0.000 C 
BRANCH  21  22
ATOM     22  C   UNL     1     116.784 174.769 129.659  1.00  0.00     0.000 C 
BRANCH  22  23
ATOM     23  C   UNL     1     116.571 175.992 128.742  1.00  0.00     0.000 C 
BRANCH  23  24
ATOM     24  C   UNL     1     116.480 175.638 127.248  1.00  0.00    -0.000 C 
BRANCH  24  25
ATOM     25  C   UNL     1     117.536 174.614 126.812  1.00  0.00    -0.000 C 
BRANCH  25  26
ATOM     26  C   UNL     1     118.920 175.263 126.679  1.00  0.00    -0.000 C 
BRANCH  26  27
ATOM     27  C   UNL     1     120.065 174.236 126.729  1.00  0.00    -0.000 C 
BRANCH  27  28
ATOM     28  C   UNL     1     119.640 172.819 126.287  1.00  0.00    -0.000 C 
BRANCH  28  29
ATOM     29  C   UNL     1     120.011 171.748 127.330  1.00  0.00    -0.000 C 
BRANCH  29  30
ATOM     30  C   UNL     1     119.743 172.218 128.776  1.00  0.00    -0.000 C 
BRANCH  30  31
ATOM     31  C   UNL     1     118.549 171.514 129.443  1.00  0.00    -0.003 C 
ATOM     32  C   UNL     1     117.409 171.216 128.471  1.00  0.00     0.004 C 
ENDBRANCH  30  31
ENDBRANCH  29  30
ENDBRANCH  28  29
ENDBRANCH  27  28
ENDBRANCH  26  27
ENDBRANCH  25  26
ENDBRANCH  24  25
ENDBRANCH  23  24
ENDBRANCH  22  23
ENDBRANCH  21  22
ENDBRANCH  20  21
ENDBRANCH  19  20
ENDBRANCH  18  19
ENDBRANCH   1  18
TORSDOF 28
ENDMDL
MODEL 2
REMARK VINA RESULT:    -5.577      3.539      5.903
REMARK INTER + INTRA:         -20.491
REMARK INTER:                 -15.323
REMARK INTRA:                  -5.167
REMARK UNBOUND:                -5.784
REMARK SMILES CCCCCCCCCCCCCCCCCCCCCCCCCCCCCC(=O)[O-]
REMARK SMILES IDX 16 1 17 2 18 3 19 4 20 5 21 6 22 7 23 8 24 9 25 10 26 11
REMARK SMILES IDX 27 12 28 13 29 14 30 15 31 16 32 17 15 18 14 19 13 20 12 21
REMARK SMILES IDX 11 22 10 23 9 24 8 25 7 26 6 27 5 28 4 29 3 30 2 31 1 32
REMARK H PARENT
REMARK Flexibility Score: inf
ROOT
ATOM      1  C   UNL     1     118.928 175.553 130.050  1.00  0.00     0.000 C 
ENDROOT
BRANCH   1   2
ATOM      2  C   UNL     1     119.660 176.691 130.780  1.00  0.00     0.000 C 
BRANCH   2   3
ATOM      3  C   UNL     1     120.003 177.875 129.857  1.00  0.00     0.000 C 
BRANCH   3   4
ATOM      4  C   UNL     1     120.714 177.467 128.549  1.00  0.00     0.000 C 
BRANCH   4   5
ATOM      5  C   UNL     1     121.877 178.408 128.186  1.00  0.00     0.000 C 
BRANCH   5   6
ATOM      6  C   UNL     1     122.177 178.428 126.679  1.00  0.00     0.000 C 
BRANCH   6   7
ATOM      7  C   UNL     1     122.927 177.169 126.204  1.00  0.00     0.000 C 
BRANCH   7   8
ATOM      8  C   UNL     1     123.733 177.409 124.917  1.00  0.00     0.000 C 
BRANCH   8   9
ATOM      9  C   UNL     1     124.297 176.112 124.318  1.00  0.00     0.000 C 
BRANCH   9  10
ATOM     10  C   UNL     1     123.792 175.905 122.882  1.00  0.00     0.000 C 
BRANCH  10  11
ATOM     11  C   UNL     1     122.936 177.080 122.382  1.00  0.00     0.000 C 
BRANCH  11  12
ATOM     12  C   UNL     1     122.331 176.820 120.991  1.00  0.00     0.000 C 
BRANCH  12  13
ATOM     13  C   UNL     1     123.248 175.968 120.094  1.00  0.00     0.006 C 
BRANCH  13  14
ATOM     14  C   UNL     1     124.131 176.786 119.140  1.00  0.00     0.053 C 
BRANCH  14  15
ATOM     15  C   UNL     1     125.575 176.401 119.242  1.00  0.00     0.041 C 
ATOM     16  O   UNL     1     125.936 175.506 120.051  1.00  0.00    -0.550 OA
ATOM     17  O   UNL     1     126.525 177.052 118.463  1.00  0.00    -0.550 OA
ENDBRANCH  14  15
ENDBRANCH  13  14
ENDBRANCH  12  13
ENDBRANCH  11  12
ENDBRANCH  10  11
ENDBRANCH   9  10
ENDBRANCH   8   9
ENDBRANCH   7   8
ENDBRANCH   6   7
ENDBRANCH   5   6
ENDBRANCH   4   5
ENDBRANCH   3   4
ENDBRANCH   2   3
ENDBRANCH   1   2
BRANCH   1  18
ATOM     18  C   UNL     1     117.539 175.271 130.644  1.00  0.00     0.000 C 
BRANCH  18  19
ATOM     19  C   UNL     1     116.405 175.547 129.645  1.00  0.00     0.000 C 
BRANCH  19  20
ATOM     20  C   UNL     1     116.878 176.329 128.408  1.00  0.00     0.000 C 
BRANCH  20  21
ATOM     21  C   UNL     1     115.734 177.023 127.640  1.00  0.00     0.000 C 
BRANCH  21  22
ATOM     22  C   UNL     1     116.192 178.326 126.955  1.00  0.00     0.000 C 
BRANCH  22  23
ATOM     23  C   UNL     1     117.725 178.500 127.001  1.00  0.00     0.000 C 
BRANCH  23  24
ATOM     24  C   UNL     1     118.292 179.321 125.830  1.00  0.00    -0.000 C 
BRANCH  24  25
ATOM     25  C   UNL     1     118.912 178.445 124.734  1.00  0.00    -0.000 C 
BRANCH  25  26
ATOM     26  C   UNL     1     118.980 176.974 125.167  1.00  0.00    -0.000 C 
BRANCH  26  27
ATOM     27  C   UNL     1     120.115 176.202 124.473  1.00  0.00    -0.000 C 
BRANCH  27  28
ATOM     28  C   UNL     1     120.350 174.793 125.062  1.00  0.00    -0.000 C 
BRANCH  28  29
ATOM     29  C   UNL     1     119.841 174.675 126.511  1.00  0.00    -0.000 C 
BRANCH  29  30
ATOM     30  C   UNL     1     119.511 173.218 126.901  1.00  0.00    -0.000 C 
BRANCH  30  31
ATOM     31  C   UNL     1     118.077 173.029 127.424  1.00  0.00    -0.003 C 
ATOM     32  C   UNL     1     117.036 172.953 126.309  1.00  0.00     0.004 C 
ENDBRANCH  30  31
ENDBRANCH  29  30
ENDBRANCH  28  29
ENDBRANCH  27  28
ENDBRANCH  26  27
ENDBRANCH  25  26
ENDBRANCH  24  25
ENDBRANCH  23  24
ENDBRANCH  22  23
ENDBRANCH  21  22
ENDBRANCH  20  21
ENDBRANCH  19  20
ENDBRANCH  18  19
ENDBRANCH   1  18
TORSDOF 28
ENDMDL
MODEL 3
REMARK VINA RESULT:    -5.449      3.590      5.982
REMARK INTER + INTRA:         -20.152
REMARK INTER:                 -14.806
REMARK INTRA:                  -5.346
REMARK UNBOUND:                -5.784
REMARK SMILES CCCCCCCCCCCCCCCCCCCCCCCCCCCCCC(=O)[O-]
REMARK SMILES IDX 16 1 17 2 18 3 19 4 20 5 21 6 22 7 23 8 24 9 25 10 26 11
REMARK SMILES IDX 27 12 28 13 29 14 30 15 31 16 32 17 15 18 14 19 13 20 12 21
REMARK SMILES IDX 11 22 10 23 9 24 8 25 7 26 6 27 5 28 4 29 3 30 2 31 1 32
REMARK H PARENT
REMARK Flexibility Score: inf
ROOT
ATOM      1  C   UNL     1     118.643 179.169 125.236  1.00  0.00     0.000 C 
ENDROOT
BRANCH   1   2
ATOM      2  C   UNL     1     118.729 178.248 124.008  1.00  0.00     0.000 C 
BRANCH   2   3
ATOM      3  C   UNL     1     120.011 177.397 123.984  1.00  0.00     0.000 C 
BRANCH   3   4
ATOM      4  C   UNL     1     119.937 176.124 124.854  1.00  0.00     0.000 C 
BRANCH   4   5
ATOM      5  C   UNL     1     121.161 175.960 125.774  1.00  0.00     0.000 C 
BRANCH   5   6
ATOM      6  C   UNL     1     121.978 177.254 125.912  1.00  0.00     0.000 C 
BRANCH   6   7
ATOM      7  C   UNL     1     123.455 177.072 125.513  1.00  0.00     0.000 C 
BRANCH   7   8
ATOM      8  C   UNL     1     123.731 175.704 124.868  1.00  0.00     0.000 C 
BRANCH   8   9
ATOM      9  C   UNL     1     124.568 175.810 123.585  1.00  0.00     0.000 C 
BRANCH   9  10
ATOM     10  C   UNL     1     123.966 176.842 122.620  1.00  0.00     0.000 C 
BRANCH  10  11
ATOM     11  C   UNL     1     122.680 176.340 121.943  1.00  0.00     0.000 C 
BRANCH  11  12
ATOM     12  C   UNL     1     122.328 177.140 120.677  1.00  0.00     0.000 C 
BRANCH  12  13
ATOM     13  C   UNL     1     123.513 177.970 120.149  1.00  0.00     0.006 C 
BRANCH  13  14
ATOM     14  C   UNL     1     124.019 177.534 118.766  1.00  0.00     0.053 C 
BRANCH  14  15
ATOM     15  C   UNL     1     125.321 176.800 118.850  1.00  0.00     0.041 C 
ATOM     16  O   UNL     1     125.435 175.795 119.601  1.00  0.00    -0.550 OA
ATOM     17  O   UNL     1     126.419 177.243 118.121  1.00  0.00    -0.550 OA
ENDBRANCH  14  15
ENDBRANCH  13  14
ENDBRANCH  12  13
ENDBRANCH  11  12
ENDBRANCH  10  11
ENDBRANCH   9  10
ENDBRANCH   8   9
ENDBRANCH   7   8
ENDBRANCH   6   7
ENDBRANCH   5   6
ENDBRANCH   4   5
ENDBRANCH   3   4
ENDBRANCH   2   3
ENDBRANCH   1   2
BRANCH   1  18
ATOM     18  C   UNL     1     117.326 178.997 126.008  1.00  0.00     0.000 C 
BRANCH  18  19
ATOM     19  C   UNL     1     117.554 178.654 127.489  1.00  0.00     0.000 C 
BRANCH  19  20
ATOM     20  C   UNL     1     119.013 178.270 127.793  1.00  0.00     0.000 C 
BRANCH  20  21
ATOM     21  C   UNL     1     119.259 177.898 129.271  1.00  0.00     0.000 C 
BRANCH  21  22
ATOM     22  C   UNL     1     120.417 176.896 129.438  1.00  0.00     0.000 C 
BRANCH  22  23
ATOM     23  C   UNL     1     119.967 175.595 130.134  1.00  0.00     0.000 C 
BRANCH  23  24
ATOM     24  C   UNL     1     118.501 175.617 130.603  1.00  0.00    -0.000 C 
BRANCH  24  25
ATOM     25  C   UNL     1     117.643 174.540 129.928  1.00  0.00    -0.000 C 
BRANCH  25  26
ATOM     26  C   UNL     1     116.804 175.131 128.787  1.00  0.00    -0.000 C 
BRANCH  26  27
ATOM     27  C   UNL     1     117.532 175.092 127.432  1.00  0.00    -0.000 C 
BRANCH  27  28
ATOM     28  C   UNL     1     117.068 173.936 126.517  1.00  0.00    -0.000 C 
BRANCH  28  29
ATOM     29  C   UNL     1     117.857 172.639 126.774  1.00  0.00    -0.000 C 
BRANCH  29  30
ATOM     30  C   UNL     1     119.264 172.671 126.139  1.00  0.00    -0.000 C 
BRANCH  30  31
ATOM     31  C   UNL     1     120.407 172.611 127.166  1.00  0.00    -0.003 C 
ATOM     32  C   UNL     1     119.949 172.139 128.546  1.00  0.00     0.004 C 
ENDBRANCH  30  31
ENDBRANCH  29  30
ENDBRANCH  28  29
ENDBRANCH  27  28
ENDBRANCH  26  27
ENDBRANCH  25  26
ENDBRANCH  24  25
ENDBRANCH  23  24
ENDBRANCH  22  23
ENDBRANCH  21  22
ENDBRANCH  20  21
ENDBRANCH  19  20
ENDBRANCH  18  19
ENDBRANCH   1  18
TORSDOF 28
ENDMDL
MODEL 4
REMARK VINA RESULT:    -5.325      2.996      7.698
REMARK INTER + INTRA:         -19.826
REMARK INTER:                 -15.684
REMARK INTRA:                  -4.142
REMARK UNBOUND:                -5.784
REMARK SMILES CCCCCCCCCCCCCCCCCCCCCCCCCCCCCC(=O)[O-]
REMARK SMILES IDX 16 1 17 2 18 3 19 4 20 5 21 6 22 7 23 8 24 9 25 10 26 11
REMARK SMILES IDX 27 12 28 13 29 14 30 15 31 16 32 17 15 18 14 19 13 20 12 21
REMARK SMILES IDX 11 22 10 23 9 24 8 25 7 26 6 27 5 28 4 29 3 30 2 31 1 32
REMARK H PARENT
REMARK Flexibility Score: inf
ROOT
ATOM      1  C   UNL     1     119.281 177.447 124.362  1.00  0.00     0.000 C 
ENDROOT
BRANCH   1   2
ATOM      2  C   UNL     1     119.158 178.708 125.234  1.00  0.00     0.000 C 
BRANCH   2   3
ATOM      3  C   UNL     1     119.181 178.400 126.741  1.00  0.00     0.000 C 
BRANCH   3   4
ATOM      4  C   UNL     1     120.584 178.487 127.380  1.00  0.00     0.000 C 
BRANCH   4   5
ATOM      5  C   UNL     1     120.833 177.382 128.422  1.00  0.00     0.000 C 
BRANCH   5   6
ATOM      6  C   UNL     1     120.896 177.924 129.859  1.00  0.00     0.000 C 
BRANCH   6   7
ATOM      7  C   UNL     1     119.698 177.474 130.718  1.00  0.00     0.000 C 
BRANCH   7   8
ATOM      8  C   UNL     1     119.394 175.975 130.574  1.00  0.00     0.000 C 
BRANCH   8   9
ATOM      9  C   UNL     1     117.930 175.631 130.887  1.00  0.00     0.000 C 
BRANCH   9  10
ATOM     10  C   UNL     1     117.092 175.576 129.600  1.00  0.00     0.000 C 
BRANCH  10  11
ATOM     11  C   UNL     1     117.912 175.129 128.379  1.00  0.00     0.000 C 
BRANCH  11  12
ATOM     12  C   UNL     1     117.080 175.109 127.085  1.00  0.00     0.000 C 
BRANCH  12  13
ATOM     13  C   UNL     1     116.171 176.344 126.943  1.00  0.00     0.006 C 
BRANCH  13  14
ATOM     14  C   UNL     1     115.910 176.769 125.490  1.00  0.00     0.053 C 
BRANCH  14  15
ATOM     15  C   UNL     1     115.343 178.152 125.403  1.00  0.00     0.041 C 
ATOM     16  O   UNL     1     114.502 178.437 124.510  1.00  0.00    -0.550 OA
ATOM     17  O   UNL     1     115.765 179.135 126.291  1.00  0.00    -0.550 OA
ENDBRANCH  14  15
ENDBRANCH  13  14
ENDBRANCH  12  13
ENDBRANCH  11  12
ENDBRANCH  10  11
ENDBRANCH   9  10
ENDBRANCH   8   9
ENDBRANCH   7   8
ENDBRANCH   6   7
ENDBRANCH   5   6
ENDBRANCH   4   5
ENDBRANCH   3   4
ENDBRANCH   2   3
ENDBRANCH   1   2
BRANCH   1  18
ATOM     18  C   UNL     1     120.732 177.154 123.952  1.00  0.00     0.000 C 
BRANCH  18  19
ATOM     19  C   UNL     1     121.165 175.722 124.304  1.00  0.00     0.000 C 
BRANCH  19  20
ATOM     20  C   UNL     1     122.238 175.679 125.405  1.00  0.00     0.000 C 
BRANCH  20  21
ATOM     21  C   UNL     1     123.108 176.952 125.471  1.00  0.00     0.000 C 
BRANCH  21  22
ATOM     22  C   UNL     1     124.473 176.767 124.783  1.00  0.00     0.000 C 
BRANCH  22  23
ATOM     23  C   UNL     1     124.821 175.278 124.569  1.00  0.00     0.000 C 
BRANCH  23  24
ATOM     24  C   UNL     1     125.142 174.920 123.107  1.00  0.00    -0.000 C 
BRANCH  24  25
ATOM     25  C   UNL     1     124.848 176.069 122.134  1.00  0.00    -0.000 C 
BRANCH  25  26
ATOM     26  C   UNL     1     123.514 175.855 121.406  1.00  0.00    -0.000 C 
BRANCH  26  27
ATOM     27  C   UNL     1     123.036 177.112 120.660  1.00  0.00    -0.000 C 
BRANCH  27  28
ATOM     28  C   UNL     1     122.348 176.803 119.311  1.00  0.00    -0.000 C 
BRANCH  28  29
ATOM     29  C   UNL     1     123.332 176.866 118.128  1.00  0.00    -0.000 C 
BRANCH  29  30
ATOM     30  C   UNL     1     122.616 177.099 116.780  1.00  0.00    -0.000 C 
BRANCH  30  31
ATOM     31  C   UNL     1     123.146 178.315 116.001  1.00  0.00    -0.003 C 
ATOM     32  C   UNL     1     122.040 179.126 115.330  1.00  0.00     0.004 C 
ENDBRANCH  30  31
ENDBRANCH  29  30
ENDBRANCH  28  29
ENDBRANCH  27  28
ENDBRANCH  26  27
ENDBRANCH  25  26
ENDBRANCH  24  25
ENDBRANCH  23  24
ENDBRANCH  22  23
ENDBRANCH  21  22
ENDBRANCH  20  21
ENDBRANCH  19  20
ENDBRANCH  18  19
ENDBRANCH   1  18
TORSDOF 28
ENDMDL
MODEL 5
REMARK VINA RESULT:    -5.309      2.927      6.975
REMARK INTER + INTRA:         -19.783
REMARK INTER:                 -14.646
REMARK INTRA:                  -5.137
REMARK UNBOUND:                -5.784
REMARK SMILES CCCCCCCCCCCCCCCCCCCCCCCCCCCCCC(=O)[O-]
REMARK SMILES IDX 16 1 17 2 18 3 19 4 20 5 21 6 22 7 23 8 24 9 25 10 26 11
REMARK SMILES IDX 27 12 28 13 29 14 30 15 31 16 32 17 15 18 14 19 13 20 12 21
REMARK SMILES IDX 11 22 10 23 9 24 8 25 7 26 6 27 5 28 4 29 3 30 2 31 1 32
REMARK H PARENT
REMARK Flexibility Score: inf
ROOT
ATOM      1  C   UNL     1     121.606 178.392 128.315  1.00  0.00     0.000 C 
ENDROOT
BRANCH   1   2
ATOM      2  C   UNL     1     120.700 177.150 128.314  1.00  0.00     0.000 C 
BRANCH   2   3
ATOM      3  C   UNL     1     120.287 176.706 129.728  1.00  0.00     0.000 C 
BRANCH   3   4
ATOM      4  C   UNL     1     118.761 176.647 129.949  1.00  0.00     0.000 C 
BRANCH   4   5
ATOM      5  C   UNL     1     118.106 175.435 129.261  1.00  0.00     0.000 C 
BRANCH   5   6
ATOM      6  C   UNL     1     116.947 175.833 128.334  1.00  0.00     0.000 C 
BRANCH   6   7
ATOM      7  C   UNL     1     117.104 175.270 126.908  1.00  0.00     0.000 C 
BRANCH   7   8
ATOM      8  C   UNL     1     118.520 174.742 126.632  1.00  0.00     0.000 C 
BRANCH   8   9
ATOM      9  C   UNL     1     119.245 175.530 125.530  1.00  0.00     0.000 C 
BRANCH   9  10
ATOM     10  C   UNL     1     118.430 176.762 125.111  1.00  0.00     0.000 C 
BRANCH  10  11
ATOM     11  C   UNL     1     119.305 178.011 124.915  1.00  0.00     0.000 C 
BRANCH  11  12
ATOM     12  C   UNL     1     118.692 179.268 125.558  1.00  0.00     0.000 C 
BRANCH  12  13
ATOM     13  C   UNL     1     117.778 178.939 126.753  1.00  0.00     0.006 C 
BRANCH  13  14
ATOM     14  C   UNL     1     116.382 179.573 126.670  1.00  0.00     0.053 C 
BRANCH  14  15
ATOM     15  C   UNL     1     115.364 178.622 126.118  1.00  0.00     0.041 C 
ATOM     16  O   UNL     1     114.606 177.986 126.896  1.00  0.00    -0.550 OA
ATOM     17  O   UNL     1     115.276 178.416 124.746  1.00  0.00    -0.550 OA
ENDBRANCH  14  15
ENDBRANCH  13  14
ENDBRANCH  12  13
ENDBRANCH  11  12
ENDBRANCH  10  11
ENDBRANCH   9  10
ENDBRANCH   8   9
ENDBRANCH   7   8
ENDBRANCH   6   7
ENDBRANCH   5   6
ENDBRANCH   4   5
ENDBRANCH   3   4
ENDBRANCH   2   3
ENDBRANCH   1   2
BRANCH   1  18
ATOM     18  C   UNL     1     122.357 178.573 126.987  1.00  0.00     0.000 C 
BRANCH  18  19
ATOM     19  C   UNL     1     122.506 177.255 126.211  1.00  0.00     0.000 C 
BRANCH  19  20
ATOM     20  C   UNL     1     123.241 177.432 124.872  1.00  0.00     0.000 C 
BRANCH  20  21
ATOM     21  C   UNL     1     122.935 176.320 123.846  1.00  0.00     0.000 C 
BRANCH  21  22
ATOM     22  C   UNL     1     121.950 176.783 122.756  1.00  0.00     0.000 C 
BRANCH  22  23
ATOM     23  C   UNL     1     122.667 177.150 121.439  1.00  0.00     0.000 C 
BRANCH  23  24
ATOM     24  C   UNL     1     122.601 176.047 120.368  1.00  0.00    -0.000 C 
BRANCH  24  25
ATOM     25  C   UNL     1     122.876 176.573 118.954  1.00  0.00    -0.000 C 
BRANCH  25  26
ATOM     26  C   UNL     1     123.766 177.823 118.987  1.00  0.00    -0.000 C 
BRANCH  26  27
ATOM     27  C   UNL     1     125.166 177.572 118.400  1.00  0.00    -0.000 C 
BRANCH  27  28
ATOM     28  C   UNL     1     126.282 177.531 119.467  1.00  0.00    -0.000 C 
BRANCH  28  29
ATOM     29  C   UNL     1     127.024 176.182 119.481  1.00  0.00    -0.000 C 
BRANCH  29  30
ATOM     30  C   UNL     1     126.224 175.078 120.206  1.00  0.00    -0.000 C 
BRANCH  30  31
ATOM     31  C   UNL     1     125.983 175.369 121.697  1.00  0.00    -0.003 C 
ATOM     32  C   UNL     1     125.459 174.158 122.468  1.00  0.00     0.004 C 
ENDBRANCH  30  31
ENDBRANCH  29  30
ENDBRANCH  28  29
ENDBRANCH  27  28
ENDBRANCH  26  27
ENDBRANCH  25  26
ENDBRANCH  24  25
ENDBRANCH  23  24
ENDBRANCH  22  23
ENDBRANCH  21  22
ENDBRANCH  20  21
ENDBRANCH  19  20
ENDBRANCH  18  19
ENDBRANCH   1  18
TORSDOF 28
ENDMDL
MODEL 6
REMARK VINA RESULT:    -5.287      3.428      6.244
REMARK INTER + INTRA:         -19.724
REMARK INTER:                 -14.608
REMARK INTRA:                  -5.116
REMARK UNBOUND:                -5.784
REMARK SMILES CCCCCCCCCCCCCCCCCCCCCCCCCCCCCC(=O)[O-]
REMARK SMILES IDX 16 1 17 2 18 3 19 4 20 5 21 6 22 7 23 8 24 9 25 10 26 11
REMARK SMILES IDX 27 12 28 13 29 14 30 15 31 16 32 17 15 18 14 19 13 20 12 21
REMARK SMILES IDX 11 22 10 23 9 24 8 25 7 26 6 27 5 28 4 29 3 30 2 31 1 32
REMARK H PARENT
REMARK Flexibility Score: inf
ROOT
ATOM      1  C   UNL     1     119.385 178.241 123.226  1.00  0.00     0.000 C 
ENDROOT
BRANCH   1   2
ATOM      2  C   UNL     1     120.703 177.529 123.569  1.00  0.00     0.000 C 
BRANCH   2   3
ATOM      3  C   UNL     1     120.495 176.232 124.370  1.00  0.00     0.000 C 
BRANCH   3   4
ATOM      4  C   UNL     1     121.653 175.895 125.334  1.00  0.00     0.000 C 
BRANCH   4   5
ATOM      5  C   UNL     1     122.643 177.061 125.504  1.00  0.00     0.000 C 
BRANCH   5   6
ATOM      6  C   UNL     1     124.088 176.669 125.155  1.00  0.00     0.000 C 
BRANCH   6   7
ATOM      7  C   UNL     1     124.178 175.318 124.420  1.00  0.00     0.000 C 
BRANCH   7   8
ATOM      8  C   UNL     1     125.000 175.402 123.125  1.00  0.00     0.000 C 
BRANCH   8   9
ATOM      9  C   UNL     1     124.143 175.747 121.897  1.00  0.00     0.000 C 
BRANCH   9  10
ATOM     10  C   UNL     1     123.931 177.264 121.785  1.00  0.00     0.000 C 
BRANCH  10  11
ATOM     11  C   UNL     1     124.976 177.943 120.886  1.00  0.00     0.000 C 
BRANCH  11  12
ATOM     12  C   UNL     1     125.514 177.004 119.792  1.00  0.00     0.000 C 
BRANCH  12  13
ATOM     13  C   UNL     1     125.253 177.536 118.371  1.00  0.00     0.006 C 
BRANCH  13  14
ATOM     14  C   UNL     1     123.806 177.989 118.124  1.00  0.00     0.053 C 
BRANCH  14  15
ATOM     15  C   UNL     1     122.861 176.829 118.044  1.00  0.00     0.041 C 
ATOM     16  O   UNL     1     122.872 176.072 117.039  1.00  0.00    -0.550 OA
ATOM     17  O   UNL     1     121.948 176.603 119.069  1.00  0.00    -0.550 OA
ENDBRANCH  14  15
ENDBRANCH  13  14
ENDBRANCH  12  13
ENDBRANCH  11  12
ENDBRANCH  10  11
ENDBRANCH   9  10
ENDBRANCH   8   9
ENDBRANCH   7   8
ENDBRANCH   6   7
ENDBRANCH   5   6
ENDBRANCH   4   5
ENDBRANCH   3   4
ENDBRANCH   2   3
ENDBRANCH   1   2
BRANCH   1  18
ATOM     18  C   UNL     1     118.294 178.000 124.281  1.00  0.00     0.000 C 
BRANCH  18  19
ATOM     19  C   UNL     1     118.401 178.968 125.469  1.00  0.00     0.000 C 
BRANCH  19  20
ATOM     20  C   UNL     1     117.514 178.554 126.656  1.00  0.00     0.000 C 
BRANCH  20  21
ATOM     21  C   UNL     1     118.295 178.356 127.973  1.00  0.00     0.000 C 
BRANCH  21  22
ATOM     22  C   UNL     1     119.782 178.034 127.729  1.00  0.00     0.000 C 
BRANCH  22  23
ATOM     23  C   UNL     1     120.340 177.036 128.766  1.00  0.00     0.000 C 
BRANCH  23  24
ATOM     24  C   UNL     1     119.676 177.143 130.150  1.00  0.00    -0.000 C 
BRANCH  24  25
ATOM     25  C   UNL     1     119.154 175.795 130.666  1.00  0.00    -0.000 C 
BRANCH  25  26
ATOM     26  C   UNL     1     117.693 175.569 130.253  1.00  0.00    -0.000 C 
BRANCH  26  27
ATOM     27  C   UNL     1     117.545 174.514 129.144  1.00  0.00    -0.000 C 
BRANCH  27  28
ATOM     28  C   UNL     1     116.991 175.086 127.820  1.00  0.00    -0.000 C 
BRANCH  28  29
ATOM     29  C   UNL     1     117.912 174.784 126.624  1.00  0.00    -0.000 C 
BRANCH  29  30
ATOM     30  C   UNL     1     119.156 173.965 127.032  1.00  0.00    -0.000 C 
BRANCH  30  31
ATOM     31  C   UNL     1     119.372 172.703 126.180  1.00  0.00    -0.003 C 
ATOM     32  C   UNL     1     118.222 171.703 126.287  1.00  0.00     0.004 C 
ENDBRANCH  30  31
ENDBRANCH  29  30
ENDBRANCH  28  29
ENDBRANCH  27  28
ENDBRANCH  26  27
ENDBRANCH  25  26
ENDBRANCH  24  25
ENDBRANCH  23  24
ENDBRANCH  22  23
ENDBRANCH  21  22
ENDBRANCH  20  21
ENDBRANCH  19  20
ENDBRANCH  18  19
ENDBRANCH   1  18
TORSDOF 28
ENDMDL
MODEL 7
REMARK VINA RESULT:    -5.269      3.493      6.209
REMARK INTER + INTRA:         -19.677
REMARK INTER:                 -15.284
REMARK INTRA:                  -4.394
REMARK UNBOUND:                -5.784
REMARK SMILES CCCCCCCCCCCCCCCCCCCCCCCCCCCCCC(=O)[O-]
REMARK SMILES IDX 16 1 17 2 18 3 19 4 20 5 21 6 22 7 23 8 24 9 25 10 26 11
REMARK SMILES IDX 27 12 28 13 29 14 30 15 31 16 32 17 15 18 14 19 13 20 12 21
REMARK SMILES IDX 11 22 10 23 9 24 8 25 7 26 6 27 5 28 4 29 3 30 2 31 1 32
REMARK H PARENT
REMARK Flexibility Score: inf
ROOT
ATOM      1  C   UNL     1     118.653 178.965 125.377  1.00  0.00     0.000 C 
ENDROOT
BRANCH   1   2
ATOM      2  C   UNL     1     118.735 177.842 124.331  1.00  0.00     0.000 C 
BRANCH   2   3
ATOM      3  C   UNL     1     119.813 178.094 123.262  1.00  0.00     0.000 C 
BRANCH   3   4
ATOM      4  C   UNL     1     121.031 177.152 123.363  1.00  0.00     0.000 C 
BRANCH   4   5
ATOM      5  C   UNL     1     120.784 175.958 124.304  1.00  0.00     0.000 C 
BRANCH   5   6
ATOM      6  C   UNL     1     122.001 175.635 125.185  1.00  0.00     0.000 C 
BRANCH   6   7
ATOM      7  C   UNL     1     123.021 176.788 125.239  1.00  0.00     0.000 C 
BRANCH   7   8
ATOM      8  C   UNL     1     124.329 176.458 124.501  1.00  0.00     0.000 C 
BRANCH   8   9
ATOM      9  C   UNL     1     124.654 177.465 123.387  1.00  0.00     0.000 C 
BRANCH   9  10
ATOM     10  C   UNL     1     124.444 176.836 122.001  1.00  0.00     0.000 C 
BRANCH  10  11
ATOM     11  C   UNL     1     125.511 177.273 120.985  1.00  0.00     0.000 C 
BRANCH  11  12
ATOM     12  C   UNL     1     124.965 178.266 119.944  1.00  0.00     0.000 C 
BRANCH  12  13
ATOM     13  C   UNL     1     124.994 177.702 118.512  1.00  0.00     0.006 C 
BRANCH  13  14
ATOM     14  C   UNL     1     123.765 178.069 117.667  1.00  0.00     0.053 C 
BRANCH  14  15
ATOM     15  C   UNL     1     122.805 176.925 117.548  1.00  0.00     0.041 C 
ATOM     16  O   UNL     1     122.068 176.821 116.532  1.00  0.00    -0.550 OA
ATOM     17  O   UNL     1     122.703 175.992 118.573  1.00  0.00    -0.550 OA
ENDBRANCH  14  15
ENDBRANCH  13  14
ENDBRANCH  12  13
ENDBRANCH  11  12
ENDBRANCH  10  11
ENDBRANCH   9  10
ENDBRANCH   8   9
ENDBRANCH   7   8
ENDBRANCH   6   7
ENDBRANCH   5   6
ENDBRANCH   4   5
ENDBRANCH   3   4
ENDBRANCH   2   3
ENDBRANCH   1   2
BRANCH   1  18
ATOM     18  C   UNL     1     119.902 179.032 126.269  1.00  0.00     0.000 C 
BRANCH  18  19
ATOM     19  C   UNL     1     119.895 177.962 127.372  1.00  0.00     0.000 C 
BRANCH  19  20
ATOM     20  C   UNL     1     121.224 177.894 128.143  1.00  0.00     0.000 C 
BRANCH  20  21
ATOM     21  C   UNL     1     121.061 178.040 129.671  1.00  0.00     0.000 C 
BRANCH  21  22
ATOM     22  C   UNL     1     119.601 177.845 130.125  1.00  0.00     0.000 C 
BRANCH  22  23
ATOM     23  C   UNL     1     119.399 176.517 130.884  1.00  0.00     0.000 C 
BRANCH  23  24
ATOM     24  C   UNL     1     118.221 175.676 130.360  1.00  0.00    -0.000 C 
BRANCH  24  25
ATOM     25  C   UNL     1     118.669 174.347 129.739  1.00  0.00    -0.000 C 
BRANCH  25  26
ATOM     26  C   UNL     1     119.728 174.569 128.651  1.00  0.00    -0.000 C 
BRANCH  26  27
ATOM     27  C   UNL     1     119.611 173.563 127.493  1.00  0.00    -0.000 C 
BRANCH  27  28
ATOM     28  C   UNL     1     118.237 173.596 126.787  1.00  0.00    -0.000 C 
BRANCH  28  29
ATOM     29  C   UNL     1     117.863 175.011 126.307  1.00  0.00    -0.000 C 
BRANCH  29  30
ATOM     30  C   UNL     1     116.457 175.439 126.781  1.00  0.00    -0.000 C 
BRANCH  30  31
ATOM     31  C   UNL     1     116.077 176.872 126.372  1.00  0.00    -0.003 C 
ATOM     32  C   UNL     1     114.937 177.452 127.207  1.00  0.00     0.004 C 
ENDBRANCH  30  31
ENDBRANCH  29  30
ENDBRANCH  28  29
ENDBRANCH  27  28
ENDBRANCH  26  27
ENDBRANCH  25  26
ENDBRANCH  24  25
ENDBRANCH  23  24
ENDBRANCH  22  23
ENDBRANCH  21  22
ENDBRANCH  20  21
ENDBRANCH  19  20
ENDBRANCH  18  19
ENDBRANCH   1  18
TORSDOF 28
ENDMDL
MODEL 8
REMARK VINA RESULT:    -5.208      3.488      6.540
REMARK INTER + INTRA:         -19.516
REMARK INTER:                 -15.388
REMARK INTRA:                  -4.128
REMARK UNBOUND:                -5.784
REMARK SMILES CCCCCCCCCCCCCCCCCCCCCCCCCCCCCC(=O)[O-]
REMARK SMILES IDX 16 1 17 2 18 3 19 4 20 5 21 6 22 7 23 8 24 9 25 10 26 11
REMARK SMILES IDX 27 12 28 13 29 14 30 15 31 16 32 17 15 18 14 19 13 20 12 21
REMARK SMILES IDX 11 22 10 23 9 24 8 25 7 26 6 27 5 28 4 29 3 30 2 31 1 32
REMARK H PARENT
REMARK Flexibility Score: inf
ROOT
ATOM      1  C   UNL     1     121.231 178.352 128.279  1.00  0.00     0.000 C 
ENDROOT
BRANCH   1   2
ATOM      2  C   UNL     1     121.941 177.865 127.005  1.00  0.00     0.000 C 
BRANCH   2   3
ATOM      3  C   UNL     1     121.397 176.521 126.490  1.00  0.00     0.000 C 
BRANCH   3   4
ATOM      4  C   UNL     1     122.108 175.998 125.224  1.00  0.00     0.000 C 
BRANCH   4   5
ATOM      5  C   UNL     1     123.372 176.805 124.875  1.00  0.00     0.000 C 
BRANCH   5   6
ATOM      6  C   UNL     1     124.669 176.034 125.166  1.00  0.00     0.000 C 
BRANCH   6   7
ATOM      7  C   UNL     1     124.525 174.517 124.935  1.00  0.00     0.000 C 
BRANCH   7   8
ATOM      8  C   UNL     1     125.784 173.889 124.318  1.00  0.00     0.000 C 
BRANCH   8   9
ATOM      9  C   UNL     1     125.463 172.885 123.200  1.00  0.00     0.000 C 
BRANCH   9  10
ATOM     10  C   UNL     1     126.176 173.270 121.895  1.00  0.00     0.000 C 
BRANCH  10  11
ATOM     11  C   UNL     1     126.033 174.764 121.561  1.00  0.00     0.000 C 
BRANCH  11  12
ATOM     12  C   UNL     1     124.705 175.086 120.853  1.00  0.00     0.000 C 
BRANCH  12  13
ATOM     13  C   UNL     1     123.988 176.305 121.462  1.00  0.00     0.006 C 
BRANCH  13  14
ATOM     14  C   UNL     1     123.013 177.004 120.503  1.00  0.00     0.053 C 
BRANCH  14  15
ATOM     15  C   UNL     1     123.728 177.827 119.475  1.00  0.00     0.041 C 
ATOM     16  O   UNL     1     123.527 177.624 118.249  1.00  0.00    -0.550 OA
ATOM     17  O   UNL     1     124.640 178.798 119.873  1.00  0.00    -0.550 OA
ENDBRANCH  14  15
ENDBRANCH  13  14
ENDBRANCH  12  13
ENDBRANCH  11  12
ENDBRANCH  10  11
ENDBRANCH   9  10
ENDBRANCH   8   9
ENDBRANCH   7   8
ENDBRANCH   6   7
ENDBRANCH   5   6
ENDBRANCH   4   5
ENDBRANCH   3   4
ENDBRANCH   2   3
ENDBRANCH   1   2
BRANCH   1  18
ATOM     18  C   UNL     1     119.811 177.781 128.415  1.00  0.00     0.000 C 
BRANCH  18  19
ATOM     19  C   UNL     1     119.488 177.347 129.853  1.00  0.00     0.000 C 
BRANCH  19  20
ATOM     20  C   UNL     1     119.290 175.827 129.985  1.00  0.00     0.000 C 
BRANCH  20  21
ATOM     21  C   UNL     1     117.963 175.433 130.670  1.00  0.00     0.000 C 
BRANCH  21  22
ATOM     22  C   UNL     1     116.752 175.577 129.728  1.00  0.00     0.000 C 
BRANCH  22  23
ATOM     23  C   UNL     1     117.047 175.038 128.312  1.00  0.00     0.000 C 
BRANCH  23  24
ATOM     24  C   UNL     1     116.446 175.895 127.184  1.00  0.00    -0.000 C 
BRANCH  24  25
ATOM     25  C   UNL     1     115.647 177.095 127.709  1.00  0.00    -0.000 C 
BRANCH  25  26
ATOM     26  C   UNL     1     114.862 177.779 126.581  1.00  0.00    -0.000 C 
BRANCH  26  27
ATOM     27  C   UNL     1     115.730 178.743 125.754  1.00  0.00    -0.000 C 
BRANCH  27  28
ATOM     28  C   UNL     1     116.897 179.362 126.555  1.00  0.00    -0.000 C 
BRANCH  28  29
ATOM     29  C   UNL     1     118.216 179.357 125.760  1.00  0.00    -0.000 C 
BRANCH  29  30
ATOM     30  C   UNL     1     118.373 178.089 124.892  1.00  0.00    -0.000 C 
BRANCH  30  31
ATOM     31  C   UNL     1     119.538 178.168 123.890  1.00  0.00    -0.003 C 
ATOM     32  C   UNL     1     119.103 178.621 122.498  1.00  0.00     0.004 C 
ENDBRANCH  30  31
ENDBRANCH  29  30
ENDBRANCH  28  29
ENDBRANCH  27  28
ENDBRANCH  26  27
ENDBRANCH  25  26
ENDBRANCH  24  25
ENDBRANCH  23  24
ENDBRANCH  22  23
ENDBRANCH  21  22
ENDBRANCH  20  21
ENDBRANCH  19  20
ENDBRANCH  18  19
ENDBRANCH   1  18
TORSDOF 28
ENDMDL
MODEL 9
REMARK VINA RESULT:    -5.196      3.380      5.260
REMARK INTER + INTRA:         -19.484
REMARK INTER:                 -14.645
REMARK INTRA:                  -4.839
REMARK UNBOUND:                -5.784
REMARK SMILES CCCCCCCCCCCCCCCCCCCCCCCCCCCCCC(=O)[O-]
REMARK SMILES IDX 16 1 17 2 18 3 19 4 20 5 21 6 22 7 23 8 24 9 25 10 26 11
REMARK SMILES IDX 27 12 28 13 29 14 30 15 31 16 32 17 15 18 14 19 13 20 12 21
REMARK SMILES IDX 11 22 10 23 9 24 8 25 7 26 6 27 5 28 4 29 3 30 2 31 1 32
REMARK H PARENT
REMARK Flexibility Score: inf
ROOT
ATOM      1  C   UNL     1     120.977 178.837 127.131  1.00  0.00     0.000 C 
ENDROOT
BRANCH   1   2
ATOM      2  C   UNL     1     119.500 178.584 126.790  1.00  0.00     0.000 C 
BRANCH   2   3
ATOM      3  C   UNL     1     119.047 179.302 125.507  1.00  0.00     0.000 C 
BRANCH   3   4
ATOM      4  C   UNL     1     118.958 178.383 124.269  1.00  0.00     0.000 C 
BRANCH   4   5
ATOM      5  C   UNL     1     119.355 176.928 124.580  1.00  0.00     0.000 C 
BRANCH   5   6
ATOM      6  C   UNL     1     120.679 176.519 123.915  1.00  0.00     0.000 C 
BRANCH   6   7
ATOM      7  C   UNL     1     121.693 175.936 124.918  1.00  0.00     0.000 C 
BRANCH   7   8
ATOM      8  C   UNL     1     123.091 176.560 124.778  1.00  0.00     0.000 C 
BRANCH   8   9
ATOM      9  C   UNL     1     124.128 175.576 124.216  1.00  0.00     0.000 C 
BRANCH   9  10
ATOM     10  C   UNL     1     124.237 175.705 122.690  1.00  0.00     0.000 C 
BRANCH  10  11
ATOM     11  C   UNL     1     123.934 177.128 122.193  1.00  0.00     0.000 C 
BRANCH  11  12
ATOM     12  C   UNL     1     122.761 177.169 121.198  1.00  0.00     0.000 C 
BRANCH  12  13
ATOM     13  C   UNL     1     123.131 176.591 119.819  1.00  0.00     0.006 C 
BRANCH  13  14
ATOM     14  C   UNL     1     123.665 177.632 118.824  1.00  0.00     0.053 C 
BRANCH  14  15
ATOM     15  C   UNL     1     123.317 177.286 117.409  1.00  0.00     0.041 C 
ATOM     16  O   UNL     1     122.828 176.159 117.134  1.00  0.00    -0.550 OA
ATOM     17  O   UNL     1     123.561 178.200 116.389  1.00  0.00    -0.550 OA
ENDBRANCH  14  15
ENDBRANCH  13  14
ENDBRANCH  12  13
ENDBRANCH  11  12
ENDBRANCH  10  11
ENDBRANCH   9  10
ENDBRANCH   8   9
ENDBRANCH   7   8
ENDBRANCH   6   7
ENDBRANCH   5   6
ENDBRANCH   4   5
ENDBRANCH   3   4
ENDBRANCH   2   3
ENDBRANCH   1   2
BRANCH   1  18
ATOM     18  C   UNL     1     121.513 177.860 128.189  1.00  0.00     0.000 C 
BRANCH  18  19
ATOM     19  C   UNL     1     120.677 176.573 128.277  1.00  0.00     0.000 C 
BRANCH  19  20
ATOM     20  C   UNL     1     120.119 176.322 129.689  1.00  0.00     0.000 C 
BRANCH  20  21
ATOM     21  C   UNL     1     118.660 176.792 129.870  1.00  0.00     0.000 C 
BRANCH  21  22
ATOM     22  C   UNL     1     117.711 175.631 130.226  1.00  0.00     0.000 C 
BRANCH  22  23
ATOM     23  C   UNL     1     116.510 175.542 129.260  1.00  0.00     0.000 C 
BRANCH  23  24
ATOM     24  C   UNL     1     116.585 176.533 128.085  1.00  0.00    -0.000 C 
BRANCH  24  25
ATOM     25  C   UNL     1     116.510 175.841 126.718  1.00  0.00    -0.000 C 
BRANCH  25  26
ATOM     26  C   UNL     1     117.093 174.422 126.779  1.00  0.00    -0.000 C 
BRANCH  26  27
ATOM     27  C   UNL     1     118.615 174.395 126.556  1.00  0.00    -0.000 C 
BRANCH  27  28
ATOM     28  C   UNL     1     119.246 173.005 126.791  1.00  0.00    -0.000 C 
BRANCH  28  29
ATOM     29  C   UNL     1     119.967 172.914 128.149  1.00  0.00    -0.000 C 
BRANCH  29  30
ATOM     30  C   UNL     1     119.728 171.561 128.852  1.00  0.00    -0.000 C 
BRANCH  30  31
ATOM     31  C   UNL     1     118.244 171.171 128.953  1.00  0.00    -0.003 C 
ATOM     32  C   UNL     1     117.459 172.044 129.931  1.00  0.00     0.004 C 
ENDBRANCH  30  31
ENDBRANCH  29  30
ENDBRANCH  28  29
ENDBRANCH  27  28
ENDBRANCH  26  27
ENDBRANCH  25  26
ENDBRANCH  24  25
ENDBRANCH  23  24
ENDBRANCH  22  23
ENDBRANCH  21  22
ENDBRANCH  20  21
ENDBRANCH  19  20
ENDBRANCH  18  19
ENDBRANCH   1  18
TORSDOF 28
ENDMDL
