MODEL 1
REMARK VINA RESULT:    -2.683      0.000      0.000
REMARK INTER + INTRA:          -3.152
REMARK INTER:                  -2.839
REMARK INTRA:                  -0.312
REMARK UNBOUND:                -0.312
REMARK SMILES CC1=CC[C@@]23[C@@H]([C@@H]12)[C@H](C(C)C)CC[C@@H]3C
REMARK SMILES IDX 15 1 14 2 13 3 12 4 8 5 6 6 5 7 7 8 2 9 3 10 4 11 1 12 9 13
REMARK SMILES IDX 10 14 11 15
REMARK H PARENT
REMARK Flexibility Score: inf
ROOT
ATOM      1  C   UNL     1     167.153 170.489 139.278  1.00  0.00     0.008 C 
ATOM      2  C   UNL     1     167.894 171.022 138.040  1.00  0.00    -0.007 C 
ATOM      3  C   UNL     1     166.954 171.900 137.185  1.00  0.00     0.004 C 
ATOM      4  C   UNL     1     166.796 173.304 137.769  1.00  0.00     0.004 C 
ATOM      5  C   UNL     1     168.131 174.077 137.716  1.00  0.00    -0.004 C 
ATOM      6  C   UNL     1     169.298 173.280 138.357  1.00  0.00     0.007 C 
ATOM      7  C   UNL     1     169.200 171.750 138.463  1.00  0.00    -0.013 C 
ATOM      8  C   UNL     1     170.028 172.385 137.346  1.00  0.00     0.025 C 
ATOM      9  C   UNL     1     171.438 172.042 137.684  1.00  0.00    -0.073 C 
ATOM     10  C   UNL     1     171.537 171.311 138.785  1.00  0.00    -0.027 C 
ATOM     11  C   UNL     1     170.205 171.035 139.388  1.00  0.00     0.035 C 
ATOM     12  C   UNL     1     172.617 172.483 136.875  1.00  0.00     0.039 C 
ENDROOT
BRANCH   5  13
ATOM     13  C   UNL     1     168.039 175.500 138.345  1.00  0.00    -0.014 C 
ATOM     14  C   UNL     1     166.597 175.875 138.721  1.00  0.00     0.007 C 
ATOM     15  C   UNL     1     168.971 175.701 139.555  1.00  0.00     0.007 C 
ENDBRANCH   5  13
TORSDOF 1
ENDMDL
MODEL 2
REMARK VINA RESULT:    -2.642     12.350     15.539
REMARK INTER + INTRA:          -3.109
REMARK INTER:                  -2.794
REMARK INTRA:                  -0.315
REMARK UNBOUND:                -0.312
REMARK SMILES CC1=CC[C@@]23[C@@H]([C@@H]12)[C@H](C(C)C)CC[C@@H]3C
REMARK SMILES IDX 15 1 14 2 13 3 12 4 8 5 6 6 5 7 7 8 2 9 3 10 4 11 1 12 9 13
REMARK SMILES IDX 10 14 11 15
REMARK H PARENT
REMARK Flexibility Score: inf
ROOT
ATOM      1  C   UNL     1     164.891 161.551 139.690  1.00  0.00     0.008 C 
ATOM      2  C   UNL     1     164.213 161.115 138.378  1.00  0.00    -0.007 C 
ATOM      3  C   UNL     1     165.198 160.308 137.505  1.00  0.00     0.004 C 
ATOM      4  C   UNL     1     165.334 158.862 137.985  1.00  0.00     0.004 C 
ATOM      5  C   UNL     1     164.008 158.094 137.806  1.00  0.00    -0.004 C 
ATOM      6  C   UNL     1     162.807 158.837 138.449  1.00  0.00     0.007 C 
ATOM      7  C   UNL     1     162.892 160.354 138.680  1.00  0.00    -0.013 C 
ATOM      8  C   UNL     1     162.123 159.808 137.477  1.00  0.00     0.025 C 
ATOM      9  C   UNL     1     160.696 160.121 137.773  1.00  0.00    -0.073 C 
ATOM     10  C   UNL     1     160.540 160.763 138.921  1.00  0.00    -0.027 C 
ATOM     11  C   UNL     1     161.839 160.993 139.607  1.00  0.00     0.035 C 
ATOM     12  C   UNL     1     159.560 159.743 136.875  1.00  0.00     0.039 C 
ENDROOT
BRANCH   5  13
ATOM     13  C   UNL     1     164.077 156.626 138.326  1.00  0.00    -0.014 C 
ATOM     14  C   UNL     1     165.491 156.240 138.787  1.00  0.00     0.007 C 
ATOM     15  C   UNL     1     163.055 156.317 139.436  1.00  0.00     0.007 C 
ENDBRANCH   5  13
TORSDOF 1
ENDMDL
MODEL 3
REMARK VINA RESULT:    -2.467     12.645     15.330
REMARK INTER + INTRA:          -2.923
REMARK INTER:                  -2.631
REMARK INTRA:                  -0.292
REMARK UNBOUND:                -0.312
REMARK SMILES CC1=CC[C@@]23[C@@H]([C@@H]12)[C@H](C(C)C)CC[C@@H]3C
REMARK SMILES IDX 15 1 14 2 13 3 12 4 8 5 6 6 5 7 7 8 2 9 3 10 4 11 1 12 9 13
REMARK SMILES IDX 10 14 11 15
REMARK H PARENT
REMARK Flexibility Score: inf
ROOT
ATOM      1  C   UNL     1     165.875 155.936 140.742  1.00  0.00     0.008 C 
ATOM      2  C   UNL     1     165.605 156.494 139.333  1.00  0.00    -0.007 C 
ATOM      3  C   UNL     1     164.315 155.879 138.748  1.00  0.00     0.004 C 
ATOM      4  C   UNL     1     163.058 156.540 139.315  1.00  0.00     0.004 C 
ATOM      5  C   UNL     1     162.964 158.016 138.876  1.00  0.00    -0.004 C 
ATOM      6  C   UNL     1     164.261 158.807 139.191  1.00  0.00     0.007 C 
ATOM      7  C   UNL     1     165.587 158.049 139.362  1.00  0.00    -0.013 C 
ATOM      8  C   UNL     1     165.279 158.757 138.043  1.00  0.00     0.025 C 
ATOM      9  C   UNL     1     166.250 159.887 137.989  1.00  0.00    -0.073 C 
ATOM     10  C   UNL     1     167.057 159.917 139.039  1.00  0.00    -0.027 C 
ATOM     11  C   UNL     1     166.768 158.812 139.992  1.00  0.00     0.035 C 
ATOM     12  C   UNL     1     166.302 160.884 136.875  1.00  0.00     0.039 C 
ENDROOT
BRANCH   5  13
ATOM     13  C   UNL     1     161.724 158.752 139.469  1.00  0.00    -0.014 C 
ATOM     14  C   UNL     1     162.097 159.649 140.659  1.00  0.00     0.007 C 
ATOM     15  C   UNL     1     160.931 159.560 138.424  1.00  0.00     0.007 C 
ENDBRANCH   5  13
TORSDOF 1
ENDMDL
MODEL 4
REMARK VINA RESULT:    -2.429      1.638      4.733
REMARK INTER + INTRA:          -2.884
REMARK INTER:                  -2.590
REMARK INTRA:                  -0.293
REMARK UNBOUND:                -0.312
REMARK SMILES CC1=CC[C@@]23[C@@H]([C@@H]12)[C@H](C(C)C)CC[C@@H]3C
REMARK SMILES IDX 15 1 14 2 13 3 12 4 8 5 6 6 5 7 7 8 2 9 3 10 4 11 1 12 9 13
REMARK SMILES IDX 10 14 11 15
REMARK H PARENT
REMARK Flexibility Score: inf
ROOT
ATOM      1  C   UNL     1     165.914 176.021 140.779  1.00  0.00     0.008 C 
ATOM      2  C   UNL     1     166.178 175.468 139.368  1.00  0.00    -0.007 C 
ATOM      3  C   UNL     1     167.436 176.125 138.758  1.00  0.00     0.004 C 
ATOM      4  C   UNL     1     168.724 175.509 139.305  1.00  0.00     0.004 C 
ATOM      5  C   UNL     1     168.861 174.036 138.869  1.00  0.00    -0.004 C 
ATOM      6  C   UNL     1     167.597 173.202 139.209  1.00  0.00     0.007 C 
ATOM      7  C   UNL     1     166.249 173.915 139.400  1.00  0.00    -0.013 C 
ATOM      8  C   UNL     1     166.559 173.213 138.078  1.00  0.00     0.025 C 
ATOM      9  C   UNL     1     165.625 172.051 138.045  1.00  0.00    -0.073 C 
ATOM     10  C   UNL     1     164.838 171.997 139.109  1.00  0.00    -0.027 C 
ATOM     11  C   UNL     1     165.106 173.114 140.054  1.00  0.00     0.035 C 
ATOM     12  C   UNL     1     165.588 171.048 136.935  1.00  0.00     0.039 C 
ENDROOT
BRANCH   5  13
ATOM     13  C   UNL     1     170.135 173.344 139.441  1.00  0.00    -0.014 C 
ATOM     14  C   UNL     1     169.793 172.288 140.504  1.00  0.00     0.007 C 
ATOM     15  C   UNL     1     171.043 172.731 138.358  1.00  0.00     0.007 C 
ENDBRANCH   5  13
TORSDOF 1
ENDMDL
MODEL 5
REMARK VINA RESULT:    -2.419     12.584     15.974
REMARK INTER + INTRA:          -2.873
REMARK INTER:                  -2.547
REMARK INTRA:                  -0.326
REMARK UNBOUND:                -0.312
REMARK SMILES CC1=CC[C@@]23[C@@H]([C@@H]12)[C@H](C(C)C)CC[C@@H]3C
REMARK SMILES IDX 15 1 14 2 13 3 12 4 8 5 6 6 5 7 7 8 2 9 3 10 4 11 1 12 9 13
REMARK SMILES IDX 10 14 11 15
REMARK H PARENT
REMARK Flexibility Score: inf
ROOT
ATOM      1  C   UNL     1     163.660 161.979 139.524  1.00  0.00     0.008 C 
ATOM      2  C   UNL     1     162.689 161.234 138.590  1.00  0.00    -0.007 C 
ATOM      3  C   UNL     1     163.431 160.729 137.334  1.00  0.00     0.004 C 
ATOM      4  C   UNL     1     164.230 159.456 137.616  1.00  0.00     0.004 C 
ATOM      5  C   UNL     1     163.292 158.279 137.958  1.00  0.00    -0.004 C 
ATOM      6  C   UNL     1     162.293 158.634 139.091  1.00  0.00     0.007 C 
ATOM      7  C   UNL     1     161.952 160.106 139.365  1.00  0.00    -0.013 C 
ATOM      8  C   UNL     1     160.986 159.237 138.561  1.00  0.00     0.025 C 
ATOM      9  C   UNL     1     159.796 159.083 139.446  1.00  0.00    -0.073 C 
ATOM     10  C   UNL     1     159.925 159.732 140.594  1.00  0.00    -0.027 C 
ATOM     11  C   UNL     1     161.231 160.436 140.688  1.00  0.00     0.035 C 
ATOM     12  C   UNL     1     158.590 158.276 139.082  1.00  0.00     0.039 C 
ENDROOT
BRANCH   5  13
ATOM     13  C   UNL     1     164.058 156.966 138.303  1.00  0.00    -0.014 C 
ATOM     14  C   UNL     1     165.491 157.241 138.783  1.00  0.00     0.007 C 
ATOM     15  C   UNL     1     163.321 156.071 139.317  1.00  0.00     0.007 C 
ENDBRANCH   5  13
TORSDOF 1
ENDMDL
MODEL 6
REMARK VINA RESULT:    -2.412     12.974     14.966
REMARK INTER + INTRA:          -2.866
REMARK INTER:                  -2.540
REMARK INTRA:                  -0.326
REMARK UNBOUND:                -0.312
REMARK SMILES CC1=CC[C@@]23[C@@H]([C@@H]12)[C@H](C(C)C)CC[C@@H]3C
REMARK SMILES IDX 15 1 14 2 13 3 12 4 8 5 6 6 5 7 7 8 2 9 3 10 4 11 1 12 9 13
REMARK SMILES IDX 10 14 11 15
REMARK H PARENT
REMARK Flexibility Score: inf
ROOT
ATOM      1  C   UNL     1     162.549 159.248 136.924  1.00  0.00     0.008 C 
ATOM      2  C   UNL     1     164.048 159.200 137.271  1.00  0.00    -0.007 C 
ATOM      3  C   UNL     1     164.574 160.618 137.586  1.00  0.00     0.004 C 
ATOM      4  C   UNL     1     164.200 161.064 139.000  1.00  0.00     0.004 C 
ATOM      5  C   UNL     1     164.906 160.192 140.059  1.00  0.00    -0.004 C 
ATOM      6  C   UNL     1     164.678 158.676 139.820  1.00  0.00     0.007 C 
ATOM      7  C   UNL     1     164.306 158.180 138.415  1.00  0.00    -0.013 C 
ATOM      8  C   UNL     1     165.746 158.053 138.911  1.00  0.00     0.025 C 
ATOM      9  C   UNL     1     165.958 156.586 139.073  1.00  0.00    -0.073 C 
ATOM     10  C   UNL     1     164.893 155.875 138.734  1.00  0.00    -0.027 C 
ATOM     11  C   UNL     1     163.769 156.741 138.287  1.00  0.00     0.035 C 
ATOM     12  C   UNL     1     167.232 155.982 139.573  1.00  0.00     0.039 C 
ENDROOT
BRANCH   5  13
ATOM     13  C   UNL     1     164.521 160.574 141.521  1.00  0.00    -0.014 C 
ATOM     14  C   UNL     1     163.186 161.330 141.590  1.00  0.00     0.007 C 
ATOM     15  C   UNL     1     164.502 159.373 142.486  1.00  0.00     0.007 C 
ENDBRANCH   5  13
TORSDOF 1
ENDMDL
MODEL 7
REMARK VINA RESULT:    -2.376      3.263      5.210
REMARK INTER + INTRA:          -2.827
REMARK INTER:                  -2.622
REMARK INTRA:                  -0.205
REMARK UNBOUND:                -0.312
REMARK SMILES CC1=CC[C@@]23[C@@H]([C@@H]12)[C@H](C(C)C)CC[C@@H]3C
REMARK SMILES IDX 15 1 14 2 13 3 12 4 8 5 6 6 5 7 7 8 2 9 3 10 4 11 1 12 9 13
REMARK SMILES IDX 10 14 11 15
REMARK H PARENT
REMARK Flexibility Score: inf
ROOT
ATOM      1  C   UNL     1     174.054 172.340 142.298  1.00  0.00     0.008 C 
ATOM      2  C   UNL     1     174.139 172.399 140.763  1.00  0.00    -0.007 C 
ATOM      3  C   UNL     1     173.235 171.319 140.130  1.00  0.00     0.004 C 
ATOM      4  C   UNL     1     171.764 171.738 140.124  1.00  0.00     0.004 C 
ATOM      5  C   UNL     1     171.540 172.956 139.203  1.00  0.00    -0.004 C 
ATOM      6  C   UNL     1     172.504 174.127 139.532  1.00  0.00     0.007 C 
ATOM      7  C   UNL     1     173.826 173.837 140.259  1.00  0.00    -0.013 C 
ATOM      8  C   UNL     1     173.819 174.049 138.745  1.00  0.00     0.025 C 
ATOM      9  C   UNL     1     174.532 175.343 138.547  1.00  0.00    -0.073 C 
ATOM     10  C   UNL     1     174.950 175.877 139.685  1.00  0.00    -0.027 C 
ATOM     11  C   UNL     1     174.588 175.036 140.857  1.00  0.00     0.035 C 
ATOM     12  C   UNL     1     174.744 175.977 137.208  1.00  0.00     0.039 C 
ENDROOT
BRANCH   5  13
ATOM     13  C   UNL     1     170.063 173.455 139.199  1.00  0.00    -0.014 C 
ATOM     14  C   UNL     1     169.350 173.142 137.875  1.00  0.00     0.007 C 
ATOM     15  C   UNL     1     169.233 172.933 140.386  1.00  0.00     0.007 C 
ENDBRANCH   5  13
TORSDOF 1
ENDMDL
MODEL 8
REMARK VINA RESULT:    -2.362     12.999     16.024
REMARK INTER + INTRA:          -2.812
REMARK INTER:                  -2.512
REMARK INTRA:                  -0.300
REMARK UNBOUND:                -0.312
REMARK SMILES CC1=CC[C@@]23[C@@H]([C@@H]12)[C@H](C(C)C)CC[C@@H]3C
REMARK SMILES IDX 15 1 14 2 13 3 12 4 8 5 6 6 5 7 7 8 2 9 3 10 4 11 1 12 9 13
REMARK SMILES IDX 10 14 11 15
REMARK H PARENT
REMARK Flexibility Score: inf
ROOT
ATOM      1  C   UNL     1     162.601 161.897 137.801  1.00  0.00     0.008 C 
ATOM      2  C   UNL     1     162.729 160.894 138.961  1.00  0.00    -0.007 C 
ATOM      3  C   UNL     1     161.771 161.274 140.111  1.00  0.00     0.004 C 
ATOM      4  C   UNL     1     160.332 160.846 139.821  1.00  0.00     0.004 C 
ATOM      5  C   UNL     1     160.213 159.309 139.769  1.00  0.00    -0.004 C 
ATOM      6  C   UNL     1     161.244 158.671 138.800  1.00  0.00     0.007 C 
ATOM      7  C   UNL     1     162.525 159.442 138.445  1.00  0.00    -0.013 C 
ATOM      8  C   UNL     1     162.571 158.327 139.491  1.00  0.00     0.025 C 
ATOM      9  C   UNL     1     163.373 157.247 138.850  1.00  0.00    -0.073 C 
ATOM     10  C   UNL     1     163.797 157.574 137.638  1.00  0.00    -0.027 C 
ATOM     11  C   UNL     1     163.350 158.937 137.245  1.00  0.00     0.035 C 
ATOM     12  C   UNL     1     163.661 155.930 139.500  1.00  0.00     0.039 C 
ENDROOT
BRANCH   5  13
ATOM     13  C   UNL     1     158.774 158.818 139.427  1.00  0.00    -0.014 C 
ATOM     14  C   UNL     1     158.445 158.982 137.935  1.00  0.00     0.007 C 
ATOM     15  C   UNL     1     158.493 157.371 139.875  1.00  0.00     0.007 C 
ENDBRANCH   5  13
TORSDOF 1
ENDMDL
MODEL 9
REMARK VINA RESULT:    -2.343     15.237     17.847
REMARK INTER + INTRA:          -2.793
REMARK INTER:                  -2.500
REMARK INTRA:                  -0.293
REMARK UNBOUND:                -0.312
REMARK SMILES CC1=CC[C@@]23[C@@H]([C@@H]12)[C@H](C(C)C)CC[C@@H]3C
REMARK SMILES IDX 15 1 14 2 13 3 12 4 8 5 6 6 5 7 7 8 2 9 3 10 4 11 1 12 9 13
REMARK SMILES IDX 10 14 11 15
REMARK H PARENT
REMARK Flexibility Score: inf
ROOT
ATOM      1  C   UNL     1     158.111 159.721 142.259  1.00  0.00     0.008 C 
ATOM      2  C   UNL     1     157.931 159.716 140.731  1.00  0.00    -0.007 C 
ATOM      3  C   UNL     1     158.711 160.885 140.091  1.00  0.00     0.004 C 
ATOM      4  C   UNL     1     160.205 160.579 139.975  1.00  0.00     0.004 C 
ATOM      5  C   UNL     1     160.456 159.418 138.990  1.00  0.00    -0.004 C 
ATOM      6  C   UNL     1     159.604 158.166 139.327  1.00  0.00     0.007 C 
ATOM      7  C   UNL     1     158.314 158.327 140.146  1.00  0.00    -0.013 C 
ATOM      8  C   UNL     1     158.237 158.175 138.627  1.00  0.00     0.025 C 
ATOM      9  C   UNL     1     157.610 156.839 138.417  1.00  0.00    -0.073 C 
ATOM     10  C   UNL     1     157.306 156.231 139.554  1.00  0.00    -0.027 C 
ATOM     11  C   UNL     1     157.682 157.051 140.737  1.00  0.00     0.035 C 
ATOM     12  C   UNL     1     157.358 156.244 137.067  1.00  0.00     0.039 C 
ENDROOT
BRANCH   5  13
ATOM     13  C   UNL     1     161.962 159.032 138.872  1.00  0.00    -0.014 C 
ATOM     14  C   UNL     1     162.257 157.655 139.485  1.00  0.00     0.007 C 
ATOM     15  C   UNL     1     162.503 159.098 137.431  1.00  0.00     0.007 C 
ENDBRANCH   5  13
TORSDOF 1
ENDMDL
