MODEL 1
REMARK VINA RESULT:    -6.366      0.000      0.000
REMARK INTER + INTRA:          -7.988
REMARK INTER:                  -7.669
REMARK INTRA:                  -0.319
REMARK UNBOUND:                -0.319
REMARK SMILES O=c1c(O)c(-c2ccc(O)c(O)c2)oc2cc(O)cc(O)c12
REMARK SMILES IDX 5 1 3 2 2 3 1 4 22 5 20 6 19 7 17 8 16 9 15 10 14 11 6 12
REMARK SMILES IDX 7 13 8 14 9 15 13 16 11 17 10 18 12 20 4 22 21 24 18 26
REMARK H PARENT 10 19 12 21 4 23 21 25 18 27
REMARK Flexibility Score: inf
ROOT
ATOM      1  C   UNL     1      29.859  23.143  33.701  1.00  0.00     0.180 A 
ATOM      2  C   UNL     1      30.929  22.251  33.509  1.00  0.00     0.208 A 
ATOM      3  C   UNL     1      30.762  20.903  33.860  1.00  0.00     0.238 A 
ATOM      4  O   UNL     1      31.705  20.099  33.635  1.00  0.00    -0.285 OA
ATOM      5  C   UNL     1      29.534  20.465  34.414  1.00  0.00     0.111 A 
ATOM      6  C   UNL     1      29.270  19.130  34.842  1.00  0.00     0.134 A 
ATOM      7  C   UNL     1      27.977  18.781  35.254  1.00  0.00     0.093 A 
ATOM      8  C   UNL     1      26.957  19.734  35.313  1.00  0.00     0.123 A 
ATOM      9  C   UNL     1      27.222  21.054  34.953  1.00  0.00     0.094 A 
ATOM     10  C   UNL     1      28.492  21.424  34.504  1.00  0.00     0.146 A 
ATOM     11  O   UNL     1      28.699  22.690  34.160  1.00  0.00    -0.452 OA
ENDROOT
BRANCH   1  12
ATOM     12  C   UNL     1      29.967  24.584  33.378  1.00  0.00     0.025 A 
ATOM     13  C   UNL     1      29.679  25.024  32.077  1.00  0.00     0.016 A 
ATOM     14  C   UNL     1      29.754  26.382  31.754  1.00  0.00     0.051 A 
ATOM     15  C   UNL     1      30.103  27.321  32.729  1.00  0.00     0.157 A 
ATOM     16  C   UNL     1      30.298  25.533  34.362  1.00  0.00     0.062 A 
ATOM     17  C   UNL     1      30.373  26.896  34.041  1.00  0.00     0.158 A 
BRANCH  15  18
ATOM     18  O   UNL     1      30.172  28.668  32.378  1.00  0.00    -0.504 OA
ATOM     19  H   UNL     1      29.752  29.025  31.527  1.00  0.00     0.293 HD
ENDBRANCH  15  18
BRANCH  17  20
ATOM     20  O   UNL     1      30.707  27.829  35.022  1.00  0.00    -0.504 OA
ATOM     21  H   UNL     1      30.239  28.725  35.085  1.00  0.00     0.293 HD
ENDBRANCH  17  20
ENDBRANCH   1  12
BRANCH   2  22
ATOM     22  O   UNL     1      32.124  22.700  32.941  1.00  0.00    -0.502 OA
ATOM     23  H   UNL     1      32.458  23.650  33.054  1.00  0.00     0.293 HD
ENDBRANCH   2  22
BRANCH   6  24
ATOM     24  O   UNL     1      30.239  18.125  34.911  1.00  0.00    -0.507 OA
ATOM     25  H   UNL     1      30.065  17.146  34.737  1.00  0.00     0.293 HD
ENDBRANCH   6  24
BRANCH   8  26
ATOM     26  O   UNL     1      25.678  19.381  35.738  1.00  0.00    -0.508 OA
ATOM     27  H   UNL     1      24.854  19.629  35.203  1.00  0.00     0.293 HD
ENDBRANCH   8  26
TORSDOF 6
ENDMDL
MODEL 2
REMARK VINA RESULT:    -6.098      2.291      4.048
REMARK INTER + INTRA:          -7.665
REMARK INTER:                  -7.343
REMARK INTRA:                  -0.322
REMARK UNBOUND:                -0.319
REMARK SMILES O=c1c(O)c(-c2ccc(O)c(O)c2)oc2cc(O)cc(O)c12
REMARK SMILES IDX 5 1 3 2 2 3 1 4 22 5 20 6 19 7 17 8 16 9 15 10 14 11 6 12
REMARK SMILES IDX 7 13 8 14 9 15 13 16 11 17 10 18 12 20 4 22 21 24 18 26
REMARK H PARENT 10 19 12 21 4 23 21 25 18 27
REMARK Flexibility Score: inf
ROOT
ATOM      1  C   UNL     1      27.816  24.533  34.777  1.00  0.00     0.180 A 
ATOM      2  C   UNL     1      26.495  24.854  35.135  1.00  0.00     0.208 A 
ATOM      3  C   UNL     1      25.614  23.819  35.484  1.00  0.00     0.238 A 
ATOM      4  O   UNL     1      24.448  24.117  35.855  1.00  0.00    -0.285 OA
ATOM      5  C   UNL     1      26.058  22.475  35.454  1.00  0.00     0.111 A 
ATOM      6  C   UNL     1      25.239  21.345  35.749  1.00  0.00     0.134 A 
ATOM      7  C   UNL     1      25.818  20.071  35.816  1.00  0.00     0.093 A 
ATOM      8  C   UNL     1      27.174  19.880  35.535  1.00  0.00     0.123 A 
ATOM      9  C   UNL     1      27.968  20.971  35.188  1.00  0.00     0.094 A 
ATOM     10  C   UNL     1      27.427  22.258  35.148  1.00  0.00     0.146 A 
ATOM     11  O   UNL     1      28.222  23.270  34.823  1.00  0.00    -0.452 OA
ENDROOT
BRANCH   1  12
ATOM     12  C   UNL     1      28.796  25.568  34.374  1.00  0.00     0.025 A 
ATOM     13  C   UNL     1      29.576  26.200  35.354  1.00  0.00     0.016 A 
ATOM     14  C   UNL     1      30.522  27.164  34.995  1.00  0.00     0.051 A 
ATOM     15  C   UNL     1      30.713  27.499  33.651  1.00  0.00     0.157 A 
ATOM     16  C   UNL     1      29.005  25.891  33.021  1.00  0.00     0.062 A 
ATOM     17  C   UNL     1      29.955  26.857  32.658  1.00  0.00     0.158 A 
BRANCH  15  18
ATOM     18  O   UNL     1      31.663  28.466  33.323  1.00  0.00    -0.504 OA
ATOM     19  H   UNL     1      31.435  29.453  33.286  1.00  0.00     0.293 HD
ENDBRANCH  15  18
BRANCH  17  20
ATOM     20  O   UNL     1      30.151  27.176  31.315  1.00  0.00    -0.504 OA
ATOM     21  H   UNL     1      30.946  27.724  31.009  1.00  0.00     0.293 HD
ENDBRANCH  17  20
ENDBRANCH   1  12
BRANCH   2  22
ATOM     22  O   UNL     1      26.083  26.189  35.178  1.00  0.00    -0.502 OA
ATOM     23  H   UNL     1      25.534  26.614  34.439  1.00  0.00     0.293 HD
ENDBRANCH   2  22
BRANCH   6  24
ATOM     24  O   UNL     1      23.858  21.413  35.955  1.00  0.00    -0.507 OA
ATOM     25  H   UNL     1      23.408  21.979  36.659  1.00  0.00     0.293 HD
ENDBRANCH   6  24
BRANCH   8  26
ATOM     26  O   UNL     1      27.738  18.608  35.589  1.00  0.00    -0.508 OA
ATOM     27  H   UNL     1      27.192  17.777  35.396  1.00  0.00     0.293 HD
ENDBRANCH   8  26
TORSDOF 6
ENDMDL
MODEL 3
REMARK VINA RESULT:    -5.975      2.067      3.077
REMARK INTER + INTRA:          -7.517
REMARK INTER:                  -7.198
REMARK INTRA:                  -0.319
REMARK UNBOUND:                -0.319
REMARK SMILES O=c1c(O)c(-c2ccc(O)c(O)c2)oc2cc(O)cc(O)c12
REMARK SMILES IDX 5 1 3 2 2 3 1 4 22 5 20 6 19 7 17 8 16 9 15 10 14 11 6 12
REMARK SMILES IDX 7 13 8 14 9 15 13 16 11 17 10 18 12 20 4 22 21 24 18 26
REMARK H PARENT 10 19 12 21 4 23 21 25 18 27
REMARK Flexibility Score: inf
ROOT
ATOM      1  C   UNL     1      28.293  24.069  34.749  1.00  0.00     0.180 A 
ATOM      2  C   UNL     1      28.872  22.792  34.648  1.00  0.00     0.208 A 
ATOM      3  C   UNL     1      28.094  21.665  34.956  1.00  0.00     0.238 A 
ATOM      4  O   UNL     1      28.602  20.522  34.811  1.00  0.00    -0.285 OA
ATOM      5  C   UNL     1      26.752  21.829  35.379  1.00  0.00     0.111 A 
ATOM      6  C   UNL     1      25.886  20.760  35.755  1.00  0.00     0.134 A 
ATOM      7  C   UNL     1      24.539  21.028  36.031  1.00  0.00     0.093 A 
ATOM      8  C   UNL     1      24.044  22.335  36.006  1.00  0.00     0.123 A 
ATOM      9  C   UNL     1      24.898  23.392  35.698  1.00  0.00     0.094 A 
ATOM     10  C   UNL     1      26.238  23.152  35.383  1.00  0.00     0.146 A 
ATOM     11  O   UNL     1      27.014  24.186  35.084  1.00  0.00    -0.452 OA
ENDROOT
BRANCH   1  12
ATOM     12  C   UNL     1      29.058  25.305  34.464  1.00  0.00     0.025 A 
ATOM     13  C   UNL     1      29.736  25.953  35.508  1.00  0.00     0.016 A 
ATOM     14  C   UNL     1      30.481  27.109  35.259  1.00  0.00     0.051 A 
ATOM     15  C   UNL     1      30.572  27.625  33.962  1.00  0.00     0.157 A 
ATOM     16  C   UNL     1      29.168  25.814  33.158  1.00  0.00     0.062 A 
ATOM     17  C   UNL     1      29.916  26.973  32.905  1.00  0.00     0.158 A 
BRANCH  15  18
ATOM     18  O   UNL     1      31.320  28.781  33.744  1.00  0.00    -0.504 OA
ATOM     19  H   UNL     1      30.928  29.598  33.290  1.00  0.00     0.293 HD
ENDBRANCH  15  18
BRANCH  17  20
ATOM     20  O   UNL     1      30.013  27.474  31.608  1.00  0.00    -0.504 OA
ATOM     21  H   UNL     1      29.291  28.061  31.209  1.00  0.00     0.293 HD
ENDBRANCH  17  20
ENDBRANCH   1  12
BRANCH   2  22
ATOM     22  O   UNL     1      30.192  22.651  34.208  1.00  0.00    -0.502 OA
ATOM     23  H   UNL     1      30.980  22.644  34.845  1.00  0.00     0.293 HD
ENDBRANCH   2  22
BRANCH   6  24
ATOM     24  O   UNL     1      26.299  19.433  35.900  1.00  0.00    -0.507 OA
ATOM     25  H   UNL     1      26.609  19.019  36.767  1.00  0.00     0.293 HD
ENDBRANCH   6  24
BRANCH   8  26
ATOM     26  O   UNL     1      22.707  22.595  36.297  1.00  0.00    -0.508 OA
ATOM     27  H   UNL     1      22.401  23.505  36.621  1.00  0.00     0.293 HD
ENDBRANCH   8  26
TORSDOF 6
ENDMDL
MODEL 4
REMARK VINA RESULT:    -5.967      2.110      6.726
REMARK INTER + INTRA:          -7.508
REMARK INTER:                  -7.955
REMARK INTRA:                   0.448
REMARK UNBOUND:                -0.319
REMARK SMILES O=c1c(O)c(-c2ccc(O)c(O)c2)oc2cc(O)cc(O)c12
REMARK SMILES IDX 5 1 3 2 2 3 1 4 22 5 20 6 19 7 17 8 16 9 15 10 14 11 6 12
REMARK SMILES IDX 7 13 8 14 9 15 13 16 11 17 10 18 12 20 4 22 21 24 18 26
REMARK H PARENT 10 19 12 21 4 23 21 25 18 27
REMARK Flexibility Score: inf
ROOT
ATOM      1  C   UNL     1      27.167  21.634  35.013  1.00  0.00     0.180 A 
ATOM      2  C   UNL     1      28.011  20.645  34.478  1.00  0.00     0.208 A 
ATOM      3  C   UNL     1      29.263  21.021  33.968  1.00  0.00     0.238 A 
ATOM      4  O   UNL     1      30.036  20.124  33.540  1.00  0.00    -0.285 OA
ATOM      5  C   UNL     1      29.650  22.383  33.983  1.00  0.00     0.111 A 
ATOM      6  C   UNL     1      30.878  22.882  33.455  1.00  0.00     0.134 A 
ATOM      7  C   UNL     1      31.212  24.229  33.641  1.00  0.00     0.093 A 
ATOM      8  C   UNL     1      30.333  25.109  34.279  1.00  0.00     0.123 A 
ATOM      9  C   UNL     1      29.106  24.643  34.745  1.00  0.00     0.094 A 
ATOM     10  C   UNL     1      28.760  23.297  34.605  1.00  0.00     0.146 A 
ATOM     11  O   UNL     1      27.585  22.893  35.073  1.00  0.00    -0.452 OA
ENDROOT
BRANCH   1  12
ATOM     12  C   UNL     1      25.823  21.317  35.548  1.00  0.00     0.025 A 
ATOM     13  C   UNL     1      24.910  22.357  35.781  1.00  0.00     0.016 A 
ATOM     14  C   UNL     1      23.628  22.081  36.265  1.00  0.00     0.051 A 
ATOM     15  C   UNL     1      23.235  20.761  36.508  1.00  0.00     0.157 A 
ATOM     16  C   UNL     1      25.418  19.989  35.774  1.00  0.00     0.062 A 
ATOM     17  C   UNL     1      24.132  19.709  36.258  1.00  0.00     0.158 A 
BRANCH  15  18
ATOM     18  O   UNL     1      21.951  20.515  36.993  1.00  0.00    -0.504 OA
ATOM     19  H   UNL     1      21.656  20.820  37.914  1.00  0.00     0.293 HD
ENDBRANCH  15  18
BRANCH  17  20
ATOM     20  O   UNL     1      23.742  18.390  36.485  1.00  0.00    -0.504 OA
ATOM     21  H   UNL     1      24.086  17.863  37.279  1.00  0.00     0.293 HD
ENDBRANCH  17  20
ENDBRANCH   1  12
BRANCH   2  22
ATOM     22  O   UNL     1      27.619  19.303  34.494  1.00  0.00    -0.502 OA
ATOM     23  H   UNL     1      26.715  18.996  34.154  1.00  0.00     0.293 HD
ENDBRANCH   2  22
BRANCH   6  24
ATOM     24  O   UNL     1      31.784  22.110  32.722  1.00  0.00    -0.507 OA
ATOM     25  H   UNL     1      31.673  21.863  31.750  1.00  0.00     0.293 HD
ENDBRANCH   6  24
BRANCH   8  26
ATOM     26  O   UNL     1      30.667  26.451  34.446  1.00  0.00    -0.508 OA
ATOM     27  H   UNL     1      31.560  26.817  34.139  1.00  0.00     0.293 HD
ENDBRANCH   8  26
TORSDOF 6
ENDMDL
MODEL 5
REMARK VINA RESULT:    -5.778      1.233      2.869
REMARK INTER + INTRA:          -7.279
REMARK INTER:                  -6.979
REMARK INTRA:                  -0.300
REMARK UNBOUND:                -0.319
REMARK SMILES O=c1c(O)c(-c2ccc(O)c(O)c2)oc2cc(O)cc(O)c12
REMARK SMILES IDX 5 1 3 2 2 3 1 4 22 5 20 6 19 7 17 8 16 9 15 10 14 11 6 12
REMARK SMILES IDX 7 13 8 14 9 15 13 16 11 17 10 18 12 20 4 22 21 24 18 26
REMARK H PARENT 10 19 12 21 4 23 21 25 18 27
REMARK Flexibility Score: inf
ROOT
ATOM      1  C   UNL     1      29.380  23.455  34.093  1.00  0.00     0.180 A 
ATOM      2  C   UNL     1      28.200  23.098  34.768  1.00  0.00     0.208 A 
ATOM      3  C   UNL     1      27.989  21.751  35.103  1.00  0.00     0.238 A 
ATOM      4  O   UNL     1      26.956  21.445  35.756  1.00  0.00    -0.285 OA
ATOM      5  C   UNL     1      28.952  20.776  34.745  1.00  0.00     0.111 A 
ATOM      6  C   UNL     1      28.822  19.378  35.000  1.00  0.00     0.134 A 
ATOM      7  C   UNL     1      29.894  18.523  34.719  1.00  0.00     0.093 A 
ATOM      8  C   UNL     1      31.068  19.007  34.133  1.00  0.00     0.123 A 
ATOM      9  C   UNL     1      31.180  20.361  33.826  1.00  0.00     0.094 A 
ATOM     10  C   UNL     1      30.141  21.244  34.128  1.00  0.00     0.146 A 
ATOM     11  O   UNL     1      30.294  22.529  33.829  1.00  0.00    -0.452 OA
ENDROOT
BRANCH   1  12
ATOM     12  C   UNL     1      29.662  24.851  33.684  1.00  0.00     0.025 A 
ATOM     13  C   UNL     1      29.352  25.264  32.379  1.00  0.00     0.016 A 
ATOM     14  C   UNL     1      29.589  26.581  31.977  1.00  0.00     0.051 A 
ATOM     15  C   UNL     1      30.125  27.508  32.877  1.00  0.00     0.157 A 
ATOM     16  C   UNL     1      30.181  25.790  34.593  1.00  0.00     0.062 A 
ATOM     17  C   UNL     1      30.419  27.113  34.193  1.00  0.00     0.158 A 
BRANCH  15  18
ATOM     18  O   UNL     1      30.353  28.815  32.447  1.00  0.00    -0.504 OA
ATOM     19  H   UNL     1      31.113  29.376  32.813  1.00  0.00     0.293 HD
ENDBRANCH  15  18
BRANCH  17  20
ATOM     20  O   UNL     1      30.939  28.036  35.099  1.00  0.00    -0.504 OA
ATOM     21  H   UNL     1      31.510  28.815  34.795  1.00  0.00     0.293 HD
ENDBRANCH  17  20
ENDBRANCH   1  12
BRANCH   2  22
ATOM     22  O   UNL     1      27.273  24.079  35.131  1.00  0.00    -0.502 OA
ATOM     23  H   UNL     1      27.550  25.015  35.401  1.00  0.00     0.293 HD
ENDBRANCH   2  22
BRANCH   6  24
ATOM     24  O   UNL     1      27.660  18.779  35.496  1.00  0.00    -0.507 OA
ATOM     25  H   UNL     1      26.999  19.229  36.111  1.00  0.00     0.293 HD
ENDBRANCH   6  24
BRANCH   8  26
ATOM     26  O   UNL     1      32.124  18.146  33.842  1.00  0.00    -0.508 OA
ATOM     27  H   UNL     1      32.692  18.265  33.011  1.00  0.00     0.293 HD
ENDBRANCH   8  26
TORSDOF 6
ENDMDL
MODEL 6
REMARK VINA RESULT:    -5.772      3.157      7.300
REMARK INTER + INTRA:          -7.272
REMARK INTER:                  -6.970
REMARK INTRA:                  -0.302
REMARK UNBOUND:                -0.319
REMARK SMILES O=c1c(O)c(-c2ccc(O)c(O)c2)oc2cc(O)cc(O)c12
REMARK SMILES IDX 5 1 3 2 2 3 1 4 22 5 20 6 19 7 17 8 16 9 15 10 14 11 6 12
REMARK SMILES IDX 7 13 8 14 9 15 13 16 11 17 10 18 12 20 4 22 21 24 18 26
REMARK H PARENT 10 19 12 21 4 23 21 25 18 27
REMARK Flexibility Score: inf
ROOT
ATOM      1  C   UNL     1      27.415  24.593  35.388  1.00  0.00     0.180 A 
ATOM      2  C   UNL     1      28.139  25.196  36.431  1.00  0.00     0.208 A 
ATOM      3  C   UNL     1      29.218  26.036  36.115  1.00  0.00     0.238 A 
ATOM      4  O   UNL     1      29.828  26.616  37.052  1.00  0.00    -0.285 OA
ATOM      5  C   UNL     1      29.572  26.249  34.760  1.00  0.00     0.111 A 
ATOM      6  C   UNL     1      30.672  27.047  34.327  1.00  0.00     0.134 A 
ATOM      7  C   UNL     1      30.850  27.293  32.960  1.00  0.00     0.093 A 
ATOM      8  C   UNL     1      30.005  26.716  32.007  1.00  0.00     0.123 A 
ATOM      9  C   UNL     1      28.964  25.887  32.419  1.00  0.00     0.094 A 
ATOM     10  C   UNL     1      28.740  25.652  33.778  1.00  0.00     0.146 A 
ATOM     11  O   UNL     1      27.730  24.864  34.127  1.00  0.00    -0.452 OA
ENDROOT
BRANCH   1  12
ATOM     12  C   UNL     1      26.280  23.677  35.643  1.00  0.00     0.025 A 
ATOM     13  C   UNL     1      25.003  24.208  35.880  1.00  0.00     0.016 A 
ATOM     14  C   UNL     1      23.913  23.362  36.103  1.00  0.00     0.051 A 
ATOM     15  C   UNL     1      24.080  21.974  36.077  1.00  0.00     0.157 A 
ATOM     16  C   UNL     1      26.441  22.280  35.597  1.00  0.00     0.062 A 
ATOM     17  C   UNL     1      25.349  21.429  35.819  1.00  0.00     0.158 A 
BRANCH  15  18
ATOM     18  O   UNL     1      22.975  21.155  36.304  1.00  0.00    -0.504 OA
ATOM     19  H   UNL     1      23.073  20.193  36.608  1.00  0.00     0.293 HD
ENDBRANCH  15  18
BRANCH  17  20
ATOM     20  O   UNL     1      25.520  20.046  35.777  1.00  0.00    -0.504 OA
ATOM     21  H   UNL     1      25.887  19.532  36.569  1.00  0.00     0.293 HD
ENDBRANCH  17  20
ENDBRANCH   1  12
BRANCH   2  22
ATOM     22  O   UNL     1      27.759  24.990  37.761  1.00  0.00    -0.502 OA
ATOM     23  H   UNL     1      27.780  25.729  38.453  1.00  0.00     0.293 HD
ENDBRANCH   2  22
BRANCH   6  24
ATOM     24  O   UNL     1      31.628  27.594  35.188  1.00  0.00    -0.507 OA
ATOM     25  H   UNL     1      32.060  28.497  35.068  1.00  0.00     0.293 HD
ENDBRANCH   6  24
BRANCH   8  26
ATOM     26  O   UNL     1      30.199  26.953  30.648  1.00  0.00    -0.508 OA
ATOM     27  H   UNL     1      29.660  26.466  29.943  1.00  0.00     0.293 HD
ENDBRANCH   8  26
TORSDOF 6
ENDMDL
MODEL 7
REMARK VINA RESULT:    -5.665      2.788      7.413
REMARK INTER + INTRA:          -7.143
REMARK INTER:                  -7.355
REMARK INTRA:                   0.212
REMARK UNBOUND:                -0.319
REMARK SMILES O=c1c(O)c(-c2ccc(O)c(O)c2)oc2cc(O)cc(O)c12
REMARK SMILES IDX 5 1 3 2 2 3 1 4 22 5 20 6 19 7 17 8 16 9 15 10 14 11 6 12
REMARK SMILES IDX 7 13 8 14 9 15 13 16 11 17 10 18 12 20 4 22 21 24 18 26
REMARK H PARENT 10 19 12 21 4 23 21 25 18 27
REMARK Flexibility Score: inf
ROOT
ATOM      1  C   UNL     1      26.393  22.752  35.583  1.00  0.00     0.180 A 
ATOM      2  C   UNL     1      26.249  24.144  35.452  1.00  0.00     0.208 A 
ATOM      3  C   UNL     1      27.276  24.880  34.840  1.00  0.00     0.238 A 
ATOM      4  O   UNL     1      27.118  26.119  34.677  1.00  0.00    -0.285 OA
ATOM      5  C   UNL     1      28.441  24.218  34.382  1.00  0.00     0.111 A 
ATOM      6  C   UNL     1      29.561  24.870  33.785  1.00  0.00     0.134 A 
ATOM      7  C   UNL     1      30.603  24.101  33.251  1.00  0.00     0.093 A 
ATOM      8  C   UNL     1      30.595  22.707  33.351  1.00  0.00     0.123 A 
ATOM      9  C   UNL     1      29.534  22.066  33.987  1.00  0.00     0.094 A 
ATOM     10  C   UNL     1      28.463  22.804  34.497  1.00  0.00     0.146 A 
ATOM     11  O   UNL     1      27.467  22.152  35.085  1.00  0.00    -0.452 OA
ENDROOT
BRANCH   1  12
ATOM     12  C   UNL     1      25.363  21.912  36.238  1.00  0.00     0.025 A 
ATOM     13  C   UNL     1      24.668  22.414  37.349  1.00  0.00     0.016 A 
ATOM     14  C   UNL     1      23.678  21.648  37.971  1.00  0.00     0.051 A 
ATOM     15  C   UNL     1      23.358  20.377  37.483  1.00  0.00     0.157 A 
ATOM     16  C   UNL     1      25.025  20.643  35.737  1.00  0.00     0.062 A 
ATOM     17  C   UNL     1      24.031  19.872  36.358  1.00  0.00     0.158 A 
BRANCH  15  18
ATOM     18  O   UNL     1      22.368  19.635  38.125  1.00  0.00    -0.504 OA
ATOM     19  H   UNL     1      22.407  18.624  38.184  1.00  0.00     0.293 HD
ENDBRANCH  15  18
BRANCH  17  20
ATOM     20  O   UNL     1      23.707  18.613  35.857  1.00  0.00    -0.504 OA
ATOM     21  H   UNL     1      23.110  17.975  36.369  1.00  0.00     0.293 HD
ENDBRANCH  17  20
ENDBRANCH   1  12
BRANCH   2  22
ATOM     22  O   UNL     1      25.081  24.775  35.890  1.00  0.00    -0.502 OA
ATOM     23  H   UNL     1      24.198  24.286  35.976  1.00  0.00     0.293 HD
ENDBRANCH   2  22
BRANCH   6  24
ATOM     24  O   UNL     1      29.711  26.258  33.715  1.00  0.00    -0.507 OA
ATOM     25  H   UNL     1      29.436  26.903  34.441  1.00  0.00     0.293 HD
ENDBRANCH   6  24
BRANCH   8  26
ATOM     26  O   UNL     1      31.643  21.951  32.832  1.00  0.00    -0.508 OA
ATOM     27  H   UNL     1      31.476  21.175  32.202  1.00  0.00     0.293 HD
ENDBRANCH   8  26
TORSDOF 6
ENDMDL
MODEL 8
REMARK VINA RESULT:    -5.558      2.983      6.682
REMARK INTER + INTRA:          -7.014
REMARK INTER:                  -7.452
REMARK INTRA:                   0.437
REMARK UNBOUND:                -0.319
REMARK SMILES O=c1c(O)c(-c2ccc(O)c(O)c2)oc2cc(O)cc(O)c12
REMARK SMILES IDX 5 1 3 2 2 3 1 4 22 5 20 6 19 7 17 8 16 9 15 10 14 11 6 12
REMARK SMILES IDX 7 13 8 14 9 15 13 16 11 17 10 18 12 20 4 22 21 24 18 26
REMARK H PARENT 10 19 12 21 4 23 21 25 18 27
REMARK Flexibility Score: inf
ROOT
ATOM      1  C   UNL     1      26.485  22.329  35.544  1.00  0.00     0.180 A 
ATOM      2  C   UNL     1      26.925  23.658  35.425  1.00  0.00     0.208 A 
ATOM      3  C   UNL     1      28.211  23.907  34.921  1.00  0.00     0.238 A 
ATOM      4  O   UNL     1      28.579  25.102  34.766  1.00  0.00    -0.285 OA
ATOM      5  C   UNL     1      29.048  22.824  34.559  1.00  0.00     0.111 A 
ATOM      6  C   UNL     1      30.384  22.959  34.076  1.00  0.00     0.134 A 
ATOM      7  C   UNL     1      31.072  21.826  33.625  1.00  0.00     0.093 A 
ATOM      8  C   UNL     1      30.496  20.554  33.700  1.00  0.00     0.123 A 
ATOM      9  C   UNL     1      29.215  20.407  34.225  1.00  0.00     0.094 A 
ATOM     10  C   UNL     1      28.489  21.522  34.650  1.00  0.00     0.146 A 
ATOM     11  O   UNL     1      27.267  21.337  35.134  1.00  0.00    -0.452 OA
ENDROOT
BRANCH   1  12
ATOM     12  C   UNL     1      25.151  21.987  36.089  1.00  0.00     0.025 A 
ATOM     13  C   UNL     1      24.706  20.657  36.042  1.00  0.00     0.016 A 
ATOM     14  C   UNL     1      23.460  20.306  36.569  1.00  0.00     0.051 A 
ATOM     15  C   UNL     1      22.648  21.276  37.165  1.00  0.00     0.157 A 
ATOM     16  C   UNL     1      24.341  22.956  36.707  1.00  0.00     0.062 A 
ATOM     17  C   UNL     1      23.091  22.608  37.238  1.00  0.00     0.158 A 
BRANCH  15  18
ATOM     18  O   UNL     1      21.409  20.898  37.680  1.00  0.00    -0.504 OA
ATOM     19  H   UNL     1      20.629  21.543  37.733  1.00  0.00     0.293 HD
ENDBRANCH  15  18
BRANCH  17  20
ATOM     20  O   UNL     1      22.292  23.577  37.844  1.00  0.00    -0.504 OA
ATOM     21  H   UNL     1      22.451  24.566  37.693  1.00  0.00     0.293 HD
ENDBRANCH  17  20
ENDBRANCH   1  12
BRANCH   2  22
ATOM     22  O   UNL     1      26.075  24.714  35.768  1.00  0.00    -0.502 OA
ATOM     23  H   UNL     1      26.405  25.666  35.874  1.00  0.00     0.293 HD
ENDBRANCH   2  22
BRANCH   6  24
ATOM     24  O   UNL     1      31.085  24.168  34.045  1.00  0.00    -0.507 OA
ATOM     25  H   UNL     1      32.084  24.250  33.925  1.00  0.00     0.293 HD
ENDBRANCH   6  24
BRANCH   8  26
ATOM     26  O   UNL     1      31.194  19.431  33.263  1.00  0.00    -0.508 OA
ATOM     27  H   UNL     1      30.715  18.580  32.995  1.00  0.00     0.293 HD
ENDBRANCH   8  26
TORSDOF 6
ENDMDL
MODEL 9
REMARK VINA RESULT:    -5.551      1.804      7.146
REMARK INTER + INTRA:          -7.006
REMARK INTER:                  -6.843
REMARK INTRA:                  -0.163
REMARK UNBOUND:                -0.319
REMARK SMILES O=c1c(O)c(-c2ccc(O)c(O)c2)oc2cc(O)cc(O)c12
REMARK SMILES IDX 5 1 3 2 2 3 1 4 22 5 20 6 19 7 17 8 16 9 15 10 14 11 6 12
REMARK SMILES IDX 7 13 8 14 9 15 13 16 11 17 10 18 12 20 4 22 21 24 18 26
REMARK H PARENT 10 19 12 21 4 23 21 25 18 27
REMARK Flexibility Score: inf
ROOT
ATOM      1  C   UNL     1      30.084  24.145  34.190  1.00  0.00     0.180 A 
ATOM      2  C   UNL     1      30.135  24.814  32.954  1.00  0.00     0.208 A 
ATOM      3  C   UNL     1      30.499  26.169  32.928  1.00  0.00     0.238 A 
ATOM      4  O   UNL     1      30.596  26.748  31.814  1.00  0.00    -0.285 OA
ATOM      5  C   UNL     1      30.791  26.844  34.139  1.00  0.00     0.111 A 
ATOM      6  C   UNL     1      31.132  28.226  34.233  1.00  0.00     0.134 A 
ATOM      7  C   UNL     1      31.528  28.757  35.467  1.00  0.00     0.093 A 
ATOM      8  C   UNL     1      31.534  27.969  36.622  1.00  0.00     0.123 A 
ATOM      9  C   UNL     1      31.145  26.633  36.549  1.00  0.00     0.094 A 
ATOM     10  C   UNL     1      30.779  26.067  35.326  1.00  0.00     0.146 A 
ATOM     11  O   UNL     1      30.427  24.787  35.300  1.00  0.00    -0.452 OA
ENDROOT
BRANCH   1  12
ATOM     12  C   UNL     1      29.684  22.723  34.300  1.00  0.00     0.025 A 
ATOM     13  C   UNL     1      28.477  22.392  34.934  1.00  0.00     0.016 A 
ATOM     14  C   UNL     1      28.070  21.059  35.032  1.00  0.00     0.051 A 
ATOM     15  C   UNL     1      28.854  20.039  34.483  1.00  0.00     0.157 A 
ATOM     16  C   UNL     1      30.461  21.698  33.731  1.00  0.00     0.062 A 
ATOM     17  C   UNL     1      30.054  20.359  33.825  1.00  0.00     0.158 A 
BRANCH  15  18
ATOM     18  O   UNL     1      28.423  18.718  34.597  1.00  0.00    -0.504 OA
ATOM     19  H   UNL     1      28.244  18.286  35.496  1.00  0.00     0.293 HD
ENDBRANCH  15  18
BRANCH  17  20
ATOM     20  O   UNL     1      30.833  19.349  33.263  1.00  0.00    -0.504 OA
ATOM     21  H   UNL     1      30.440  18.447  33.022  1.00  0.00     0.293 HD
ENDBRANCH  17  20
ENDBRANCH   1  12
BRANCH   2  22
ATOM     22  O   UNL     1      29.864  24.123  31.770  1.00  0.00    -0.502 OA
ATOM     23  H   UNL     1      30.553  23.538  31.311  1.00  0.00     0.293 HD
ENDBRANCH   2  22
BRANCH   6  24
ATOM     24  O   UNL     1      31.070  29.121  33.161  1.00  0.00    -0.507 OA
ATOM     25  H   UNL     1      30.438  29.039  32.379  1.00  0.00     0.293 HD
ENDBRANCH   6  24
BRANCH   8  26
ATOM     26  O   UNL     1      31.914  28.509  37.848  1.00  0.00    -0.508 OA
ATOM     27  H   UNL     1      31.328  28.422  38.671  1.00  0.00     0.293 HD
ENDBRANCH   8  26
TORSDOF 6
ENDMDL
