MODEL 1
REMARK VINA RESULT:    -6.464      0.000      0.000
REMARK INTER + INTRA:          -8.119
REMARK INTER:                  -7.786
REMARK INTRA:                  -0.332
REMARK UNBOUND:                -0.332
REMARK SMILES O=c1c(O)c(-c2ccc(O)c(O)c2)oc2cc(O)cc(O)c12
REMARK SMILES IDX 5 1 3 2 2 3 1 4 22 5 20 6 19 7 17 8 16 9 15 10 14 11 6 12
REMARK SMILES IDX 7 13 8 14 9 15 13 16 11 17 10 18 12 20 4 22 21 24 18 26
REMARK H PARENT 10 19 12 21 4 23 21 25 18 27
REMARK Flexibility Score: inf
ROOT
ATOM      1  C   UNL     1     103.156 115.617  89.366  1.00  0.00     0.180 A 
ATOM      2  C   UNL     1     104.240 114.852  89.838  1.00  0.00     0.208 A 
ATOM      3  C   UNL     1     105.136 114.301  88.911  1.00  0.00     0.238 A 
ATOM      4  O   UNL     1     106.117 113.624  89.322  1.00  0.00    -0.285 OA
ATOM      5  C   UNL     1     104.925 114.505  87.532  1.00  0.00     0.111 A 
ATOM      6  C   UNL     1     105.780 113.981  86.531  1.00  0.00     0.134 A 
ATOM      7  C   UNL     1     105.496 114.221  85.178  1.00  0.00     0.093 A 
ATOM      8  C   UNL     1     104.376 114.973  84.807  1.00  0.00     0.123 A 
ATOM      9  C   UNL     1     103.531 115.492  85.790  1.00  0.00     0.094 A 
ATOM     10  C   UNL     1     103.798 115.266  87.144  1.00  0.00     0.146 A 
ATOM     11  O   UNL     1     102.980 115.776  88.057  1.00  0.00    -0.452 OA
ENDROOT
BRANCH   1  12
ATOM     12  C   UNL     1     102.178 116.247  90.283  1.00  0.00     0.025 A 
ATOM     13  C   UNL     1     102.383 117.540  90.794  1.00  0.00     0.016 A 
ATOM     14  C   UNL     1     101.435 118.124  91.639  1.00  0.00     0.051 A 
ATOM     15  C   UNL     1     100.266 117.434  91.975  1.00  0.00     0.157 A 
ATOM     16  C   UNL     1     100.994 115.564  90.606  1.00  0.00     0.062 A 
ATOM     17  C   UNL     1     100.042 116.148  91.454  1.00  0.00     0.158 A 
BRANCH  15  18
ATOM     18  O   UNL     1      99.339 118.041  92.822  1.00  0.00    -0.504 OA
ATOM     19  H   UNL     1      99.242 119.048  92.879  1.00  0.00     0.293 HD
ENDBRANCH  15  18
BRANCH  17  20
ATOM     20  O   UNL     1      98.876 115.457  91.779  1.00  0.00    -0.504 OA
ATOM     21  H   UNL     1      98.570 115.355  92.739  1.00  0.00     0.293 HD
ENDBRANCH  17  20
ENDBRANCH   1  12
BRANCH   2  22
ATOM     22  O   UNL     1     104.399 114.624  91.208  1.00  0.00    -0.502 OA
ATOM     23  H   UNL     1     105.101 115.104  91.760  1.00  0.00     0.293 HD
ENDBRANCH   2  22
BRANCH   6  24
ATOM     24  O   UNL     1     106.903 113.226  86.870  1.00  0.00    -0.507 OA
ATOM     25  H   UNL     1     106.828 112.258  87.158  1.00  0.00     0.293 HD
ENDBRANCH   6  24
BRANCH   8  26
ATOM     26  O   UNL     1     104.093 115.211  83.464  1.00  0.00    -0.508 OA
ATOM     27  H   UNL     1     104.584 114.722  82.725  1.00  0.00     0.293 HD
ENDBRANCH   8  26
TORSDOF 6
ENDMDL
MODEL 2
REMARK VINA RESULT:    -6.029      1.682      3.552
REMARK INTER + INTRA:          -7.595
REMARK INTER:                  -7.295
REMARK INTRA:                  -0.300
REMARK UNBOUND:                -0.332
REMARK SMILES O=c1c(O)c(-c2ccc(O)c(O)c2)oc2cc(O)cc(O)c12
REMARK SMILES IDX 5 1 3 2 2 3 1 4 22 5 20 6 19 7 17 8 16 9 15 10 14 11 6 12
REMARK SMILES IDX 7 13 8 14 9 15 13 16 11 17 10 18 12 20 4 22 21 24 18 26
REMARK H PARENT 10 19 12 21 4 23 21 25 18 27
REMARK Flexibility Score: inf
ROOT
ATOM      1  C   UNL     1     103.649 115.243  89.753  1.00  0.00     0.180 A 
ATOM      2  C   UNL     1     104.037 115.378  88.405  1.00  0.00     0.208 A 
ATOM      3  C   UNL     1     105.118 114.620  87.931  1.00  0.00     0.238 A 
ATOM      4  O   UNL     1     105.467 114.723  86.724  1.00  0.00    -0.285 OA
ATOM      5  C   UNL     1     105.805 113.759  88.812  1.00  0.00     0.111 A 
ATOM      6  C   UNL     1     106.907 112.964  88.415  1.00  0.00     0.134 A 
ATOM      7  C   UNL     1     107.544 112.139  89.355  1.00  0.00     0.093 A 
ATOM      8  C   UNL     1     107.100 112.094  90.681  1.00  0.00     0.123 A 
ATOM      9  C   UNL     1     106.013 112.876  91.077  1.00  0.00     0.094 A 
ATOM     10  C   UNL     1     105.365 113.704  90.155  1.00  0.00     0.146 A 
ATOM     11  O   UNL     1     104.330 114.433  90.558  1.00  0.00    -0.452 OA
ENDROOT
BRANCH   1  12
ATOM     12  C   UNL     1     102.507 115.994  90.322  1.00  0.00     0.025 A 
ATOM     13  C   UNL     1     102.638 117.335  90.722  1.00  0.00     0.016 A 
ATOM     14  C   UNL     1     101.539 118.030  91.235  1.00  0.00     0.051 A 
ATOM     15  C   UNL     1     100.294 117.404  91.343  1.00  0.00     0.157 A 
ATOM     16  C   UNL     1     101.249 115.374  90.412  1.00  0.00     0.062 A 
ATOM     17  C   UNL     1     100.146 116.070  90.927  1.00  0.00     0.158 A 
BRANCH  15  18
ATOM     18  O   UNL     1      99.216 118.123  91.861  1.00  0.00    -0.504 OA
ATOM     19  H   UNL     1      99.194 119.135  91.857  1.00  0.00     0.293 HD
ENDBRANCH  15  18
BRANCH  17  20
ATOM     20  O   UNL     1      98.905 115.442  91.025  1.00  0.00    -0.504 OA
ATOM     21  H   UNL     1      98.062 115.963  91.233  1.00  0.00     0.293 HD
ENDBRANCH  17  20
ENDBRANCH   1  12
BRANCH   2  22
ATOM     22  O   UNL     1     103.370 116.274  87.565  1.00  0.00    -0.502 OA
ATOM     23  H   UNL     1     102.959 117.135  87.908  1.00  0.00     0.293 HD
ENDBRANCH   2  22
BRANCH   6  24
ATOM     24  O   UNL     1     107.373 112.988  87.100  1.00  0.00    -0.507 OA
ATOM     25  H   UNL     1     108.359 113.088  86.886  1.00  0.00     0.293 HD
ENDBRANCH   6  24
BRANCH   8  26
ATOM     26  O   UNL     1     107.733 111.276  91.614  1.00  0.00    -0.508 OA
ATOM     27  H   UNL     1     108.653 110.891  91.443  1.00  0.00     0.293 HD
ENDBRANCH   8  26
TORSDOF 6
ENDMDL
MODEL 3
REMARK VINA RESULT:    -5.966      1.597      2.337
REMARK INTER + INTRA:          -7.519
REMARK INTER:                  -7.187
REMARK INTRA:                  -0.332
REMARK UNBOUND:                -0.332
REMARK SMILES O=c1c(O)c(-c2ccc(O)c(O)c2)oc2cc(O)cc(O)c12
REMARK SMILES IDX 5 1 3 2 2 3 1 4 22 5 20 6 19 7 17 8 16 9 15 10 14 11 6 12
REMARK SMILES IDX 7 13 8 14 9 15 13 16 11 17 10 18 12 20 4 22 21 24 18 26
REMARK H PARENT 10 19 12 21 4 23 21 25 18 27
REMARK Flexibility Score: inf
ROOT
ATOM      1  C   UNL     1     103.766 115.604  87.435  1.00  0.00     0.180 A 
ATOM      2  C   UNL     1     105.054 115.035  87.466  1.00  0.00     0.208 A 
ATOM      3  C   UNL     1     105.587 114.498  86.285  1.00  0.00     0.238 A 
ATOM      4  O   UNL     1     106.743 113.995  86.298  1.00  0.00    -0.285 OA
ATOM      5  C   UNL     1     104.821 114.520  85.102  1.00  0.00     0.111 A 
ATOM      6  C   UNL     1     105.283 113.996  83.870  1.00  0.00     0.134 A 
ATOM      7  C   UNL     1     104.456 114.047  82.738  1.00  0.00     0.093 A 
ATOM      8  C   UNL     1     103.177 114.612  82.814  1.00  0.00     0.123 A 
ATOM      9  C   UNL     1     102.718 115.130  84.026  1.00  0.00     0.094 A 
ATOM     10  C   UNL     1     103.527 115.089  85.165  1.00  0.00     0.146 A 
ATOM     11  O   UNL     1     103.067 115.594  86.304  1.00  0.00    -0.452 OA
ENDROOT
BRANCH   1  12
ATOM     12  C   UNL     1     103.143 116.209  88.635  1.00  0.00     0.025 A 
ATOM     13  C   UNL     1     103.309 117.570  88.939  1.00  0.00     0.016 A 
ATOM     14  C   UNL     1     102.691 118.124  90.064  1.00  0.00     0.051 A 
ATOM     15  C   UNL     1     101.891 117.332  90.892  1.00  0.00     0.157 A 
ATOM     16  C   UNL     1     102.321 115.420  89.458  1.00  0.00     0.062 A 
ATOM     17  C   UNL     1     101.701 115.974  90.587  1.00  0.00     0.158 A 
BRANCH  15  18
ATOM     18  O   UNL     1     101.289 117.912  92.010  1.00  0.00    -0.504 OA
ATOM     19  H   UNL     1     101.751 118.628  92.557  1.00  0.00     0.293 HD
ENDBRANCH  15  18
BRANCH  17  20
ATOM     20  O   UNL     1     100.898 115.180  91.405  1.00  0.00    -0.504 OA
ATOM     21  H   UNL     1     101.157 114.229  91.641  1.00  0.00     0.293 HD
ENDBRANCH  17  20
ENDBRANCH   1  12
BRANCH   2  22
ATOM     22  O   UNL     1     105.773 114.982  88.664  1.00  0.00    -0.502 OA
ATOM     23  H   UNL     1     106.639 115.489  88.799  1.00  0.00     0.293 HD
ENDBRANCH   2  22
BRANCH   6  24
ATOM     24  O   UNL     1     106.552 113.427  83.763  1.00  0.00    -0.507 OA
ATOM     25  H   UNL     1     107.056 113.408  82.884  1.00  0.00     0.293 HD
ENDBRANCH   6  24
BRANCH   8  26
ATOM     26  O   UNL     1     102.356 114.662  81.690  1.00  0.00    -0.508 OA
ATOM     27  H   UNL     1     101.354 114.530  81.760  1.00  0.00     0.293 HD
ENDBRANCH   8  26
TORSDOF 6
ENDMDL
MODEL 4
REMARK VINA RESULT:    -5.826      1.876      3.779
REMARK INTER + INTRA:          -7.351
REMARK INTER:                  -7.092
REMARK INTRA:                  -0.259
REMARK UNBOUND:                -0.332
REMARK SMILES O=c1c(O)c(-c2ccc(O)c(O)c2)oc2cc(O)cc(O)c12
REMARK SMILES IDX 5 1 3 2 2 3 1 4 22 5 20 6 19 7 17 8 16 9 15 10 14 11 6 12
REMARK SMILES IDX 7 13 8 14 9 15 13 16 11 17 10 18 12 20 4 22 21 24 18 26
REMARK H PARENT 10 19 12 21 4 23 21 25 18 27
REMARK Flexibility Score: inf
ROOT
ATOM      1  C   UNL     1     103.752 114.744  89.016  1.00  0.00     0.180 A 
ATOM      2  C   UNL     1     104.106 114.906  87.662  1.00  0.00     0.208 A 
ATOM      3  C   UNL     1     105.264 114.276  87.184  1.00  0.00     0.238 A 
ATOM      4  O   UNL     1     105.585 114.404  85.971  1.00  0.00    -0.285 OA
ATOM      5  C   UNL     1     106.058 113.514  88.066  1.00  0.00     0.111 A 
ATOM      6  C   UNL     1     107.242 112.850  87.664  1.00  0.00     0.134 A 
ATOM      7  C   UNL     1     107.983 112.119  88.605  1.00  0.00     0.093 A 
ATOM      8  C   UNL     1     107.562 112.039  89.938  1.00  0.00     0.123 A 
ATOM      9  C   UNL     1     106.395 112.692  90.338  1.00  0.00     0.094 A 
ATOM     10  C   UNL     1     105.642 113.424  89.415  1.00  0.00     0.146 A 
ATOM     11  O   UNL     1     104.533 114.030  89.822  1.00  0.00    -0.452 OA
ENDROOT
BRANCH   1  12
ATOM     12  C   UNL     1     102.534 115.361  89.591  1.00  0.00     0.025 A 
ATOM     13  C   UNL     1     101.252 114.876  89.281  1.00  0.00     0.016 A 
ATOM     14  C   UNL     1     100.119 115.460  89.854  1.00  0.00     0.051 A 
ATOM     15  C   UNL     1     100.248 116.523  90.753  1.00  0.00     0.157 A 
ATOM     16  C   UNL     1     102.663 116.416  90.510  1.00  0.00     0.062 A 
ATOM     17  C   UNL     1     101.527 117.003  91.085  1.00  0.00     0.158 A 
BRANCH  15  18
ATOM     18  O   UNL     1      99.099 117.086  91.307  1.00  0.00    -0.504 OA
ATOM     19  H   UNL     1      99.016 118.081  91.475  1.00  0.00     0.293 HD
ENDBRANCH  15  18
BRANCH  17  20
ATOM     20  O   UNL     1     101.663 118.057  91.986  1.00  0.00    -0.504 OA
ATOM     21  H   UNL     1     101.028 118.847  91.980  1.00  0.00     0.293 HD
ENDBRANCH  17  20
ENDBRANCH   1  12
BRANCH   2  22
ATOM     22  O   UNL     1     103.328 115.706  86.820  1.00  0.00    -0.502 OA
ATOM     23  H   UNL     1     103.720 116.202  86.029  1.00  0.00     0.293 HD
ENDBRANCH   2  22
BRANCH   6  24
ATOM     24  O   UNL     1     107.688 112.912  86.344  1.00  0.00    -0.507 OA
ATOM     25  H   UNL     1     108.638 113.179  86.114  1.00  0.00     0.293 HD
ENDBRANCH   6  24
BRANCH   8  26
ATOM     26  O   UNL     1     108.298 111.313  90.872  1.00  0.00    -0.508 OA
ATOM     27  H   UNL     1     108.944 110.587  90.589  1.00  0.00     0.293 HD
ENDBRANCH   8  26
TORSDOF 6
ENDMDL
MODEL 5
REMARK VINA RESULT:    -5.785      2.185      3.120
REMARK INTER + INTRA:          -7.301
REMARK INTER:                  -6.978
REMARK INTRA:                  -0.323
REMARK UNBOUND:                -0.332
REMARK SMILES O=c1c(O)c(-c2ccc(O)c(O)c2)oc2cc(O)cc(O)c12
REMARK SMILES IDX 5 1 3 2 2 3 1 4 22 5 20 6 19 7 17 8 16 9 15 10 14 11 6 12
REMARK SMILES IDX 7 13 8 14 9 15 13 16 11 17 10 18 12 20 4 22 21 24 18 26
REMARK H PARENT 10 19 12 21 4 23 21 25 18 27
REMARK Flexibility Score: inf
ROOT
ATOM      1  C   UNL     1     103.973 114.029  89.975  1.00  0.00     0.180 A 
ATOM      2  C   UNL     1     104.718 113.556  91.073  1.00  0.00     0.208 A 
ATOM      3  C   UNL     1     105.969 112.965  90.840  1.00  0.00     0.238 A 
ATOM      4  O   UNL     1     106.650 112.548  91.815  1.00  0.00    -0.285 OA
ATOM      5  C   UNL     1     106.444 112.839  89.519  1.00  0.00     0.111 A 
ATOM      6  C   UNL     1     107.693 112.253  89.198  1.00  0.00     0.134 A 
ATOM      7  C   UNL     1     108.091 112.155  87.856  1.00  0.00     0.093 A 
ATOM      8  C   UNL     1     107.267 112.632  86.830  1.00  0.00     0.123 A 
ATOM      9  C   UNL     1     106.035 113.211  87.142  1.00  0.00     0.094 A 
ATOM     10  C   UNL     1     105.621 113.319  88.473  1.00  0.00     0.146 A 
ATOM     11  O   UNL     1     104.447 113.879  88.741  1.00  0.00    -0.452 OA
ENDROOT
BRANCH   1  12
ATOM     12  C   UNL     1     102.654 114.682  90.141  1.00  0.00     0.025 A 
ATOM     13  C   UNL     1     101.467 113.930  90.196  1.00  0.00     0.016 A 
ATOM     14  C   UNL     1     100.236 114.566  90.377  1.00  0.00     0.051 A 
ATOM     15  C   UNL     1     100.172 115.956  90.519  1.00  0.00     0.157 A 
ATOM     16  C   UNL     1     102.588 116.075  90.304  1.00  0.00     0.062 A 
ATOM     17  C   UNL     1     101.354 116.715  90.485  1.00  0.00     0.158 A 
BRANCH  15  18
ATOM     18  O   UNL     1      98.929 116.563  90.696  1.00  0.00    -0.504 OA
ATOM     19  H   UNL     1      98.080 116.024  90.815  1.00  0.00     0.293 HD
ENDBRANCH  15  18
BRANCH  17  20
ATOM     20  O   UNL     1     101.298 118.100  90.633  1.00  0.00    -0.504 OA
ATOM     21  H   UNL     1     100.485 118.632  90.345  1.00  0.00     0.293 HD
ENDBRANCH  17  20
ENDBRANCH   1  12
BRANCH   2  22
ATOM     22  O   UNL     1     104.202 113.650  92.368  1.00  0.00    -0.502 OA
ATOM     23  H   UNL     1     103.754 112.868  92.831  1.00  0.00     0.293 HD
ENDBRANCH   2  22
BRANCH   6  24
ATOM     24  O   UNL     1     108.536 111.767  90.197  1.00  0.00    -0.507 OA
ATOM     25  H   UNL     1     109.531 111.648  90.044  1.00  0.00     0.293 HD
ENDBRANCH   6  24
BRANCH   8  26
ATOM     26  O   UNL     1     107.662 112.534  85.498  1.00  0.00    -0.508 OA
ATOM     27  H   UNL     1     106.986 112.535  84.744  1.00  0.00     0.293 HD
ENDBRANCH   8  26
TORSDOF 6
ENDMDL
MODEL 6
REMARK VINA RESULT:    -5.605      1.915      3.446
REMARK INTER + INTRA:          -7.084
REMARK INTER:                  -7.079
REMARK INTRA:                  -0.006
REMARK UNBOUND:                -0.332
REMARK SMILES O=c1c(O)c(-c2ccc(O)c(O)c2)oc2cc(O)cc(O)c12
REMARK SMILES IDX 5 1 3 2 2 3 1 4 22 5 20 6 19 7 17 8 16 9 15 10 14 11 6 12
REMARK SMILES IDX 7 13 8 14 9 15 13 16 11 17 10 18 12 20 4 22 21 24 18 26
REMARK H PARENT 10 19 12 21 4 23 21 25 18 27
REMARK Flexibility Score: inf
ROOT
ATOM      1  C   UNL     1     101.611 114.739  88.139  1.00  0.00     0.180 A 
ATOM      2  C   UNL     1     100.853 114.379  87.007  1.00  0.00     0.208 A 
ATOM      3  C   UNL     1     101.522 114.029  85.826  1.00  0.00     0.238 A 
ATOM      4  O   UNL     1     100.855 113.694  84.810  1.00  0.00    -0.285 OA
ATOM      5  C   UNL     1     102.931 114.061  85.787  1.00  0.00     0.111 A 
ATOM      6  C   UNL     1     103.682 113.726  84.634  1.00  0.00     0.134 A 
ATOM      7  C   UNL     1     105.083 113.793  84.673  1.00  0.00     0.093 A 
ATOM      8  C   UNL     1     105.747 114.188  85.840  1.00  0.00     0.123 A 
ATOM      9  C   UNL     1     105.010 114.519  86.979  1.00  0.00     0.094 A 
ATOM     10  C   UNL     1     103.613 114.458  86.961  1.00  0.00     0.146 A 
ATOM     11  O   UNL     1     102.938 114.773  88.060  1.00  0.00    -0.452 OA
ENDROOT
BRANCH   1  12
ATOM     12  C   UNL     1     100.978 115.103  89.428  1.00  0.00     0.025 A 
ATOM     13  C   UNL     1      99.974 114.304  90.001  1.00  0.00     0.016 A 
ATOM     14  C   UNL     1      99.408 114.655  91.230  1.00  0.00     0.051 A 
ATOM     15  C   UNL     1      99.844 115.796  91.909  1.00  0.00     0.157 A 
ATOM     16  C   UNL     1     101.429 116.238  90.122  1.00  0.00     0.062 A 
ATOM     17  C   UNL     1     100.862 116.591  91.355  1.00  0.00     0.158 A 
BRANCH  15  18
ATOM     18  O   UNL     1      99.259 116.122  93.133  1.00  0.00    -0.504 OA
ATOM     19  H   UNL     1      99.092 115.428  93.850  1.00  0.00     0.293 HD
ENDBRANCH  15  18
BRANCH  17  20
ATOM     20  O   UNL     1     101.307 117.727  92.030  1.00  0.00    -0.504 OA
ATOM     21  H   UNL     1     101.433 117.731  93.036  1.00  0.00     0.293 HD
ENDBRANCH  17  20
ENDBRANCH   1  12
BRANCH   2  22
ATOM     22  O   UNL     1      99.456 114.402  87.058  1.00  0.00    -0.502 OA
ATOM     23  H   UNL     1      98.919 115.234  86.843  1.00  0.00     0.293 HD
ENDBRANCH   2  22
BRANCH   6  24
ATOM     24  O   UNL     1     103.050 113.330  83.455  1.00  0.00    -0.507 OA
ATOM     25  H   UNL     1     103.576 113.079  82.627  1.00  0.00     0.293 HD
ENDBRANCH   6  24
BRANCH   8  26
ATOM     26  O   UNL     1     107.137 114.255  85.879  1.00  0.00    -0.508 OA
ATOM     27  H   UNL     1     107.647 114.973  85.377  1.00  0.00     0.293 HD
ENDBRANCH   8  26
TORSDOF 6
ENDMDL
MODEL 7
REMARK VINA RESULT:    -5.461      1.906      7.227
REMARK INTER + INTRA:          -6.911
REMARK INTER:                  -6.598
REMARK INTRA:                  -0.314
REMARK UNBOUND:                -0.332
REMARK SMILES O=c1c(O)c(-c2ccc(O)c(O)c2)oc2cc(O)cc(O)c12
REMARK SMILES IDX 5 1 3 2 2 3 1 4 22 5 20 6 19 7 17 8 16 9 15 10 14 11 6 12
REMARK SMILES IDX 7 13 8 14 9 15 13 16 11 17 10 18 12 20 4 22 21 24 18 26
REMARK H PARENT 10 19 12 21 4 23 21 25 18 27
REMARK Flexibility Score: inf
ROOT
ATOM      1  C   UNL     1     102.566 114.829  87.004  1.00  0.00     0.180 A 
ATOM      2  C   UNL     1     101.398 114.049  87.109  1.00  0.00     0.208 A 
ATOM      3  C   UNL     1     100.552 114.239  88.212  1.00  0.00     0.238 A 
ATOM      4  O   UNL     1      99.498 113.554  88.312  1.00  0.00    -0.285 OA
ATOM      5  C   UNL     1     100.896 115.186  89.198  1.00  0.00     0.111 A 
ATOM      6  C   UNL     1     100.100 115.436  90.343  1.00  0.00     0.134 A 
ATOM      7  C   UNL     1     100.516 116.389  91.284  1.00  0.00     0.093 A 
ATOM      8  C   UNL     1     101.710 117.097  91.104  1.00  0.00     0.123 A 
ATOM      9  C   UNL     1     102.497 116.854  89.976  1.00  0.00     0.094 A 
ATOM     10  C   UNL     1     102.099 115.909  89.026  1.00  0.00     0.146 A 
ATOM     11  O   UNL     1     102.865 115.702  87.961  1.00  0.00    -0.452 OA
ENDROOT
BRANCH   1  12
ATOM     12  C   UNL     1     103.498 114.701  85.859  1.00  0.00     0.025 A 
ATOM     13  C   UNL     1     103.234 115.324  84.628  1.00  0.00     0.016 A 
ATOM     14  C   UNL     1     104.140 115.209  83.569  1.00  0.00     0.051 A 
ATOM     15  C   UNL     1     105.325 114.484  83.729  1.00  0.00     0.157 A 
ATOM     16  C   UNL     1     104.699 113.991  86.023  1.00  0.00     0.062 A 
ATOM     17  C   UNL     1     105.608 113.874  84.963  1.00  0.00     0.158 A 
BRANCH  15  18
ATOM     18  O   UNL     1     106.209 114.385  82.654  1.00  0.00    -0.504 OA
ATOM     19  H   UNL     1     106.570 113.494  82.337  1.00  0.00     0.293 HD
ENDBRANCH  15  18
BRANCH  17  20
ATOM     20  O   UNL     1     106.792 113.156  85.131  1.00  0.00    -0.504 OA
ATOM     21  H   UNL     1     106.917 112.237  84.723  1.00  0.00     0.293 HD
ENDBRANCH  17  20
ENDBRANCH   1  12
BRANCH   2  22
ATOM     22  O   UNL     1     101.105 113.082  86.142  1.00  0.00    -0.502 OA
ATOM     23  H   UNL     1     100.165 112.926  85.799  1.00  0.00     0.293 HD
ENDBRANCH   2  22
BRANCH   6  24
ATOM     24  O   UNL     1      98.905 114.746  90.551  1.00  0.00    -0.507 OA
ATOM     25  H   UNL     1      98.841 113.977  91.209  1.00  0.00     0.293 HD
ENDBRANCH   6  24
BRANCH   8  26
ATOM     26  O   UNL     1     102.123 118.043  92.039  1.00  0.00    -0.508 OA
ATOM     27  H   UNL     1     101.709 118.966  92.076  1.00  0.00     0.293 HD
ENDBRANCH   8  26
TORSDOF 6
ENDMDL
MODEL 8
REMARK VINA RESULT:    -5.389      1.843      3.755
REMARK INTER + INTRA:          -6.824
REMARK INTER:                  -6.588
REMARK INTRA:                  -0.236
REMARK UNBOUND:                -0.332
REMARK SMILES O=c1c(O)c(-c2ccc(O)c(O)c2)oc2cc(O)cc(O)c12
REMARK SMILES IDX 5 1 3 2 2 3 1 4 22 5 20 6 19 7 17 8 16 9 15 10 14 11 6 12
REMARK SMILES IDX 7 13 8 14 9 15 13 16 11 17 10 18 12 20 4 22 21 24 18 26
REMARK H PARENT 10 19 12 21 4 23 21 25 18 27
REMARK Flexibility Score: inf
ROOT
ATOM      1  C   UNL     1     103.421 114.616  87.454  1.00  0.00     0.180 A 
ATOM      2  C   UNL     1     103.469 114.985  86.096  1.00  0.00     0.208 A 
ATOM      3  C   UNL     1     104.572 114.589  85.325  1.00  0.00     0.238 A 
ATOM      4  O   UNL     1     104.622 114.903  84.105  1.00  0.00    -0.285 OA
ATOM      5  C   UNL     1     105.613 113.852  85.924  1.00  0.00     0.111 A 
ATOM      6  C   UNL     1     106.762 113.418  85.219  1.00  0.00     0.134 A 
ATOM      7  C   UNL     1     107.760 112.696  85.890  1.00  0.00     0.093 A 
ATOM      8  C   UNL     1     107.632 112.400  87.252  1.00  0.00     0.123 A 
ATOM      9  C   UNL     1     106.502 112.826  87.952  1.00  0.00     0.094 A 
ATOM     10  C   UNL     1     105.495 113.545  87.300  1.00  0.00     0.146 A 
ATOM     11  O   UNL     1     104.429 113.933  87.990  1.00  0.00    -0.452 OA
ENDROOT
BRANCH   1  12
ATOM     12  C   UNL     1     102.281 114.979  88.328  1.00  0.00     0.025 A 
ATOM     13  C   UNL     1     101.013 114.399  88.156  1.00  0.00     0.016 A 
ATOM     14  C   UNL     1      99.959 114.739  89.008  1.00  0.00     0.051 A 
ATOM     15  C   UNL     1     100.158 115.650  90.050  1.00  0.00     0.157 A 
ATOM     16  C   UNL     1     102.484 115.878  89.389  1.00  0.00     0.062 A 
ATOM     17  C   UNL     1     101.427 116.221  90.244  1.00  0.00     0.158 A 
BRANCH  15  18
ATOM     18  O   UNL     1      99.086 115.972  90.883  1.00  0.00    -0.504 OA
ATOM     19  H   UNL     1      98.199 115.487  90.829  1.00  0.00     0.293 HD
ENDBRANCH  15  18
BRANCH  17  20
ATOM     20  O   UNL     1     101.634 117.124  91.286  1.00  0.00    -0.504 OA
ATOM     21  H   UNL     1     102.223 116.895  92.077  1.00  0.00     0.293 HD
ENDBRANCH  17  20
ENDBRANCH   1  12
BRANCH   2  22
ATOM     22  O   UNL     1     102.447 115.757  85.537  1.00  0.00    -0.502 OA
ATOM     23  H   UNL     1     102.634 116.570  84.962  1.00  0.00     0.293 HD
ENDBRANCH   2  22
BRANCH   6  24
ATOM     24  O   UNL     1     106.918 113.697  83.861  1.00  0.00    -0.507 OA
ATOM     25  H   UNL     1     107.692 113.323  83.325  1.00  0.00     0.293 HD
ENDBRANCH   6  24
BRANCH   8  26
ATOM     26  O   UNL     1     108.624 111.684  87.919  1.00  0.00    -0.508 OA
ATOM     27  H   UNL     1     109.597 111.960  87.875  1.00  0.00     0.293 HD
ENDBRANCH   8  26
TORSDOF 6
ENDMDL
MODEL 9
REMARK VINA RESULT:    -5.287      1.978      7.032
REMARK INTER + INTRA:          -6.701
REMARK INTER:                  -6.378
REMARK INTRA:                  -0.323
REMARK UNBOUND:                -0.332
REMARK SMILES O=c1c(O)c(-c2ccc(O)c(O)c2)oc2cc(O)cc(O)c12
REMARK SMILES IDX 5 1 3 2 2 3 1 4 22 5 20 6 19 7 17 8 16 9 15 10 14 11 6 12
REMARK SMILES IDX 7 13 8 14 9 15 13 16 11 17 10 18 12 20 4 22 21 24 18 26
REMARK H PARENT 10 19 12 21 4 23 21 25 18 27
REMARK Flexibility Score: inf
ROOT
ATOM      1  C   UNL     1     103.089 115.120  87.516  1.00  0.00     0.180 A 
ATOM      2  C   UNL     1     103.248 116.311  88.251  1.00  0.00     0.208 A 
ATOM      3  C   UNL     1     102.488 116.496  89.416  1.00  0.00     0.238 A 
ATOM      4  O   UNL     1     102.630 117.553  90.088  1.00  0.00    -0.285 OA
ATOM      5  C   UNL     1     101.572 115.501  89.815  1.00  0.00     0.111 A 
ATOM      6  C   UNL     1     100.766 115.612  90.974  1.00  0.00     0.134 A 
ATOM      7  C   UNL     1      99.870 114.582  91.299  1.00  0.00     0.093 A 
ATOM      8  C   UNL     1      99.765 113.445  90.489  1.00  0.00     0.123 A 
ATOM      9  C   UNL     1     100.558 113.332  89.345  1.00  0.00     0.094 A 
ATOM     10  C   UNL     1     101.458 114.347  89.006  1.00  0.00     0.146 A 
ATOM     11  O   UNL     1     102.204 114.211  87.915  1.00  0.00    -0.452 OA
ENDROOT
BRANCH   1  12
ATOM     12  C   UNL     1     103.868 114.843  86.287  1.00  0.00     0.025 A 
ATOM     13  C   UNL     1     103.385 115.203  85.018  1.00  0.00     0.016 A 
ATOM     14  C   UNL     1     104.148 114.952  83.874  1.00  0.00     0.051 A 
ATOM     15  C   UNL     1     105.407 114.353  83.982  1.00  0.00     0.157 A 
ATOM     16  C   UNL     1     105.142 114.260  86.394  1.00  0.00     0.062 A 
ATOM     17  C   UNL     1     105.909 114.008  85.248  1.00  0.00     0.158 A 
BRANCH  15  18
ATOM     18  O   UNL     1     106.145 114.114  82.823  1.00  0.00    -0.504 OA
ATOM     19  H   UNL     1     105.825 113.478  82.103  1.00  0.00     0.293 HD
ENDBRANCH  15  18
BRANCH  17  20
ATOM     20  O   UNL     1     107.166 113.417  85.363  1.00  0.00    -0.504 OA
ATOM     21  H   UNL     1     107.710 113.164  84.546  1.00  0.00     0.293 HD
ENDBRANCH  17  20
ENDBRANCH   1  12
BRANCH   2  22
ATOM     22  O   UNL     1     104.127 117.302  87.807  1.00  0.00    -0.502 OA
ATOM     23  H   UNL     1     104.825 117.127  87.093  1.00  0.00     0.293 HD
ENDBRANCH   2  22
BRANCH   6  24
ATOM     24  O   UNL     1     100.847 116.732  91.801  1.00  0.00    -0.507 OA
ATOM     25  H   UNL     1     100.079 117.008  92.402  1.00  0.00     0.293 HD
ENDBRANCH   6  24
BRANCH   8  26
ATOM     26  O   UNL     1      98.875 112.423  90.811  1.00  0.00    -0.508 OA
ATOM     27  H   UNL     1      98.851 111.558  90.287  1.00  0.00     0.293 HD
ENDBRANCH   8  26
TORSDOF 6
ENDMDL
