MODEL 1
REMARK VINA RESULT:    -5.356      0.000      0.000
REMARK INTER + INTRA:         -11.531
REMARK INTER:                 -10.365
REMARK INTRA:                  -1.165
REMARK UNBOUND:                -1.165
REMARK SMILES CCCCCCCCCCCCCCCCCC(=O)[O-]
REMARK SMILES IDX 10 1 11 2 12 3 13 4 14 5 15 6 16 7 17 8 18 9 19 10 20 11
REMARK SMILES IDX 9 12 8 13 7 14 6 15 5 16 4 17 3 18 2 19 1 20
REMARK H PARENT
REMARK Flexibility Score: inf
ROOT
ATOM      1  C   UNL     1       8.485 -14.668   6.943  1.00  0.00     0.000 C 
ENDROOT
BRANCH   1   2
ATOM      2  C   UNL     1       7.398 -15.566   6.328  1.00  0.00     0.000 C 
BRANCH   2   3
ATOM      3  C   UNL     1       7.654 -15.877   4.842  1.00  0.00     0.000 C 
BRANCH   3   4
ATOM      4  C   UNL     1       6.539 -16.683   4.147  1.00  0.00     0.000 C 
BRANCH   4   5
ATOM      5  C   UNL     1       5.151 -16.046   4.319  1.00  0.00     0.000 C 
BRANCH   5   6
ATOM      6  C   UNL     1       4.009 -17.030   4.026  1.00  0.00     0.000 C 
BRANCH   6   7
ATOM      7  C   UNL     1       4.498 -18.444   3.647  1.00  0.00     0.006 C 
BRANCH   7   8
ATOM      8  C   UNL     1       3.740 -19.012   2.438  1.00  0.00     0.053 C 
BRANCH   8   9
ATOM      9  C   UNL     1       4.202 -18.392   1.152  1.00  0.00     0.041 C 
ATOM     10  O   UNL     1       3.367 -18.068   0.264  1.00  0.00    -0.550 OA
ATOM     11  O   UNL     1       5.548 -18.101   0.964  1.00  0.00    -0.550 OA
ENDBRANCH   8   9
ENDBRANCH   7   8
ENDBRANCH   6   7
ENDBRANCH   5   6
ENDBRANCH   4   5
ENDBRANCH   3   4
ENDBRANCH   2   3
ENDBRANCH   1   2
BRANCH   1  12
ATOM     12  C   UNL     1       8.061 -13.192   7.021  1.00  0.00     0.000 C 
BRANCH  12  13
ATOM     13  C   UNL     1       8.908 -12.289   6.107  1.00  0.00    -0.000 C 
BRANCH  13  14
ATOM     14  C   UNL     1      10.059 -13.047   5.426  1.00  0.00    -0.000 C 
BRANCH  14  15
ATOM     15  C   UNL     1      10.759 -12.212   4.343  1.00  0.00    -0.000 C 
BRANCH  15  16
ATOM     16  C   UNL     1      10.979 -10.770   4.817  1.00  0.00    -0.000 C 
BRANCH  16  17
ATOM     17  C   UNL     1      12.414 -10.572   5.330  1.00  0.00    -0.000 C 
BRANCH  17  18
ATOM     18  C   UNL     1      13.181  -9.505   4.519  1.00  0.00    -0.000 C 
BRANCH  18  19
ATOM     19  C   UNL     1      12.261  -8.483   3.832  1.00  0.00    -0.003 C 
ATOM     20  C   UNL     1      12.320  -8.559   2.308  1.00  0.00     0.004 C 
ENDBRANCH  18  19
ENDBRANCH  17  18
ENDBRANCH  16  17
ENDBRANCH  15  16
ENDBRANCH  14  15
ENDBRANCH  13  14
ENDBRANCH  12  13
ENDBRANCH   1  12
TORSDOF 16
ENDMDL
MODEL 2
REMARK VINA RESULT:    -5.166      9.922     14.519
REMARK INTER + INTRA:         -11.164
REMARK INTER:                  -9.804
REMARK INTRA:                  -1.360
REMARK UNBOUND:                -1.165
REMARK SMILES CCCCCCCCCCCCCCCCCC(=O)[O-]
REMARK SMILES IDX 10 1 11 2 12 3 13 4 14 5 15 6 16 7 17 8 18 9 19 10 20 11
REMARK SMILES IDX 9 12 8 13 7 14 6 15 5 16 4 17 3 18 2 19 1 20
REMARK H PARENT
REMARK Flexibility Score: inf
ROOT
ATOM      1  C   UNL     1       8.914 -10.589  -7.943  1.00  0.00     0.000 C 
ENDROOT
BRANCH   1   2
ATOM      2  C   UNL     1      10.058  -9.581  -8.156  1.00  0.00     0.000 C 
BRANCH   2   3
ATOM      3  C   UNL     1      11.450 -10.230  -8.053  1.00  0.00     0.000 C 
BRANCH   3   4
ATOM      4  C   UNL     1      12.421  -9.532  -7.080  1.00  0.00     0.000 C 
BRANCH   4   5
ATOM      5  C   UNL     1      11.735  -9.080  -5.780  1.00  0.00     0.000 C 
BRANCH   5   6
ATOM      6  C   UNL     1      12.532  -9.470  -4.526  1.00  0.00     0.000 C 
BRANCH   6   7
ATOM      7  C   UNL     1      12.157  -8.644  -3.277  1.00  0.00     0.006 C 
BRANCH   7   8
ATOM      8  C   UNL     1      13.087  -7.437  -3.083  1.00  0.00     0.053 C 
BRANCH   8   9
ATOM      9  C   UNL     1      14.306  -7.797  -2.288  1.00  0.00     0.041 C 
ATOM     10  O   UNL     1      14.337  -7.600  -1.042  1.00  0.00    -0.550 OA
ATOM     11  O   UNL     1      15.381  -8.423  -2.908  1.00  0.00    -0.550 OA
ENDBRANCH   8   9
ENDBRANCH   7   8
ENDBRANCH   6   7
ENDBRANCH   5   6
ENDBRANCH   4   5
ENDBRANCH   3   4
ENDBRANCH   2   3
ENDBRANCH   1   2
BRANCH   1  12
ATOM     12  C   UNL     1       9.222 -11.610  -6.837  1.00  0.00     0.000 C 
BRANCH  12  13
ATOM     13  C   UNL     1       8.945 -13.057  -7.280  1.00  0.00    -0.000 C 
BRANCH  13  14
ATOM     14  C   UNL     1       7.583 -13.214  -7.975  1.00  0.00    -0.000 C 
BRANCH  14  15
ATOM     15  C   UNL     1       7.538 -14.421  -8.925  1.00  0.00    -0.000 C 
BRANCH  15  16
ATOM     16  C   UNL     1       6.233 -15.208  -8.755  1.00  0.00    -0.000 C 
BRANCH  16  17
ATOM     17  C   UNL     1       5.210 -14.406  -7.935  1.00  0.00    -0.000 C 
BRANCH  17  18
ATOM     18  C   UNL     1       4.672 -15.208  -6.730  1.00  0.00    -0.000 C 
BRANCH  18  19
ATOM     19  C   UNL     1       5.728 -16.119  -6.084  1.00  0.00    -0.003 C 
ATOM     20  C   UNL     1       6.563 -15.405  -5.023  1.00  0.00     0.004 C 
ENDBRANCH  18  19
ENDBRANCH  17  18
ENDBRANCH  16  17
ENDBRANCH  15  16
ENDBRANCH  14  15
ENDBRANCH  13  14
ENDBRANCH  12  13
ENDBRANCH   1  12
TORSDOF 16
ENDMDL
MODEL 3
REMARK VINA RESULT:    -5.136      3.895      9.263
REMARK INTER + INTRA:         -11.105
REMARK INTER:                  -9.729
REMARK INTRA:                  -1.376
REMARK UNBOUND:                -1.165
REMARK SMILES CCCCCCCCCCCCCCCCCC(=O)[O-]
REMARK SMILES IDX 10 1 11 2 12 3 13 4 14 5 15 6 16 7 17 8 18 9 19 10 20 11
REMARK SMILES IDX 9 12 8 13 7 14 6 15 5 16 4 17 3 18 2 19 1 20
REMARK H PARENT
REMARK Flexibility Score: inf
ROOT
ATOM      1  C   UNL     1       7.734 -15.929   5.474  1.00  0.00     0.000 C 
ENDROOT
BRANCH   1   2
ATOM      2  C   UNL     1       7.819 -15.463   6.938  1.00  0.00     0.000 C 
BRANCH   2   3
ATOM      3  C   UNL     1       8.716 -14.224   7.117  1.00  0.00     0.000 C 
BRANCH   3   4
ATOM      4  C   UNL     1       7.990 -12.872   6.971  1.00  0.00     0.000 C 
BRANCH   4   5
ATOM      5  C   UNL     1       8.494 -12.055   5.769  1.00  0.00     0.000 C 
BRANCH   5   6
ATOM      6  C   UNL     1       9.880 -12.508   5.286  1.00  0.00     0.000 C 
BRANCH   6   7
ATOM      7  C   UNL     1      10.933 -11.379   5.296  1.00  0.00     0.006 C 
BRANCH   7   8
ATOM      8  C   UNL     1      11.101 -10.735   3.911  1.00  0.00     0.053 C 
BRANCH   8   9
ATOM      9  C   UNL     1      11.451  -9.281   4.014  1.00  0.00     0.041 C 
ATOM     10  O   UNL     1      10.611  -8.397   3.688  1.00  0.00    -0.550 OA
ATOM     11  O   UNL     1      12.677  -8.896   4.543  1.00  0.00    -0.550 OA
ENDBRANCH   8   9
ENDBRANCH   7   8
ENDBRANCH   6   7
ENDBRANCH   5   6
ENDBRANCH   4   5
ENDBRANCH   3   4
ENDBRANCH   2   3
ENDBRANCH   1   2
BRANCH   1  12
ATOM     12  C   UNL     1       6.486 -15.396   4.753  1.00  0.00     0.000 C 
BRANCH  12  13
ATOM     13  C   UNL     1       5.702 -16.509   4.035  1.00  0.00    -0.000 C 
BRANCH  13  14
ATOM     14  C   UNL     1       4.184 -16.265   4.045  1.00  0.00    -0.000 C 
BRANCH  14  15
ATOM     15  C   UNL     1       3.375 -17.570   4.085  1.00  0.00    -0.000 C 
BRANCH  15  16
ATOM     16  C   UNL     1       4.168 -18.729   3.468  1.00  0.00    -0.000 C 
BRANCH  16  17
ATOM     17  C   UNL     1       3.568 -19.150   2.118  1.00  0.00    -0.000 C 
BRANCH  17  18
ATOM     18  C   UNL     1       4.459 -18.731   0.929  1.00  0.00    -0.000 C 
BRANCH  18  19
ATOM     19  C   UNL     1       3.800 -17.689   0.011  1.00  0.00    -0.003 C 
ATOM     20  C   UNL     1       4.160 -16.253   0.383  1.00  0.00     0.004 C 
ENDBRANCH  18  19
ENDBRANCH  17  18
ENDBRANCH  16  17
ENDBRANCH  15  16
ENDBRANCH  14  15
ENDBRANCH  13  14
ENDBRANCH  12  13
ENDBRANCH   1  12
TORSDOF 16
ENDMDL
MODEL 4
REMARK VINA RESULT:    -5.126      2.194      5.083
REMARK INTER + INTRA:         -11.087
REMARK INTER:                  -9.920
REMARK INTRA:                  -1.166
REMARK UNBOUND:                -1.165
REMARK SMILES CCCCCCCCCCCCCCCCCC(=O)[O-]
REMARK SMILES IDX 10 1 11 2 12 3 13 4 14 5 15 6 16 7 17 8 18 9 19 10 20 11
REMARK SMILES IDX 9 12 8 13 7 14 6 15 5 16 4 17 3 18 2 19 1 20
REMARK H PARENT
REMARK Flexibility Score: inf
ROOT
ATOM      1  C   UNL     1      11.816 -11.608   4.876  1.00  0.00     0.000 C 
ENDROOT
BRANCH   1   2
ATOM      2  C   UNL     1      10.335 -11.351   4.546  1.00  0.00     0.000 C 
BRANCH   2   3
ATOM      3  C   UNL     1       9.393 -12.379   5.199  1.00  0.00     0.000 C 
BRANCH   3   4
ATOM      4  C   UNL     1       8.699 -11.894   6.488  1.00  0.00     0.000 C 
BRANCH   4   5
ATOM      5  C   UNL     1       7.922 -13.014   7.200  1.00  0.00     0.000 C 
BRANCH   5   6
ATOM      6  C   UNL     1       8.608 -14.382   7.073  1.00  0.00     0.000 C 
BRANCH   6   7
ATOM      7  C   UNL     1       7.685 -15.483   6.508  1.00  0.00     0.006 C 
BRANCH   7   8
ATOM      8  C   UNL     1       6.981 -15.040   5.217  1.00  0.00     0.053 C 
BRANCH   8   9
ATOM      9  C   UNL     1       6.204 -16.161   4.595  1.00  0.00     0.041 C 
ATOM     10  O   UNL     1       4.973 -16.297   4.836  1.00  0.00    -0.550 OA
ATOM     11  O   UNL     1       6.820 -17.012   3.685  1.00  0.00    -0.550 OA
ENDBRANCH   8   9
ENDBRANCH   7   8
ENDBRANCH   6   7
ENDBRANCH   5   6
ENDBRANCH   4   5
ENDBRANCH   3   4
ENDBRANCH   2   3
ENDBRANCH   1   2
BRANCH   1  12
ATOM     12  C   UNL     1      12.523 -10.363   5.435  1.00  0.00     0.000 C 
BRANCH  12  13
ATOM     13  C   UNL     1      13.212  -9.535   4.335  1.00  0.00    -0.000 C 
BRANCH  13  14
ATOM     14  C   UNL     1      12.350  -8.358   3.851  1.00  0.00    -0.000 C 
BRANCH  14  15
ATOM     15  C   UNL     1      12.385  -8.185   2.325  1.00  0.00    -0.000 C 
BRANCH  15  16
ATOM     16  C   UNL     1      12.317  -9.544   1.616  1.00  0.00    -0.000 C 
BRANCH  16  17
ATOM     17  C   UNL     1      13.447  -9.684   0.585  1.00  0.00    -0.000 C 
BRANCH  17  18
ATOM     18  C   UNL     1      13.788  -8.339  -0.093  1.00  0.00    -0.000 C 
BRANCH  18  19
ATOM     19  C   UNL     1      14.271  -8.492  -1.544  1.00  0.00    -0.003 C 
ATOM     20  C   UNL     1      13.896  -7.304  -2.426  1.00  0.00     0.004 C 
ENDBRANCH  18  19
ENDBRANCH  17  18
ENDBRANCH  16  17
ENDBRANCH  15  16
ENDBRANCH  14  15
ENDBRANCH  13  14
ENDBRANCH  12  13
ENDBRANCH   1  12
TORSDOF 16
ENDMDL
MODEL 5
REMARK VINA RESULT:    -5.100      3.774      7.215
REMARK INTER + INTRA:         -11.037
REMARK INTER:                  -9.972
REMARK INTRA:                  -1.064
REMARK UNBOUND:                -1.165
REMARK SMILES CCCCCCCCCCCCCCCCCC(=O)[O-]
REMARK SMILES IDX 10 1 11 2 12 3 13 4 14 5 15 6 16 7 17 8 18 9 19 10 20 11
REMARK SMILES IDX 9 12 8 13 7 14 6 15 5 16 4 17 3 18 2 19 1 20
REMARK H PARENT
REMARK Flexibility Score: inf
ROOT
ATOM      1  C   UNL     1       4.268 -19.000   1.847  1.00  0.00     0.000 C 
ENDROOT
BRANCH   1   2
ATOM      2  C   UNL     1       3.550 -17.970   0.956  1.00  0.00     0.000 C 
BRANCH   2   3
ATOM      3  C   UNL     1       4.037 -18.005  -0.504  1.00  0.00     0.000 C 
BRANCH   3   4
ATOM      4  C   UNL     1       3.230 -17.122  -1.477  1.00  0.00     0.000 C 
BRANCH   4   5
ATOM      5  C   UNL     1       2.299 -17.939  -2.387  1.00  0.00     0.000 C 
BRANCH   5   6
ATOM      6  C   UNL     1       3.051 -19.007  -3.196  1.00  0.00     0.000 C 
BRANCH   6   7
ATOM      7  C   UNL     1       3.449 -18.538  -4.612  1.00  0.00     0.006 C 
BRANCH   7   8
ATOM      8  C   UNL     1       4.753 -17.728  -4.606  1.00  0.00     0.053 C 
BRANCH   8   9
ATOM      9  C   UNL     1       4.534 -16.319  -5.072  1.00  0.00     0.041 C 
ATOM     10  O   UNL     1       4.224 -16.085  -6.272  1.00  0.00    -0.550 OA
ATOM     11  O   UNL     1       4.597 -15.269  -4.165  1.00  0.00    -0.550 OA
ENDBRANCH   8   9
ENDBRANCH   7   8
ENDBRANCH   6   7
ENDBRANCH   5   6
ENDBRANCH   4   5
ENDBRANCH   3   4
ENDBRANCH   2   3
ENDBRANCH   1   2
BRANCH   1  12
ATOM     12  C   UNL     1       4.077 -18.723   3.346  1.00  0.00     0.000 C 
BRANCH  12  13
ATOM     13  C   UNL     1       3.471 -17.334   3.614  1.00  0.00    -0.000 C 
BRANCH  13  14
ATOM     14  C   UNL     1       4.413 -16.420   4.414  1.00  0.00    -0.000 C 
BRANCH  14  15
ATOM     15  C   UNL     1       5.684 -16.052   3.635  1.00  0.00    -0.000 C 
BRANCH  15  16
ATOM     16  C   UNL     1       6.942 -16.514   4.382  1.00  0.00    -0.000 C 
BRANCH  16  17
ATOM     17  C   UNL     1       7.072 -15.800   5.735  1.00  0.00    -0.000 C 
BRANCH  17  18
ATOM     18  C   UNL     1       8.179 -14.725   5.723  1.00  0.00    -0.000 C 
BRANCH  18  19
ATOM     19  C   UNL     1       8.305 -13.963   7.052  1.00  0.00    -0.003 C 
ATOM     20  C   UNL     1       7.831 -12.514   6.956  1.00  0.00     0.004 C 
ENDBRANCH  18  19
ENDBRANCH  17  18
ENDBRANCH  16  17
ENDBRANCH  15  16
ENDBRANCH  14  15
ENDBRANCH  13  14
ENDBRANCH  12  13
ENDBRANCH   1  12
TORSDOF 16
ENDMDL
MODEL 6
REMARK VINA RESULT:    -5.095      9.142     11.144
REMARK INTER + INTRA:         -11.026
REMARK INTER:                  -9.863
REMARK INTRA:                  -1.163
REMARK UNBOUND:                -1.165
REMARK SMILES CCCCCCCCCCCCCCCCCC(=O)[O-]
REMARK SMILES IDX 10 1 11 2 12 3 13 4 14 5 15 6 16 7 17 8 18 9 19 10 20 11
REMARK SMILES IDX 9 12 8 13 7 14 6 15 5 16 4 17 3 18 2 19 1 20
REMARK H PARENT
REMARK Flexibility Score: inf
ROOT
ATOM      1  C   UNL     1       8.714 -11.195  -7.972  1.00  0.00     0.000 C 
ENDROOT
BRANCH   1   2
ATOM      2  C   UNL     1       9.316 -12.483  -7.382  1.00  0.00     0.000 C 
BRANCH   2   3
ATOM      3  C   UNL     1       8.315 -13.653  -7.363  1.00  0.00     0.000 C 
BRANCH   3   4
ATOM      4  C   UNL     1       7.801 -14.087  -8.750  1.00  0.00     0.000 C 
BRANCH   4   5
ATOM      5  C   UNL     1       6.479 -14.871  -8.674  1.00  0.00     0.000 C 
BRANCH   5   6
ATOM      6  C   UNL     1       5.410 -14.146  -7.843  1.00  0.00     0.000 C 
BRANCH   6   7
ATOM      7  C   UNL     1       4.540 -15.098  -6.995  1.00  0.00     0.006 C 
BRANCH   7   8
ATOM      8  C   UNL     1       5.048 -15.211  -5.550  1.00  0.00     0.053 C 
BRANCH   8   9
ATOM      9  C   UNL     1       5.756 -16.510  -5.309  1.00  0.00     0.041 C 
ATOM     10  O   UNL     1       7.014 -16.546  -5.223  1.00  0.00    -0.550 OA
ATOM     11  O   UNL     1       5.023 -17.673  -5.101  1.00  0.00    -0.550 OA
ENDBRANCH   8   9
ENDBRANCH   7   8
ENDBRANCH   6   7
ENDBRANCH   5   6
ENDBRANCH   4   5
ENDBRANCH   3   4
ENDBRANCH   2   3
ENDBRANCH   1   2
BRANCH   1  12
ATOM     12  C   UNL     1       9.717 -10.031  -8.001  1.00  0.00     0.000 C 
BRANCH  12  13
ATOM     13  C   UNL     1      11.175 -10.515  -8.087  1.00  0.00    -0.000 C 
BRANCH  13  14
ATOM     14  C   UNL     1      12.153  -9.583  -7.352  1.00  0.00    -0.000 C 
BRANCH  14  15
ATOM     15  C   UNL     1      12.300  -9.934  -5.864  1.00  0.00    -0.000 C 
BRANCH  15  16
ATOM     16  C   UNL     1      11.642  -8.869  -4.978  1.00  0.00    -0.000 C 
BRANCH  16  17
ATOM     17  C   UNL     1      12.300  -8.822  -3.591  1.00  0.00    -0.000 C 
BRANCH  17  18
ATOM     18  C   UNL     1      12.691  -7.386  -3.180  1.00  0.00    -0.000 C 
BRANCH  18  19
ATOM     19  C   UNL     1      14.028  -7.311  -2.425  1.00  0.00    -0.003 C 
ATOM     20  C   UNL     1      14.904  -8.543  -2.638  1.00  0.00     0.004 C 
ENDBRANCH  18  19
ENDBRANCH  17  18
ENDBRANCH  16  17
ENDBRANCH  15  16
ENDBRANCH  14  15
ENDBRANCH  13  14
ENDBRANCH  12  13
ENDBRANCH   1  12
TORSDOF 16
ENDMDL
MODEL 7
REMARK VINA RESULT:    -5.072      8.092     12.529
REMARK INTER + INTRA:         -10.981
REMARK INTER:                  -9.902
REMARK INTRA:                  -1.079
REMARK UNBOUND:                -1.165
REMARK SMILES CCCCCCCCCCCCCCCCCC(=O)[O-]
REMARK SMILES IDX 10 1 11 2 12 3 13 4 14 5 15 6 16 7 17 8 18 9 19 10 20 11
REMARK SMILES IDX 9 12 8 13 7 14 6 15 5 16 4 17 3 18 2 19 1 20
REMARK H PARENT
REMARK Flexibility Score: inf
ROOT
ATOM      1  C   UNL     1       4.462 -16.684  -4.727  1.00  0.00     0.000 C 
ENDROOT
BRANCH   1   2
ATOM      2  C   UNL     1       5.284 -16.139  -5.908  1.00  0.00     0.000 C 
BRANCH   2   3
ATOM      3  C   UNL     1       4.654 -14.885  -6.542  1.00  0.00     0.000 C 
BRANCH   3   4
ATOM      4  C   UNL     1       5.018 -14.655  -8.022  1.00  0.00     0.000 C 
BRANCH   4   5
ATOM      5  C   UNL     1       6.323 -15.359  -8.429  1.00  0.00     0.000 C 
BRANCH   5   6
ATOM      6  C   UNL     1       7.415 -14.372  -8.866  1.00  0.00     0.000 C 
BRANCH   6   7
ATOM      7  C   UNL     1       8.293 -13.870  -7.699  1.00  0.00     0.006 C 
BRANCH   7   8
ATOM      8  C   UNL     1       8.406 -12.338  -7.679  1.00  0.00     0.053 C 
BRANCH   8   9
ATOM      9  C   UNL     1       9.762 -11.887  -7.226  1.00  0.00     0.041 C 
ATOM     10  O   UNL     1       9.876 -10.976  -6.361  1.00  0.00    -0.550 OA
ATOM     11  O   UNL     1      10.902 -12.525  -7.701  1.00  0.00    -0.550 OA
ENDBRANCH   8   9
ENDBRANCH   7   8
ENDBRANCH   6   7
ENDBRANCH   5   6
ENDBRANCH   4   5
ENDBRANCH   3   4
ENDBRANCH   2   3
ENDBRANCH   1   2
BRANCH   1  12
ATOM     12  C   UNL     1       3.950 -18.112  -4.971  1.00  0.00     0.000 C 
BRANCH  12  13
ATOM     13  C   UNL     1       3.073 -18.627  -3.815  1.00  0.00    -0.000 C 
BRANCH  13  14
ATOM     14  C   UNL     1       2.403 -17.489  -3.028  1.00  0.00    -0.000 C 
BRANCH  14  15
ATOM     15  C   UNL     1       2.363 -17.759  -1.516  1.00  0.00    -0.000 C 
BRANCH  15  16
ATOM     16  C   UNL     1       3.621 -17.218  -0.826  1.00  0.00    -0.000 C 
BRANCH  16  17
ATOM     17  C   UNL     1       4.550 -18.363  -0.397  1.00  0.00    -0.000 C 
BRANCH  17  18
ATOM     18  C   UNL     1       4.888 -18.307   1.108  1.00  0.00    -0.000 C 
BRANCH  18  19
ATOM     19  C   UNL     1       3.802 -18.929   2.001  1.00  0.00    -0.003 C 
ATOM     20  C   UNL     1       3.823 -18.389   3.429  1.00  0.00     0.004 C 
ENDBRANCH  18  19
ENDBRANCH  17  18
ENDBRANCH  16  17
ENDBRANCH  15  16
ENDBRANCH  14  15
ENDBRANCH  13  14
ENDBRANCH  12  13
ENDBRANCH   1  12
TORSDOF 16
ENDMDL
MODEL 8
REMARK VINA RESULT:    -5.069     10.031     11.515
REMARK INTER + INTRA:         -10.975
REMARK INTER:                  -8.614
REMARK INTRA:                  -2.361
REMARK UNBOUND:                -1.165
REMARK SMILES CCCCCCCCCCCCCCCCCC(=O)[O-]
REMARK SMILES IDX 10 1 11 2 12 3 13 4 14 5 15 6 16 7 17 8 18 9 19 10 20 11
REMARK SMILES IDX 9 12 8 13 7 14 6 15 5 16 4 17 3 18 2 19 1 20
REMARK H PARENT
REMARK Flexibility Score: inf
ROOT
ATOM      1  C   UNL     1      10.674  -9.622  -8.012  1.00  0.00     0.000 C 
ENDROOT
BRANCH   1   2
ATOM      2  C   UNL     1       9.142  -9.666  -7.880  1.00  0.00     0.000 C 
BRANCH   2   3
ATOM      3  C   UNL     1       8.666  -9.481  -6.427  1.00  0.00     0.000 C 
BRANCH   3   4
ATOM      4  C   UNL     1       7.847 -10.658  -5.859  1.00  0.00     0.000 C 
BRANCH   4   5
ATOM      5  C   UNL     1       8.733 -11.822  -5.386  1.00  0.00     0.000 C 
BRANCH   5   6
ATOM      6  C   UNL     1       8.775 -12.980  -6.394  1.00  0.00     0.000 C 
BRANCH   6   7
ATOM      7  C   UNL     1       7.532 -13.045  -7.308  1.00  0.00     0.006 C 
BRANCH   7   8
ATOM      8  C   UNL     1       7.776 -13.911  -8.553  1.00  0.00     0.053 C 
BRANCH   8   9
ATOM      9  C   UNL     1       6.692 -14.930  -8.741  1.00  0.00     0.041 C 
ATOM     10  O   UNL     1       6.971 -16.089  -9.154  1.00  0.00    -0.550 OA
ATOM     11  O   UNL     1       5.383 -14.627  -8.388  1.00  0.00    -0.550 OA
ENDBRANCH   8   9
ENDBRANCH   7   8
ENDBRANCH   6   7
ENDBRANCH   5   6
ENDBRANCH   4   5
ENDBRANCH   3   4
ENDBRANCH   2   3
ENDBRANCH   1   2
BRANCH   1  12
ATOM     12  C   UNL     1      11.306 -11.023  -8.047  1.00  0.00     0.000 C 
BRANCH  12  13
ATOM     13  C   UNL     1      12.083 -11.348  -6.758  1.00  0.00    -0.000 C 
BRANCH  13  14
ATOM     14  C   UNL     1      12.233 -10.130  -5.833  1.00  0.00    -0.000 C 
BRANCH  14  15
ATOM     15  C   UNL     1      12.137 -10.502  -4.345  1.00  0.00    -0.000 C 
BRANCH  15  16
ATOM     16  C   UNL     1      11.638  -9.315  -3.511  1.00  0.00    -0.000 C 
BRANCH  16  17
ATOM     17  C   UNL     1      11.976  -7.981  -4.195  1.00  0.00    -0.000 C 
BRANCH  17  18
ATOM     18  C   UNL     1      12.614  -6.971  -3.217  1.00  0.00    -0.000 C 
BRANCH  18  19
ATOM     19  C   UNL     1      13.222  -7.631  -1.969  1.00  0.00    -0.003 C 
ATOM     20  C   UNL     1      14.742  -7.757  -2.042  1.00  0.00     0.004 C 
ENDBRANCH  18  19
ENDBRANCH  17  18
ENDBRANCH  16  17
ENDBRANCH  15  16
ENDBRANCH  14  15
ENDBRANCH  13  14
ENDBRANCH  12  13
ENDBRANCH   1  12
TORSDOF 16
ENDMDL
MODEL 9
REMARK VINA RESULT:    -5.005      6.592     10.169
REMARK INTER + INTRA:         -10.852
REMARK INTER:                  -9.260
REMARK INTRA:                  -1.592
REMARK UNBOUND:                -1.165
REMARK SMILES CCCCCCCCCCCCCCCCCC(=O)[O-]
REMARK SMILES IDX 10 1 11 2 12 3 13 4 14 5 15 6 16 7 17 8 18 9 19 10 20 11
REMARK SMILES IDX 9 12 8 13 7 14 6 15 5 16 4 17 3 18 2 19 1 20
REMARK H PARENT
REMARK Flexibility Score: inf
ROOT
ATOM      1  C   UNL     1       2.737 -17.780  -1.259  1.00  0.00     0.000 C 
ENDROOT
BRANCH   1   2
ATOM      2  C   UNL     1       2.341 -17.770  -2.746  1.00  0.00     0.000 C 
BRANCH   2   3
ATOM      3  C   UNL     1       3.087 -18.837  -3.568  1.00  0.00     0.000 C 
BRANCH   3   4
ATOM      4  C   UNL     1       3.823 -18.299  -4.811  1.00  0.00     0.000 C 
BRANCH   4   5
ATOM      5  C   UNL     1       4.248 -16.829  -4.659  1.00  0.00     0.000 C 
BRANCH   5   6
ATOM      6  C   UNL     1       4.924 -16.276  -5.923  1.00  0.00     0.000 C 
BRANCH   6   7
ATOM      7  C   UNL     1       4.603 -14.790  -6.192  1.00  0.00     0.006 C 
BRANCH   7   8
ATOM      8  C   UNL     1       4.675 -14.446  -7.687  1.00  0.00     0.053 C 
BRANCH   8   9
ATOM      9  C   UNL     1       6.088 -14.444  -8.189  1.00  0.00     0.041 C 
ATOM     10  O   UNL     1       6.474 -15.317  -9.014  1.00  0.00    -0.550 OA
ATOM     11  O   UNL     1       6.960 -13.431  -7.807  1.00  0.00    -0.550 OA
ENDBRANCH   8   9
ENDBRANCH   7   8
ENDBRANCH   6   7
ENDBRANCH   5   6
ENDBRANCH   4   5
ENDBRANCH   3   4
ENDBRANCH   2   3
ENDBRANCH   1   2
BRANCH   1  12
ATOM     12  C   UNL     1       4.260 -17.770  -1.052  1.00  0.00     0.000 C 
BRANCH  12  13
ATOM     13  C   UNL     1       4.672 -18.379   0.300  1.00  0.00    -0.000 C 
BRANCH  13  14
ATOM     14  C   UNL     1       3.472 -18.634   1.226  1.00  0.00    -0.000 C 
BRANCH  14  15
ATOM     15  C   UNL     1       3.894 -19.104   2.627  1.00  0.00    -0.000 C 
BRANCH  15  16
ATOM     16  C   UNL     1       3.737 -17.977   3.657  1.00  0.00    -0.000 C 
BRANCH  16  17
ATOM     17  C   UNL     1       5.061 -17.225   3.857  1.00  0.00    -0.000 C 
BRANCH  17  18
ATOM     18  C   UNL     1       4.914 -15.709   3.606  1.00  0.00    -0.000 C 
BRANCH  18  19
ATOM     19  C   UNL     1       3.631 -15.339   2.844  1.00  0.00    -0.003 C 
ATOM     20  C   UNL     1       3.896 -14.910   1.403  1.00  0.00     0.004 C 
ENDBRANCH  18  19
ENDBRANCH  17  18
ENDBRANCH  16  17
ENDBRANCH  15  16
ENDBRANCH  14  15
ENDBRANCH  13  14
ENDBRANCH  12  13
ENDBRANCH   1  12
TORSDOF 16
ENDMDL
