MODEL 1
REMARK VINA RESULT:    -6.529      0.000      0.000
REMARK INTER + INTRA:          -6.720
REMARK INTER:                  -6.720
REMARK INTRA:                   0.000
REMARK UNBOUND:                 0.000
REMARK SMILES O=c1ccc2cc(O)ccc2o1
REMARK SMILES IDX 9 1 10 2 11 3 5 4 4 5 3 6 2 7 1 8 12 9 6 10 7 11 8 12
REMARK H PARENT 8 13
REMARK Flexibility Score: inf
ROOT
ATOM      1  C   UNL     1       1.253   2.234  23.398  1.00  0.00     0.050 A 
ATOM      2  C   UNL     1      -0.022   1.705  23.179  1.00  0.00     0.052 A 
ATOM      3  C   UNL     1      -0.331   0.414  23.620  1.00  0.00     0.138 A 
ATOM      4  C   UNL     1       0.649  -0.352  24.290  1.00  0.00     0.021 A 
ATOM      5  C   UNL     1       0.311  -1.639  24.720  1.00  0.00     0.019 A 
ATOM      6  C   UNL     1      -0.974  -2.125  24.478  1.00  0.00     0.094 A 
ATOM      7  C   UNL     1      -1.893  -1.310  23.808  1.00  0.00     0.336 A 
ATOM      8  O   UNL     1      -3.058  -1.731  23.581  1.00  0.00    -0.246 OA
ATOM      9  O   UNL     1      -1.546  -0.088  23.410  1.00  0.00    -0.423 OA
ATOM     10  C   UNL     1       1.927   0.183  24.508  1.00  0.00     0.058 A 
ATOM     11  C   UNL     1       2.229   1.476  24.062  1.00  0.00     0.116 A 
ENDROOT
BRANCH  11  12
ATOM     12  O   UNL     1       3.501   1.997  24.285  1.00  0.00    -0.508 OA
ATOM     13  H   UNL     1       4.222   1.454  24.746  1.00  0.00     0.293 HD
ENDBRANCH  11  12
TORSDOF 1
ENDMDL
MODEL 2
REMARK VINA RESULT:    -5.648     13.214     13.936
REMARK INTER + INTRA:          -5.814
REMARK INTER:                  -5.814
REMARK INTRA:                   0.000
REMARK UNBOUND:                 0.000
REMARK SMILES O=c1ccc2cc(O)ccc2o1
REMARK SMILES IDX 9 1 10 2 11 3 5 4 4 5 3 6 2 7 1 8 12 9 6 10 7 11 8 12
REMARK H PARENT 8 13
REMARK Flexibility Score: inf
ROOT
ATOM      1  C   UNL     1      -8.856  11.199  23.589  1.00  0.00     0.050 A 
ATOM      2  C   UNL     1      -9.077  10.049  22.826  1.00  0.00     0.052 A 
ATOM      3  C   UNL     1      -9.929   9.046  23.299  1.00  0.00     0.138 A 
ATOM      4  C   UNL     1     -10.568   9.200  24.549  1.00  0.00     0.021 A 
ATOM      5  C   UNL     1     -11.415   8.181  24.996  1.00  0.00     0.019 A 
ATOM      6  C   UNL     1     -11.605   7.051  24.200  1.00  0.00     0.094 A 
ATOM      7  C   UNL     1     -10.939   6.967  22.973  1.00  0.00     0.336 A 
ATOM      8  O   UNL     1     -11.098   5.955  22.240  1.00  0.00    -0.246 OA
ATOM      9  O   UNL     1     -10.138   7.951  22.571  1.00  0.00    -0.423 OA
ATOM     10  C   UNL     1     -10.343  10.356  25.312  1.00  0.00     0.058 A 
ATOM     11  C   UNL     1      -9.488  11.355  24.832  1.00  0.00     0.116 A 
ENDROOT
BRANCH  11  12
ATOM     12  O   UNL     1      -9.273  12.499  25.598  1.00  0.00    -0.508 OA
ATOM     13  H   UNL     1     -10.045  13.056  25.945  1.00  0.00     0.293 HD
ENDBRANCH  11  12
TORSDOF 1
ENDMDL
MODEL 3
REMARK VINA RESULT:    -5.488      1.723      1.762
REMARK INTER + INTRA:          -5.649
REMARK INTER:                  -5.649
REMARK INTRA:                   0.000
REMARK UNBOUND:                 0.000
REMARK SMILES O=c1ccc2cc(O)ccc2o1
REMARK SMILES IDX 9 1 10 2 11 3 5 4 4 5 3 6 2 7 1 8 12 9 6 10 7 11 8 12
REMARK H PARENT 8 13
REMARK Flexibility Score: inf
ROOT
ATOM      1  C   UNL     1       1.154   2.711  23.979  1.00  0.00     0.050 A 
ATOM      2  C   UNL     1       0.717   1.919  22.913  1.00  0.00     0.052 A 
ATOM      3  C   UNL     1       0.399   0.574  23.123  1.00  0.00     0.138 A 
ATOM      4  C   UNL     1       0.518   0.019  24.416  1.00  0.00     0.021 A 
ATOM      5  C   UNL     1       0.191  -1.329  24.596  1.00  0.00     0.019 A 
ATOM      6  C   UNL     1      -0.240  -2.080  23.502  1.00  0.00     0.094 A 
ATOM      7  C   UNL     1      -0.333  -1.463  22.250  1.00  0.00     0.336 A 
ATOM      8  O   UNL     1      -0.720  -2.125  21.251  1.00  0.00    -0.246 OA
ATOM      9  O   UNL     1      -0.017  -0.179  22.106  1.00  0.00    -0.423 OA
ATOM     10  C   UNL     1       0.956   0.817  25.483  1.00  0.00     0.058 A 
ATOM     11  C   UNL     1       1.274   2.163  25.264  1.00  0.00     0.116 A 
ENDROOT
BRANCH  11  12
ATOM     12  O   UNL     1       1.707   2.946  26.332  1.00  0.00    -0.508 OA
ATOM     13  H   UNL     1       1.898   3.935  26.219  1.00  0.00     0.293 HD
ENDBRANCH  11  12
TORSDOF 1
ENDMDL
MODEL 4
REMARK VINA RESULT:    -5.352      1.987      4.414
REMARK INTER + INTRA:          -5.509
REMARK INTER:                  -5.509
REMARK INTRA:                   0.000
REMARK UNBOUND:                 0.000
REMARK SMILES O=c1ccc2cc(O)ccc2o1
REMARK SMILES IDX 9 1 10 2 11 3 5 4 4 5 3 6 2 7 1 8 12 9 6 10 7 11 8 12
REMARK H PARENT 8 13
REMARK Flexibility Score: inf
ROOT
ATOM      1  C   UNL     1      -0.246  -2.006  23.371  1.00  0.00     0.050 A 
ATOM      2  C   UNL     1       0.104  -1.267  24.505  1.00  0.00     0.052 A 
ATOM      3  C   UNL     1       0.441   0.085  24.385  1.00  0.00     0.138 A 
ATOM      4  C   UNL     1       0.424   0.702  23.115  1.00  0.00     0.021 A 
ATOM      5  C   UNL     1       0.765   2.056  23.027  1.00  0.00     0.019 A 
ATOM      6  C   UNL     1       1.108   2.752  24.186  1.00  0.00     0.094 A 
ATOM      7  C   UNL     1       1.103   2.074  25.410  1.00  0.00     0.336 A 
ATOM      8  O   UNL     1       1.410   2.686  26.467  1.00  0.00    -0.246 OA
ATOM      9  O   UNL     1       0.775   0.786  25.467  1.00  0.00    -0.423 OA
ATOM     10  C   UNL     1       0.072  -0.042  21.980  1.00  0.00     0.058 A 
ATOM     11  C   UNL     1      -0.263  -1.396  22.107  1.00  0.00     0.116 A 
ENDROOT
BRANCH  11  12
ATOM     12  O   UNL     1      -0.612  -2.125  20.973  1.00  0.00    -0.508 OA
ATOM     13  H   UNL     1      -0.232  -1.899  20.061  1.00  0.00     0.293 HD
ENDBRANCH  11  12
TORSDOF 1
ENDMDL
MODEL 5
REMARK VINA RESULT:    -4.982     10.327     10.578
REMARK INTER + INTRA:          -5.128
REMARK INTER:                  -5.128
REMARK INTRA:                   0.000
REMARK UNBOUND:                 0.000
REMARK SMILES O=c1ccc2cc(O)ccc2o1
REMARK SMILES IDX 9 1 10 2 11 3 5 4 4 5 3 6 2 7 1 8 12 9 6 10 7 11 8 12
REMARK H PARENT 8 13
REMARK Flexibility Score: inf
ROOT
ATOM      1  C   UNL     1      -1.773   2.858  14.176  1.00  0.00     0.050 A 
ATOM      2  C   UNL     1      -2.372   4.011  14.691  1.00  0.00     0.052 A 
ATOM      3  C   UNL     1      -3.637   3.940  15.283  1.00  0.00     0.138 A 
ATOM      4  C   UNL     1      -4.306   2.699  15.360  1.00  0.00     0.021 A 
ATOM      5  C   UNL     1      -5.570   2.659  15.958  1.00  0.00     0.019 A 
ATOM      6  C   UNL     1      -6.128   3.836  16.457  1.00  0.00     0.094 A 
ATOM      7  C   UNL     1      -5.406   5.029  16.345  1.00  0.00     0.336 A 
ATOM      8  O   UNL     1      -5.893   6.102  16.790  1.00  0.00    -0.246 OA
ATOM      9  O   UNL     1      -4.205   5.040  15.772  1.00  0.00    -0.423 OA
ATOM     10  C   UNL     1      -3.702   1.544  14.843  1.00  0.00     0.058 A 
ATOM     11  C   UNL     1      -2.435   1.623  14.251  1.00  0.00     0.116 A 
ENDROOT
BRANCH  11  12
ATOM     12  O   UNL     1      -1.844   0.470  13.741  1.00  0.00    -0.508 OA
ATOM     13  H   UNL     1      -0.929   0.163  14.050  1.00  0.00     0.293 HD
ENDBRANCH  11  12
TORSDOF 1
ENDMDL
MODEL 6
REMARK VINA RESULT:    -4.966     16.188     16.795
REMARK INTER + INTRA:          -5.111
REMARK INTER:                  -5.111
REMARK INTRA:                   0.000
REMARK UNBOUND:                 0.000
REMARK SMILES O=c1ccc2cc(O)ccc2o1
REMARK SMILES IDX 9 1 10 2 11 3 5 4 4 5 3 6 2 7 1 8 12 9 6 10 7 11 8 12
REMARK H PARENT 8 13
REMARK Flexibility Score: inf
ROOT
ATOM      1  C   UNL     1      -0.375   3.281   7.219  1.00  0.00     0.050 A 
ATOM      2  C   UNL     1      -0.205   4.609   7.622  1.00  0.00     0.052 A 
ATOM      3  C   UNL     1      -1.213   5.259   8.340  1.00  0.00     0.138 A 
ATOM      4  C   UNL     1      -2.404   4.569   8.658  1.00  0.00     0.021 A 
ATOM      5  C   UNL     1      -3.395   5.245   9.377  1.00  0.00     0.019 A 
ATOM      6  C   UNL     1      -3.180   6.570   9.758  1.00  0.00     0.094 A 
ATOM      7  C   UNL     1      -1.975   7.189   9.408  1.00  0.00     0.336 A 
ATOM      8  O   UNL     1      -1.763   8.384   9.742  1.00  0.00    -0.246 OA
ATOM      9  O   UNL     1      -1.049   6.523   8.723  1.00  0.00    -0.423 OA
ATOM     10  C   UNL     1      -2.571   3.237   8.252  1.00  0.00     0.058 A 
ATOM     11  C   UNL     1      -1.557   2.593   7.533  1.00  0.00     0.116 A 
ENDROOT
BRANCH  11  12
ATOM     12  O   UNL     1      -1.734   1.270   7.135  1.00  0.00    -0.508 OA
ATOM     13  H   UNL     1      -2.020   0.554   7.792  1.00  0.00     0.293 HD
ENDBRANCH  11  12
TORSDOF 1
ENDMDL
MODEL 7
REMARK VINA RESULT:    -4.952     10.457     11.271
REMARK INTER + INTRA:          -5.096
REMARK INTER:                  -5.096
REMARK INTRA:                   0.000
REMARK UNBOUND:                 0.000
REMARK SMILES O=c1ccc2cc(O)ccc2o1
REMARK SMILES IDX 9 1 10 2 11 3 5 4 4 5 3 6 2 7 1 8 12 9 6 10 7 11 8 12
REMARK H PARENT 8 13
REMARK Flexibility Score: inf
ROOT
ATOM      1  C   UNL     1      -4.462   2.365  15.142  1.00  0.00     0.050 A 
ATOM      2  C   UNL     1      -4.608   3.687  15.573  1.00  0.00     0.052 A 
ATOM      3  C   UNL     1      -3.601   4.623  15.317  1.00  0.00     0.138 A 
ATOM      4  C   UNL     1      -2.438   4.230  14.618  1.00  0.00     0.021 A 
ATOM      5  C   UNL     1      -1.449   5.188  14.376  1.00  0.00     0.019 A 
ATOM      6  C   UNL     1      -1.639   6.495  14.826  1.00  0.00     0.094 A 
ATOM      7  C   UNL     1      -2.816   6.812  15.511  1.00  0.00     0.336 A 
ATOM      8  O   UNL     1      -3.005   7.986  15.925  1.00  0.00    -0.246 OA
ATOM      9  O   UNL     1      -3.742   5.881  15.729  1.00  0.00    -0.423 OA
ATOM     10  C   UNL     1      -2.296   2.903  14.187  1.00  0.00     0.058 A 
ATOM     11  C   UNL     1      -3.308   1.970  14.449  1.00  0.00     0.116 A 
ENDROOT
BRANCH  11  12
ATOM     12  O   UNL     1      -3.156   0.655  14.015  1.00  0.00    -0.508 OA
ATOM     13  H   UNL     1      -3.543   0.341  13.133  1.00  0.00     0.293 HD
ENDBRANCH  11  12
TORSDOF 1
ENDMDL
MODEL 8
REMARK VINA RESULT:    -4.948     14.776     16.266
REMARK INTER + INTRA:          -5.093
REMARK INTER:                  -5.093
REMARK INTRA:                   0.000
REMARK UNBOUND:                 0.000
REMARK SMILES O=c1ccc2cc(O)ccc2o1
REMARK SMILES IDX 9 1 10 2 11 3 5 4 4 5 3 6 2 7 1 8 12 9 6 10 7 11 8 12
REMARK H PARENT 8 13
REMARK Flexibility Score: inf
ROOT
ATOM      1  C   UNL     1      -3.266   4.751   8.174  1.00  0.00     0.050 A 
ATOM      2  C   UNL     1      -2.869   6.088   8.079  1.00  0.00     0.052 A 
ATOM      3  C   UNL     1      -2.465   6.783   9.224  1.00  0.00     0.138 A 
ATOM      4  C   UNL     1      -2.457   6.129  10.475  1.00  0.00     0.021 A 
ATOM      5  C   UNL     1      -2.047   6.849  11.602  1.00  0.00     0.019 A 
ATOM      6  C   UNL     1      -1.661   8.182  11.458  1.00  0.00     0.094 A 
ATOM      7  C   UNL     1      -1.694   8.764  10.187  1.00  0.00     0.336 A 
ATOM      8  O   UNL     1      -1.349   9.966  10.037  1.00  0.00    -0.246 OA
ATOM      9  O   UNL     1      -2.088   8.057   9.131  1.00  0.00    -0.423 OA
ATOM     10  C   UNL     1      -2.855   4.787  10.566  1.00  0.00     0.058 A 
ATOM     11  C   UNL     1      -3.259   4.098   9.416  1.00  0.00     0.116 A 
ENDROOT
BRANCH  11  12
ATOM     12  O   UNL     1      -3.652   2.766   9.518  1.00  0.00    -0.508 OA
ATOM     13  H   UNL     1      -4.560   2.456   9.192  1.00  0.00     0.293 HD
ENDBRANCH  11  12
TORSDOF 1
ENDMDL
MODEL 9
REMARK VINA RESULT:    -4.777     13.545     14.845
REMARK INTER + INTRA:          -4.917
REMARK INTER:                  -4.917
REMARK INTRA:                   0.000
REMARK UNBOUND:                 0.000
REMARK SMILES O=c1ccc2cc(O)ccc2o1
REMARK SMILES IDX 9 1 10 2 11 3 5 4 4 5 3 6 2 7 1 8 12 9 6 10 7 11 8 12
REMARK H PARENT 8 13
REMARK Flexibility Score: inf
ROOT
ATOM      1  C   UNL     1      -1.508  10.684  11.202  1.00  0.00     0.050 A 
ATOM      2  C   UNL     1      -1.671  10.201  12.504  1.00  0.00     0.052 A 
ATOM      3  C   UNL     1      -1.942   8.846  12.721  1.00  0.00     0.138 A 
ATOM      4  C   UNL     1      -2.049   7.967  11.620  1.00  0.00     0.021 A 
ATOM      5  C   UNL     1      -2.320   6.618  11.868  1.00  0.00     0.019 A 
ATOM      6  C   UNL     1      -2.476   6.182  13.184  1.00  0.00     0.094 A 
ATOM      7  C   UNL     1      -2.357   7.110  14.224  1.00  0.00     0.336 A 
ATOM      8  O   UNL     1      -2.494   6.735  15.418  1.00  0.00    -0.246 OA
ATOM      9  O   UNL     1      -2.098   8.389  13.961  1.00  0.00    -0.423 OA
ATOM     10  C   UNL     1      -1.884   8.456  10.316  1.00  0.00     0.058 A 
ATOM     11  C   UNL     1      -1.614   9.814  10.107  1.00  0.00     0.116 A 
ENDROOT
BRANCH  11  12
ATOM     12  O   UNL     1      -1.452  10.288   8.807  1.00  0.00    -0.508 OA
ATOM     13  H   UNL     1      -0.562  10.220   8.326  1.00  0.00     0.293 HD
ENDBRANCH  11  12
TORSDOF 1
ENDMDL
