MODEL 1
REMARK VINA RESULT:    -5.659      0.000      0.000
REMARK INTER + INTRA:          -6.774
REMARK INTER:                  -6.651
REMARK INTRA:                  -0.123
REMARK UNBOUND:                -0.123
REMARK SMILES O=C([O-])C=Cc1ccc(O)c(O)c1
REMARK SMILES IDX 6 1 13 2 7 3 11 4 8 5 9 6 5 7 4 8 2 9 1 10 3 11 12 12 10 14
REMARK H PARENT 12 13 10 15
REMARK Flexibility Score: inf
ROOT
ATOM      1  C   UNL     1     -10.103 -19.093  -6.732  1.00  0.00    -0.022 A 
ATOM      2  C   UNL     1     -10.069 -20.232  -5.903  1.00  0.00     0.058 A 
ATOM      3  C   UNL     1     -11.342 -18.493  -7.010  1.00  0.00     0.012 A 
ATOM      4  C   UNL     1     -11.251 -20.741  -5.345  1.00  0.00     0.157 A 
ATOM      5  C   UNL     1     -12.519 -19.000  -6.452  1.00  0.00     0.051 A 
ATOM      6  C   UNL     1     -12.477 -20.122  -5.617  1.00  0.00     0.157 A 
ENDROOT
BRANCH   1   7
ATOM      7  C   UNL     1      -8.883 -18.523  -7.355  1.00  0.00     0.010 C 
ATOM      8  C   UNL     1      -7.670 -19.087  -7.271  1.00  0.00     0.025 C 
BRANCH   8   9
ATOM      9  C   UNL     1      -6.478 -18.487  -7.893  1.00  0.00     0.064 C 
ATOM     10  O   UNL     1      -6.287 -18.554  -9.137  1.00  0.00    -0.545 OA
ATOM     11  O   UNL     1      -5.547 -17.835  -7.095  1.00  0.00    -0.545 OA
ENDBRANCH   8   9
ENDBRANCH   1   7
BRANCH   4  12
ATOM     12  O   UNL     1     -11.216 -21.867  -4.522  1.00  0.00    -0.504 OA
ATOM     13  H   UNL     1     -10.788 -21.839  -3.603  1.00  0.00     0.293 HD
ENDBRANCH   4  12
BRANCH   6  14
ATOM     14  O   UNL     1     -13.648 -20.631  -5.057  1.00  0.00    -0.504 OA
ATOM     15  H   UNL     1     -14.139 -20.139  -4.320  1.00  0.00     0.293 HD
ENDBRANCH   6  14
TORSDOF 4
ENDMDL
MODEL 2
REMARK VINA RESULT:    -5.609      1.072      1.624
REMARK INTER + INTRA:          -6.715
REMARK INTER:                  -6.575
REMARK INTRA:                  -0.140
REMARK UNBOUND:                -0.123
REMARK SMILES O=C([O-])C=Cc1ccc(O)c(O)c1
REMARK SMILES IDX 6 1 13 2 7 3 11 4 8 5 9 6 5 7 4 8 2 9 1 10 3 11 12 12 10 14
REMARK H PARENT 12 13 10 15
REMARK Flexibility Score: inf
ROOT
ATOM      1  C   UNL     1     -10.749 -19.818  -6.914  1.00  0.00    -0.022 A 
ATOM      2  C   UNL     1     -11.332 -20.438  -5.791  1.00  0.00     0.058 A 
ATOM      3  C   UNL     1     -11.587 -19.249  -7.886  1.00  0.00     0.012 A 
ATOM      4  C   UNL     1     -12.726 -20.462  -5.635  1.00  0.00     0.157 A 
ATOM      5  C   UNL     1     -12.975 -19.271  -7.729  1.00  0.00     0.051 A 
ATOM      6  C   UNL     1     -13.548 -19.874  -6.604  1.00  0.00     0.157 A 
ENDROOT
BRANCH   1   7
ATOM      7  C   UNL     1      -9.281 -19.777  -7.131  1.00  0.00     0.010 C 
ATOM      8  C   UNL     1      -8.617 -18.681  -7.527  1.00  0.00     0.025 C 
BRANCH   8   9
ATOM      9  C   UNL     1      -7.161 -18.680  -7.743  1.00  0.00     0.064 C 
ATOM     10  O   UNL     1      -6.357 -18.697  -6.773  1.00  0.00    -0.545 OA
ATOM     11  O   UNL     1      -6.664 -18.658  -9.040  1.00  0.00    -0.545 OA
ENDBRANCH   8   9
ENDBRANCH   1   7
BRANCH   4  12
ATOM     12  O   UNL     1     -13.302 -21.073  -4.522  1.00  0.00    -0.504 OA
ATOM     13  H   UNL     1     -13.728 -21.991  -4.581  1.00  0.00     0.293 HD
ENDBRANCH   4  12
BRANCH   6  14
ATOM     14  O   UNL     1     -14.933 -19.898  -6.443  1.00  0.00    -0.504 OA
ATOM     15  H   UNL     1     -15.422 -19.156  -5.955  1.00  0.00     0.293 HD
ENDBRANCH   6  14
TORSDOF 4
ENDMDL
MODEL 3
REMARK VINA RESULT:    -5.581      4.417      5.470
REMARK INTER + INTRA:          -6.683
REMARK INTER:                  -6.532
REMARK INTRA:                  -0.151
REMARK UNBOUND:                -0.123
REMARK SMILES O=C([O-])C=Cc1ccc(O)c(O)c1
REMARK SMILES IDX 6 1 13 2 7 3 11 4 8 5 9 6 5 7 4 8 2 9 1 10 3 11 12 12 10 14
REMARK H PARENT 12 13 10 15
REMARK Flexibility Score: inf
ROOT
ATOM      1  C   UNL     1     -12.530 -21.200  -8.744  1.00  0.00    -0.022 A 
ATOM      2  C   UNL     1     -13.654 -20.922  -7.940  1.00  0.00     0.058 A 
ATOM      3  C   UNL     1     -11.383 -20.401  -8.606  1.00  0.00     0.012 A 
ATOM      4  C   UNL     1     -13.617 -19.880  -7.001  1.00  0.00     0.157 A 
ATOM      5  C   UNL     1     -11.346 -19.366  -7.668  1.00  0.00     0.051 A 
ATOM      6  C   UNL     1     -12.460 -19.104  -6.863  1.00  0.00     0.157 A 
ENDROOT
BRANCH   1   7
ATOM      7  C   UNL     1     -12.523 -22.282  -9.760  1.00  0.00     0.010 C 
ATOM      8  C   UNL     1     -11.602 -22.389 -10.728  1.00  0.00     0.025 C 
BRANCH   8   9
ATOM      9  C   UNL     1     -11.633 -23.470 -11.727  1.00  0.00     0.064 C 
ATOM     10  O   UNL     1     -11.269 -23.270 -12.917  1.00  0.00    -0.545 OA
ATOM     11  O   UNL     1     -12.072 -24.733 -11.352  1.00  0.00    -0.545 OA
ENDBRANCH   8   9
ENDBRANCH   1   7
BRANCH   4  12
ATOM     12  O   UNL     1     -14.728 -19.608  -6.204  1.00  0.00    -0.504 OA
ATOM     13  H   UNL     1     -14.668 -19.605  -5.192  1.00  0.00     0.293 HD
ENDBRANCH   4  12
BRANCH   6  14
ATOM     14  O   UNL     1     -12.427 -18.073  -5.925  1.00  0.00    -0.504 OA
ATOM     15  H   UNL     1     -13.274 -17.605  -5.622  1.00  0.00     0.293 HD
ENDBRANCH   6  14
TORSDOF 4
ENDMDL
MODEL 4
REMARK VINA RESULT:    -5.499     13.046     13.848
REMARK INTER + INTRA:          -6.586
REMARK INTER:                  -6.458
REMARK INTRA:                  -0.128
REMARK UNBOUND:                -0.123
REMARK SMILES O=C([O-])C=Cc1ccc(O)c(O)c1
REMARK SMILES IDX 6 1 13 2 7 3 11 4 8 5 9 6 5 7 4 8 2 9 1 10 3 11 12 12 10 14
REMARK H PARENT 12 13 10 15
REMARK Flexibility Score: inf
ROOT
ATOM      1  C   UNL     1     -15.307 -10.412 -15.672  1.00  0.00    -0.022 A 
ATOM      2  C   UNL     1     -16.188 -10.964 -16.623  1.00  0.00     0.058 A 
ATOM      3  C   UNL     1     -15.811 -10.047 -14.412  1.00  0.00     0.012 A 
ATOM      4  C   UNL     1     -17.539 -11.169 -16.307  1.00  0.00     0.157 A 
ATOM      5  C   UNL     1     -17.156 -10.254 -14.097  1.00  0.00     0.051 A 
ATOM      6  C   UNL     1     -18.023 -10.816 -15.041  1.00  0.00     0.157 A 
ENDROOT
BRANCH   1   7
ATOM      7  C   UNL     1     -13.872 -10.165 -15.961  1.00  0.00     0.010 C 
ATOM      8  C   UNL     1     -12.876 -10.937 -15.504  1.00  0.00     0.025 C 
BRANCH   8   9
ATOM      9  C   UNL     1     -11.463 -10.654 -15.802  1.00  0.00     0.064 C 
ATOM     10  O   UNL     1     -10.807  -9.819 -15.123  1.00  0.00    -0.545 OA
ATOM     11  O   UNL     1     -10.840 -11.319 -16.850  1.00  0.00    -0.545 OA
ENDBRANCH   8   9
ENDBRANCH   1   7
BRANCH   4  12
ATOM     12  O   UNL     1     -18.409 -11.718 -17.248  1.00  0.00    -0.504 OA
ATOM     13  H   UNL     1     -19.237 -12.232 -16.969  1.00  0.00     0.293 HD
ENDBRANCH   4  12
BRANCH   6  14
ATOM     14  O   UNL     1     -19.366 -11.026 -14.731  1.00  0.00    -0.504 OA
ATOM     15  H   UNL     1     -20.107 -10.696 -15.339  1.00  0.00     0.293 HD
ENDBRANCH   6  14
TORSDOF 4
ENDMDL
MODEL 5
REMARK VINA RESULT:    -5.488     11.946     13.104
REMARK INTER + INTRA:          -6.573
REMARK INTER:                  -6.448
REMARK INTRA:                  -0.125
REMARK UNBOUND:                -0.123
REMARK SMILES O=C([O-])C=Cc1ccc(O)c(O)c1
REMARK SMILES IDX 6 1 13 2 7 3 11 4 8 5 9 6 5 7 4 8 2 9 1 10 3 11 12 12 10 14
REMARK H PARENT 12 13 10 15
REMARK Flexibility Score: inf
ROOT
ATOM      1  C   UNL     1     -12.990 -10.368 -15.378  1.00  0.00    -0.022 A 
ATOM      2  C   UNL     1     -12.721  -9.298 -14.501  1.00  0.00     0.058 A 
ATOM      3  C   UNL     1     -14.321 -10.630 -15.742  1.00  0.00     0.012 A 
ATOM      4  C   UNL     1     -13.765  -8.494 -14.021  1.00  0.00     0.157 A 
ATOM      5  C   UNL     1     -15.360  -9.827 -15.264  1.00  0.00     0.051 A 
ATOM      6  C   UNL     1     -15.085  -8.756 -14.406  1.00  0.00     0.157 A 
ENDROOT
BRANCH   1   7
ATOM      7  C   UNL     1     -11.923 -11.256 -15.905  1.00  0.00     0.010 C 
ATOM      8  C   UNL     1     -10.955 -11.789 -15.145  1.00  0.00     0.025 C 
BRANCH   8   9
ATOM      9  C   UNL     1      -9.906 -12.657 -15.705  1.00  0.00     0.064 C 
ATOM     10  O   UNL     1      -9.718 -13.822 -15.263  1.00  0.00    -0.545 OA
ATOM     11  O   UNL     1      -9.106 -12.182 -16.737  1.00  0.00    -0.545 OA
ENDBRANCH   8   9
ENDBRANCH   1   7
BRANCH   4  12
ATOM     12  O   UNL     1     -13.498  -7.433 -13.156  1.00  0.00    -0.504 OA
ATOM     13  H   UNL     1     -14.194  -7.094 -12.502  1.00  0.00     0.293 HD
ENDBRANCH   4  12
BRANCH   6  14
ATOM     14  O   UNL     1     -16.118  -7.951 -13.928  1.00  0.00    -0.504 OA
ATOM     15  H   UNL     1     -16.195  -6.976 -14.192  1.00  0.00     0.293 HD
ENDBRANCH   6  14
TORSDOF 4
ENDMDL
MODEL 6
REMARK VINA RESULT:    -5.362      4.221      4.961
REMARK INTER + INTRA:          -6.425
REMARK INTER:                  -6.276
REMARK INTRA:                  -0.150
REMARK UNBOUND:                -0.123
REMARK SMILES O=C([O-])C=Cc1ccc(O)c(O)c1
REMARK SMILES IDX 6 1 13 2 7 3 11 4 8 5 9 6 5 7 4 8 2 9 1 10 3 11 12 12 10 14
REMARK H PARENT 12 13 10 15
REMARK Flexibility Score: inf
ROOT
ATOM      1  C   UNL     1     -12.639 -20.999  -8.857  1.00  0.00    -0.022 A 
ATOM      2  C   UNL     1     -12.409 -20.762  -7.488  1.00  0.00     0.058 A 
ATOM      3  C   UNL     1     -13.933 -20.810  -9.370  1.00  0.00     0.012 A 
ATOM      4  C   UNL     1     -13.449 -20.319  -6.657  1.00  0.00     0.157 A 
ATOM      5  C   UNL     1     -14.968 -20.368  -8.543  1.00  0.00     0.051 A 
ATOM      6  C   UNL     1     -14.729 -20.119  -7.187  1.00  0.00     0.157 A 
ENDROOT
BRANCH   1   7
ATOM      7  C   UNL     1     -11.576 -21.478  -9.775  1.00  0.00     0.010 C 
ATOM      8  C   UNL     1     -11.812 -22.219 -10.867  1.00  0.00     0.025 C 
BRANCH   8   9
ATOM      9  C   UNL     1     -10.730 -22.687 -11.749  1.00  0.00     0.064 C 
ATOM     10  O   UNL     1      -9.550 -22.267 -11.613  1.00  0.00    -0.545 OA
ATOM     11  O   UNL     1     -11.015 -23.608 -12.749  1.00  0.00    -0.545 OA
ENDBRANCH   8   9
ENDBRANCH   1   7
BRANCH   4  12
ATOM     12  O   UNL     1     -13.219 -20.082  -5.302  1.00  0.00    -0.504 OA
ATOM     13  H   UNL     1     -12.393 -19.588  -4.983  1.00  0.00     0.293 HD
ENDBRANCH   4  12
BRANCH   6  14
ATOM     14  O   UNL     1     -15.759 -19.676  -6.357  1.00  0.00    -0.504 OA
ATOM     15  H   UNL     1     -15.570 -19.279  -5.444  1.00  0.00     0.293 HD
ENDBRANCH   6  14
TORSDOF 4
ENDMDL
MODEL 7
REMARK VINA RESULT:    -5.359      4.038      7.611
REMARK INTER + INTRA:          -6.422
REMARK INTER:                  -6.274
REMARK INTRA:                  -0.148
REMARK UNBOUND:                -0.123
REMARK SMILES O=C([O-])C=Cc1ccc(O)c(O)c1
REMARK SMILES IDX 6 1 13 2 7 3 11 4 8 5 9 6 5 7 4 8 2 9 1 10 3 11 12 12 10 14
REMARK H PARENT 12 13 10 15
REMARK Flexibility Score: inf
ROOT
ATOM      1  C   UNL     1     -14.645 -20.314  -7.660  1.00  0.00    -0.022 A 
ATOM      2  C   UNL     1     -13.718 -20.671  -8.660  1.00  0.00     0.058 A 
ATOM      3  C   UNL     1     -14.169 -19.987  -6.380  1.00  0.00     0.012 A 
ATOM      4  C   UNL     1     -12.342 -20.674  -8.387  1.00  0.00     0.157 A 
ATOM      5  C   UNL     1     -12.798 -19.988  -6.109  1.00  0.00     0.051 A 
ATOM      6  C   UNL     1     -11.882 -20.329  -7.111  1.00  0.00     0.157 A 
ENDROOT
BRANCH   1   7
ATOM      7  C   UNL     1     -16.110 -20.307  -7.895  1.00  0.00     0.010 C 
ATOM      8  C   UNL     1     -16.978 -19.592  -7.164  1.00  0.00     0.025 C 
BRANCH   8   9
ATOM      9  C   UNL     1     -18.428 -19.618  -7.419  1.00  0.00     0.064 C 
ATOM     10  O   UNL     1     -19.243 -19.957  -6.519  1.00  0.00    -0.545 OA
ATOM     11  O   UNL     1     -18.907 -19.265  -8.674  1.00  0.00    -0.545 OA
ENDBRANCH   8   9
ENDBRANCH   1   7
BRANCH   4  12
ATOM     12  O   UNL     1     -11.427 -21.025  -9.378  1.00  0.00    -0.504 OA
ATOM     13  H   UNL     1     -10.720 -20.374  -9.702  1.00  0.00     0.293 HD
ENDBRANCH   4  12
BRANCH   6  14
ATOM     14  O   UNL     1     -10.513 -20.330  -6.846  1.00  0.00    -0.504 OA
ATOM     15  H   UNL     1     -10.140 -20.726  -5.990  1.00  0.00     0.293 HD
ENDBRANCH   6  14
TORSDOF 4
ENDMDL
MODEL 8
REMARK VINA RESULT:    -5.266     12.704     13.473
REMARK INTER + INTRA:          -6.312
REMARK INTER:                  -6.187
REMARK INTRA:                  -0.125
REMARK UNBOUND:                -0.123
REMARK SMILES O=C([O-])C=Cc1ccc(O)c(O)c1
REMARK SMILES IDX 6 1 13 2 7 3 11 4 8 5 9 6 5 7 4 8 2 9 1 10 3 11 12 12 10 14
REMARK H PARENT 12 13 10 15
REMARK Flexibility Score: inf
ROOT
ATOM      1  C   UNL     1     -14.712 -10.353 -15.664  1.00  0.00    -0.022 A 
ATOM      2  C   UNL     1     -15.117  -9.903 -14.391  1.00  0.00     0.058 A 
ATOM      3  C   UNL     1     -15.673 -10.911 -16.523  1.00  0.00     0.012 A 
ATOM      4  C   UNL     1     -16.462  -9.989 -14.001  1.00  0.00     0.157 A 
ATOM      5  C   UNL     1     -17.012 -10.993 -16.135  1.00  0.00     0.051 A 
ATOM      6  C   UNL     1     -17.411 -10.531 -14.876  1.00  0.00     0.157 A 
ENDROOT
BRANCH   1   7
ATOM      7  C   UNL     1     -13.301 -10.296 -16.119  1.00  0.00     0.010 C 
ATOM      8  C   UNL     1     -12.303 -10.979 -15.540  1.00  0.00     0.025 C 
BRANCH   8   9
ATOM      9  C   UNL     1     -10.911 -10.889 -16.012  1.00  0.00     0.064 C 
ATOM     10  O   UNL     1     -10.195 -11.919 -16.133  1.00  0.00    -0.545 OA
ATOM     11  O   UNL     1     -10.377  -9.647 -16.328  1.00  0.00    -0.545 OA
ENDBRANCH   8   9
ENDBRANCH   1   7
BRANCH   4  12
ATOM     12  O   UNL     1     -16.862  -9.540 -12.743  1.00  0.00    -0.504 OA
ATOM     13  H   UNL     1     -17.550  -8.804 -12.636  1.00  0.00     0.293 HD
ENDBRANCH   4  12
BRANCH   6  14
ATOM     14  O   UNL     1     -18.747 -10.610 -14.485  1.00  0.00    -0.504 OA
ATOM     15  H   UNL     1     -19.354 -11.348 -14.821  1.00  0.00     0.293 HD
ENDBRANCH   6  14
TORSDOF 4
ENDMDL
MODEL 9
REMARK VINA RESULT:    -5.228     12.189     13.167
REMARK INTER + INTRA:          -6.268
REMARK INTER:                  -6.141
REMARK INTRA:                  -0.127
REMARK UNBOUND:                -0.123
REMARK SMILES O=C([O-])C=Cc1ccc(O)c(O)c1
REMARK SMILES IDX 6 1 13 2 7 3 11 4 8 5 9 6 5 7 4 8 2 9 1 10 3 11 12 12 10 14
REMARK H PARENT 12 13 10 15
REMARK Flexibility Score: inf
ROOT
ATOM      1  C   UNL     1     -13.847 -10.180 -15.345  1.00  0.00    -0.022 A 
ATOM      2  C   UNL     1     -14.871 -11.021 -14.866  1.00  0.00     0.058 A 
ATOM      3  C   UNL     1     -13.983  -8.790 -15.191  1.00  0.00     0.012 A 
ATOM      4  C   UNL     1     -15.994 -10.480 -14.222  1.00  0.00     0.157 A 
ATOM      5  C   UNL     1     -15.101  -8.252 -14.548  1.00  0.00     0.051 A 
ATOM      6  C   UNL     1     -16.107  -9.094 -14.060  1.00  0.00     0.157 A 
ENDROOT
BRANCH   1   7
ATOM      7  C   UNL     1     -12.646 -10.701 -16.043  1.00  0.00     0.010 C 
ATOM      8  C   UNL     1     -11.598 -11.252 -15.413  1.00  0.00     0.025 C 
BRANCH   8   9
ATOM      9  C   UNL     1     -10.417 -11.749 -16.137  1.00  0.00     0.064 C 
ATOM     10  O   UNL     1     -10.030 -11.204 -17.206  1.00  0.00    -0.545 OA
ATOM     11  O   UNL     1      -9.717 -12.838 -15.636  1.00  0.00    -0.545 OA
ENDBRANCH   8   9
ENDBRANCH   1   7
BRANCH   4  12
ATOM     12  O   UNL     1     -17.004 -11.314 -13.745  1.00  0.00    -0.504 OA
ATOM     13  H   UNL     1     -17.015 -12.306 -13.953  1.00  0.00     0.293 HD
ENDBRANCH   4  12
BRANCH   6  14
ATOM     14  O   UNL     1     -17.223  -8.562 -13.416  1.00  0.00    -0.504 OA
ATOM     15  H   UNL     1     -17.168  -8.203 -12.470  1.00  0.00     0.293 HD
ENDBRANCH   6  14
TORSDOF 4
ENDMDL
