MODEL 1
REMARK VINA RESULT:    -4.900      0.000      0.000
REMARK INTER + INTRA:          -5.894
REMARK INTER:                  -5.759
REMARK INTRA:                  -0.135
REMARK UNBOUND:                -0.135
REMARK SMILES O=C([O-])C=Cc1ccc(O)c(O)c1
REMARK SMILES IDX 6 1 13 2 7 3 11 4 8 5 9 6 5 7 4 8 2 9 1 10 3 11 12 12 10 14
REMARK H PARENT 12 13 10 15
REMARK Flexibility Score: inf
ROOT
ATOM      1  C   UNL     1       3.973 -15.860  15.002  1.00  0.00    -0.022 A 
ATOM      2  C   UNL     1       2.615 -15.597  14.732  1.00  0.00     0.058 A 
ATOM      3  C   UNL     1       4.784 -14.816  15.477  1.00  0.00     0.012 A 
ATOM      4  C   UNL     1       2.077 -14.321  14.956  1.00  0.00     0.157 A 
ATOM      5  C   UNL     1       4.248 -13.546  15.702  1.00  0.00     0.051 A 
ATOM      6  C   UNL     1       2.897 -13.293  15.447  1.00  0.00     0.157 A 
ENDROOT
BRANCH   1   7
ATOM      7  C   UNL     1       4.591 -17.189  14.770  1.00  0.00     0.010 C 
ATOM      8  C   UNL     1       5.459 -17.443  13.782  1.00  0.00     0.025 C 
BRANCH   8   9
ATOM      9  C   UNL     1       6.039 -18.781  13.581  1.00  0.00     0.064 C 
ATOM     10  O   UNL     1       5.512 -19.777  14.141  1.00  0.00    -0.545 OA
ATOM     11  O   UNL     1       7.160 -18.964  12.778  1.00  0.00    -0.545 OA
ENDBRANCH   8   9
ENDBRANCH   1   7
BRANCH   4  12
ATOM     12  O   UNL     1       0.731 -14.071  14.688  1.00  0.00    -0.504 OA
ATOM     13  H   UNL     1       0.103 -14.808  14.389  1.00  0.00     0.293 HD
ENDBRANCH   4  12
BRANCH   6  14
ATOM     14  O   UNL     1       2.391 -12.015  15.684  1.00  0.00    -0.504 OA
ATOM     15  H   UNL     1       1.488 -11.866  16.119  1.00  0.00     0.293 HD
ENDBRANCH   6  14
TORSDOF 4
ENDMDL
MODEL 2
REMARK VINA RESULT:    -4.310      0.814      1.892
REMARK INTER + INTRA:          -5.200
REMARK INTER:                  -5.075
REMARK INTRA:                  -0.125
REMARK UNBOUND:                -0.135
REMARK SMILES O=C([O-])C=Cc1ccc(O)c(O)c1
REMARK SMILES IDX 6 1 13 2 7 3 11 4 8 5 9 6 5 7 4 8 2 9 1 10 3 11 12 12 10 14
REMARK H PARENT 12 13 10 15
REMARK Flexibility Score: inf
ROOT
ATOM      1  C   UNL     1       3.891 -15.796  14.760  1.00  0.00    -0.022 A 
ATOM      2  C   UNL     1       4.761 -14.722  15.036  1.00  0.00     0.058 A 
ATOM      3  C   UNL     1       2.505 -15.583  14.838  1.00  0.00     0.012 A 
ATOM      4  C   UNL     1       4.251 -13.456  15.358  1.00  0.00     0.157 A 
ATOM      5  C   UNL     1       1.997 -14.322  15.157  1.00  0.00     0.051 A 
ATOM      6  C   UNL     1       2.863 -13.255  15.415  1.00  0.00     0.157 A 
ENDROOT
BRANCH   1   7
ATOM      7  C   UNL     1       4.381 -17.156  14.426  1.00  0.00     0.010 C 
ATOM      8  C   UNL     1       5.616 -17.412  13.975  1.00  0.00     0.025 C 
BRANCH   8   9
ATOM      9  C   UNL     1       6.057 -18.777  13.644  1.00  0.00     0.064 C 
ATOM     10  O   UNL     1       5.485 -19.762  14.180  1.00  0.00    -0.545 OA
ATOM     11  O   UNL     1       7.096 -18.998  12.746  1.00  0.00    -0.545 OA
ENDBRANCH   8   9
ENDBRANCH   1   7
BRANCH   4  12
ATOM     12  O   UNL     1       5.120 -12.399  15.626  1.00  0.00    -0.504 OA
ATOM     13  H   UNL     1       5.356 -12.132  16.575  1.00  0.00     0.293 HD
ENDBRANCH   4  12
BRANCH   6  14
ATOM     14  O   UNL     1       2.326 -12.007  15.729  1.00  0.00    -0.504 OA
ATOM     15  H   UNL     1       1.732 -11.499  15.084  1.00  0.00     0.293 HD
ENDBRANCH   6  14
TORSDOF 4
ENDMDL
MODEL 3
REMARK VINA RESULT:    -4.218      2.992      5.601
REMARK INTER + INTRA:          -5.092
REMARK INTER:                  -4.957
REMARK INTRA:                  -0.135
REMARK UNBOUND:                -0.135
REMARK SMILES O=C([O-])C=Cc1ccc(O)c(O)c1
REMARK SMILES IDX 6 1 13 2 7 3 11 4 8 5 9 6 5 7 4 8 2 9 1 10 3 11 12 12 10 14
REMARK H PARENT 12 13 10 15
REMARK Flexibility Score: inf
ROOT
ATOM      1  C   UNL     1       4.468 -13.245  14.541  1.00  0.00    -0.022 A 
ATOM      2  C   UNL     1       3.125 -13.671  14.582  1.00  0.00     0.058 A 
ATOM      3  C   UNL     1       5.486 -14.196  14.720  1.00  0.00     0.012 A 
ATOM      4  C   UNL     1       2.812 -15.025  14.773  1.00  0.00     0.157 A 
ATOM      5  C   UNL     1       5.175 -15.544  14.909  1.00  0.00     0.051 A 
ATOM      6  C   UNL     1       3.842 -15.965  14.933  1.00  0.00     0.157 A 
ENDROOT
BRANCH   1   7
ATOM      7  C   UNL     1       4.849 -11.824  14.353  1.00  0.00     0.010 C 
ATOM      8  C   UNL     1       5.507 -11.365  13.280  1.00  0.00     0.025 C 
BRANCH   8   9
ATOM      9  C   UNL     1       5.877  -9.948  13.140  1.00  0.00     0.064 C 
ATOM     10  O   UNL     1       5.163  -9.063  13.680  1.00  0.00    -0.545 OA
ATOM     11  O   UNL     1       7.006  -9.568  12.423  1.00  0.00    -0.545 OA
ENDBRANCH   8   9
ENDBRANCH   1   7
BRANCH   4  12
ATOM     12  O   UNL     1       1.480 -15.438  14.809  1.00  0.00    -0.504 OA
ATOM     13  H   UNL     1       0.720 -14.775  14.906  1.00  0.00     0.293 HD
ENDBRANCH   4  12
BRANCH   6  14
ATOM     14  O   UNL     1       3.562 -17.319  15.121  1.00  0.00    -0.504 OA
ATOM     15  H   UNL     1       3.184 -17.898  14.381  1.00  0.00     0.293 HD
ENDBRANCH   6  14
TORSDOF 4
ENDMDL
MODEL 4
REMARK VINA RESULT:    -4.165      2.716      5.994
REMARK INTER + INTRA:          -5.030
REMARK INTER:                  -4.905
REMARK INTRA:                  -0.125
REMARK UNBOUND:                -0.135
REMARK SMILES O=C([O-])C=Cc1ccc(O)c(O)c1
REMARK SMILES IDX 6 1 13 2 7 3 11 4 8 5 9 6 5 7 4 8 2 9 1 10 3 11 12 12 10 14
REMARK H PARENT 12 13 10 15
REMARK Flexibility Score: inf
ROOT
ATOM      1  C   UNL     1       4.452 -13.745  14.669  1.00  0.00    -0.022 A 
ATOM      2  C   UNL     1       5.571 -14.586  14.834  1.00  0.00     0.058 A 
ATOM      3  C   UNL     1       3.176 -14.324  14.587  1.00  0.00     0.012 A 
ATOM      4  C   UNL     1       5.410 -15.975  14.941  1.00  0.00     0.157 A 
ATOM      5  C   UNL     1       3.014 -15.708  14.695  1.00  0.00     0.051 A 
ATOM      6  C   UNL     1       4.125 -16.537  14.874  1.00  0.00     0.157 A 
ENDROOT
BRANCH   1   7
ATOM      7  C   UNL     1       4.572 -12.272  14.539  1.00  0.00     0.010 C 
ATOM      8  C   UNL     1       5.351 -11.665  13.633  1.00  0.00     0.025 C 
BRANCH   8   9
ATOM      9  C   UNL     1       5.449 -10.200  13.547  1.00  0.00     0.064 C 
ATOM     10  O   UNL     1       6.507  -9.671  13.115  1.00  0.00    -0.545 OA
ATOM     11  O   UNL     1       4.390  -9.385  13.934  1.00  0.00    -0.545 OA
ENDBRANCH   8   9
ENDBRANCH   1   7
BRANCH   4  12
ATOM     12  O   UNL     1       6.523 -16.798  15.108  1.00  0.00    -0.504 OA
ATOM     13  H   UNL     1       6.430 -17.800  15.230  1.00  0.00     0.293 HD
ENDBRANCH   4  12
BRANCH   6  14
ATOM     14  O   UNL     1       3.933 -17.914  14.981  1.00  0.00    -0.504 OA
ATOM     15  H   UNL     1       3.085 -18.310  15.369  1.00  0.00     0.293 HD
ENDBRANCH   6  14
TORSDOF 4
ENDMDL
MODEL 5
REMARK VINA RESULT:    -3.905      1.875      5.595
REMARK INTER + INTRA:          -4.725
REMARK INTER:                  -4.594
REMARK INTRA:                  -0.130
REMARK UNBOUND:                -0.135
REMARK SMILES O=C([O-])C=Cc1ccc(O)c(O)c1
REMARK SMILES IDX 6 1 13 2 7 3 11 4 8 5 9 6 5 7 4 8 2 9 1 10 3 11 12 12 10 14
REMARK H PARENT 12 13 10 15
REMARK Flexibility Score: inf
ROOT
ATOM      1  C   UNL     1       4.154 -15.331  15.289  1.00  0.00    -0.022 A 
ATOM      2  C   UNL     1       4.251 -16.356  14.327  1.00  0.00     0.058 A 
ATOM      3  C   UNL     1       4.361 -15.650  16.641  1.00  0.00     0.012 A 
ATOM      4  C   UNL     1       4.573 -17.667  14.710  1.00  0.00     0.157 A 
ATOM      5  C   UNL     1       4.683 -16.954  17.023  1.00  0.00     0.051 A 
ATOM      6  C   UNL     1       4.793 -17.965  16.064  1.00  0.00     0.157 A 
ENDROOT
BRANCH   1   7
ATOM      7  C   UNL     1       3.805 -13.933  14.935  1.00  0.00     0.010 C 
ATOM      8  C   UNL     1       4.667 -12.910  15.005  1.00  0.00     0.025 C 
BRANCH   8   9
ATOM      9  C   UNL     1       4.274 -11.536  14.655  1.00  0.00     0.064 C 
ATOM     10  O   UNL     1       3.467 -10.913  15.393  1.00  0.00    -0.545 OA
ATOM     11  O   UNL     1       4.782 -10.910  13.522  1.00  0.00    -0.545 OA
ENDBRANCH   8   9
ENDBRANCH   1   7
BRANCH   4  12
ATOM     12  O   UNL     1       4.670 -18.674  13.750  1.00  0.00    -0.504 OA
ATOM     13  H   UNL     1       4.889 -18.467  12.783  1.00  0.00     0.293 HD
ENDBRANCH   4  12
BRANCH   6  14
ATOM     14  O   UNL     1       5.119 -19.257  16.476  1.00  0.00    -0.504 OA
ATOM     15  H   UNL     1       4.411 -19.959  16.657  1.00  0.00     0.293 HD
ENDBRANCH   6  14
TORSDOF 4
ENDMDL
MODEL 6
REMARK VINA RESULT:    -3.903      3.784      5.297
REMARK INTER + INTRA:          -4.723
REMARK INTER:                  -4.601
REMARK INTRA:                  -0.122
REMARK UNBOUND:                -0.135
REMARK SMILES O=C([O-])C=Cc1ccc(O)c(O)c1
REMARK SMILES IDX 6 1 13 2 7 3 11 4 8 5 9 6 5 7 4 8 2 9 1 10 3 11 12 12 10 14
REMARK H PARENT 12 13 10 15
REMARK Flexibility Score: inf
ROOT
ATOM      1  C   UNL     1       4.535 -11.683  14.429  1.00  0.00    -0.022 A 
ATOM      2  C   UNL     1       5.481 -11.780  13.388  1.00  0.00     0.058 A 
ATOM      3  C   UNL     1       4.274 -10.423  14.992  1.00  0.00     0.012 A 
ATOM      4  C   UNL     1       6.131 -10.634  12.907  1.00  0.00     0.157 A 
ATOM      5  C   UNL     1       4.920  -9.282  14.512  1.00  0.00     0.051 A 
ATOM      6  C   UNL     1       5.846  -9.380  13.469  1.00  0.00     0.157 A 
ENDROOT
BRANCH   1   7
ATOM      7  C   UNL     1       3.830 -12.867  14.980  1.00  0.00     0.010 C 
ATOM      8  C   UNL     1       3.663 -14.013  14.308  1.00  0.00     0.025 C 
BRANCH   8   9
ATOM      9  C   UNL     1       2.946 -15.159  14.889  1.00  0.00     0.064 C 
ATOM     10  O   UNL     1       1.699 -15.250  14.745  1.00  0.00    -0.545 OA
ATOM     11  O   UNL     1       3.624 -16.148  15.595  1.00  0.00    -0.545 OA
ENDBRANCH   8   9
ENDBRANCH   1   7
BRANCH   4  12
ATOM     12  O   UNL     1       7.063 -10.739  11.875  1.00  0.00    -0.504 OA
ATOM     13  H   UNL     1       7.572 -11.599  11.703  1.00  0.00     0.293 HD
ENDBRANCH   4  12
BRANCH   6  14
ATOM     14  O   UNL     1       6.474  -8.222  13.009  1.00  0.00    -0.504 OA
ATOM     15  H   UNL     1       6.725  -8.097  12.036  1.00  0.00     0.293 HD
ENDBRANCH   6  14
TORSDOF 4
ENDMDL
MODEL 7
REMARK VINA RESULT:    -3.902     12.863     13.719
REMARK INTER + INTRA:          -4.721
REMARK INTER:                  -4.573
REMARK INTRA:                  -0.148
REMARK UNBOUND:                -0.135
REMARK SMILES O=C([O-])C=Cc1ccc(O)c(O)c1
REMARK SMILES IDX 6 1 13 2 7 3 11 4 8 5 9 6 5 7 4 8 2 9 1 10 3 11 12 12 10 14
REMARK H PARENT 12 13 10 15
REMARK Flexibility Score: inf
ROOT
ATOM      1  C   UNL     1       2.863 -23.368   3.866  1.00  0.00    -0.022 A 
ATOM      2  C   UNL     1       1.653 -23.532   3.161  1.00  0.00     0.058 A 
ATOM      3  C   UNL     1       2.958 -23.871   5.174  1.00  0.00     0.012 A 
ATOM      4  C   UNL     1       0.572 -24.207   3.747  1.00  0.00     0.157 A 
ATOM      5  C   UNL     1       1.881 -24.544   5.757  1.00  0.00     0.051 A 
ATOM      6  C   UNL     1       0.689 -24.718   5.049  1.00  0.00     0.157 A 
ENDROOT
BRANCH   1   7
ATOM      7  C   UNL     1       4.030 -22.652   3.295  1.00  0.00     0.010 C 
ATOM      8  C   UNL     1       5.281 -22.782   3.756  1.00  0.00     0.025 C 
BRANCH   8   9
ATOM      9  C   UNL     1       6.408 -22.042   3.167  1.00  0.00     0.064 C 
ATOM     10  O   UNL     1       6.976 -21.139   3.834  1.00  0.00    -0.545 OA
ATOM     11  O   UNL     1       6.861 -22.327   1.883  1.00  0.00    -0.545 OA
ENDBRANCH   8   9
ENDBRANCH   1   7
BRANCH   4  12
ATOM     12  O   UNL     1      -0.620 -24.366   3.040  1.00  0.00    -0.504 OA
ATOM     13  H   UNL     1      -0.626 -24.582   2.050  1.00  0.00     0.293 HD
ENDBRANCH   4  12
BRANCH   6  14
ATOM     14  O   UNL     1      -0.367 -25.397   5.656  1.00  0.00    -0.504 OA
ATOM     15  H   UNL     1      -1.293 -24.992   5.735  1.00  0.00     0.293 HD
ENDBRANCH   6  14
TORSDOF 4
ENDMDL
MODEL 8
REMARK VINA RESULT:    -3.892      1.620      5.893
REMARK INTER + INTRA:          -4.709
REMARK INTER:                  -4.560
REMARK INTRA:                  -0.150
REMARK UNBOUND:                -0.135
REMARK SMILES O=C([O-])C=Cc1ccc(O)c(O)c1
REMARK SMILES IDX 6 1 13 2 7 3 11 4 8 5 9 6 5 7 4 8 2 9 1 10 3 11 12 12 10 14
REMARK H PARENT 12 13 10 15
REMARK Flexibility Score: inf
ROOT
ATOM      1  C   UNL     1       4.819 -15.371  14.842  1.00  0.00    -0.022 A 
ATOM      2  C   UNL     1       4.332 -16.657  14.534  1.00  0.00     0.058 A 
ATOM      3  C   UNL     1       6.189 -15.107  14.674  1.00  0.00     0.012 A 
ATOM      4  C   UNL     1       5.195 -17.648  14.043  1.00  0.00     0.157 A 
ATOM      5  C   UNL     1       7.047 -16.093  14.183  1.00  0.00     0.051 A 
ATOM      6  C   UNL     1       6.558 -17.362  13.864  1.00  0.00     0.157 A 
ENDROOT
BRANCH   1   7
ATOM      7  C   UNL     1       3.950 -14.294  15.375  1.00  0.00     0.010 C 
ATOM      8  C   UNL     1       4.320 -13.008  15.452  1.00  0.00     0.025 C 
BRANCH   8   9
ATOM      9  C   UNL     1       3.429 -11.973  16.000  1.00  0.00     0.064 C 
ATOM     10  O   UNL     1       3.130 -10.973  15.296  1.00  0.00    -0.545 OA
ATOM     11  O   UNL     1       2.906 -12.082  17.284  1.00  0.00    -0.545 OA
ENDBRANCH   8   9
ENDBRANCH   1   7
BRANCH   4  12
ATOM     12  O   UNL     1       4.702 -18.917  13.737  1.00  0.00    -0.504 OA
ATOM     13  H   UNL     1       4.279 -19.507  14.444  1.00  0.00     0.293 HD
ENDBRANCH   4  12
BRANCH   6  14
ATOM     14  O   UNL     1       7.439 -18.326  13.373  1.00  0.00    -0.504 OA
ATOM     15  H   UNL     1       7.416 -19.287  13.692  1.00  0.00     0.293 HD
ENDBRANCH   6  14
TORSDOF 4
ENDMDL
MODEL 9
REMARK VINA RESULT:    -3.812     10.974     12.284
REMARK INTER + INTRA:          -4.616
REMARK INTER:                  -4.494
REMARK INTRA:                  -0.121
REMARK UNBOUND:                -0.135
REMARK SMILES O=C([O-])C=Cc1ccc(O)c(O)c1
REMARK SMILES IDX 6 1 13 2 7 3 11 4 8 5 9 6 5 7 4 8 2 9 1 10 3 11 12 12 10 14
REMARK H PARENT 12 13 10 15
REMARK Flexibility Score: inf
ROOT
ATOM      1  C   UNL     1      -5.782  -9.281  17.038  1.00  0.00    -0.022 A 
ATOM      2  C   UNL     1      -4.584  -9.488  16.326  1.00  0.00     0.058 A 
ATOM      3  C   UNL     1      -6.671  -8.288  16.595  1.00  0.00     0.012 A 
ATOM      4  C   UNL     1      -4.295  -8.733  15.180  1.00  0.00     0.157 A 
ATOM      5  C   UNL     1      -6.384  -7.536  15.453  1.00  0.00     0.051 A 
ATOM      6  C   UNL     1      -5.202  -7.755  14.741  1.00  0.00     0.157 A 
ENDROOT
BRANCH   1   7
ATOM      7  C   UNL     1      -6.127 -10.046  18.262  1.00  0.00     0.010 C 
ATOM      8  C   UNL     1      -5.703 -11.294  18.503  1.00  0.00     0.025 C 
BRANCH   8   9
ATOM      9  C   UNL     1      -6.080 -12.021  19.726  1.00  0.00     0.064 C 
ATOM     10  O   UNL     1      -5.386 -11.888  20.768  1.00  0.00    -0.545 OA
ATOM     11  O   UNL     1      -7.195 -12.852  19.753  1.00  0.00    -0.545 OA
ENDBRANCH   8   9
ENDBRANCH   1   7
BRANCH   4  12
ATOM     12  O   UNL     1      -3.108  -8.947  14.481  1.00  0.00    -0.504 OA
ATOM     13  H   UNL     1      -2.417  -8.215  14.369  1.00  0.00     0.293 HD
ENDBRANCH   4  12
BRANCH   6  14
ATOM     14  O   UNL     1      -4.945  -6.991  13.603  1.00  0.00    -0.504 OA
ATOM     15  H   UNL     1      -5.402  -6.102  13.437  1.00  0.00     0.293 HD
ENDBRANCH   6  14
TORSDOF 4
ENDMDL
