MODEL 1
REMARK VINA RESULT:    -4.509      0.000      0.000
REMARK INTER + INTRA:          -7.210
REMARK INTER:                  -6.091
REMARK INTRA:                  -1.119
REMARK UNBOUND:                -1.119
REMARK SMILES CC(=O)CCC=C(C)CCC=C(C)C
REMARK SMILES IDX 7 1 6 2 8 3 9 4 10 5 11 6 13 7 12 8 14 9 5 10 4 11 2 12 3 13
REMARK SMILES IDX 1 14
REMARK H PARENT
REMARK Flexibility Score: inf
ROOT
ATOM      1  C   UNL     1     213.438 202.806 217.128  1.00  0.00    -0.077 C 
ATOM      2  C   UNL     1     212.623 201.918 216.513  1.00  0.00    -0.028 C 
ATOM      3  C   UNL     1     214.887 202.969 216.733  1.00  0.00     0.039 C 
ENDROOT
BRANCH   1   4
ATOM      4  C   UNL     1     212.882 203.655 218.251  1.00  0.00     0.034 C 
BRANCH   4   5
ATOM      5  C   UNL     1     211.914 204.713 217.711  1.00  0.00     0.032 C 
BRANCH   5   6
ATOM      6  C   UNL     1     212.653 205.944 217.243  1.00  0.00    -0.028 C 
ATOM      7  C   UNL     1     213.540 207.528 215.584  1.00  0.00     0.039 C 
ATOM      8  C   UNL     1     212.781 206.277 215.941  1.00  0.00    -0.080 C 
ATOM      9  C   UNL     1     212.183 205.425 214.847  1.00  0.00     0.039 C 
ENDBRANCH   5   6
ENDBRANCH   4   5
ENDBRANCH   1   4
BRANCH   2  10
ATOM     10  C   UNL     1     213.049 200.974 215.412  1.00  0.00     0.035 C 
BRANCH  10  11
ATOM     11  C   UNL     1     213.414 199.593 215.966  1.00  0.00     0.079 C 
BRANCH  11  12
ATOM     12  C   UNL     1     214.861 199.253 215.711  1.00  0.00     0.130 C 
ATOM     13  O   UNL     1     215.415 198.414 216.405  1.00  0.00    -0.300 OA
ATOM     14  C   UNL     1     215.637 199.930 214.621  1.00  0.00     0.087 C 
ENDBRANCH  11  12
ENDBRANCH  10  11
ENDBRANCH   2  10
TORSDOF 6
ENDMDL
MODEL 2
REMARK VINA RESULT:    -4.471     14.971     17.264
REMARK INTER + INTRA:          -7.158
REMARK INTER:                  -6.064
REMARK INTRA:                  -1.094
REMARK UNBOUND:                -1.119
REMARK SMILES CC(=O)CCC=C(C)CCC=C(C)C
REMARK SMILES IDX 7 1 6 2 8 3 9 4 10 5 11 6 13 7 12 8 14 9 5 10 4 11 2 12 3 13
REMARK SMILES IDX 1 14
REMARK H PARENT
REMARK Flexibility Score: inf
ROOT
ATOM      1  C   UNL     1     198.876 209.457 217.114  1.00  0.00    -0.077 C 
ATOM      2  C   UNL     1     199.678 210.315 216.442  1.00  0.00    -0.028 C 
ATOM      3  C   UNL     1     197.417 209.285 216.763  1.00  0.00     0.039 C 
ENDROOT
BRANCH   1   4
ATOM      4  C   UNL     1     199.457 208.654 218.258  1.00  0.00     0.034 C 
BRANCH   4   5
ATOM      5  C   UNL     1     200.384 207.550 217.738  1.00  0.00     0.032 C 
BRANCH   5   6
ATOM      6  C   UNL     1     199.599 206.344 217.283  1.00  0.00    -0.028 C 
ATOM      7  C   UNL     1     198.661 204.771 215.641  1.00  0.00     0.039 C 
ATOM      8  C   UNL     1     199.468 205.996 215.985  1.00  0.00    -0.080 C 
ATOM      9  C   UNL     1     200.109 206.805 214.883  1.00  0.00     0.039 C 
ENDBRANCH   5   6
ENDBRANCH   4   5
ENDBRANCH   1   4
BRANCH   2  10
ATOM     10  C   UNL     1     199.228 211.213 215.313  1.00  0.00     0.035 C 
BRANCH  10  11
ATOM     11  C   UNL     1     198.841 212.605 215.824  1.00  0.00     0.079 C 
BRANCH  11  12
ATOM     12  C   UNL     1     197.526 213.065 215.248  1.00  0.00     0.130 C 
ATOM     13  O   UNL     1     197.181 214.229 215.386  1.00  0.00    -0.300 OA
ATOM     14  C   UNL     1     196.628 212.119 214.510  1.00  0.00     0.087 C 
ENDBRANCH  11  12
ENDBRANCH  10  11
ENDBRANCH   2  10
TORSDOF 6
ENDMDL
MODEL 3
REMARK VINA RESULT:    -4.365     15.120     16.940
REMARK INTER + INTRA:          -7.015
REMARK INTER:                  -6.226
REMARK INTRA:                  -0.789
REMARK UNBOUND:                -1.119
REMARK SMILES CC(=O)CCC=C(C)CCC=C(C)C
REMARK SMILES IDX 7 1 6 2 8 3 9 4 10 5 11 6 13 7 12 8 14 9 5 10 4 11 2 12 3 13
REMARK SMILES IDX 1 14
REMARK H PARENT
REMARK Flexibility Score: inf
ROOT
ATOM      1  C   UNL     1     199.139 207.438 217.260  1.00  0.00    -0.077 C 
ATOM      2  C   UNL     1     198.054 207.911 216.603  1.00  0.00    -0.028 C 
ATOM      3  C   UNL     1     199.907 208.285 218.247  1.00  0.00     0.039 C 
ENDROOT
BRANCH   1   4
ATOM      4  C   UNL     1     199.601 206.023 216.988  1.00  0.00     0.034 C 
BRANCH   4   5
ATOM      5  C   UNL     1     199.382 205.648 215.518  1.00  0.00     0.032 C 
BRANCH   5   6
ATOM      6  C   UNL     1     198.727 204.294 215.389  1.00  0.00    -0.028 C 
ATOM      7  C   UNL     1     197.135 202.654 214.480  1.00  0.00     0.039 C 
ATOM      8  C   UNL     1     197.718 204.043 214.528  1.00  0.00    -0.080 C 
ATOM      9  C   UNL     1     197.168 205.118 213.622  1.00  0.00     0.039 C 
ENDBRANCH   5   6
ENDBRANCH   4   5
ENDBRANCH   1   4
BRANCH   2  10
ATOM     10  C   UNL     1     197.507 209.313 216.737  1.00  0.00     0.035 C 
BRANCH  10  11
ATOM     11  C   UNL     1     197.925 210.194 215.555  1.00  0.00     0.079 C 
BRANCH  11  12
ATOM     12  C   UNL     1     198.458 211.528 216.013  1.00  0.00     0.130 C 
ATOM     13  O   UNL     1     197.743 212.516 215.952  1.00  0.00    -0.300 OA
ATOM     14  C   UNL     1     199.855 211.667 216.541  1.00  0.00     0.087 C 
ENDBRANCH  11  12
ENDBRANCH  10  11
ENDBRANCH   2  10
TORSDOF 6
ENDMDL
MODEL 4
REMARK VINA RESULT:    -4.353      2.072      3.491
REMARK INTER + INTRA:          -6.999
REMARK INTER:                  -6.264
REMARK INTRA:                  -0.736
REMARK UNBOUND:                -1.119
REMARK SMILES CC(=O)CCC=C(C)CCC=C(C)C
REMARK SMILES IDX 7 1 6 2 8 3 9 4 10 5 11 6 13 7 12 8 14 9 5 10 4 11 2 12 3 13
REMARK SMILES IDX 1 14
REMARK H PARENT
REMARK Flexibility Score: inf
ROOT
ATOM      1  C   UNL     1     213.017 205.187 217.146  1.00  0.00    -0.077 C 
ATOM      2  C   UNL     1     214.141 204.583 216.697  1.00  0.00    -0.028 C 
ATOM      3  C   UNL     1     212.012 204.465 218.013  1.00  0.00     0.039 C 
ENDROOT
BRANCH   1   4
ATOM      4  C   UNL     1     212.754 206.627 216.758  1.00  0.00     0.034 C 
BRANCH   4   5
ATOM      5  C   UNL     1     213.146 206.882 215.299  1.00  0.00     0.032 C 
BRANCH   5   6
ATOM      6  C   UNL     1     214.254 207.902 215.198  1.00  0.00    -0.028 C 
ATOM      7  C   UNL     1     215.327 209.974 214.419  1.00  0.00     0.039 C 
ATOM      8  C   UNL     1     214.161 209.020 214.448  1.00  0.00    -0.080 C 
ATOM      9  C   UNL     1     212.920 209.330 213.645  1.00  0.00     0.039 C 
ENDBRANCH   5   6
ENDBRANCH   4   5
ENDBRANCH   1   4
BRANCH   2  10
ATOM     10  C   UNL     1     214.511 203.142 216.962  1.00  0.00     0.035 C 
BRANCH  10  11
ATOM     11  C   UNL     1     214.217 202.254 215.748  1.00  0.00     0.079 C 
BRANCH  11  12
ATOM     12  C   UNL     1     212.816 201.698 215.790  1.00  0.00     0.130 C 
ATOM     13  O   UNL     1     211.973 202.127 215.016  1.00  0.00    -0.300 OA
ATOM     14  C   UNL     1     212.434 200.627 216.768  1.00  0.00     0.087 C 
ENDBRANCH  11  12
ENDBRANCH  10  11
ENDBRANCH   2  10
TORSDOF 6
ENDMDL
MODEL 5
REMARK VINA RESULT:    -4.292     14.518     15.939
REMARK INTER + INTRA:          -6.916
REMARK INTER:                  -6.290
REMARK INTRA:                  -0.626
REMARK UNBOUND:                -1.119
REMARK SMILES CC(=O)CCC=C(C)CCC=C(C)C
REMARK SMILES IDX 7 1 6 2 8 3 9 4 10 5 11 6 13 7 12 8 14 9 5 10 4 11 2 12 3 13
REMARK SMILES IDX 1 14
REMARK H PARENT
REMARK Flexibility Score: inf
ROOT
ATOM      1  C   UNL     1     198.857 207.704 217.221  1.00  0.00    -0.077 C 
ATOM      2  C   UNL     1     198.431 206.512 216.742  1.00  0.00    -0.028 C 
ATOM      3  C   UNL     1     200.239 207.882 217.805  1.00  0.00     0.039 C 
ENDROOT
BRANCH   1   4
ATOM      4  C   UNL     1     197.917 208.889 217.179  1.00  0.00     0.034 C 
BRANCH   4   5
ATOM      5  C   UNL     1     198.017 209.620 215.836  1.00  0.00     0.032 C 
BRANCH   5   6
ATOM      6  C   UNL     1     197.683 211.085 215.983  1.00  0.00    -0.028 C 
ATOM      7  C   UNL     1     198.179 213.478 216.266  1.00  0.00     0.039 C 
ATOM      8  C   UNL     1     198.622 212.044 216.128  1.00  0.00    -0.080 C 
ATOM      9  C   UNL     1     200.094 211.709 216.154  1.00  0.00     0.039 C 
ENDBRANCH   5   6
ENDBRANCH   4   5
ENDBRANCH   1   4
BRANCH   2  10
ATOM     10  C   UNL     1     199.239 205.235 216.761  1.00  0.00     0.035 C 
BRANCH  10  11
ATOM     11  C   UNL     1     199.446 204.681 215.347  1.00  0.00     0.079 C 
BRANCH  11  12
ATOM     12  C   UNL     1     198.137 204.318 214.693  1.00  0.00     0.130 C 
ATOM     13  O   UNL     1     197.541 203.313 215.051  1.00  0.00    -0.300 OA
ATOM     14  C   UNL     1     197.550 205.166 213.604  1.00  0.00     0.087 C 
ENDBRANCH  11  12
ENDBRANCH  10  11
ENDBRANCH   2  10
TORSDOF 6
ENDMDL
MODEL 6
REMARK VINA RESULT:    -4.288      2.035      3.458
REMARK INTER + INTRA:          -6.911
REMARK INTER:                  -5.556
REMARK INTRA:                  -1.355
REMARK UNBOUND:                -1.119
REMARK SMILES CC(=O)CCC=C(C)CCC=C(C)C
REMARK SMILES IDX 7 1 6 2 8 3 9 4 10 5 11 6 13 7 12 8 14 9 5 10 4 11 2 12 3 13
REMARK SMILES IDX 1 14
REMARK H PARENT
REMARK Flexibility Score: inf
ROOT
ATOM      1  C   UNL     1     213.194 205.304 217.111  1.00  0.00    -0.077 C 
ATOM      2  C   UNL     1     214.309 204.618 216.772  1.00  0.00    -0.028 C 
ATOM      3  C   UNL     1     212.034 204.645 217.820  1.00  0.00     0.039 C 
ENDROOT
BRANCH   1   4
ATOM      4  C   UNL     1     213.103 206.774 216.762  1.00  0.00     0.034 C 
BRANCH   4   5
ATOM      5  C   UNL     1     213.384 207.002 215.272  1.00  0.00     0.032 C 
BRANCH   5   6
ATOM      6  C   UNL     1     212.269 206.454 214.414  1.00  0.00    -0.028 C 
ATOM      7  C   UNL     1     211.282 205.048 212.654  1.00  0.00     0.039 C 
ATOM      8  C   UNL     1     212.466 205.527 213.453  1.00  0.00    -0.080 C 
ATOM      9  C   UNL     1     213.839 204.967 213.167  1.00  0.00     0.039 C 
ENDBRANCH   5   6
ENDBRANCH   4   5
ENDBRANCH   1   4
BRANCH   2  10
ATOM     10  C   UNL     1     214.521 203.141 217.013  1.00  0.00     0.035 C 
BRANCH  10  11
ATOM     11  C   UNL     1     214.216 202.318 215.756  1.00  0.00     0.079 C 
BRANCH  11  12
ATOM     12  C   UNL     1     212.798 201.808 215.755  1.00  0.00     0.130 C 
ATOM     13  O   UNL     1     211.960 202.357 215.055  1.00  0.00    -0.300 OA
ATOM     14  C   UNL     1     212.391 200.638 216.600  1.00  0.00     0.087 C 
ENDBRANCH  11  12
ENDBRANCH  10  11
ENDBRANCH   2  10
TORSDOF 6
ENDMDL
MODEL 7
REMARK VINA RESULT:    -4.276     14.262     15.892
REMARK INTER + INTRA:          -6.895
REMARK INTER:                  -5.533
REMARK INTRA:                  -1.363
REMARK UNBOUND:                -1.119
REMARK SMILES CC(=O)CCC=C(C)CCC=C(C)C
REMARK SMILES IDX 7 1 6 2 8 3 9 4 10 5 11 6 13 7 12 8 14 9 5 10 4 11 2 12 3 13
REMARK SMILES IDX 1 14
REMARK H PARENT
REMARK Flexibility Score: inf
ROOT
ATOM      1  C   UNL     1     199.149 206.897 217.111  1.00  0.00    -0.077 C 
ATOM      2  C   UNL     1     198.015 207.583 216.843  1.00  0.00    -0.028 C 
ATOM      3  C   UNL     1     200.339 207.547 217.776  1.00  0.00     0.039 C 
ENDROOT
BRANCH   1   4
ATOM      4  C   UNL     1     199.230 205.435 216.724  1.00  0.00     0.034 C 
BRANCH   4   5
ATOM      5  C   UNL     1     198.912 205.244 215.237  1.00  0.00     0.032 C 
BRANCH   5   6
ATOM      6  C   UNL     1     200.000 205.823 214.364  1.00  0.00    -0.028 C 
ATOM      7  C   UNL     1     200.930 207.282 212.617  1.00  0.00     0.039 C 
ATOM      8  C   UNL     1     199.771 206.774 213.434  1.00  0.00    -0.080 C 
ATOM      9  C   UNL     1     198.387 207.332 213.201  1.00  0.00     0.039 C 
ENDBRANCH   5   6
ENDBRANCH   4   5
ENDBRANCH   1   4
BRANCH   2  10
ATOM     10  C   UNL     1     197.807 209.053 217.128  1.00  0.00     0.035 C 
BRANCH  10  11
ATOM     11  C   UNL     1     198.041 209.906 215.876  1.00  0.00     0.079 C 
BRANCH  11  12
ATOM     12  C   UNL     1     199.447 210.448 215.824  1.00  0.00     0.130 C 
ATOM     13  O   UNL     1     200.275 209.910 215.104  1.00  0.00    -0.300 OA
ATOM     14  C   UNL     1     199.853 211.635 216.645  1.00  0.00     0.087 C 
ENDBRANCH  11  12
ENDBRANCH  10  11
ENDBRANCH   2  10
TORSDOF 6
ENDMDL
MODEL 8
REMARK VINA RESULT:    -4.276      3.141      6.384
REMARK INTER + INTRA:          -6.895
REMARK INTER:                  -6.254
REMARK INTRA:                  -0.641
REMARK UNBOUND:                -1.119
REMARK SMILES CC(=O)CCC=C(C)CCC=C(C)C
REMARK SMILES IDX 7 1 6 2 8 3 9 4 10 5 11 6 13 7 12 8 14 9 5 10 4 11 2 12 3 13
REMARK SMILES IDX 1 14
REMARK H PARENT
REMARK Flexibility Score: inf
ROOT
ATOM      1  C   UNL     1     213.502 204.609 217.165  1.00  0.00    -0.077 C 
ATOM      2  C   UNL     1     213.958 205.805 216.727  1.00  0.00    -0.028 C 
ATOM      3  C   UNL     1     212.107 204.440 217.720  1.00  0.00     0.039 C 
ENDROOT
BRANCH   1   4
ATOM      4  C   UNL     1     214.421 203.408 217.105  1.00  0.00     0.034 C 
BRANCH   4   5
ATOM      5  C   UNL     1     214.223 202.631 215.799  1.00  0.00     0.032 C 
BRANCH   5   6
ATOM      6  C   UNL     1     214.577 201.173 215.969  1.00  0.00    -0.028 C 
ATOM      7  C   UNL     1     214.115 198.778 216.287  1.00  0.00     0.039 C 
ATOM      8  C   UNL     1     213.652 200.203 216.126  1.00  0.00    -0.080 C 
ATOM      9  C   UNL     1     212.175 200.517 216.142  1.00  0.00     0.039 C 
ENDBRANCH   5   6
ENDBRANCH   4   5
ENDBRANCH   1   4
BRANCH   2  10
ATOM     10  C   UNL     1     213.174 207.096 216.769  1.00  0.00     0.035 C 
BRANCH  10  11
ATOM     11  C   UNL     1     212.880 207.620 215.359  1.00  0.00     0.079 C 
BRANCH  11  12
ATOM     12  C   UNL     1     214.141 208.026 214.640  1.00  0.00     0.130 C 
ATOM     13  O   UNL     1     214.730 209.041 214.981  1.00  0.00    -0.300 OA
ATOM     14  C   UNL     1     214.689 207.209 213.509  1.00  0.00     0.087 C 
ENDBRANCH  11  12
ENDBRANCH  10  11
ENDBRANCH   2  10
TORSDOF 6
ENDMDL
MODEL 9
REMARK VINA RESULT:    -4.213      1.493      2.811
REMARK INTER + INTRA:          -6.810
REMARK INTER:                  -5.512
REMARK INTRA:                  -1.298
REMARK UNBOUND:                -1.119
REMARK SMILES CC(=O)CCC=C(C)CCC=C(C)C
REMARK SMILES IDX 7 1 6 2 8 3 9 4 10 5 11 6 13 7 12 8 14 9 5 10 4 11 2 12 3 13
REMARK SMILES IDX 1 14
REMARK H PARENT
REMARK Flexibility Score: inf
ROOT
ATOM      1  C   UNL     1     212.765 204.080 214.398  1.00  0.00    -0.077 C 
ATOM      2  C   UNL     1     212.059 203.047 214.913  1.00  0.00    -0.028 C 
ATOM      3  C   UNL     1     213.869 203.869 213.390  1.00  0.00     0.039 C 
ENDROOT
BRANCH   1   4
ATOM      4  C   UNL     1     212.443 205.487 214.855  1.00  0.00     0.034 C 
BRANCH   4   5
ATOM      5  C   UNL     1     212.726 205.656 216.352  1.00  0.00     0.032 C 
BRANCH   5   6
ATOM      6  C   UNL     1     214.112 205.173 216.706  1.00  0.00    -0.028 C 
ATOM      7  C   UNL     1     215.767 203.772 217.867  1.00  0.00     0.039 C 
ATOM      8  C   UNL     1     214.342 204.176 217.586  1.00  0.00    -0.080 C 
ATOM      9  C   UNL     1     213.210 203.465 218.287  1.00  0.00     0.039 C 
ENDBRANCH   5   6
ENDBRANCH   4   5
ENDBRANCH   1   4
BRANCH   2  10
ATOM     10  C   UNL     1     212.298 201.590 214.589  1.00  0.00     0.035 C 
BRANCH  10  11
ATOM     11  C   UNL     1     212.340 200.733 215.858  1.00  0.00     0.079 C 
BRANCH  11  12
ATOM     12  C   UNL     1     213.711 200.150 216.092  1.00  0.00     0.130 C 
ATOM     13  O   UNL     1     213.819 199.056 216.625  1.00  0.00    -0.300 OA
ATOM     14  C   UNL     1     214.950 200.891 215.686  1.00  0.00     0.087 C 
ENDBRANCH  11  12
ENDBRANCH  10  11
ENDBRANCH   2  10
TORSDOF 6
ENDMDL
