MODEL 1
REMARK VINA RESULT:    -4.525      0.000      0.000
REMARK INTER + INTRA:          -7.789
REMARK INTER:                  -7.038
REMARK INTRA:                  -0.751
REMARK UNBOUND:                -0.751
REMARK SMILES COc1cc(CNC(=O)CCCCC=CC(C)C)ccc1O
REMARK SMILES IDX 11 1 12 2 13 3 14 4 15 5 16 6 17 7 18 8 10 9 8 10 9 11 7 12
REMARK SMILES IDX 6 14 5 15 4 16 19 17 3 18 20 19 21 20 2 21 1 22 22 23
REMARK H PARENT 7 13 22 24
REMARK Flexibility Score: inf
ROOT
ATOM      1  C   UNL     1     135.765 127.689 120.774  1.00  0.00     0.010 C 
ENDROOT
BRANCH   1   2
ATOM      2  C   UNL     1     136.722 126.513 120.527  1.00  0.00     0.005 C 
BRANCH   2   3
ATOM      3  C   UNL     1     138.196 126.906 120.708  1.00  0.00     0.027 C 
BRANCH   3   4
ATOM      4  C   UNL     1     138.357 128.400 120.790  1.00  0.00    -0.031 C 
ATOM      5  C   UNL     1     139.147 128.974 121.710  1.00  0.00    -0.028 C 
BRANCH   5   6
ATOM      6  C   UNL     1     139.310 130.475 121.777  1.00  0.00     0.005 C 
ATOM      7  C   UNL     1     140.378 130.942 120.780  1.00  0.00     0.012 C 
ATOM      8  C   UNL     1     139.679 130.911 123.199  1.00  0.00     0.012 C 
ENDBRANCH   5   6
ENDBRANCH   3   4
ENDBRANCH   2   3
ENDBRANCH   1   2
BRANCH   1   9
ATOM      9  C   UNL     1     134.414 127.508 120.069  1.00  0.00     0.100 C 
BRANCH   9  10
ATOM     10  C   UNL     1     134.496 127.994 118.654  1.00  0.00     0.220 C 
ATOM     11  O   UNL     1     134.477 129.233 118.421  1.00  0.00    -0.275 OA
ATOM     12  N   UNL     1     134.549 127.053 117.572  1.00  0.00    -0.352 N 
ATOM     13  H   UNL     1     134.507 126.032 117.787  1.00  0.00     0.163 HD
BRANCH  12  14
ATOM     14  C   UNL     1     134.616 127.468 116.173  1.00  0.00     0.151 C 
BRANCH  14  15
ATOM     15  C   UNL     1     133.245 127.442 115.554  1.00  0.00    -0.025 A 
ATOM     16  C   UNL     1     132.834 128.463 114.681  1.00  0.00     0.056 A 
ATOM     17  C   UNL     1     132.374 126.378 115.828  1.00  0.00     0.009 A 
ATOM     18  C   UNL     1     131.556 128.425 114.088  1.00  0.00     0.160 A 
ATOM     19  C   UNL     1     131.107 126.336 115.244  1.00  0.00     0.050 A 
ATOM     20  C   UNL     1     130.696 127.356 114.377  1.00  0.00     0.157 A 
BRANCH  18  21
ATOM     21  O   UNL     1     131.108 129.425 113.212  1.00  0.00    -0.493 OA
ATOM     22  C   UNL     1     131.381 129.458 111.815  1.00  0.00     0.278 C 
ENDBRANCH  18  21
BRANCH  20  23
ATOM     23  O   UNL     1     129.431 127.314 113.792  1.00  0.00    -0.504 OA
ATOM     24  H   UNL     1     129.257 127.703 112.873  1.00  0.00     0.293 HD
ENDBRANCH  20  23
ENDBRANCH  14  15
ENDBRANCH  12  14
ENDBRANCH   9  10
ENDBRANCH   1   9
TORSDOF 10
ENDMDL
MODEL 2
REMARK VINA RESULT:    -4.503      3.669      6.637
REMARK INTER + INTRA:          -7.755
REMARK INTER:                  -5.929
REMARK INTRA:                  -1.826
REMARK UNBOUND:                -0.751
REMARK SMILES COc1cc(CNC(=O)CCCCC=CC(C)C)ccc1O
REMARK SMILES IDX 11 1 12 2 13 3 14 4 15 5 16 6 17 7 18 8 10 9 8 10 9 11 7 12
REMARK SMILES IDX 6 14 5 15 4 16 19 17 3 18 20 19 21 20 2 21 1 22 22 23
REMARK H PARENT 7 13 22 24
REMARK Flexibility Score: inf
ROOT
ATOM      1  C   UNL     1     131.083 126.063 114.548  1.00  0.00     0.010 C 
ENDROOT
BRANCH   1   2
ATOM      2  C   UNL     1     132.416 125.889 113.803  1.00  0.00     0.005 C 
BRANCH   2   3
ATOM      3  C   UNL     1     133.524 126.794 114.363  1.00  0.00     0.027 C 
BRANCH   3   4
ATOM      4  C   UNL     1     133.514 126.803 115.867  1.00  0.00    -0.031 C 
ATOM      5  C   UNL     1     134.503 127.369 116.576  1.00  0.00    -0.028 C 
BRANCH   5   6
ATOM      6  C   UNL     1     134.476 127.383 118.087  1.00  0.00     0.005 C 
ATOM      7  C   UNL     1     133.366 126.464 118.611  1.00  0.00     0.012 C 
ATOM      8  C   UNL     1     134.277 128.811 118.606  1.00  0.00     0.012 C 
ENDBRANCH   5   6
ENDBRANCH   3   4
ENDBRANCH   2   3
ENDBRANCH   1   2
BRANCH   1   9
ATOM      9  C   UNL     1     129.986 126.666 113.660  1.00  0.00     0.100 C 
BRANCH   9  10
ATOM     10  C   UNL     1     130.411 128.009 113.148  1.00  0.00     0.220 C 
ATOM     11  O   UNL     1     130.536 128.189 111.906  1.00  0.00    -0.275 OA
ATOM     12  N   UNL     1     130.718 129.066 114.069  1.00  0.00    -0.352 N 
ATOM     13  H   UNL     1     130.662 128.876 115.094  1.00  0.00     0.163 HD
BRANCH  12  14
ATOM     14  C   UNL     1     131.151 130.390 113.628  1.00  0.00     0.151 C 
BRANCH  14  15
ATOM     15  C   UNL     1     132.653 130.451 113.553  1.00  0.00    -0.025 A 
ATOM     16  C   UNL     1     133.426 130.486 114.725  1.00  0.00     0.056 A 
ATOM     17  C   UNL     1     133.291 130.447 112.305  1.00  0.00     0.009 A 
ATOM     18  C   UNL     1     134.833 130.524 114.651  1.00  0.00     0.160 A 
ATOM     19  C   UNL     1     134.684 130.485 112.226  1.00  0.00     0.050 A 
ATOM     20  C   UNL     1     135.456 130.525 113.395  1.00  0.00     0.157 A 
BRANCH  18  21
ATOM     21  O   UNL     1     135.641 130.562 115.797  1.00  0.00    -0.493 OA
ATOM     22  C   UNL     1     135.861 131.722 116.593  1.00  0.00     0.278 C 
ENDBRANCH  18  21
BRANCH  20  23
ATOM     23  O   UNL     1     136.847 130.562 113.317  1.00  0.00    -0.504 OA
ATOM     24  H   UNL     1     137.335 130.400 112.443  1.00  0.00     0.293 HD
ENDBRANCH  20  23
ENDBRANCH  14  15
ENDBRANCH  12  14
ENDBRANCH   9  10
ENDBRANCH   1   9
TORSDOF 10
ENDMDL
MODEL 3
REMARK VINA RESULT:    -4.433      3.187      5.469
REMARK INTER + INTRA:          -7.646
REMARK INTER:                  -6.509
REMARK INTRA:                  -1.137
REMARK UNBOUND:                -0.751
REMARK SMILES COc1cc(CNC(=O)CCCCC=CC(C)C)ccc1O
REMARK SMILES IDX 11 1 12 2 13 3 14 4 15 5 16 6 17 7 18 8 10 9 8 10 9 11 7 12
REMARK SMILES IDX 6 14 5 15 4 16 19 17 3 18 20 19 21 20 2 21 1 22 22 23
REMARK H PARENT 7 13 22 24
REMARK Flexibility Score: inf
ROOT
ATOM      1  C   UNL     1     137.828 130.603 114.564  1.00  0.00     0.010 C 
ENDROOT
BRANCH   1   2
ATOM      2  C   UNL     1     139.305 130.332 114.239  1.00  0.00     0.005 C 
BRANCH   2   3
ATOM      3  C   UNL     1     140.262 131.129 115.139  1.00  0.00     0.027 C 
BRANCH   3   4
ATOM      4  C   UNL     1     139.597 131.521 116.430  1.00  0.00    -0.031 C 
ATOM      5  C   UNL     1     140.155 131.254 117.621  1.00  0.00    -0.028 C 
BRANCH   5   6
ATOM      6  C   UNL     1     139.483 131.662 118.911  1.00  0.00     0.005 C 
ATOM      7  C   UNL     1     140.070 130.880 120.092  1.00  0.00     0.012 C 
ATOM      8  C   UNL     1     137.970 131.438 118.822  1.00  0.00     0.012 C 
ENDBRANCH   5   6
ENDBRANCH   3   4
ENDBRANCH   2   3
ENDBRANCH   1   2
BRANCH   1   9
ATOM      9  C   UNL     1     136.911 130.400 113.351  1.00  0.00     0.100 C 
BRANCH   9  10
ATOM     10  C   UNL     1     135.612 129.788 113.778  1.00  0.00     0.220 C 
ATOM     11  O   UNL     1     134.537 130.423 113.601  1.00  0.00    -0.275 OA
ATOM     12  N   UNL     1     135.598 128.507 114.425  1.00  0.00    -0.352 N 
ATOM     13  H   UNL     1     136.505 128.025 114.611  1.00  0.00     0.163 HD
BRANCH  12  14
ATOM     14  C   UNL     1     134.364 127.868 114.876  1.00  0.00     0.151 C 
BRANCH  14  15
ATOM     15  C   UNL     1     134.306 127.845 116.379  1.00  0.00    -0.025 A 
ATOM     16  C   UNL     1     134.535 129.015 117.121  1.00  0.00     0.056 A 
ATOM     17  C   UNL     1     133.996 126.653 117.048  1.00  0.00     0.009 A 
ATOM     18  C   UNL     1     134.461 128.994 118.529  1.00  0.00     0.160 A 
ATOM     19  C   UNL     1     133.921 126.626 118.442  1.00  0.00     0.050 A 
ATOM     20  C   UNL     1     134.154 127.792 119.183  1.00  0.00     0.157 A 
BRANCH  18  21
ATOM     21  O   UNL     1     134.684 130.140 119.307  1.00  0.00    -0.493 OA
ATOM     22  C   UNL     1     134.050 131.397 119.094  1.00  0.00     0.278 C 
ENDBRANCH  18  21
BRANCH  20  23
ATOM     23  O   UNL     1     134.079 127.766 120.575  1.00  0.00    -0.504 OA
ATOM     24  H   UNL     1     133.485 127.106 121.063  1.00  0.00     0.293 HD
ENDBRANCH  20  23
ENDBRANCH  14  15
ENDBRANCH  12  14
ENDBRANCH   9  10
ENDBRANCH   1   9
TORSDOF 10
ENDMDL
MODEL 4
REMARK VINA RESULT:    -4.356      3.701      4.644
REMARK INTER + INTRA:          -7.525
REMARK INTER:                  -7.081
REMARK INTRA:                  -0.445
REMARK UNBOUND:                -0.751
REMARK SMILES COc1cc(CNC(=O)CCCCC=CC(C)C)ccc1O
REMARK SMILES IDX 11 1 12 2 13 3 14 4 15 5 16 6 17 7 18 8 10 9 8 10 9 11 7 12
REMARK SMILES IDX 6 14 5 15 4 16 19 17 3 18 20 19 21 20 2 21 1 22 22 23
REMARK H PARENT 7 13 22 24
REMARK Flexibility Score: inf
ROOT
ATOM      1  C   UNL     1     138.719 127.078 122.448  1.00  0.00     0.010 C 
ENDROOT
BRANCH   1   2
ATOM      2  C   UNL     1     139.303 126.293 123.632  1.00  0.00     0.005 C 
BRANCH   2   3
ATOM      3  C   UNL     1     139.799 127.210 124.760  1.00  0.00     0.027 C 
BRANCH   3   4
ATOM      4  C   UNL     1     140.796 126.506 125.638  1.00  0.00    -0.031 C 
ATOM      5  C   UNL     1     141.976 127.063 125.954  1.00  0.00    -0.028 C 
BRANCH   5   6
ATOM      6  C   UNL     1     142.965 126.351 126.847  1.00  0.00     0.005 C 
ATOM      7  C   UNL     1     143.086 127.073 128.194  1.00  0.00     0.012 C 
ATOM      8  C   UNL     1     144.334 126.261 126.164  1.00  0.00     0.012 C 
ENDBRANCH   5   6
ENDBRANCH   3   4
ENDBRANCH   2   3
ENDBRANCH   1   2
BRANCH   1   9
ATOM      9  C   UNL     1     137.801 126.221 121.566  1.00  0.00     0.100 C 
BRANCH   9  10
ATOM     10  C   UNL     1     136.475 126.897 121.385  1.00  0.00     0.220 C 
ATOM     11  O   UNL     1     135.641 126.891 122.330  1.00  0.00    -0.275 OA
ATOM     12  N   UNL     1     136.143 127.505 120.129  1.00  0.00    -0.352 N 
ATOM     13  H   UNL     1     136.828 127.449 119.343  1.00  0.00     0.163 HD
BRANCH  12  14
ATOM     14  C   UNL     1     134.862 128.165 119.890  1.00  0.00     0.151 C 
BRANCH  14  15
ATOM     15  C   UNL     1     134.221 127.625 118.640  1.00  0.00    -0.025 A 
ATOM     16  C   UNL     1     134.396 128.277 117.408  1.00  0.00     0.056 A 
ATOM     17  C   UNL     1     133.463 126.447 118.695  1.00  0.00     0.009 A 
ATOM     18  C   UNL     1     133.810 127.758 116.236  1.00  0.00     0.160 A 
ATOM     19  C   UNL     1     132.881 125.929 117.538  1.00  0.00     0.050 A 
ATOM     20  C   UNL     1     133.051 126.582 116.310  1.00  0.00     0.157 A 
BRANCH  18  21
ATOM     21  O   UNL     1     133.959 128.380 114.987  1.00  0.00    -0.493 OA
ATOM     22  C   UNL     1     135.189 128.885 114.477  1.00  0.00     0.278 C 
ENDBRANCH  18  21
BRANCH  20  23
ATOM     23  O   UNL     1     132.469 126.064 115.153  1.00  0.00    -0.504 OA
ATOM     24  H   UNL     1     132.832 125.231 114.703  1.00  0.00     0.293 HD
ENDBRANCH  20  23
ENDBRANCH  14  15
ENDBRANCH  12  14
ENDBRANCH   9  10
ENDBRANCH   1   9
TORSDOF 10
ENDMDL
MODEL 5
REMARK VINA RESULT:    -4.354      1.622      2.670
REMARK INTER + INTRA:          -7.523
REMARK INTER:                  -6.515
REMARK INTRA:                  -1.008
REMARK UNBOUND:                -0.751
REMARK SMILES COc1cc(CNC(=O)CCCCC=CC(C)C)ccc1O
REMARK SMILES IDX 11 1 12 2 13 3 14 4 15 5 16 6 17 7 18 8 10 9 8 10 9 11 7 12
REMARK SMILES IDX 6 14 5 15 4 16 19 17 3 18 20 19 21 20 2 21 1 22 22 23
REMARK H PARENT 7 13 22 24
REMARK Flexibility Score: inf
ROOT
ATOM      1  C   UNL     1     135.559 130.749 119.050  1.00  0.00     0.010 C 
ENDROOT
BRANCH   1   2
ATOM      2  C   UNL     1     136.884 130.262 119.658  1.00  0.00     0.005 C 
BRANCH   2   3
ATOM      3  C   UNL     1     136.878 130.306 121.193  1.00  0.00     0.027 C 
BRANCH   3   4
ATOM      4  C   UNL     1     136.836 128.921 121.778  1.00  0.00    -0.031 C 
ATOM      5  C   UNL     1     137.096 127.833 121.037  1.00  0.00    -0.028 C 
BRANCH   5   6
ATOM      6  C   UNL     1     137.063 126.447 121.638  1.00  0.00     0.005 C 
ATOM      7  C   UNL     1     135.841 126.289 122.550  1.00  0.00     0.012 C 
ATOM      8  C   UNL     1     138.353 126.172 122.419  1.00  0.00     0.012 C 
ENDBRANCH   5   6
ENDBRANCH   3   4
ENDBRANCH   2   3
ENDBRANCH   1   2
BRANCH   1   9
ATOM      9  C   UNL     1     134.399 129.778 119.309  1.00  0.00     0.100 C 
BRANCH   9  10
ATOM     10  C   UNL     1     134.410 128.674 118.296  1.00  0.00     0.220 C 
ATOM     11  O   UNL     1     134.402 127.474 118.686  1.00  0.00    -0.275 OA
ATOM     12  N   UNL     1     134.475 128.981 116.896  1.00  0.00    -0.352 N 
ATOM     13  H   UNL     1     134.537 129.980 116.600  1.00  0.00     0.163 HD
BRANCH  12  14
ATOM     14  C   UNL     1     134.503 127.947 115.865  1.00  0.00     0.151 C 
BRANCH  14  15
ATOM     15  C   UNL     1     133.124 127.734 115.301  1.00  0.00    -0.025 A 
ATOM     16  C   UNL     1     132.592 128.629 114.357  1.00  0.00     0.056 A 
ATOM     17  C   UNL     1     132.369 126.622 115.698  1.00  0.00     0.009 A 
ATOM     18  C   UNL     1     131.308 128.416 113.816  1.00  0.00     0.160 A 
ATOM     19  C   UNL     1     131.097 126.407 115.166  1.00  0.00     0.050 A 
ATOM     20  C   UNL     1     130.565 127.301 114.228  1.00  0.00     0.157 A 
BRANCH  18  21
ATOM     21  O   UNL     1     130.741 129.287 112.873  1.00  0.00    -0.493 OA
ATOM     22  C   UNL     1     131.383 129.709 111.674  1.00  0.00     0.278 C 
ENDBRANCH  18  21
BRANCH  20  23
ATOM     23  O   UNL     1     129.294 127.087 113.695  1.00  0.00    -0.504 OA
ATOM     24  H   UNL     1     129.164 126.766 112.743  1.00  0.00     0.293 HD
ENDBRANCH  20  23
ENDBRANCH  14  15
ENDBRANCH  12  14
ENDBRANCH   9  10
ENDBRANCH   1   9
TORSDOF 10
ENDMDL
MODEL 6
REMARK VINA RESULT:    -4.347      3.353      6.735
REMARK INTER + INTRA:          -7.512
REMARK INTER:                  -5.846
REMARK INTRA:                  -1.666
REMARK UNBOUND:                -0.751
REMARK SMILES COc1cc(CNC(=O)CCCCC=CC(C)C)ccc1O
REMARK SMILES IDX 11 1 12 2 13 3 14 4 15 5 16 6 17 7 18 8 10 9 8 10 9 11 7 12
REMARK SMILES IDX 6 14 5 15 4 16 19 17 3 18 20 19 21 20 2 21 1 22 22 23
REMARK H PARENT 7 13 22 24
REMARK Flexibility Score: inf
ROOT
ATOM      1  C   UNL     1     132.133 130.566 112.864  1.00  0.00     0.010 C 
ENDROOT
BRANCH   1   2
ATOM      2  C   UNL     1     132.098 132.034 113.316  1.00  0.00     0.005 C 
BRANCH   2   3
ATOM      3  C   UNL     1     132.612 132.220 114.752  1.00  0.00     0.027 C 
BRANCH   3   4
ATOM      4  C   UNL     1     133.942 131.544 114.947  1.00  0.00    -0.031 C 
ATOM      5  C   UNL     1     135.091 132.122 114.565  1.00  0.00    -0.028 C 
BRANCH   5   6
ATOM      6  C   UNL     1     136.422 131.439 114.777  1.00  0.00     0.005 C 
ATOM      7  C   UNL     1     136.378 130.003 114.242  1.00  0.00     0.012 C 
ATOM      8  C   UNL     1     136.794 131.444 116.264  1.00  0.00     0.012 C 
ENDBRANCH   5   6
ENDBRANCH   3   4
ENDBRANCH   2   3
ENDBRANCH   1   2
BRANCH   1   9
ATOM      9  C   UNL     1     131.044 129.717 113.533  1.00  0.00     0.100 C 
BRANCH   9  10
ATOM     10  C   UNL     1     131.639 128.467 114.109  1.00  0.00     0.220 C 
ATOM     11  O   UNL     1     130.878 127.544 114.509  1.00  0.00    -0.275 OA
ATOM     12  N   UNL     1     133.062 128.344 114.244  1.00  0.00    -0.352 N 
ATOM     13  H   UNL     1     133.669 129.144 113.958  1.00  0.00     0.163 HD
BRANCH  12  14
ATOM     14  C   UNL     1     133.697 127.156 114.811  1.00  0.00     0.151 C 
BRANCH  14  15
ATOM     15  C   UNL     1     133.801 127.282 116.306  1.00  0.00    -0.025 A 
ATOM     16  C   UNL     1     134.362 128.429 116.890  1.00  0.00     0.056 A 
ATOM     17  C   UNL     1     133.311 126.258 117.130  1.00  0.00     0.009 A 
ATOM     18  C   UNL     1     134.440 128.552 118.292  1.00  0.00     0.160 A 
ATOM     19  C   UNL     1     133.387 126.374 118.518  1.00  0.00     0.050 A 
ATOM     20  C   UNL     1     133.951 127.517 119.101  1.00  0.00     0.157 A 
BRANCH  18  21
ATOM     21  O   UNL     1     134.995 129.681 118.914  1.00  0.00    -0.493 OA
ATOM     22  C   UNL     1     134.327 130.929 119.068  1.00  0.00     0.278 C 
ENDBRANCH  18  21
BRANCH  20  23
ATOM     23  O   UNL     1     134.025 127.634 120.489  1.00  0.00    -0.504 OA
ATOM     24  H   UNL     1     134.169 128.530 120.939  1.00  0.00     0.293 HD
ENDBRANCH  20  23
ENDBRANCH  14  15
ENDBRANCH  12  14
ENDBRANCH   9  10
ENDBRANCH   1   9
TORSDOF 10
ENDMDL
MODEL 7
REMARK VINA RESULT:    -4.301      3.267      6.339
REMARK INTER + INTRA:          -7.440
REMARK INTER:                  -5.648
REMARK INTRA:                  -1.792
REMARK UNBOUND:                -0.751
REMARK SMILES COc1cc(CNC(=O)CCCCC=CC(C)C)ccc1O
REMARK SMILES IDX 11 1 12 2 13 3 14 4 15 5 16 6 17 7 18 8 10 9 8 10 9 11 7 12
REMARK SMILES IDX 6 14 5 15 4 16 19 17 3 18 20 19 21 20 2 21 1 22 22 23
REMARK H PARENT 7 13 22 24
REMARK Flexibility Score: inf
ROOT
ATOM      1  C   UNL     1     132.614 126.115 113.647  1.00  0.00     0.010 C 
ENDROOT
BRANCH   1   2
ATOM      2  C   UNL     1     132.982 126.471 115.096  1.00  0.00     0.005 C 
BRANCH   2   3
ATOM      3  C   UNL     1     134.326 127.207 115.197  1.00  0.00     0.027 C 
BRANCH   3   4
ATOM      4  C   UNL     1     134.462 127.916 116.517  1.00  0.00    -0.031 C 
ATOM      5  C   UNL     1     133.990 127.385 117.655  1.00  0.00    -0.028 C 
BRANCH   5   6
ATOM      6  C   UNL     1     134.143 128.100 118.977  1.00  0.00     0.005 C 
ATOM      7  C   UNL     1     134.899 129.420 118.787  1.00  0.00     0.012 C 
ATOM      8  C   UNL     1     134.872 127.208 119.988  1.00  0.00     0.012 C 
ENDBRANCH   5   6
ENDBRANCH   3   4
ENDBRANCH   2   3
ENDBRANCH   1   2
BRANCH   1   9
ATOM      9  C   UNL     1     131.396 126.898 113.139  1.00  0.00     0.100 C 
BRANCH   9  10
ATOM     10  C   UNL     1     131.667 128.371 113.189  1.00  0.00     0.220 C 
ATOM     11  O   UNL     1     130.869 129.128 113.805  1.00  0.00    -0.275 OA
ATOM     12  N   UNL     1     132.801 128.918 112.501  1.00  0.00    -0.352 N 
ATOM     13  H   UNL     1     133.416 128.278 111.952  1.00  0.00     0.163 HD
BRANCH  12  14
ATOM     14  C   UNL     1     133.107 130.346 112.504  1.00  0.00     0.151 C 
BRANCH  14  15
ATOM     15  C   UNL     1     134.068 130.673 113.614  1.00  0.00    -0.025 A 
ATOM     16  C   UNL     1     135.443 130.426 113.466  1.00  0.00     0.056 A 
ATOM     17  C   UNL     1     133.596 131.254 114.799  1.00  0.00     0.009 A 
ATOM     18  C   UNL     1     136.343 130.751 114.501  1.00  0.00     0.160 A 
ATOM     19  C   UNL     1     134.482 131.578 115.827  1.00  0.00     0.050 A 
ATOM     20  C   UNL     1     135.853 131.327 115.682  1.00  0.00     0.157 A 
BRANCH  18  21
ATOM     21  O   UNL     1     137.722 130.518 114.393  1.00  0.00    -0.493 OA
ATOM     22  C   UNL     1     138.348 129.865 113.293  1.00  0.00     0.278 C 
ENDBRANCH  18  21
BRANCH  20  23
ATOM     23  O   UNL     1     136.739 131.651 116.708  1.00  0.00    -0.504 OA
ATOM     24  H   UNL     1     137.350 130.956 117.122  1.00  0.00     0.293 HD
ENDBRANCH  20  23
ENDBRANCH  14  15
ENDBRANCH  12  14
ENDBRANCH   9  10
ENDBRANCH   1   9
TORSDOF 10
ENDMDL
MODEL 8
REMARK VINA RESULT:    -4.291      2.857      6.918
REMARK INTER + INTRA:          -7.425
REMARK INTER:                  -6.097
REMARK INTRA:                  -1.328
REMARK UNBOUND:                -0.751
REMARK SMILES COc1cc(CNC(=O)CCCCC=CC(C)C)ccc1O
REMARK SMILES IDX 11 1 12 2 13 3 14 4 15 5 16 6 17 7 18 8 10 9 8 10 9 11 7 12
REMARK SMILES IDX 6 14 5 15 4 16 19 17 3 18 20 19 21 20 2 21 1 22 22 23
REMARK H PARENT 7 13 22 24
REMARK Flexibility Score: inf
ROOT
ATOM      1  C   UNL     1     133.112 128.248 113.907  1.00  0.00     0.010 C 
ENDROOT
BRANCH   1   2
ATOM      2  C   UNL     1     134.483 128.911 114.111  1.00  0.00     0.005 C 
BRANCH   2   3
ATOM      3  C   UNL     1     134.437 130.055 115.135  1.00  0.00     0.027 C 
BRANCH   3   4
ATOM      4  C   UNL     1     135.788 130.698 115.296  1.00  0.00    -0.031 C 
ATOM      5  C   UNL     1     136.100 131.419 116.384  1.00  0.00    -0.028 C 
BRANCH   5   6
ATOM      6  C   UNL     1     137.464 132.050 116.541  1.00  0.00     0.005 C 
ATOM      7  C   UNL     1     138.420 131.534 115.459  1.00  0.00     0.012 C 
ATOM      8  C   UNL     1     138.030 131.760 117.936  1.00  0.00     0.012 C 
ENDBRANCH   5   6
ENDBRANCH   3   4
ENDBRANCH   2   3
ENDBRANCH   1   2
BRANCH   1   9
ATOM      9  C   UNL     1     133.122 126.753 114.252  1.00  0.00     0.100 C 
BRANCH   9  10
ATOM     10  C   UNL     1     132.748 126.549 115.689  1.00  0.00     0.220 C 
ATOM     11  O   UNL     1     131.563 126.237 115.984  1.00  0.00    -0.275 OA
ATOM     12  N   UNL     1     133.723 126.752 116.722  1.00  0.00    -0.352 N 
ATOM     13  H   UNL     1     134.684 127.064 116.457  1.00  0.00     0.163 HD
BRANCH  12  14
ATOM     14  C   UNL     1     133.413 126.581 118.139  1.00  0.00     0.151 C 
BRANCH  14  15
ATOM     15  C   UNL     1     134.286 127.476 118.977  1.00  0.00    -0.025 A 
ATOM     16  C   UNL     1     134.977 126.964 120.088  1.00  0.00     0.056 A 
ATOM     17  C   UNL     1     134.435 128.827 118.635  1.00  0.00     0.009 A 
ATOM     18  C   UNL     1     135.809 127.801 120.859  1.00  0.00     0.160 A 
ATOM     19  C   UNL     1     135.257 129.660 119.395  1.00  0.00     0.050 A 
ATOM     20  C   UNL     1     135.942 129.151 120.506  1.00  0.00     0.157 A 
BRANCH  18  21
ATOM     21  O   UNL     1     136.514 127.329 121.976  1.00  0.00    -0.493 OA
ATOM     22  C   UNL     1     135.918 126.671 123.090  1.00  0.00     0.278 C 
ENDBRANCH  18  21
BRANCH  20  23
ATOM     23  O   UNL     1     136.765 129.982 121.265  1.00  0.00    -0.504 OA
ATOM     24  H   UNL     1     136.584 130.976 121.348  1.00  0.00     0.293 HD
ENDBRANCH  20  23
ENDBRANCH  14  15
ENDBRANCH  12  14
ENDBRANCH   9  10
ENDBRANCH   1   9
TORSDOF 10
ENDMDL
MODEL 9
REMARK VINA RESULT:    -4.279      2.550      8.941
REMARK INTER + INTRA:          -7.406
REMARK INTER:                  -6.502
REMARK INTRA:                  -0.904
REMARK UNBOUND:                -0.751
REMARK SMILES COc1cc(CNC(=O)CCCCC=CC(C)C)ccc1O
REMARK SMILES IDX 11 1 12 2 13 3 14 4 15 5 16 6 17 7 18 8 10 9 8 10 9 11 7 12
REMARK SMILES IDX 6 14 5 15 4 16 19 17 3 18 20 19 21 20 2 21 1 22 22 23
REMARK H PARENT 7 13 22 24
REMARK Flexibility Score: inf
ROOT
ATOM      1  C   UNL     1     134.121 128.743 115.927  1.00  0.00     0.010 C 
ENDROOT
BRANCH   1   2
ATOM      2  C   UNL     1     134.954 129.212 114.724  1.00  0.00     0.005 C 
BRANCH   2   3
ATOM      3  C   UNL     1     134.094 129.464 113.475  1.00  0.00     0.027 C 
BRANCH   3   4
ATOM      4  C   UNL     1     132.751 128.797 113.594  1.00  0.00    -0.031 C 
ATOM      5  C   UNL     1     132.451 127.686 112.903  1.00  0.00    -0.028 C 
BRANCH   5   6
ATOM      6  C   UNL     1     131.103 127.018 113.039  1.00  0.00     0.005 C 
ATOM      7  C   UNL     1     130.046 127.774 112.225  1.00  0.00     0.012 C 
ATOM      8  C   UNL     1     130.689 126.943 114.513  1.00  0.00     0.012 C 
ENDBRANCH   5   6
ENDBRANCH   3   4
ENDBRANCH   2   3
ENDBRANCH   1   2
BRANCH   1   9
ATOM      9  C   UNL     1     134.326 127.256 116.242  1.00  0.00     0.100 C 
BRANCH   9  10
ATOM     10  C   UNL     1     134.321 127.033 117.724  1.00  0.00     0.220 C 
ATOM     11  O   UNL     1     134.110 125.875 118.177  1.00  0.00    -0.275 OA
ATOM     12  N   UNL     1     134.510 128.138 118.619  1.00  0.00    -0.352 N 
ATOM     13  H   UNL     1     134.627 129.096 118.222  1.00  0.00     0.163 HD
BRANCH  12  14
ATOM     14  C   UNL     1     134.500 127.983 120.071  1.00  0.00     0.151 C 
BRANCH  14  15
ATOM     15  C   UNL     1     135.893 127.722 120.578  1.00  0.00    -0.025 A 
ATOM     16  C   UNL     1     136.883 128.715 120.493  1.00  0.00     0.056 A 
ATOM     17  C   UNL     1     136.203 126.487 121.164  1.00  0.00     0.009 A 
ATOM     18  C   UNL     1     138.181 128.473 120.986  1.00  0.00     0.160 A 
ATOM     19  C   UNL     1     137.487 126.243 121.654  1.00  0.00     0.050 A 
ATOM     20  C   UNL     1     138.476 127.231 121.565  1.00  0.00     0.157 A 
BRANCH  18  21
ATOM     21  O   UNL     1     139.198 129.438 120.919  1.00  0.00    -0.493 OA
ATOM     22  C   UNL     1     139.485 130.231 119.772  1.00  0.00     0.278 C 
ENDBRANCH  18  21
BRANCH  20  23
ATOM     23  O   UNL     1     139.759 126.988 122.055  1.00  0.00    -0.504 OA
ATOM     24  H   UNL     1     140.103 126.045 122.197  1.00  0.00     0.293 HD
ENDBRANCH  20  23
ENDBRANCH  14  15
ENDBRANCH  12  14
ENDBRANCH   9  10
ENDBRANCH   1   9
TORSDOF 10
ENDMDL
