MODEL 1
REMARK VINA RESULT:    -5.870      0.000      0.000
REMARK INTER + INTRA:          -9.505
REMARK INTER:                  -7.929
REMARK INTRA:                  -1.576
REMARK UNBOUND:                -1.576
REMARK SMILES CC[C@H](CC[C@@H](C)[C@@H]1CC[C@H]2[C@H]3CC(=O)C4=CC(=O)CC[C@]4(C)[C@H]3CC[C@]21C)C(C)C
REMARK SMILES IDX 4 1 3 2 2 3 1 4 29 5 30 6 31 7 5 8 6 9 7 10 8 11 9 12 27 13
REMARK SMILES IDX 10 14 11 15 26 16 28 17 12 18 25 19 24 20 13 21 22 22 14 23
REMARK SMILES IDX 16 24 21 25 23 26 15 27 17 28 20 29 18 30 19 31
REMARK H PARENT
REMARK Flexibility Score: inf
ROOT
ATOM      1  C   UNL     1      10.151  15.670  14.312  1.00  0.00     0.004 C 
ENDROOT
BRANCH   1   2
ATOM      2  C   UNL     1       9.661  17.052  14.842  1.00  0.00    -0.009 C 
BRANCH   2   3
ATOM      3  C   UNL     1      10.160  18.202  13.923  1.00  0.00     0.000 C 
ATOM      4  C   UNL     1      11.028  19.238  14.640  1.00  0.00     0.004 C 
ENDBRANCH   2   3
BRANCH   2   5
ATOM      5  C   UNL     1       8.109  17.079  15.071  1.00  0.00    -0.014 C 
ATOM      6  C   UNL     1       7.323  17.104  13.749  1.00  0.00     0.007 C 
ATOM      7  C   UNL     1       7.636  18.220  15.989  1.00  0.00     0.007 C 
ENDBRANCH   2   5
ENDBRANCH   1   2
BRANCH   1   8
ATOM      8  C   UNL     1      11.094  14.880  15.250  1.00  0.00     0.004 C 
BRANCH   8   9
ATOM      9  C   UNL     1      12.597  14.862  14.848  1.00  0.00    -0.011 C 
ATOM     10  C   UNL     1      12.778  14.255  13.439  1.00  0.00     0.008 C 
BRANCH   9  11
ATOM     11  C   UNL     1      13.228  16.297  15.021  1.00  0.00    -0.002 C 
ATOM     12  C   UNL     1      13.727  16.894  13.698  1.00  0.00     0.005 C 
ATOM     13  C   UNL     1      14.431  16.467  16.022  1.00  0.00    -0.026 C 
ATOM     14  C   UNL     1      15.249  16.807  13.704  1.00  0.00     0.005 C 
ATOM     15  C   UNL     1      15.696  16.387  15.119  1.00  0.00    -0.001 C 
ATOM     16  C   UNL     1      14.330  17.857  16.758  1.00  0.00     0.007 C 
ATOM     17  C   UNL     1      14.481  15.369  17.118  1.00  0.00     0.012 C 
ATOM     18  C   UNL     1      16.948  17.144  15.669  1.00  0.00     0.004 C 
ATOM     19  C   UNL     1      15.169  18.972  16.122  1.00  0.00     0.005 C 
ATOM     20  C   UNL     1      16.668  18.610  16.198  1.00  0.00     0.003 C 
ATOM     21  C   UNL     1      18.164  16.971  14.711  1.00  0.00     0.085 C 
ATOM     22  C   UNL     1      17.657  19.722  15.673  1.00  0.00    -0.000 C 
ATOM     23  C   UNL     1      19.316  17.860  15.063  1.00  0.00     0.159 C 
ATOM     24  C   UNL     1      19.068  19.131  15.765  1.00  0.00     0.005 C 
ATOM     25  C   UNL     1      17.556  21.061  16.491  1.00  0.00     0.020 C 
ATOM     26  C   UNL     1      17.362  20.110  14.200  1.00  0.00     0.017 C 
ATOM     27  O   UNL     1      20.488  17.514  14.750  1.00  0.00    -0.295 OA
ATOM     28  C   UNL     1      19.989  19.572  16.642  1.00  0.00     0.055 C 
ATOM     29  C   UNL     1      18.249  21.007  17.849  1.00  0.00     0.081 C 
ATOM     30  C   UNL     1      19.666  20.581  17.658  1.00  0.00     0.156 C 
ATOM     31  O   UNL     1      20.568  21.017  18.420  1.00  0.00    -0.295 OA
ENDBRANCH   9  11
ENDBRANCH   8   9
ENDBRANCH   1   8
TORSDOF 6
ENDMDL
MODEL 2
REMARK VINA RESULT:    -5.816      3.371      6.936
REMARK INTER + INTRA:          -9.431
REMARK INTER:                  -7.722
REMARK INTRA:                  -1.709
REMARK UNBOUND:                -1.576
REMARK SMILES CC[C@H](CC[C@@H](C)[C@@H]1CC[C@H]2[C@H]3CC(=O)C4=CC(=O)CC[C@]4(C)[C@H]3CC[C@]21C)C(C)C
REMARK SMILES IDX 4 1 3 2 2 3 1 4 29 5 30 6 31 7 5 8 6 9 7 10 8 11 9 12 27 13
REMARK SMILES IDX 10 14 11 15 26 16 28 17 12 18 25 19 24 20 13 21 22 22 14 23
REMARK SMILES IDX 16 24 21 25 23 26 15 27 17 28 20 29 18 30 19 31
REMARK H PARENT
REMARK Flexibility Score: inf
ROOT
ATOM      1  C   UNL     1       3.870  19.040  15.619  1.00  0.00     0.004 C 
ENDROOT
BRANCH   1   2
ATOM      2  C   UNL     1       3.900  20.555  15.253  1.00  0.00    -0.009 C 
BRANCH   2   3
ATOM      3  C   UNL     1       4.966  20.835  14.157  1.00  0.00     0.000 C 
ATOM      4  C   UNL     1       6.037  21.845  14.575  1.00  0.00     0.004 C 
ENDBRANCH   2   3
BRANCH   2   5
ATOM      5  C   UNL     1       2.477  21.100  14.879  1.00  0.00    -0.014 C 
ATOM      6  C   UNL     1       1.351  20.340  15.601  1.00  0.00     0.007 C 
ATOM      7  C   UNL     1       2.203  21.136  13.365  1.00  0.00     0.007 C 
ENDBRANCH   2   5
ENDBRANCH   1   2
BRANCH   1   8
ATOM      8  C   UNL     1       4.006  18.053  14.436  1.00  0.00     0.004 C 
BRANCH   8   9
ATOM      9  C   UNL     1       5.133  16.987  14.565  1.00  0.00    -0.011 C 
ATOM     10  C   UNL     1       4.625  15.598  14.120  1.00  0.00     0.008 C 
BRANCH   9  11
ATOM     11  C   UNL     1       6.434  17.472  13.816  1.00  0.00    -0.002 C 
ATOM     12  C   UNL     1       6.952  16.448  12.798  1.00  0.00     0.005 C 
ATOM     13  C   UNL     1       7.692  17.857  14.681  1.00  0.00    -0.026 C 
ATOM     14  C   UNL     1       8.188  15.790  13.401  1.00  0.00     0.005 C 
ATOM     15  C   UNL     1       8.571  16.573  14.673  1.00  0.00    -0.001 C 
ATOM     16  C   UNL     1       8.444  19.079  14.027  1.00  0.00     0.007 C 
ATOM     17  C   UNL     1       7.340  18.260  16.137  1.00  0.00     0.012 C 
ATOM     18  C   UNL     1      10.103  16.820  14.861  1.00  0.00     0.004 C 
ATOM     19  C   UNL     1       9.626  18.688  13.131  1.00  0.00     0.005 C 
ATOM     20  C   UNL     1      10.711  17.980  13.971  1.00  0.00     0.003 C 
ATOM     21  C   UNL     1      10.883  15.473  14.875  1.00  0.00     0.085 C 
ATOM     22  C   UNL     1      12.034  17.617  13.192  1.00  0.00    -0.000 C 
ATOM     23  C   UNL     1      12.368  15.657  14.817  1.00  0.00     0.159 C 
ATOM     24  C   UNL     1      12.929  16.862  14.182  1.00  0.00     0.005 C 
ATOM     25  C   UNL     1      12.772  18.883  12.624  1.00  0.00     0.020 C 
ATOM     26  C   UNL     1      11.753  16.710  11.965  1.00  0.00     0.017 C 
ATOM     27  O   UNL     1      13.125  14.776  15.310  1.00  0.00    -0.295 OA
ATOM     28  C   UNL     1      14.071  17.377  14.674  1.00  0.00     0.055 C 
ATOM     29  C   UNL     1      13.542  19.673  13.678  1.00  0.00     0.081 C 
ATOM     30  C   UNL     1      14.483  18.756  14.385  1.00  0.00     0.156 C 
ATOM     31  O   UNL     1      15.588  19.184  14.809  1.00  0.00    -0.295 OA
ENDBRANCH   9  11
ENDBRANCH   8   9
ENDBRANCH   1   8
TORSDOF 6
ENDMDL
MODEL 3
REMARK VINA RESULT:    -5.802      4.604      9.733
REMARK INTER + INTRA:          -9.413
REMARK INTER:                  -7.506
REMARK INTRA:                  -1.907
REMARK UNBOUND:                -1.576
REMARK SMILES CC[C@H](CC[C@@H](C)[C@@H]1CC[C@H]2[C@H]3CC(=O)C4=CC(=O)CC[C@]4(C)[C@H]3CC[C@]21C)C(C)C
REMARK SMILES IDX 4 1 3 2 2 3 1 4 29 5 30 6 31 7 5 8 6 9 7 10 8 11 9 12 27 13
REMARK SMILES IDX 10 14 11 15 26 16 28 17 12 18 25 19 24 20 13 21 22 22 14 23
REMARK SMILES IDX 16 24 21 25 23 26 15 27 17 28 20 29 18 30 19 31
REMARK H PARENT
REMARK Flexibility Score: inf
ROOT
ATOM      1  C   UNL     1      15.810  16.255  13.539  1.00  0.00     0.004 C 
ENDROOT
BRANCH   1   2
ATOM      2  C   UNL     1      15.178  15.183  14.477  1.00  0.00    -0.009 C 
BRANCH   2   3
ATOM      3  C   UNL     1      14.877  13.875  13.694  1.00  0.00     0.000 C 
ATOM      4  C   UNL     1      13.776  14.019  12.642  1.00  0.00     0.004 C 
ENDBRANCH   2   3
BRANCH   2   5
ATOM      5  C   UNL     1      16.040  14.944  15.766  1.00  0.00    -0.014 C 
ATOM      6  C   UNL     1      15.428  13.875  16.688  1.00  0.00     0.007 C 
ATOM      7  C   UNL     1      16.333  16.225  16.565  1.00  0.00     0.007 C 
ENDBRANCH   2   5
ENDBRANCH   1   2
BRANCH   1   8
ATOM      8  C   UNL     1      14.944  17.505  13.254  1.00  0.00     0.004 C 
BRANCH   8   9
ATOM      9  C   UNL     1      13.737  17.728  14.211  1.00  0.00    -0.011 C 
ATOM     10  C   UNL     1      13.837  19.105  14.905  1.00  0.00     0.008 C 
BRANCH   9  11
ATOM     11  C   UNL     1      12.379  17.484  13.447  1.00  0.00    -0.002 C 
ATOM     12  C   UNL     1      11.753  18.780  12.915  1.00  0.00     0.005 C 
ATOM     13  C   UNL     1      11.213  16.755  14.213  1.00  0.00    -0.026 C 
ATOM     14  C   UNL     1      10.570  19.118  13.814  1.00  0.00     0.005 C 
ATOM     15  C   UNL     1      10.319  17.912  14.742  1.00  0.00    -0.001 C 
ATOM     16  C   UNL     1      10.421  15.816  13.224  1.00  0.00     0.007 C 
ATOM     17  C   UNL     1      11.706  15.872  15.390  1.00  0.00     0.012 C 
ATOM     18  C   UNL     1       8.814  17.542  14.952  1.00  0.00     0.004 C 
ATOM     19  C   UNL     1       9.156  16.446  12.630  1.00  0.00     0.005 C 
ATOM     20  C   UNL     1       8.143  16.752  13.755  1.00  0.00     0.003 C 
ATOM     21  C   UNL     1       8.019  18.755  15.518  1.00  0.00     0.085 C 
ATOM     22  C   UNL     1       6.748  17.308  13.273  1.00  0.00    -0.000 C 
ATOM     23  C   UNL     1       6.538  18.534  15.519  1.00  0.00     0.159 C 
ATOM     24  C   UNL     1       5.938  17.613  14.538  1.00  0.00     0.005 C 
ATOM     25  C   UNL     1       5.979  16.298  12.346  1.00  0.00     0.020 C 
ATOM     26  C   UNL     1       6.900  18.608  12.439  1.00  0.00     0.017 C 
ATOM     27  O   UNL     1       5.818  19.142  16.357  1.00  0.00    -0.295 OA
ATOM     28  C   UNL     1       4.855  16.902  14.902  1.00  0.00     0.055 C 
ATOM     29  C   UNL     1       5.322  15.146  13.101  1.00  0.00     0.081 C 
ATOM     30  C   UNL     1       4.438  15.702  14.167  1.00  0.00     0.156 C 
ATOM     31  O   UNL     1       3.384  15.098  14.495  1.00  0.00    -0.295 OA
ENDBRANCH   9  11
ENDBRANCH   8   9
ENDBRANCH   1   8
TORSDOF 6
ENDMDL
MODEL 4
REMARK VINA RESULT:    -5.769      2.720      5.913
REMARK INTER + INTRA:          -9.369
REMARK INTER:                  -7.232
REMARK INTRA:                  -2.136
REMARK UNBOUND:                -1.576
REMARK SMILES CC[C@H](CC[C@@H](C)[C@@H]1CC[C@H]2[C@H]3CC(=O)C4=CC(=O)CC[C@]4(C)[C@H]3CC[C@]21C)C(C)C
REMARK SMILES IDX 4 1 3 2 2 3 1 4 29 5 30 6 31 7 5 8 6 9 7 10 8 11 9 12 27 13
REMARK SMILES IDX 10 14 11 15 26 16 28 17 12 18 25 19 24 20 13 21 22 22 14 23
REMARK SMILES IDX 16 24 21 25 23 26 15 27 17 28 20 29 18 30 19 31
REMARK H PARENT
REMARK Flexibility Score: inf
ROOT
ATOM      1  C   UNL     1       5.644  18.970  12.839  1.00  0.00     0.004 C 
ENDROOT
BRANCH   1   2
ATOM      2  C   UNL     1       5.264  20.138  13.798  1.00  0.00    -0.009 C 
BRANCH   2   3
ATOM      3  C   UNL     1       4.936  19.599  15.218  1.00  0.00     0.000 C 
ATOM      4  C   UNL     1       3.506  19.888  15.678  1.00  0.00     0.004 C 
ENDBRANCH   2   3
BRANCH   2   5
ATOM      5  C   UNL     1       6.348  21.272  13.806  1.00  0.00    -0.014 C 
ATOM      6  C   UNL     1       7.292  21.187  12.594  1.00  0.00     0.007 C 
ATOM      7  C   UNL     1       7.165  21.343  15.108  1.00  0.00     0.007 C 
ENDBRANCH   2   5
ENDBRANCH   1   2
BRANCH   1   8
ATOM      8  C   UNL     1       5.110  17.571  13.228  1.00  0.00     0.004 C 
BRANCH   8   9
ATOM      9  C   UNL     1       6.187  16.514  13.607  1.00  0.00    -0.011 C 
ATOM     10  C   UNL     1       5.824  15.131  13.022  1.00  0.00     0.008 C 
BRANCH   9  11
ATOM     11  C   UNL     1       7.625  17.028  13.210  1.00  0.00    -0.002 C 
ATOM     12  C   UNL     1       8.399  16.026  12.344  1.00  0.00     0.005 C 
ATOM     13  C   UNL     1       8.621  17.422  14.364  1.00  0.00    -0.026 C 
ATOM     14  C   UNL     1       9.458  15.380  13.230  1.00  0.00     0.005 C 
ATOM     15  C   UNL     1       9.497  16.153  14.564  1.00  0.00    -0.001 C 
ATOM     16  C   UNL     1       9.489  18.664  13.929  1.00  0.00     0.007 C 
ATOM     17  C   UNL     1       7.909  17.800  15.690  1.00  0.00     0.012 C 
ATOM     18  C   UNL     1      10.930  16.422  15.130  1.00  0.00     0.004 C 
ATOM     19  C   UNL     1      10.863  18.304  13.351  1.00  0.00     0.005 C 
ATOM     20  C   UNL     1      11.718  17.602  14.429  1.00  0.00     0.003 C 
ATOM     21  C   UNL     1      11.707  15.086  15.326  1.00  0.00     0.085 C 
ATOM     22  C   UNL     1      13.200  17.270  14.002  1.00  0.00    -0.000 C 
ATOM     23  C   UNL     1      13.156  15.295  15.642  1.00  0.00     0.159 C 
ATOM     24  C   UNL     1      13.835  16.517  15.176  1.00  0.00     0.005 C 
ATOM     25  C   UNL     1      14.032  18.555  13.646  1.00  0.00     0.020 C 
ATOM     26  C   UNL     1      13.250  16.375  12.735  1.00  0.00     0.017 C 
ATOM     27  O   UNL     1      13.782  14.419  16.300  1.00  0.00    -0.295 OA
ATOM     28  C   UNL     1      14.808  17.043  15.942  1.00  0.00     0.055 C 
ATOM     29  C   UNL     1      14.501  19.343  14.865  1.00  0.00     0.081 C 
ATOM     30  C   UNL     1      15.254  18.432  15.777  1.00  0.00     0.156 C 
ATOM     31  O   UNL     1      16.210  18.873  16.466  1.00  0.00    -0.295 OA
ENDBRANCH   9  11
ENDBRANCH   8   9
ENDBRANCH   1   8
TORSDOF 6
ENDMDL
MODEL 5
REMARK VINA RESULT:    -5.628      2.594      5.380
REMARK INTER + INTRA:          -9.178
REMARK INTER:                  -7.647
REMARK INTRA:                  -1.531
REMARK UNBOUND:                -1.576
REMARK SMILES CC[C@H](CC[C@@H](C)[C@@H]1CC[C@H]2[C@H]3CC(=O)C4=CC(=O)CC[C@]4(C)[C@H]3CC[C@]21C)C(C)C
REMARK SMILES IDX 4 1 3 2 2 3 1 4 29 5 30 6 31 7 5 8 6 9 7 10 8 11 9 12 27 13
REMARK SMILES IDX 10 14 11 15 26 16 28 17 12 18 25 19 24 20 13 21 22 22 14 23
REMARK SMILES IDX 16 24 21 25 23 26 15 27 17 28 20 29 18 30 19 31
REMARK H PARENT
REMARK Flexibility Score: inf
ROOT
ATOM      1  C   UNL     1       5.628  18.416  12.788  1.00  0.00     0.004 C 
ENDROOT
BRANCH   1   2
ATOM      2  C   UNL     1       5.928  19.045  14.182  1.00  0.00    -0.009 C 
BRANCH   2   3
ATOM      3  C   UNL     1       5.902  20.597  14.103  1.00  0.00     0.000 C 
ATOM      4  C   UNL     1       7.266  21.254  14.319  1.00  0.00     0.004 C 
ENDBRANCH   2   3
BRANCH   2   5
ATOM      5  C   UNL     1       4.993  18.470  15.303  1.00  0.00    -0.014 C 
ATOM      6  C   UNL     1       4.252  17.199  14.852  1.00  0.00     0.007 C 
ATOM      7  C   UNL     1       3.990  19.495  15.862  1.00  0.00     0.007 C 
ENDBRANCH   2   5
ENDBRANCH   1   2
BRANCH   1   8
ATOM      8  C   UNL     1       6.796  17.652  12.122  1.00  0.00     0.004 C 
BRANCH   8   9
ATOM      9  C   UNL     1       7.485  16.565  12.997  1.00  0.00    -0.011 C 
ATOM     10  C   UNL     1       6.754  15.211  12.863  1.00  0.00     0.008 C 
BRANCH   9  11
ATOM     11  C   UNL     1       9.029  16.502  12.680  1.00  0.00    -0.002 C 
ATOM     12  C   UNL     1       9.522  15.077  12.396  1.00  0.00     0.005 C 
ATOM     13  C   UNL     1      10.034  17.074  13.748  1.00  0.00    -0.026 C 
ATOM     14  C   UNL     1      10.298  14.610  13.622  1.00  0.00     0.005 C 
ATOM     15  C   UNL     1      10.490  15.824  14.554  1.00  0.00    -0.001 C 
ATOM     16  C   UNL     1      11.248  17.775  13.027  1.00  0.00     0.007 C 
ATOM     17  C   UNL     1       9.394  18.123  14.697  1.00  0.00     0.012 C 
ATOM     18  C   UNL     1      11.907  15.939  15.205  1.00  0.00     0.004 C 
ATOM     19  C   UNL     1      12.486  16.885  12.864  1.00  0.00     0.005 C 
ATOM     20  C   UNL     1      13.041  16.498  14.252  1.00  0.00     0.003 C 
ATOM     21  C   UNL     1      12.249  14.654  16.016  1.00  0.00     0.085 C 
ATOM     22  C   UNL     1      14.382  15.667  14.233  1.00  0.00    -0.000 C 
ATOM     23  C   UNL     1      13.677  14.610  16.465  1.00  0.00     0.159 C 
ATOM     24  C   UNL     1      14.706  15.327  15.693  1.00  0.00     0.005 C 
ATOM     25  C   UNL     1      15.571  16.446  13.563  1.00  0.00     0.020 C 
ATOM     26  C   UNL     1      14.236  14.351  13.424  1.00  0.00     0.017 C 
ATOM     27  O   UNL     1      13.986  13.954  17.498  1.00  0.00    -0.295 OA
ATOM     28  C   UNL     1      15.749  15.864  16.354  1.00  0.00     0.055 C 
ATOM     29  C   UNL     1      16.184  17.522  14.455  1.00  0.00     0.081 C 
ATOM     30  C   UNL     1      16.589  16.908  15.753  1.00  0.00     0.156 C 
ATOM     31  O   UNL     1      17.594  17.341  16.374  1.00  0.00    -0.295 OA
ENDBRANCH   9  11
ENDBRANCH   8   9
ENDBRANCH   1   8
TORSDOF 6
ENDMDL
MODEL 6
REMARK VINA RESULT:    -5.611      2.935      5.035
REMARK INTER + INTRA:          -9.155
REMARK INTER:                  -7.988
REMARK INTRA:                  -1.167
REMARK UNBOUND:                -1.576
REMARK SMILES CC[C@H](CC[C@@H](C)[C@@H]1CC[C@H]2[C@H]3CC(=O)C4=CC(=O)CC[C@]4(C)[C@H]3CC[C@]21C)C(C)C
REMARK SMILES IDX 4 1 3 2 2 3 1 4 29 5 30 6 31 7 5 8 6 9 7 10 8 11 9 12 27 13
REMARK SMILES IDX 10 14 11 15 26 16 28 17 12 18 25 19 24 20 13 21 22 22 14 23
REMARK SMILES IDX 16 24 21 25 23 26 15 27 17 28 20 29 18 30 19 31
REMARK H PARENT
REMARK Flexibility Score: inf
ROOT
ATOM      1  C   UNL     1       6.556  17.252  15.083  1.00  0.00     0.004 C 
ENDROOT
BRANCH   1   2
ATOM      2  C   UNL     1       5.184  17.964  15.274  1.00  0.00    -0.009 C 
BRANCH   2   3
ATOM      3  C   UNL     1       5.387  19.467  15.614  1.00  0.00     0.000 C 
ATOM      4  C   UNL     1       6.841  19.934  15.521  1.00  0.00     0.004 C 
ENDBRANCH   2   3
BRANCH   2   5
ATOM      5  C   UNL     1       4.223  17.734  14.056  1.00  0.00    -0.014 C 
ATOM      6  C   UNL     1       3.273  18.923  13.827  1.00  0.00     0.007 C 
ATOM      7  C   UNL     1       3.420  16.424  14.135  1.00  0.00     0.007 C 
ENDBRANCH   2   5
ENDBRANCH   1   2
BRANCH   1   8
ATOM      8  C   UNL     1       6.853  16.722  13.660  1.00  0.00     0.004 C 
BRANCH   8   9
ATOM      9  C   UNL     1       8.286  16.994  13.118  1.00  0.00    -0.011 C 
ATOM     10  C   UNL     1       8.385  18.416  12.523  1.00  0.00     0.008 C 
BRANCH   9  11
ATOM     11  C   UNL     1       9.361  16.679  14.228  1.00  0.00    -0.002 C 
ATOM     12  C   UNL     1       9.867  17.940  14.942  1.00  0.00     0.005 C 
ATOM     13  C   UNL     1      10.664  15.901  13.807  1.00  0.00    -0.026 C 
ATOM     14  C   UNL     1      11.270  18.228  14.420  1.00  0.00     0.005 C 
ATOM     15  C   UNL     1      11.720  17.019  13.575  1.00  0.00    -0.001 C 
ATOM     16  C   UNL     1      11.102  14.918  14.958  1.00  0.00     0.007 C 
ATOM     17  C   UNL     1      10.485  15.052  12.520  1.00  0.00     0.012 C 
ATOM     18  C   UNL     1      13.205  16.579  13.789  1.00  0.00     0.004 C 
ATOM     19  C   UNL     1      12.175  15.482  15.898  1.00  0.00     0.005 C 
ATOM     20  C   UNL     1      13.476  15.749  15.109  1.00  0.00     0.003 C 
ATOM     21  C   UNL     1      14.179  17.758  13.496  1.00  0.00     0.085 C 
ATOM     22  C   UNL     1      14.701  16.234  15.977  1.00  0.00    -0.000 C 
ATOM     23  C   UNL     1      15.589  17.466  13.907  1.00  0.00     0.159 C 
ATOM     24  C   UNL     1      15.848  16.510  14.998  1.00  0.00     0.005 C 
ATOM     25  C   UNL     1      15.133  15.181  17.062  1.00  0.00     0.020 C 
ATOM     26  C   UNL     1      14.377  17.533  16.762  1.00  0.00     0.017 C 
ATOM     27  O   UNL     1      16.543  18.046  13.319  1.00  0.00    -0.295 OA
ATOM     28  C   UNL     1      16.958  15.751  14.939  1.00  0.00     0.055 C 
ATOM     29  C   UNL     1      15.925  14.005  16.498  1.00  0.00     0.081 C 
ATOM     30  C   UNL     1      17.098  14.526  15.736  1.00  0.00     0.156 C 
ATOM     31  O   UNL     1      18.174  13.875  15.705  1.00  0.00    -0.295 OA
ENDBRANCH   9  11
ENDBRANCH   8   9
ENDBRANCH   1   8
TORSDOF 6
ENDMDL
MODEL 7
REMARK VINA RESULT:    -5.361      3.452      7.836
REMARK INTER + INTRA:          -8.817
REMARK INTER:                  -7.643
REMARK INTRA:                  -1.174
REMARK UNBOUND:                -1.576
REMARK SMILES CC[C@H](CC[C@@H](C)[C@@H]1CC[C@H]2[C@H]3CC(=O)C4=CC(=O)CC[C@]4(C)[C@H]3CC[C@]21C)C(C)C
REMARK SMILES IDX 4 1 3 2 2 3 1 4 29 5 30 6 31 7 5 8 6 9 7 10 8 11 9 12 27 13
REMARK SMILES IDX 10 14 11 15 26 16 28 17 12 18 25 19 24 20 13 21 22 22 14 23
REMARK SMILES IDX 16 24 21 25 23 26 15 27 17 28 20 29 18 30 19 31
REMARK H PARENT
REMARK Flexibility Score: inf
ROOT
ATOM      1  C   UNL     1      16.716  16.433  15.383  1.00  0.00     0.004 C 
ENDROOT
BRANCH   1   2
ATOM      2  C   UNL     1      16.977  17.879  14.865  1.00  0.00    -0.009 C 
BRANCH   2   3
ATOM      3  C   UNL     1      16.642  17.989  13.351  1.00  0.00     0.000 C 
ATOM      4  C   UNL     1      15.738  19.172  12.998  1.00  0.00     0.004 C 
ENDBRANCH   2   3
BRANCH   2   5
ATOM      5  C   UNL     1      16.246  18.960  15.735  1.00  0.00    -0.014 C 
ATOM      6  C   UNL     1      17.232  19.909  16.438  1.00  0.00     0.007 C 
ATOM      7  C   UNL     1      15.260  18.371  16.759  1.00  0.00     0.007 C 
ENDBRANCH   2   5
ENDBRANCH   1   2
BRANCH   1   8
ATOM      8  C   UNL     1      16.377  15.376  14.305  1.00  0.00     0.004 C 
BRANCH   8   9
ATOM      9  C   UNL     1      15.580  14.133  14.797  1.00  0.00    -0.011 C 
ATOM     10  C   UNL     1      15.810  13.899  16.307  1.00  0.00     0.008 C 
BRANCH   9  11
ATOM     11  C   UNL     1      14.063  14.256  14.385  1.00  0.00    -0.002 C 
ATOM     12  C   UNL     1      13.873  14.830  12.974  1.00  0.00     0.005 C 
ATOM     13  C   UNL     1      13.107  15.108  15.301  1.00  0.00    -0.026 C 
ATOM     14  C   UNL     1      13.397  16.270  13.128  1.00  0.00     0.005 C 
ATOM     15  C   UNL     1      13.060  16.504  14.615  1.00  0.00    -0.001 C 
ATOM     16  C   UNL     1      11.680  14.443  15.361  1.00  0.00     0.007 C 
ATOM     17  C   UNL     1      13.613  15.243  16.762  1.00  0.00     0.012 C 
ATOM     18  C   UNL     1      11.756  17.325  14.876  1.00  0.00     0.004 C 
ATOM     19  C   UNL     1      10.666  15.030  14.371  1.00  0.00     0.005 C 
ATOM     20  C   UNL     1      10.406  16.515  14.704  1.00  0.00     0.003 C 
ATOM     21  C   UNL     1      11.827  18.715  14.178  1.00  0.00     0.085 C 
ATOM     22  C   UNL     1       9.300  17.218  13.827  1.00  0.00    -0.000 C 
ATOM     23  C   UNL     1      10.521  19.446  14.197  1.00  0.00     0.159 C 
ATOM     24  C   UNL     1       9.261  18.686  14.267  1.00  0.00     0.005 C 
ATOM     25  C   UNL     1       7.885  16.550  13.982  1.00  0.00     0.020 C 
ATOM     26  C   UNL     1       9.630  17.148  12.312  1.00  0.00     0.017 C 
ATOM     27  O   UNL     1      10.512  20.707  14.149  1.00  0.00    -0.295 OA
ATOM     28  C   UNL     1       8.222  19.222  14.935  1.00  0.00     0.055 C 
ATOM     29  C   UNL     1       7.170  16.916  15.279  1.00  0.00     0.081 C 
ATOM     30  C   UNL     1       7.094  18.402  15.393  1.00  0.00     0.156 C 
ATOM     31  O   UNL     1       6.110  18.946  15.958  1.00  0.00    -0.295 OA
ENDBRANCH   9  11
ENDBRANCH   8   9
ENDBRANCH   1   8
TORSDOF 6
ENDMDL
MODEL 8
REMARK VINA RESULT:    -5.150      2.028      3.732
REMARK INTER + INTRA:          -8.533
REMARK INTER:                  -6.417
REMARK INTRA:                  -2.116
REMARK UNBOUND:                -1.576
REMARK SMILES CC[C@H](CC[C@@H](C)[C@@H]1CC[C@H]2[C@H]3CC(=O)C4=CC(=O)CC[C@]4(C)[C@H]3CC[C@]21C)C(C)C
REMARK SMILES IDX 4 1 3 2 2 3 1 4 29 5 30 6 31 7 5 8 6 9 7 10 8 11 9 12 27 13
REMARK SMILES IDX 10 14 11 15 26 16 28 17 12 18 25 19 24 20 13 21 22 22 14 23
REMARK SMILES IDX 16 24 21 25 23 26 15 27 17 28 20 29 18 30 19 31
REMARK H PARENT
REMARK Flexibility Score: inf
ROOT
ATOM      1  C   UNL     1      12.532  14.758  14.526  1.00  0.00     0.004 C 
ENDROOT
BRANCH   1   2
ATOM      2  C   UNL     1      11.415  15.462  13.698  1.00  0.00    -0.009 C 
BRANCH   2   3
ATOM      3  C   UNL     1      10.715  16.562  14.543  1.00  0.00     0.000 C 
ATOM      4  C   UNL     1       9.189  16.458  14.557  1.00  0.00     0.004 C 
ENDBRANCH   2   3
BRANCH   2   5
ATOM      5  C   UNL     1      11.946  15.991  12.319  1.00  0.00    -0.014 C 
ATOM      6  C   UNL     1      13.371  15.499  12.014  1.00  0.00     0.007 C 
ATOM      7  C   UNL     1      11.871  17.520  12.170  1.00  0.00     0.007 C 
ENDBRANCH   2   5
ENDBRANCH   1   2
BRANCH   1   8
ATOM      8  C   UNL     1      12.497  14.996  16.054  1.00  0.00     0.004 C 
BRANCH   8   9
ATOM      9  C   UNL     1      13.831  15.470  16.700  1.00  0.00    -0.011 C 
ATOM     10  C   UNL     1      14.489  14.323  17.498  1.00  0.00     0.008 C 
BRANCH   9  11
ATOM     11  C   UNL     1      14.767  16.121  15.609  1.00  0.00    -0.002 C 
ATOM     12  C   UNL     1      16.242  15.736  15.783  1.00  0.00     0.005 C 
ATOM     13  C   UNL     1      14.770  17.689  15.469  1.00  0.00    -0.026 C 
ATOM     14  C   UNL     1      16.965  16.949  16.359  1.00  0.00     0.005 C 
ATOM     15  C   UNL     1      15.996  18.147  16.311  1.00  0.00    -0.001 C 
ATOM     16  C   UNL     1      14.923  18.096  13.954  1.00  0.00     0.007 C 
ATOM     17  C   UNL     1      13.473  18.358  15.997  1.00  0.00     0.012 C 
ATOM     18  C   UNL     1      16.638  19.499  15.861  1.00  0.00     0.004 C 
ATOM     19  C   UNL     1      16.361  18.413  13.526  1.00  0.00     0.005 C 
ATOM     20  C   UNL     1      16.881  19.642  14.303  1.00  0.00     0.003 C 
ATOM     21  C   UNL     1      17.828  19.883  16.789  1.00  0.00     0.085 C 
ATOM     22  C   UNL     1      18.317  20.145  13.883  1.00  0.00    -0.000 C 
ATOM     23  C   UNL     1      18.624  21.040  16.270  1.00  0.00     0.159 C 
ATOM     24  C   UNL     1      18.664  21.306  14.822  1.00  0.00     0.005 C 
ATOM     25  C   UNL     1      18.386  20.599  12.380  1.00  0.00     0.020 C 
ATOM     26  C   UNL     1      19.387  19.031  14.032  1.00  0.00     0.017 C 
ATOM     27  O   UNL     1      19.258  21.773  17.078  1.00  0.00    -0.295 OA
ATOM     28  C   UNL     1      18.750  22.583  14.404  1.00  0.00     0.055 C 
ATOM     29  C   UNL     1      17.768  21.971  12.122  1.00  0.00     0.081 C 
ATOM     30  C   UNL     1      18.400  22.971  13.032  1.00  0.00     0.156 C 
ATOM     31  O   UNL     1      18.553  24.162  12.657  1.00  0.00    -0.295 OA
ENDBRANCH   9  11
ENDBRANCH   8   9
ENDBRANCH   1   8
TORSDOF 6
ENDMDL
MODEL 9
REMARK VINA RESULT:    -5.150      4.141      7.097
REMARK INTER + INTRA:          -8.532
REMARK INTER:                  -6.691
REMARK INTRA:                  -1.841
REMARK UNBOUND:                -1.576
REMARK SMILES CC[C@H](CC[C@@H](C)[C@@H]1CC[C@H]2[C@H]3CC(=O)C4=CC(=O)CC[C@]4(C)[C@H]3CC[C@]21C)C(C)C
REMARK SMILES IDX 4 1 3 2 2 3 1 4 29 5 30 6 31 7 5 8 6 9 7 10 8 11 9 12 27 13
REMARK SMILES IDX 10 14 11 15 26 16 28 17 12 18 25 19 24 20 13 21 22 22 14 23
REMARK SMILES IDX 16 24 21 25 23 26 15 27 17 28 20 29 18 30 19 31
REMARK H PARENT
REMARK Flexibility Score: inf
ROOT
ATOM      1  C   UNL     1       4.828  18.538  15.626  1.00  0.00     0.004 C 
ENDROOT
BRANCH   1   2
ATOM      2  C   UNL     1       3.594  18.095  14.784  1.00  0.00    -0.009 C 
BRANCH   2   3
ATOM      3  C   UNL     1       2.907  19.325  14.127  1.00  0.00     0.000 C 
ATOM      4  C   UNL     1       1.684  19.836  14.892  1.00  0.00     0.004 C 
ENDBRANCH   2   3
BRANCH   2   5
ATOM      5  C   UNL     1       3.956  16.970  13.752  1.00  0.00    -0.014 C 
ATOM      6  C   UNL     1       5.156  16.123  14.208  1.00  0.00     0.007 C 
ATOM      7  C   UNL     1       4.188  17.488  12.322  1.00  0.00     0.007 C 
ENDBRANCH   2   5
ENDBRANCH   1   2
BRANCH   1   8
ATOM      8  C   UNL     1       5.342  19.975  15.372  1.00  0.00     0.004 C 
BRANCH   8   9
ATOM      9  C   UNL     1       6.594  20.098  14.456  1.00  0.00    -0.011 C 
ATOM     10  C   UNL     1       7.090  21.560  14.401  1.00  0.00     0.008 C 
BRANCH   9  11
ATOM     11  C   UNL     1       7.696  19.057  14.892  1.00  0.00    -0.002 C 
ATOM     12  C   UNL     1       8.772  19.670  15.799  1.00  0.00     0.005 C 
ATOM     13  C   UNL     1       8.498  18.303  13.765  1.00  0.00    -0.026 C 
ATOM     14  C   UNL     1      10.031  19.847  14.958  1.00  0.00     0.005 C 
ATOM     15  C   UNL     1       9.811  19.124  13.614  1.00  0.00    -0.001 C 
ATOM     16  C   UNL     1       8.788  16.819  14.208  1.00  0.00     0.007 C 
ATOM     17  C   UNL     1       7.743  18.239  12.410  1.00  0.00     0.012 C 
ATOM     18  C   UNL     1      11.040  18.312  13.091  1.00  0.00     0.004 C 
ATOM     19  C   UNL     1      10.171  16.606  14.836  1.00  0.00     0.005 C 
ATOM     20  C   UNL     1      11.272  16.914  13.798  1.00  0.00     0.003 C 
ATOM     21  C   UNL     1      12.288  19.232  12.941  1.00  0.00     0.085 C 
ATOM     22  C   UNL     1      12.749  16.634  14.279  1.00  0.00    -0.000 C 
ATOM     23  C   UNL     1      13.547  18.469  12.670  1.00  0.00     0.159 C 
ATOM     24  C   UNL     1      13.671  17.077  13.138  1.00  0.00     0.005 C 
ATOM     25  C   UNL     1      12.993  15.124  14.642  1.00  0.00     0.020 C 
ATOM     26  C   UNL     1      13.102  17.434  15.561  1.00  0.00     0.017 C 
ATOM     27  O   UNL     1      14.492  19.026  12.047  1.00  0.00    -0.295 OA
ATOM     28  C   UNL     1      14.385  16.210  12.396  1.00  0.00     0.055 C 
ATOM     29  C   UNL     1      13.156  14.217  13.426  1.00  0.00     0.081 C 
ATOM     30  C   UNL     1      14.240  14.758  12.554  1.00  0.00     0.156 C 
ATOM     31  O   UNL     1      14.969  13.977  11.889  1.00  0.00    -0.295 OA
ENDBRANCH   9  11
ENDBRANCH   8   9
ENDBRANCH   1   8
TORSDOF 6
ENDMDL
