MODEL 1
REMARK VINA RESULT:    -6.364      0.000      0.000
REMARK INTER + INTRA:          -6.984
REMARK INTER:                  -6.736
REMARK INTRA:                  -0.248
REMARK UNBOUND:                -0.248
REMARK SMILES O=c1cc(-c2ccccc2)oc2ccccc12
REMARK SMILES IDX 4 1 3 2 2 3 1 4 17 5 16 6 15 7 14 8 13 9 12 10 11 11 5 12
REMARK SMILES IDX 8 13 7 14 9 15 6 16 10 17
REMARK H PARENT
REMARK Flexibility Score: inf
ROOT
ATOM      1  C   UNL     1      14.913  55.517  34.214  1.00  0.00     0.138 A 
ATOM      2  C   UNL     1      15.446  55.081  32.983  1.00  0.00     0.100 A 
ATOM      3  C   UNL     1      16.002  56.012  32.104  1.00  0.00     0.193 A 
ATOM      4  O   UNL     1      16.478  55.623  31.003  1.00  0.00    -0.289 OA
ATOM      5  C   UNL     1      16.021  57.368  32.458  1.00  0.00     0.065 A 
ATOM      6  C   UNL     1      16.565  58.358  31.618  1.00  0.00     0.016 A 
ATOM      7  C   UNL     1      16.559  59.698  32.021  1.00  0.00     0.001 A 
ATOM      8  C   UNL     1      16.013  60.059  33.256  1.00  0.00     0.004 A 
ATOM      9  C   UNL     1      15.471  59.082  34.097  1.00  0.00     0.048 A 
ATOM     10  C   UNL     1      15.471  57.739  33.704  1.00  0.00     0.138 A 
ATOM     11  O   UNL     1      14.954  56.818  34.509  1.00  0.00    -0.456 OA
ENDROOT
BRANCH   1  12
ATOM     12  C   UNL     1      14.301  54.586  35.211  1.00  0.00     0.017 A 
ATOM     13  C   UNL     1      13.073  52.895  37.109  1.00  0.00     0.000 A 
ATOM     14  C   UNL     1      12.507  54.134  36.808  1.00  0.00     0.001 A 
ATOM     15  C   UNL     1      14.245  52.493  36.471  1.00  0.00     0.001 A 
ATOM     16  C   UNL     1      13.113  54.973  35.869  1.00  0.00     0.012 A 
ATOM     17  C   UNL     1      14.858  53.327  35.530  1.00  0.00     0.012 A 
ENDBRANCH   1  12
TORSDOF 1
ENDMDL
MODEL 2
REMARK VINA RESULT:    -6.279      1.456      6.176
REMARK INTER + INTRA:          -6.894
REMARK INTER:                  -6.638
REMARK INTRA:                  -0.256
REMARK UNBOUND:                -0.248
REMARK SMILES O=c1cc(-c2ccccc2)oc2ccccc12
REMARK SMILES IDX 4 1 3 2 2 3 1 4 17 5 16 6 15 7 14 8 13 9 12 10 11 11 5 12
REMARK SMILES IDX 8 13 7 14 9 15 6 16 10 17
REMARK H PARENT
REMARK Flexibility Score: inf
ROOT
ATOM      1  C   UNL     1      14.370  56.853  34.396  1.00  0.00     0.138 A 
ATOM      2  C   UNL     1      12.985  57.112  34.474  1.00  0.00     0.100 A 
ATOM      3  C   UNL     1      12.153  56.211  35.139  1.00  0.00     0.193 A 
ATOM      4  O   UNL     1      10.915  56.441  35.209  1.00  0.00    -0.289 OA
ATOM      5  C   UNL     1      12.705  55.061  35.721  1.00  0.00     0.065 A 
ATOM      6  C   UNL     1      11.923  54.113  36.405  1.00  0.00     0.016 A 
ATOM      7  C   UNL     1      12.526  52.982  36.967  1.00  0.00     0.001 A 
ATOM      8  C   UNL     1      13.905  52.790  36.851  1.00  0.00     0.004 A 
ATOM      9  C   UNL     1      14.690  53.728  36.173  1.00  0.00     0.048 A 
ATOM     10  C   UNL     1      14.097  54.861  35.607  1.00  0.00     0.138 A 
ATOM     11  O   UNL     1      14.852  55.747  34.964  1.00  0.00    -0.456 OA
ENDROOT
BRANCH   1  12
ATOM     12  C   UNL     1      15.330  57.766  33.703  1.00  0.00     0.017 A 
ATOM     13  C   UNL     1      17.084  59.567  32.416  1.00  0.00     0.000 A 
ATOM     14  C   UNL     1      15.919  60.039  33.022  1.00  0.00     0.001 A 
ATOM     15  C   UNL     1      17.381  58.205  32.448  1.00  0.00     0.001 A 
ATOM     16  C   UNL     1      15.050  59.149  33.660  1.00  0.00     0.012 A 
ATOM     17  C   UNL     1      16.515  57.308  33.083  1.00  0.00     0.012 A 
ENDBRANCH   1  12
TORSDOF 1
ENDMDL
MODEL 3
REMARK VINA RESULT:    -5.990      1.371      2.153
REMARK INTER + INTRA:          -6.588
REMARK INTER:                  -6.327
REMARK INTRA:                  -0.261
REMARK UNBOUND:                -0.248
REMARK SMILES O=c1cc(-c2ccccc2)oc2ccccc12
REMARK SMILES IDX 4 1 3 2 2 3 1 4 17 5 16 6 15 7 14 8 13 9 12 10 11 11 5 12
REMARK SMILES IDX 8 13 7 14 9 15 6 16 10 17
REMARK H PARENT
REMARK Flexibility Score: inf
ROOT
ATOM      1  C   UNL     1      14.115  56.059  34.673  1.00  0.00     0.138 A 
ATOM      2  C   UNL     1      13.067  56.955  34.374  1.00  0.00     0.100 A 
ATOM      3  C   UNL     1      13.331  58.092  33.608  1.00  0.00     0.193 A 
ATOM      4  O   UNL     1      12.395  58.893  33.341  1.00  0.00    -0.289 OA
ATOM      5  C   UNL     1      14.634  58.327  33.149  1.00  0.00     0.065 A 
ATOM      6  C   UNL     1      14.968  59.453  32.374  1.00  0.00     0.016 A 
ATOM      7  C   UNL     1      16.285  59.639  31.941  1.00  0.00     0.001 A 
ATOM      8  C   UNL     1      17.274  58.709  32.275  1.00  0.00     0.004 A 
ATOM      9  C   UNL     1      16.951  57.587  33.045  1.00  0.00     0.048 A 
ATOM     10  C   UNL     1      15.637  57.392  33.484  1.00  0.00     0.138 A 
ATOM     11  O   UNL     1      15.340  56.322  34.214  1.00  0.00    -0.456 OA
ENDROOT
BRANCH   1  12
ATOM     12  C   UNL     1      13.917  54.819  35.485  1.00  0.00     0.017 A 
ATOM     13  C   UNL     1      13.462  52.518  37.058  1.00  0.00     0.000 A 
ATOM     14  C   UNL     1      12.573  53.592  37.117  1.00  0.00     0.001 A 
ATOM     15  C   UNL     1      14.576  52.583  36.221  1.00  0.00     0.001 A 
ATOM     16  C   UNL     1      12.796  54.732  36.339  1.00  0.00     0.012 A 
ATOM     17  C   UNL     1      14.806  53.721  35.440  1.00  0.00     0.012 A 
ENDBRANCH   1  12
TORSDOF 1
ENDMDL
MODEL 4
REMARK VINA RESULT:    -5.870      1.365      5.703
REMARK INTER + INTRA:          -6.461
REMARK INTER:                  -6.239
REMARK INTRA:                  -0.222
REMARK UNBOUND:                -0.248
REMARK SMILES O=c1cc(-c2ccccc2)oc2ccccc12
REMARK SMILES IDX 4 1 3 2 2 3 1 4 17 5 16 6 15 7 14 8 13 9 12 10 11 11 5 12
REMARK SMILES IDX 8 13 7 14 9 15 6 16 10 17
REMARK H PARENT
REMARK Flexibility Score: inf
ROOT
ATOM      1  C   UNL     1      15.484  56.875  33.519  1.00  0.00     0.138 A 
ATOM      2  C   UNL     1      15.523  56.165  32.300  1.00  0.00     0.100 A 
ATOM      3  C   UNL     1      15.310  54.786  32.300  1.00  0.00     0.193 A 
ATOM      4  O   UNL     1      15.345  54.150  31.211  1.00  0.00    -0.289 OA
ATOM      5  C   UNL     1      15.061  54.126  33.511  1.00  0.00     0.065 A 
ATOM      6  C   UNL     1      14.838  52.738  33.581  1.00  0.00     0.016 A 
ATOM      7  C   UNL     1      14.594  52.130  34.817  1.00  0.00     0.001 A 
ATOM      8  C   UNL     1      14.570  52.896  35.986  1.00  0.00     0.004 A 
ATOM      9  C   UNL     1      14.790  54.276  35.925  1.00  0.00     0.048 A 
ATOM     10  C   UNL     1      15.036  54.894  34.694  1.00  0.00     0.138 A 
ATOM     11  O   UNL     1      15.243  56.206  34.647  1.00  0.00    -0.456 OA
ENDROOT
BRANCH   1  12
ATOM     12  C   UNL     1      15.702  58.352  33.607  1.00  0.00     0.017 A 
ATOM     13  C   UNL     1      16.210  61.125  33.763  1.00  0.00     0.000 A 
ATOM     14  C   UNL     1      17.267  60.229  33.597  1.00  0.00     0.001 A 
ATOM     15  C   UNL     1      14.902  60.648  33.852  1.00  0.00     0.001 A 
ATOM     16  C   UNL     1      17.017  58.856  33.519  1.00  0.00     0.012 A 
ATOM     17  C   UNL     1      14.645  59.275  33.776  1.00  0.00     0.012 A 
ENDBRANCH   1  12
TORSDOF 1
ENDMDL
MODEL 5
REMARK VINA RESULT:    -5.748      1.474      5.926
REMARK INTER + INTRA:          -6.332
REMARK INTER:                  -6.100
REMARK INTRA:                  -0.232
REMARK UNBOUND:                -0.248
REMARK SMILES O=c1cc(-c2ccccc2)oc2ccccc12
REMARK SMILES IDX 4 1 3 2 2 3 1 4 17 5 16 6 15 7 14 8 13 9 12 10 11 11 5 12
REMARK SMILES IDX 8 13 7 14 9 15 6 16 10 17
REMARK H PARENT
REMARK Flexibility Score: inf
ROOT
ATOM      1  C   UNL     1      15.012  56.042  33.754  1.00  0.00     0.138 A 
ATOM      2  C   UNL     1      15.740  54.838  33.649  1.00  0.00     0.100 A 
ATOM      3  C   UNL     1      15.385  53.747  34.444  1.00  0.00     0.193 A 
ATOM      4  O   UNL     1      16.036  52.670  34.351  1.00  0.00    -0.289 OA
ATOM      5  C   UNL     1      14.310  53.864  35.335  1.00  0.00     0.065 A 
ATOM      6  C   UNL     1      13.900  52.803  36.165  1.00  0.00     0.016 A 
ATOM      7  C   UNL     1      12.820  52.975  37.037  1.00  0.00     0.001 A 
ATOM      8  C   UNL     1      12.144  54.197  37.089  1.00  0.00     0.004 A 
ATOM      9  C   UNL     1      12.544  55.255  36.267  1.00  0.00     0.048 A 
ATOM     10  C   UNL     1      13.624  55.095  35.392  1.00  0.00     0.138 A 
ATOM     11  O   UNL     1      13.996  56.108  34.616  1.00  0.00    -0.456 OA
ENDROOT
BRANCH   1  12
ATOM     12  C   UNL     1      15.327  57.256  32.939  1.00  0.00     0.017 A 
ATOM     13  C   UNL     1      16.011  59.550  31.443  1.00  0.00     0.000 A 
ATOM     14  C   UNL     1      16.940  58.983  32.317  1.00  0.00     0.001 A 
ATOM     15  C   UNL     1      14.745  58.981  31.309  1.00  0.00     0.001 A 
ATOM     16  C   UNL     1      16.603  57.848  33.058  1.00  0.00     0.012 A 
ATOM     17  C   UNL     1      14.401  57.845  32.049  1.00  0.00     0.012 A 
ENDBRANCH   1  12
TORSDOF 1
ENDMDL
MODEL 6
REMARK VINA RESULT:    -5.716      7.658      8.949
REMARK INTER + INTRA:          -6.298
REMARK INTER:                  -6.045
REMARK INTRA:                  -0.253
REMARK UNBOUND:                -0.248
REMARK SMILES O=c1cc(-c2ccccc2)oc2ccccc12
REMARK SMILES IDX 4 1 3 2 2 3 1 4 17 5 16 6 15 7 14 8 13 9 12 10 11 11 5 12
REMARK SMILES IDX 8 13 7 14 9 15 6 16 10 17
REMARK H PARENT
REMARK Flexibility Score: inf
ROOT
ATOM      1  C   UNL     1      14.214  47.031  32.751  1.00  0.00     0.138 A 
ATOM      2  C   UNL     1      15.356  46.285  32.393  1.00  0.00     0.100 A 
ATOM      3  C   UNL     1      16.249  46.801  31.452  1.00  0.00     0.193 A 
ATOM      4  O   UNL     1      17.270  46.134  31.131  1.00  0.00    -0.289 OA
ATOM      5  C   UNL     1      15.996  48.054  30.876  1.00  0.00     0.065 A 
ATOM      6  C   UNL     1      16.854  48.631  29.921  1.00  0.00     0.016 A 
ATOM      7  C   UNL     1      16.554  49.885  29.378  1.00  0.00     0.001 A 
ATOM      8  C   UNL     1      15.403  50.569  29.780  1.00  0.00     0.004 A 
ATOM      9  C   UNL     1      14.546  50.002  30.728  1.00  0.00     0.048 A 
ATOM     10  C   UNL     1      14.836  48.749  31.277  1.00  0.00     0.138 A 
ATOM     11  O   UNL     1      14.014  48.219  32.178  1.00  0.00    -0.456 OA
ENDROOT
BRANCH   1  12
ATOM     12  C   UNL     1      13.210  46.552  33.750  1.00  0.00     0.017 A 
ATOM     13  C   UNL     1      11.242  45.691  35.582  1.00  0.00     0.000 A 
ATOM     14  C   UNL     1      10.875  46.443  34.465  1.00  0.00     0.001 A 
ATOM     15  C   UNL     1      12.581  45.365  35.792  1.00  0.00     0.001 A 
ATOM     16  C   UNL     1      11.848  46.869  33.557  1.00  0.00     0.012 A 
ATOM     17  C   UNL     1      13.561  45.790  34.887  1.00  0.00     0.012 A 
ENDBRANCH   1  12
TORSDOF 1
ENDMDL
MODEL 7
REMARK VINA RESULT:    -5.530      1.558      2.706
REMARK INTER + INTRA:          -6.101
REMARK INTER:                  -5.870
REMARK INTRA:                  -0.231
REMARK UNBOUND:                -0.248
REMARK SMILES O=c1cc(-c2ccccc2)oc2ccccc12
REMARK SMILES IDX 4 1 3 2 2 3 1 4 17 5 16 6 15 7 14 8 13 9 12 10 11 11 5 12
REMARK SMILES IDX 8 13 7 14 9 15 6 16 10 17
REMARK H PARENT
REMARK Flexibility Score: inf
ROOT
ATOM      1  C   UNL     1      14.474  55.350  34.013  1.00  0.00     0.138 A 
ATOM      2  C   UNL     1      14.948  56.663  34.211  1.00  0.00     0.100 A 
ATOM      3  C   UNL     1      15.387  57.409  33.115  1.00  0.00     0.193 A 
ATOM      4  O   UNL     1      15.812  58.583  33.291  1.00  0.00    -0.289 OA
ATOM      5  C   UNL     1      15.350  56.841  31.834  1.00  0.00     0.065 A 
ATOM      6  C   UNL     1      15.777  57.536  30.688  1.00  0.00     0.016 A 
ATOM      7  C   UNL     1      15.719  56.921  29.434  1.00  0.00     0.001 A 
ATOM      8  C   UNL     1      15.236  55.615  29.312  1.00  0.00     0.004 A 
ATOM      9  C   UNL     1      14.809  54.916  30.446  1.00  0.00     0.048 A 
ATOM     10  C   UNL     1      14.864  55.522  31.706  1.00  0.00     0.138 A 
ATOM     11  O   UNL     1      14.456  54.850  32.777  1.00  0.00    -0.456 OA
ENDROOT
BRANCH   1  12
ATOM     12  C   UNL     1      13.986  54.485  35.131  1.00  0.00     0.017 A 
ATOM     13  C   UNL     1      12.992  52.918  37.260  1.00  0.00     0.000 A 
ATOM     14  C   UNL     1      12.368  54.121  36.927  1.00  0.00     0.001 A 
ATOM     15  C   UNL     1      14.107  52.491  36.540  1.00  0.00     0.001 A 
ATOM     16  C   UNL     1      12.858  54.898  35.874  1.00  0.00     0.012 A 
ATOM     17  C   UNL     1      14.604  53.264  35.484  1.00  0.00     0.012 A 
ENDBRANCH   1  12
TORSDOF 1
ENDMDL
MODEL 8
REMARK VINA RESULT:    -5.460      9.729     11.341
REMARK INTER + INTRA:          -6.027
REMARK INTER:                  -5.805
REMARK INTRA:                  -0.222
REMARK UNBOUND:                -0.248
REMARK SMILES O=c1cc(-c2ccccc2)oc2ccccc12
REMARK SMILES IDX 4 1 3 2 2 3 1 4 17 5 16 6 15 7 14 8 13 9 12 10 11 11 5 12
REMARK SMILES IDX 8 13 7 14 9 15 6 16 10 17
REMARK H PARENT
REMARK Flexibility Score: inf
ROOT
ATOM      1  C   UNL     1      14.587  45.809  32.511  1.00  0.00     0.138 A 
ATOM      2  C   UNL     1      15.415  46.916  32.233  1.00  0.00     0.100 A 
ATOM      3  C   UNL     1      16.420  46.800  31.270  1.00  0.00     0.193 A 
ATOM      4  O   UNL     1      17.160  47.790  31.020  1.00  0.00    -0.289 OA
ATOM      5  C   UNL     1      16.592  45.583  30.596  1.00  0.00     0.065 A 
ATOM      6  C   UNL     1      17.584  45.399  29.616  1.00  0.00     0.016 A 
ATOM      7  C   UNL     1      17.712  44.163  28.973  1.00  0.00     0.001 A 
ATOM      8  C   UNL     1      16.856  43.107  29.301  1.00  0.00     0.004 A 
ATOM      9  C   UNL     1      15.866  43.282  30.273  1.00  0.00     0.048 A 
ATOM     10  C   UNL     1      15.730  44.514  30.922  1.00  0.00     0.138 A 
ATOM     11  O   UNL     1      14.787  44.671  31.845  1.00  0.00    -0.456 OA
ENDROOT
BRANCH   1  12
ATOM     12  C   UNL     1      13.489  45.850  33.526  1.00  0.00     0.017 A 
ATOM     13  C   UNL     1      11.359  45.976  35.375  1.00  0.00     0.000 A 
ATOM     14  C   UNL     1      11.219  46.543  34.108  1.00  0.00     0.001 A 
ATOM     15  C   UNL     1      12.553  45.347  35.727  1.00  0.00     0.001 A 
ATOM     16  C   UNL     1      12.272  46.481  33.191  1.00  0.00     0.012 A 
ATOM     17  C   UNL     1      13.612  45.282  34.814  1.00  0.00     0.012 A 
ENDBRANCH   1  12
TORSDOF 1
ENDMDL
MODEL 9
REMARK VINA RESULT:    -5.361      1.621      2.748
REMARK INTER + INTRA:          -5.922
REMARK INTER:                  -5.662
REMARK INTRA:                  -0.260
REMARK UNBOUND:                -0.248
REMARK SMILES O=c1cc(-c2ccccc2)oc2ccccc12
REMARK SMILES IDX 4 1 3 2 2 3 1 4 17 5 16 6 15 7 14 8 13 9 12 10 11 11 5 12
REMARK SMILES IDX 8 13 7 14 9 15 6 16 10 17
REMARK H PARENT
REMARK Flexibility Score: inf
ROOT
ATOM      1  C   UNL     1      15.184  56.316  33.520  1.00  0.00     0.138 A 
ATOM      2  C   UNL     1      15.277  57.580  34.139  1.00  0.00     0.100 A 
ATOM      3  C   UNL     1      15.421  58.723  33.350  1.00  0.00     0.193 A 
ATOM      4  O   UNL     1      15.505  59.854  33.902  1.00  0.00    -0.289 OA
ATOM      5  C   UNL     1      15.471  58.597  31.955  1.00  0.00     0.065 A 
ATOM      6  C   UNL     1      15.615  59.707  31.103  1.00  0.00     0.016 A 
ATOM      7  C   UNL     1      15.658  59.525  29.716  1.00  0.00     0.001 A 
ATOM      8  C   UNL     1      15.560  58.241  29.172  1.00  0.00     0.004 A 
ATOM      9  C   UNL     1      15.416  57.132  30.012  1.00  0.00     0.048 A 
ATOM     10  C   UNL     1      15.372  57.303  31.400  1.00  0.00     0.138 A 
ATOM     11  O   UNL     1      15.235  56.243  32.189  1.00  0.00    -0.456 OA
ENDROOT
BRANCH   1  12
ATOM     12  C   UNL     1      15.028  55.043  34.291  1.00  0.00     0.017 A 
ATOM     13  C   UNL     1      14.698  52.694  35.822  1.00  0.00     0.000 A 
ATOM     14  C   UNL     1      14.340  53.932  36.356  1.00  0.00     0.001 A 
ATOM     15  C   UNL     1      15.219  52.619  34.531  1.00  0.00     0.001 A 
ATOM     16  C   UNL     1      14.502  55.096  35.600  1.00  0.00     0.012 A 
ATOM     17  C   UNL     1      15.385  53.780  33.768  1.00  0.00     0.012 A 
ENDBRANCH   1  12
TORSDOF 1
ENDMDL
