MODEL 1
REMARK VINA RESULT:    -5.061      0.000      0.000
REMARK INTER + INTRA:          -6.204
REMARK INTER:                  -5.949
REMARK INTRA:                  -0.255
REMARK UNBOUND:                -0.255
REMARK SMILES COc1cc2ccc(=O)oc2c(OC)c1OC
REMARK SMILES IDX 3 1 15 2 12 3 11 4 5 5 4 6 6 7 7 8 8 9 9 10 10 11 2 12 1 13
REMARK SMILES IDX 16 14 17 15 13 16 14 17
REMARK H PARENT
REMARK Flexibility Score: inf
ROOT
ATOM      1  C   UNL     1       8.429  -5.722 -10.396  1.00  0.00     0.165 A 
ATOM      2  C   UNL     1       8.253  -7.121 -10.590  1.00  0.00     0.207 A 
ATOM      3  C   UNL     1       8.034  -7.960  -9.462  1.00  0.00     0.208 A 
ATOM      4  C   UNL     1       7.993  -7.402  -8.177  1.00  0.00     0.184 A 
ATOM      5  C   UNL     1       8.167  -6.018  -7.994  1.00  0.00     0.025 A 
ATOM      6  C   UNL     1       8.383  -5.190  -9.093  1.00  0.00     0.062 A 
ATOM      7  C   UNL     1       8.119  -5.503  -6.692  1.00  0.00     0.020 A 
ATOM      8  C   UNL     1       7.901  -6.366  -5.621  1.00  0.00     0.094 A 
ATOM      9  C   UNL     1       7.736  -7.730  -5.876  1.00  0.00     0.336 A 
ATOM     10  O   UNL     1       7.538  -8.528  -4.924  1.00  0.00    -0.246 OA
ATOM     11  O   UNL     1       7.787  -8.191  -7.123  1.00  0.00    -0.419 OA
ENDROOT
BRANCH   1  12
ATOM     12  O   UNL     1       8.646  -4.881 -11.499  1.00  0.00    -0.493 OA
ATOM     13  C   UNL     1       7.659  -4.056 -12.112  1.00  0.00     0.278 C 
ENDBRANCH   1  12
BRANCH   2  14
ATOM     14  O   UNL     1       8.289  -7.716 -11.866  1.00  0.00    -0.490 OA
ATOM     15  C   UNL     1       9.438  -8.147 -12.588  1.00  0.00     0.278 C 
ENDBRANCH   2  14
BRANCH   3  16
ATOM     16  O   UNL     1       7.849  -9.354  -9.542  1.00  0.00    -0.490 OA
ATOM     17  C   UNL     1       6.681 -10.041  -9.983  1.00  0.00     0.278 C 
ENDBRANCH   3  16
TORSDOF 3
ENDMDL
MODEL 2
REMARK VINA RESULT:    -4.990      1.342      4.796
REMARK INTER + INTRA:          -6.120
REMARK INTER:                  -5.947
REMARK INTRA:                  -0.173
REMARK UNBOUND:                -0.255
REMARK SMILES COc1cc2ccc(=O)oc2c(OC)c1OC
REMARK SMILES IDX 3 1 15 2 12 3 11 4 5 5 4 6 6 7 7 8 8 9 9 10 10 11 2 12 1 13
REMARK SMILES IDX 16 14 17 15 13 16 14 17
REMARK H PARENT
REMARK Flexibility Score: inf
ROOT
ATOM      1  C   UNL     1       7.820  -5.821  -7.064  1.00  0.00     0.165 A 
ATOM      2  C   UNL     1       8.010  -7.226  -7.194  1.00  0.00     0.207 A 
ATOM      3  C   UNL     1       8.202  -7.787  -8.488  1.00  0.00     0.208 A 
ATOM      4  C   UNL     1       8.203  -6.955  -9.614  1.00  0.00     0.184 A 
ATOM      5  C   UNL     1       8.014  -5.568  -9.478  1.00  0.00     0.025 A 
ATOM      6  C   UNL     1       7.825  -5.010  -8.215  1.00  0.00     0.062 A 
ATOM      7  C   UNL     1       8.021  -4.773 -10.631  1.00  0.00     0.020 A 
ATOM      8  C   UNL     1       8.213  -5.371 -11.874  1.00  0.00     0.094 A 
ATOM      9  C   UNL     1       8.394  -6.755 -11.937  1.00  0.00     0.336 A 
ATOM     10  O   UNL     1       8.570  -7.318 -13.048  1.00  0.00    -0.246 OA
ATOM     11  O   UNL     1       8.383  -7.485 -10.824  1.00  0.00    -0.419 OA
ENDROOT
BRANCH   1  12
ATOM     12  O   UNL     1       7.630  -5.252  -5.795  1.00  0.00    -0.493 OA
ATOM     13  C   UNL     1       8.643  -5.090  -4.806  1.00  0.00     0.278 C 
ENDBRANCH   1  12
BRANCH   2  14
ATOM     14  O   UNL     1       8.016  -8.092  -6.084  1.00  0.00    -0.490 OA
ATOM     15  C   UNL     1       6.888  -8.614  -5.389  1.00  0.00     0.278 C 
ENDBRANCH   2  14
BRANCH   3  16
ATOM     16  O   UNL     1       8.399  -9.162  -8.727  1.00  0.00    -0.490 OA
ATOM     17  C   UNL     1       7.406 -10.125  -9.066  1.00  0.00     0.278 C 
ENDBRANCH   3  16
TORSDOF 3
ENDMDL
MODEL 3
REMARK VINA RESULT:    -4.883      2.307      2.318
REMARK INTER + INTRA:          -5.994
REMARK INTER:                  -5.711
REMARK INTRA:                  -0.283
REMARK UNBOUND:                -0.255
REMARK SMILES COc1cc2ccc(=O)oc2c(OC)c1OC
REMARK SMILES IDX 3 1 15 2 12 3 11 4 5 5 4 6 6 7 7 8 8 9 9 10 10 11 2 12 1 13
REMARK SMILES IDX 16 14 17 15 13 16 14 17
REMARK H PARENT
REMARK Flexibility Score: inf
ROOT
ATOM      1  C   UNL     1      11.178  -6.635  -9.185  1.00  0.00     0.165 A 
ATOM      2  C   UNL     1      10.748  -7.916  -9.631  1.00  0.00     0.207 A 
ATOM      3  C   UNL     1       9.697  -8.580  -8.938  1.00  0.00     0.208 A 
ATOM      4  C   UNL     1       9.099  -7.967  -7.829  1.00  0.00     0.184 A 
ATOM      5  C   UNL     1       9.530  -6.701  -7.394  1.00  0.00     0.025 A 
ATOM      6  C   UNL     1      10.559  -6.045  -8.067  1.00  0.00     0.062 A 
ATOM      7  C   UNL     1       8.905  -6.126  -6.281  1.00  0.00     0.020 A 
ATOM      8  C   UNL     1       7.881  -6.816  -5.637  1.00  0.00     0.094 A 
ATOM      9  C   UNL     1       7.503  -8.071  -6.123  1.00  0.00     0.336 A 
ATOM     10  O   UNL     1       6.580  -8.713  -5.558  1.00  0.00    -0.246 OA
ATOM     11  O   UNL     1       8.115  -8.592  -7.183  1.00  0.00    -0.419 OA
ENDROOT
BRANCH   1  12
ATOM     12  O   UNL     1      12.214  -5.968  -9.858  1.00  0.00    -0.493 OA
ATOM     13  C   UNL     1      12.047  -5.125 -10.996  1.00  0.00     0.278 C 
ENDBRANCH   1  12
BRANCH   2  14
ATOM     14  O   UNL     1      11.326  -8.561 -10.742  1.00  0.00    -0.490 OA
ATOM     15  C   UNL     1      10.901  -8.493 -12.099  1.00  0.00     0.278 C 
ENDBRANCH   2  14
BRANCH   3  16
ATOM     16  O   UNL     1       9.196  -9.847  -9.297  1.00  0.00    -0.490 OA
ATOM     17  C   UNL     1       8.122 -10.125 -10.190  1.00  0.00     0.278 C 
ENDBRANCH   3  16
TORSDOF 3
ENDMDL
MODEL 4
REMARK VINA RESULT:    -4.700      1.660      5.018
REMARK INTER + INTRA:          -5.779
REMARK INTER:                  -5.495
REMARK INTRA:                  -0.284
REMARK UNBOUND:                -0.255
REMARK SMILES COc1cc2ccc(=O)oc2c(OC)c1OC
REMARK SMILES IDX 3 1 15 2 12 3 11 4 5 5 4 6 6 7 7 8 8 9 9 10 10 11 2 12 1 13
REMARK SMILES IDX 16 14 17 15 13 16 14 17
REMARK H PARENT
REMARK Flexibility Score: inf
ROOT
ATOM      1  C   UNL     1       8.711  -7.197  -9.095  1.00  0.00     0.165 A 
ATOM      2  C   UNL     1       8.692  -8.162 -10.140  1.00  0.00     0.207 A 
ATOM      3  C   UNL     1       8.370  -7.750 -11.464  1.00  0.00     0.208 A 
ATOM      4  C   UNL     1       8.077  -6.405 -11.722  1.00  0.00     0.184 A 
ATOM      5  C   UNL     1       8.098  -5.457 -10.684  1.00  0.00     0.025 A 
ATOM      6  C   UNL     1       8.412  -5.852  -9.384  1.00  0.00     0.062 A 
ATOM      7  C   UNL     1       7.798  -4.123 -10.986  1.00  0.00     0.020 A 
ATOM      8  C   UNL     1       7.489  -3.771 -12.298  1.00  0.00     0.094 A 
ATOM      9  C   UNL     1       7.486  -4.764 -13.281  1.00  0.00     0.336 A 
ATOM     10  O   UNL     1       7.211  -4.469 -14.472  1.00  0.00    -0.246 OA
ATOM     11  O   UNL     1       7.776  -6.023 -12.963  1.00  0.00    -0.419 OA
ENDROOT
BRANCH   1  12
ATOM     12  O   UNL     1       9.027  -7.588  -7.784  1.00  0.00    -0.493 OA
ATOM     13  C   UNL     1       8.079  -7.938  -6.779  1.00  0.00     0.278 C 
ENDBRANCH   1  12
BRANCH   2  14
ATOM     14  O   UNL     1       8.981  -9.522  -9.917  1.00  0.00    -0.490 OA
ATOM     15  C   UNL     1      10.266 -10.125  -9.798  1.00  0.00     0.278 C 
ENDBRANCH   2  14
BRANCH   3  16
ATOM     16  O   UNL     1       8.323  -8.622 -12.570  1.00  0.00    -0.490 OA
ATOM     17  C   UNL     1       9.420  -9.060 -13.365  1.00  0.00     0.278 C 
ENDBRANCH   3  16
TORSDOF 3
ENDMDL
MODEL 5
REMARK VINA RESULT:    -4.658      1.668      5.620
REMARK INTER + INTRA:          -5.730
REMARK INTER:                  -5.613
REMARK INTRA:                  -0.117
REMARK UNBOUND:                -0.255
REMARK SMILES COc1cc2ccc(=O)oc2c(OC)c1OC
REMARK SMILES IDX 3 1 15 2 12 3 11 4 5 5 4 6 6 7 7 8 8 9 9 10 10 11 2 12 1 13
REMARK SMILES IDX 16 14 17 15 13 16 14 17
REMARK H PARENT
REMARK Flexibility Score: inf
ROOT
ATOM      1  C   UNL     1       8.158  -7.858  -7.096  1.00  0.00     0.165 A 
ATOM      2  C   UNL     1       7.930  -6.456  -7.199  1.00  0.00     0.207 A 
ATOM      3  C   UNL     1       7.848  -5.855  -8.486  1.00  0.00     0.208 A 
ATOM      4  C   UNL     1       7.991  -6.646  -9.634  1.00  0.00     0.184 A 
ATOM      5  C   UNL     1       8.216  -8.030  -9.524  1.00  0.00     0.025 A 
ATOM      6  C   UNL     1       8.299  -8.626  -8.267  1.00  0.00     0.062 A 
ATOM      7  C   UNL     1       8.355  -8.782 -10.697  1.00  0.00     0.020 A 
ATOM      8  C   UNL     1       8.266  -8.146 -11.933  1.00  0.00     0.094 A 
ATOM      9  C   UNL     1       8.041  -6.768 -11.969  1.00  0.00     0.336 A 
ATOM     10  O   UNL     1       7.957  -6.172 -13.074  1.00  0.00    -0.246 OA
ATOM     11  O   UNL     1       7.913  -6.079 -10.837  1.00  0.00    -0.419 OA
ENDROOT
BRANCH   1  12
ATOM     12  O   UNL     1       8.242  -8.465  -5.833  1.00  0.00    -0.493 OA
ATOM     13  C   UNL     1       7.167  -8.584  -4.905  1.00  0.00     0.278 C 
ENDBRANCH   1  12
BRANCH   2  14
ATOM     14  O   UNL     1       7.781  -5.632  -6.068  1.00  0.00    -0.490 OA
ATOM     15  C   UNL     1       8.814  -5.064  -5.269  1.00  0.00     0.278 C 
ENDBRANCH   2  14
BRANCH   3  16
ATOM     16  O   UNL     1       7.625  -4.480  -8.699  1.00  0.00    -0.490 OA
ATOM     17  C   UNL     1       6.371  -3.834  -8.895  1.00  0.00     0.278 C 
ENDBRANCH   3  16
TORSDOF 3
ENDMDL
MODEL 6
REMARK VINA RESULT:    -4.637      2.202      5.347
REMARK INTER + INTRA:          -5.705
REMARK INTER:                  -5.448
REMARK INTRA:                  -0.257
REMARK UNBOUND:                -0.255
REMARK SMILES COc1cc2ccc(=O)oc2c(OC)c1OC
REMARK SMILES IDX 3 1 15 2 12 3 11 4 5 5 4 6 6 7 7 8 8 9 9 10 10 11 2 12 1 13
REMARK SMILES IDX 16 14 17 15 13 16 14 17
REMARK H PARENT
REMARK Flexibility Score: inf
ROOT
ATOM      1  C   UNL     1       8.888  -7.129  -7.483  1.00  0.00     0.165 A 
ATOM      2  C   UNL     1       8.709  -6.098  -8.449  1.00  0.00     0.207 A 
ATOM      3  C   UNL     1       9.302  -6.238  -9.735  1.00  0.00     0.208 A 
ATOM      4  C   UNL     1      10.051  -7.384 -10.036  1.00  0.00     0.184 A 
ATOM      5  C   UNL     1      10.222  -8.397  -9.076  1.00  0.00     0.025 A 
ATOM      6  C   UNL     1       9.646  -8.268  -7.813  1.00  0.00     0.062 A 
ATOM      7  C   UNL     1      10.979  -9.525  -9.418  1.00  0.00     0.020 A 
ATOM      8  C   UNL     1      11.538  -9.614 -10.691  1.00  0.00     0.094 A 
ATOM      9  C   UNL     1      11.328  -8.570 -11.595  1.00  0.00     0.336 A 
ATOM     10  O   UNL     1      11.823  -8.629 -12.750  1.00  0.00    -0.246 OA
ATOM     11  O   UNL     1      10.604  -7.511 -11.241  1.00  0.00    -0.419 OA
ENDROOT
BRANCH   1  12
ATOM     12  O   UNL     1       8.309  -7.005  -6.210  1.00  0.00    -0.493 OA
ATOM     13  C   UNL     1       7.540  -8.010  -5.554  1.00  0.00     0.278 C 
ENDBRANCH   1  12
BRANCH   2  14
ATOM     14  O   UNL     1       7.964  -4.935  -8.182  1.00  0.00    -0.490 OA
ATOM     15  C   UNL     1       6.546  -4.798  -8.173  1.00  0.00     0.278 C 
ENDBRANCH   2  14
BRANCH   3  16
ATOM     16  O   UNL     1       9.188  -5.281 -10.762  1.00  0.00    -0.490 OA
ATOM     17  C   UNL     1       8.071  -5.073 -11.622  1.00  0.00     0.278 C 
ENDBRANCH   3  16
TORSDOF 3
ENDMDL
MODEL 7
REMARK VINA RESULT:    -4.615      1.436      3.230
REMARK INTER + INTRA:          -5.680
REMARK INTER:                  -5.423
REMARK INTRA:                  -0.257
REMARK UNBOUND:                -0.255
REMARK SMILES COc1cc2ccc(=O)oc2c(OC)c1OC
REMARK SMILES IDX 3 1 15 2 12 3 11 4 5 5 4 6 6 7 7 8 8 9 9 10 10 11 2 12 1 13
REMARK SMILES IDX 16 14 17 15 13 16 14 17
REMARK H PARENT
REMARK Flexibility Score: inf
ROOT
ATOM      1  C   UNL     1       8.891  -7.364 -11.089  1.00  0.00     0.165 A 
ATOM      2  C   UNL     1       8.574  -6.079 -10.566  1.00  0.00     0.207 A 
ATOM      3  C   UNL     1       8.189  -5.957  -9.201  1.00  0.00     0.208 A 
ATOM      4  C   UNL     1       8.127  -7.099  -8.391  1.00  0.00     0.184 A 
ATOM      5  C   UNL     1       8.441  -8.365  -8.916  1.00  0.00     0.025 A 
ATOM      6  C   UNL     1       8.818  -8.493 -10.251  1.00  0.00     0.062 A 
ATOM      7  C   UNL     1       8.365  -9.479  -8.071  1.00  0.00     0.020 A 
ATOM      8  C   UNL     1       7.983  -9.307  -6.743  1.00  0.00     0.094 A 
ATOM      9  C   UNL     1       7.684  -8.020  -6.288  1.00  0.00     0.336 A 
ATOM     10  O   UNL     1       7.338  -7.840  -5.092  1.00  0.00    -0.246 OA
ATOM     11  O   UNL     1       7.766  -6.980  -7.114  1.00  0.00    -0.419 OA
ENDROOT
BRANCH   1  12
ATOM     12  O   UNL     1       9.272  -7.500 -12.434  1.00  0.00    -0.493 OA
ATOM     13  C   UNL     1       9.423  -8.738 -13.125  1.00  0.00     0.278 C 
ENDBRANCH   1  12
BRANCH   2  14
ATOM     14  O   UNL     1       8.626  -4.911 -11.350  1.00  0.00    -0.490 OA
ATOM     15  C   UNL     1       7.622  -4.412 -12.227  1.00  0.00     0.278 C 
ENDBRANCH   2  14
BRANCH   3  16
ATOM     16  O   UNL     1       7.857  -4.735  -8.584  1.00  0.00    -0.490 OA
ATOM     17  C   UNL     1       6.610  -4.050  -8.652  1.00  0.00     0.278 C 
ENDBRANCH   3  16
TORSDOF 3
ENDMDL
MODEL 8
REMARK VINA RESULT:    -4.608      2.234      3.506
REMARK INTER + INTRA:          -5.671
REMARK INTER:                  -5.403
REMARK INTRA:                  -0.269
REMARK UNBOUND:                -0.255
REMARK SMILES COc1cc2ccc(=O)oc2c(OC)c1OC
REMARK SMILES IDX 3 1 15 2 12 3 11 4 5 5 4 6 6 7 7 8 8 9 9 10 10 11 2 12 1 13
REMARK SMILES IDX 16 14 17 15 13 16 14 17
REMARK H PARENT
REMARK Flexibility Score: inf
ROOT
ATOM      1  C   UNL     1       8.626  -8.838 -10.152  1.00  0.00     0.165 A 
ATOM      2  C   UNL     1       9.575  -7.846 -10.529  1.00  0.00     0.207 A 
ATOM      3  C   UNL     1       9.919  -6.823  -9.602  1.00  0.00     0.208 A 
ATOM      4  C   UNL     1       9.322  -6.803  -8.334  1.00  0.00     0.184 A 
ATOM      5  C   UNL     1       8.385  -7.786  -7.970  1.00  0.00     0.025 A 
ATOM      6  C   UNL     1       8.042  -8.792  -8.872  1.00  0.00     0.062 A 
ATOM      7  C   UNL     1       7.813  -7.728  -6.693  1.00  0.00     0.020 A 
ATOM      8  C   UNL     1       8.183  -6.705  -5.823  1.00  0.00     0.094 A 
ATOM      9  C   UNL     1       9.120  -5.761  -6.250  1.00  0.00     0.336 A 
ATOM     10  O   UNL     1       9.470  -4.829  -5.481  1.00  0.00    -0.246 OA
ATOM     11  O   UNL     1       9.647  -5.842  -7.469  1.00  0.00    -0.419 OA
ENDROOT
BRANCH   1  12
ATOM     12  O   UNL     1       8.276  -9.855 -11.056  1.00  0.00    -0.493 OA
ATOM     13  C   UNL     1       7.216  -9.782 -12.005  1.00  0.00     0.278 C 
ENDBRANCH   1  12
BRANCH   2  14
ATOM     14  O   UNL     1      10.194  -7.836 -11.793  1.00  0.00    -0.490 OA
ATOM     15  C   UNL     1      11.291  -8.634 -12.226  1.00  0.00     0.278 C 
ENDBRANCH   2  14
BRANCH   3  16
ATOM     16  O   UNL     1      10.845  -5.796  -9.872  1.00  0.00    -0.490 OA
ATOM     17  C   UNL     1      12.265  -5.902  -9.886  1.00  0.00     0.278 C 
ENDBRANCH   3  16
TORSDOF 3
ENDMDL
MODEL 9
REMARK VINA RESULT:    -4.419      2.278      3.300
REMARK INTER + INTRA:          -5.450
REMARK INTER:                  -5.158
REMARK INTRA:                  -0.291
REMARK UNBOUND:                -0.255
REMARK SMILES COc1cc2ccc(=O)oc2c(OC)c1OC
REMARK SMILES IDX 3 1 15 2 12 3 11 4 5 5 4 6 6 7 7 8 8 9 9 10 10 11 2 12 1 13
REMARK SMILES IDX 16 14 17 15 13 16 14 17
REMARK H PARENT
REMARK Flexibility Score: inf
ROOT
ATOM      1  C   UNL     1      10.915  -8.780 -10.585  1.00  0.00     0.165 A 
ATOM      2  C   UNL     1       9.634  -8.939 -11.184  1.00  0.00     0.207 A 
ATOM      3  C   UNL     1       8.518  -8.243 -10.640  1.00  0.00     0.208 A 
ATOM      4  C   UNL     1       8.692  -7.413  -9.525  1.00  0.00     0.184 A 
ATOM      5  C   UNL     1       9.961  -7.261  -8.938  1.00  0.00     0.025 A 
ATOM      6  C   UNL     1      11.059  -7.939  -9.465  1.00  0.00     0.062 A 
ATOM      7  C   UNL     1      10.089  -6.422  -7.825  1.00  0.00     0.020 A 
ATOM      8  C   UNL     1       8.966  -5.763  -7.330  1.00  0.00     0.094 A 
ATOM      9  C   UNL     1       7.735  -5.960  -7.961  1.00  0.00     0.336 A 
ATOM     10  O   UNL     1       6.707  -5.375  -7.533  1.00  0.00    -0.246 OA
ATOM     11  O   UNL     1       7.644  -6.763  -9.018  1.00  0.00    -0.419 OA
ENDROOT
BRANCH   1  12
ATOM     12  O   UNL     1      12.025  -9.459 -11.110  1.00  0.00    -0.493 OA
ATOM     13  C   UNL     1      12.989  -8.898 -11.997  1.00  0.00     0.278 C 
ENDBRANCH   1  12
BRANCH   2  14
ATOM     14  O   UNL     1       9.422  -9.765 -12.305  1.00  0.00    -0.490 OA
ATOM     15  C   UNL     1       9.482  -9.392 -13.678  1.00  0.00     0.278 C 
ENDBRANCH   2  14
BRANCH   3  16
ATOM     16  O   UNL     1       7.209  -8.330 -11.155  1.00  0.00    -0.490 OA
ATOM     17  C   UNL     1       6.299  -9.415 -11.009  1.00  0.00     0.278 C 
ENDBRANCH   3  16
TORSDOF 3
ENDMDL
