MODEL 1
REMARK VINA RESULT:    -4.488      0.000      0.000
REMARK INTER + INTRA:          -6.672
REMARK INTER:                  -6.193
REMARK INTRA:                  -0.479
REMARK UNBOUND:                -0.479
REMARK SMILES OC[C@H](O)C(O)[C@@H](O)CO
REMARK SMILES IDX 5 1 7 2 9 3 10 4 8 6 3 8 2 9 1 10 4 12 6 14
REMARK H PARENT 10 5 8 7 1 11 4 13 6 15
REMARK Flexibility Score: inf
ROOT
ATOM      1  C   UNL     1     -12.148 -38.702  36.878  1.00  0.00     0.176 C 
ENDROOT
BRANCH   1   2
ATOM      2  C   UNL     1     -11.079 -37.956  36.037  1.00  0.00     0.171 C 
BRANCH   2   3
ATOM      3  C   UNL     1     -10.769 -36.551  36.590  1.00  0.00     0.190 C 
BRANCH   3   4
ATOM      4  O   UNL     1     -10.941 -35.566  35.606  1.00  0.00    -0.394 OA
ATOM      5  H   UNL     1     -10.886 -34.687  36.064  1.00  0.00     0.210 HD
ENDBRANCH   3   4
ENDBRANCH   2   3
BRANCH   2   6
ATOM      6  O   UNL     1     -11.453 -37.874  34.682  1.00  0.00    -0.388 OA
ATOM      7  H   UNL     1     -10.870 -37.200  34.246  1.00  0.00     0.211 HD
ENDBRANCH   2   6
ENDBRANCH   1   2
BRANCH   1   8
ATOM      8  C   UNL     1     -12.651 -39.978  36.155  1.00  0.00     0.171 C 
BRANCH   8   9
ATOM      9  C   UNL     1     -13.402 -40.922  37.108  1.00  0.00     0.190 C 
BRANCH   9  10
ATOM     10  O   UNL     1     -12.522 -41.897  37.595  1.00  0.00    -0.394 OA
ATOM     11  H   UNL     1     -13.037 -42.426  38.259  1.00  0.00     0.210 HD
ENDBRANCH   9  10
ENDBRANCH   8   9
BRANCH   8  12
ATOM     12  O   UNL     1     -11.596 -40.655  35.515  1.00  0.00    -0.388 OA
ATOM     13  H   UNL     1     -11.902 -41.580  35.324  1.00  0.00     0.211 HD
ENDBRANCH   8  12
ENDBRANCH   1   8
BRANCH   1  14
ATOM     14  O   UNL     1     -11.597 -39.041  38.128  1.00  0.00    -0.388 OA
ATOM     15  H   UNL     1     -10.674 -39.367  37.963  1.00  0.00     0.211 HD
ENDBRANCH   1  14
TORSDOF 9
ENDMDL
MODEL 2
REMARK VINA RESULT:    -4.404      2.231      3.770
REMARK INTER + INTRA:          -6.556
REMARK INTER:                  -5.743
REMARK INTRA:                  -0.814
REMARK UNBOUND:                -0.479
REMARK SMILES OC[C@H](O)C(O)[C@@H](O)CO
REMARK SMILES IDX 5 1 7 2 9 3 10 4 8 6 3 8 2 9 1 10 4 12 6 14
REMARK H PARENT 10 5 8 7 1 11 4 13 6 15
REMARK Flexibility Score: inf
ROOT
ATOM      1  C   UNL     1     -11.063 -36.515  38.127  1.00  0.00     0.176 C 
ENDROOT
BRANCH   1   2
ATOM      2  C   UNL     1     -12.476 -35.874  38.080  1.00  0.00     0.171 C 
BRANCH   2   3
ATOM      3  C   UNL     1     -12.432 -34.377  37.715  1.00  0.00     0.190 C 
BRANCH   3   4
ATOM      4  O   UNL     1     -12.088 -34.191  36.368  1.00  0.00    -0.394 OA
ATOM      5  H   UNL     1     -11.883 -35.088  35.995  1.00  0.00     0.210 HD
ENDBRANCH   3   4
ENDBRANCH   2   3
BRANCH   2   6
ATOM      6  O   UNL     1     -13.167 -36.059  39.292  1.00  0.00    -0.388 OA
ATOM      7  H   UNL     1     -13.489 -35.172  39.597  1.00  0.00     0.211 HD
ENDBRANCH   2   6
ENDBRANCH   1   2
BRANCH   1   8
ATOM      8  C   UNL     1     -10.978 -37.766  37.214  1.00  0.00     0.171 C 
BRANCH   8   9
ATOM      9  C   UNL     1     -11.675 -37.541  35.862  1.00  0.00     0.190 C 
BRANCH   9  10
ATOM     10  O   UNL     1     -10.916 -36.659  35.082  1.00  0.00    -0.394 OA
ATOM     11  H   UNL     1     -10.939 -35.786  35.552  1.00  0.00     0.210 HD
ENDBRANCH   9  10
ENDBRANCH   8   9
BRANCH   8  12
ATOM     12  O   UNL     1     -11.496 -38.906  37.857  1.00  0.00    -0.388 OA
ATOM     13  H   UNL     1     -11.988 -38.602  38.663  1.00  0.00     0.211 HD
ENDBRANCH   8  12
ENDBRANCH   1   8
BRANCH   1  14
ATOM     14  O   UNL     1     -10.110 -35.559  37.727  1.00  0.00    -0.388 OA
ATOM     15  H   UNL     1     -10.554 -34.957  37.074  1.00  0.00     0.211 HD
ENDBRANCH   1  14
TORSDOF 9
ENDMDL
MODEL 3
REMARK VINA RESULT:    -4.376      4.478      5.406
REMARK INTER + INTRA:          -6.517
REMARK INTER:                  -6.257
REMARK INTRA:                  -0.260
REMARK UNBOUND:                -0.479
REMARK SMILES OC[C@H](O)C(O)[C@@H](O)CO
REMARK SMILES IDX 5 1 7 2 9 3 10 4 8 6 3 8 2 9 1 10 4 12 6 14
REMARK H PARENT 10 5 8 7 1 11 4 13 6 15
REMARK Flexibility Score: inf
ROOT
ATOM      1  C   UNL     1     -12.335 -41.446  41.347  1.00  0.00     0.176 C 
ENDROOT
BRANCH   1   2
ATOM      2  C   UNL     1     -12.137 -39.987  41.836  1.00  0.00     0.171 C 
BRANCH   2   3
ATOM      3  C   UNL     1     -11.016 -39.257  41.072  1.00  0.00     0.190 C 
BRANCH   3   4
ATOM      4  O   UNL     1      -9.759 -39.519  41.638  1.00  0.00    -0.394 OA
ATOM      5  H   UNL     1      -9.917 -40.059  42.456  1.00  0.00     0.210 HD
ENDBRANCH   3   4
ENDBRANCH   2   3
BRANCH   2   6
ATOM      6  O   UNL     1     -11.897 -39.934  43.221  1.00  0.00    -0.388 OA
ATOM      7  H   UNL     1     -11.676 -40.852  43.526  1.00  0.00     0.211 HD
ENDBRANCH   2   6
ENDBRANCH   1   2
BRANCH   1   8
ATOM      8  C   UNL     1     -12.093 -41.572  39.820  1.00  0.00     0.171 C 
BRANCH   8   9
ATOM      9  C   UNL     1     -13.411 -41.592  39.029  1.00  0.00     0.190 C 
BRANCH   9  10
ATOM     10  O   UNL     1     -13.289 -42.457  37.933  1.00  0.00    -0.394 OA
ATOM     11  H   UNL     1     -14.185 -42.490  37.507  1.00  0.00     0.210 HD
ENDBRANCH   9  10
ENDBRANCH   8   9
BRANCH   8  12
ATOM     12  O   UNL     1     -11.313 -42.703  39.516  1.00  0.00    -0.388 OA
ATOM     13  H   UNL     1     -11.866 -43.509  39.691  1.00  0.00     0.211 HD
ENDBRANCH   8  12
ENDBRANCH   1   8
BRANCH   1  14
ATOM     14  O   UNL     1     -11.452 -42.290  42.047  1.00  0.00    -0.388 OA
ATOM     15  H   UNL     1     -11.929 -42.604  42.860  1.00  0.00     0.211 HD
ENDBRANCH   1  14
TORSDOF 9
ENDMDL
MODEL 4
REMARK VINA RESULT:    -4.332      4.165      5.915
REMARK INTER + INTRA:          -6.458
REMARK INTER:                  -5.636
REMARK INTRA:                  -0.821
REMARK UNBOUND:                -0.479
REMARK SMILES OC[C@H](O)C(O)[C@@H](O)CO
REMARK SMILES IDX 5 1 7 2 9 3 10 4 8 6 3 8 2 9 1 10 4 12 6 14
REMARK H PARENT 10 5 8 7 1 11 4 13 6 15
REMARK Flexibility Score: inf
ROOT
ATOM      1  C   UNL     1     -11.074 -39.250  40.696  1.00  0.00     0.176 C 
ENDROOT
BRANCH   1   2
ATOM      2  C   UNL     1     -12.002 -40.392  40.204  1.00  0.00     0.171 C 
BRANCH   2   3
ATOM      3  C   UNL     1     -11.532 -41.779  40.681  1.00  0.00     0.190 C 
BRANCH   3   4
ATOM      4  O   UNL     1     -11.792 -41.963  42.048  1.00  0.00    -0.394 OA
ATOM      5  H   UNL     1     -10.913 -42.089  42.495  1.00  0.00     0.210 HD
ENDBRANCH   3   4
ENDBRANCH   2   3
BRANCH   2   6
ATOM      6  O   UNL     1     -12.139 -40.379  38.803  1.00  0.00    -0.388 OA
ATOM      7  H   UNL     1     -12.475 -41.269  38.523  1.00  0.00     0.211 HD
ENDBRANCH   2   6
ENDBRANCH   1   2
BRANCH   1   8
ATOM      8  C   UNL     1     -11.872 -38.152  41.446  1.00  0.00     0.171 C 
BRANCH   8   9
ATOM      9  C   UNL     1     -12.945 -38.751  42.371  1.00  0.00     0.190 C 
BRANCH   9  10
ATOM     10  O   UNL     1     -12.331 -39.334  43.487  1.00  0.00    -0.394 OA
ATOM     11  H   UNL     1     -12.710 -38.874  44.281  1.00  0.00     0.210 HD
ENDBRANCH   9  10
ENDBRANCH   8   9
BRANCH   8  12
ATOM     12  O   UNL     1     -12.448 -37.233  40.548  1.00  0.00    -0.388 OA
ATOM     13  H   UNL     1     -13.374 -37.049  40.856  1.00  0.00     0.211 HD
ENDBRANCH   8  12
ENDBRANCH   1   8
BRANCH   1  14
ATOM     14  O   UNL     1     -10.086 -39.790  41.540  1.00  0.00    -0.388 OA
ATOM     15  H   UNL     1     -10.555 -40.286  42.262  1.00  0.00     0.211 HD
ENDBRANCH   1  14
TORSDOF 9
ENDMDL
MODEL 5
REMARK VINA RESULT:    -4.294      5.002      6.670
REMARK INTER + INTRA:          -6.404
REMARK INTER:                  -5.926
REMARK INTRA:                  -0.478
REMARK UNBOUND:                -0.479
REMARK SMILES OC[C@H](O)C(O)[C@@H](O)CO
REMARK SMILES IDX 5 1 7 2 9 3 10 4 8 6 3 8 2 9 1 10 4 12 6 14
REMARK H PARENT 10 5 8 7 1 11 4 13 6 15
REMARK Flexibility Score: inf
ROOT
ATOM      1  C   UNL     1     -13.169 -37.637  40.869  1.00  0.00     0.176 C 
ENDROOT
BRANCH   1   2
ATOM      2  C   UNL     1     -12.339 -37.877  42.158  1.00  0.00     0.171 C 
BRANCH   2   3
ATOM      3  C   UNL     1     -11.023 -38.628  41.879  1.00  0.00     0.190 C 
BRANCH   3   4
ATOM      4  O   UNL     1     -10.350 -38.937  43.071  1.00  0.00    -0.394 OA
ATOM      5  H   UNL     1      -9.914 -38.101  43.383  1.00  0.00     0.210 HD
ENDBRANCH   3   4
ENDBRANCH   2   3
BRANCH   2   6
ATOM      6  O   UNL     1     -13.089 -38.556  43.136  1.00  0.00    -0.388 OA
ATOM      7  H   UNL     1     -12.849 -38.176  44.021  1.00  0.00     0.211 HD
ENDBRANCH   2   6
ENDBRANCH   1   2
BRANCH   1   8
ATOM      8  C   UNL     1     -14.491 -36.886  41.177  1.00  0.00     0.171 C 
BRANCH   8   9
ATOM      9  C   UNL     1     -15.071 -36.205  39.927  1.00  0.00     0.190 C 
BRANCH   9  10
ATOM     10  O   UNL     1     -14.648 -34.870  39.878  1.00  0.00    -0.394 OA
ATOM     11  H   UNL     1     -13.671 -34.897  39.703  1.00  0.00     0.210 HD
ENDBRANCH   9  10
ENDBRANCH   8   9
BRANCH   8  12
ATOM     12  O   UNL     1     -14.320 -35.952  42.217  1.00  0.00    -0.388 OA
ATOM     13  H   UNL     1     -13.497 -36.200  42.715  1.00  0.00     0.211 HD
ENDBRANCH   8  12
ENDBRANCH   1   8
BRANCH   1  14
ATOM     14  O   UNL     1     -12.396 -36.898  39.954  1.00  0.00    -0.388 OA
ATOM     15  H   UNL     1     -11.456 -36.926  40.274  1.00  0.00     0.211 HD
ENDBRANCH   1  14
TORSDOF 9
ENDMDL
MODEL 6
REMARK VINA RESULT:    -4.278      3.540      4.834
REMARK INTER + INTRA:          -6.383
REMARK INTER:                  -6.055
REMARK INTRA:                  -0.328
REMARK UNBOUND:                -0.479
REMARK SMILES OC[C@H](O)C(O)[C@@H](O)CO
REMARK SMILES IDX 5 1 7 2 9 3 10 4 8 6 3 8 2 9 1 10 4 12 6 14
REMARK H PARENT 10 5 8 7 1 11 4 13 6 15
REMARK Flexibility Score: inf
ROOT
ATOM      1  C   UNL     1     -12.706 -35.135  36.703  1.00  0.00     0.176 C 
ENDROOT
BRANCH   1   2
ATOM      2  C   UNL     1     -11.761 -36.356  36.546  1.00  0.00     0.171 C 
BRANCH   2   3
ATOM      3  C   UNL     1     -10.815 -36.526  37.751  1.00  0.00     0.190 C 
BRANCH   3   4
ATOM      4  O   UNL     1      -9.755 -35.607  37.701  1.00  0.00    -0.394 OA
ATOM      5  H   UNL     1      -9.471 -35.544  36.751  1.00  0.00     0.210 HD
ENDBRANCH   3   4
ENDBRANCH   2   3
BRANCH   2   6
ATOM      6  O   UNL     1     -11.020 -36.285  35.352  1.00  0.00    -0.388 OA
ATOM      7  H   UNL     1     -10.926 -37.208  34.998  1.00  0.00     0.211 HD
ENDBRANCH   2   6
ENDBRANCH   1   2
BRANCH   1   8
ATOM      8  C   UNL     1     -13.248 -35.019  38.151  1.00  0.00     0.171 C 
BRANCH   8   9
ATOM      9  C   UNL     1     -14.617 -35.699  38.310  1.00  0.00     0.190 C 
BRANCH   9  10
ATOM     10  O   UNL     1     -15.352 -35.051  39.312  1.00  0.00    -0.394 OA
ATOM     11  H   UNL     1     -14.725 -34.916  40.070  1.00  0.00     0.210 HD
ENDBRANCH   9  10
ENDBRANCH   8   9
BRANCH   8  12
ATOM     12  O   UNL     1     -13.309 -33.676  38.570  1.00  0.00    -0.388 OA
ATOM     13  H   UNL     1     -14.249 -33.481  38.824  1.00  0.00     0.211 HD
ENDBRANCH   8  12
ENDBRANCH   1   8
BRANCH   1  14
ATOM     14  O   UNL     1     -12.009 -33.964  36.352  1.00  0.00    -0.388 OA
ATOM     15  H   UNL     1     -12.166 -33.808  35.384  1.00  0.00     0.211 HD
ENDBRANCH   1  14
TORSDOF 9
ENDMDL
MODEL 7
REMARK VINA RESULT:    -4.265      1.054      4.072
REMARK INTER + INTRA:          -6.365
REMARK INTER:                  -5.886
REMARK INTRA:                  -0.480
REMARK UNBOUND:                -0.479
REMARK SMILES OC[C@H](O)C(O)[C@@H](O)CO
REMARK SMILES IDX 5 1 7 2 9 3 10 4 8 6 3 8 2 9 1 10 4 12 6 14
REMARK H PARENT 10 5 8 7 1 11 4 13 6 15
REMARK Flexibility Score: inf
ROOT
ATOM      1  C   UNL     1     -11.282 -38.509  36.665  1.00  0.00     0.176 C 
ENDROOT
BRANCH   1   2
ATOM      2  C   UNL     1     -12.248 -39.563  36.060  1.00  0.00     0.171 C 
BRANCH   2   3
ATOM      3  C   UNL     1     -13.143 -40.222  37.127  1.00  0.00     0.190 C 
BRANCH   3   4
ATOM      4  O   UNL     1     -13.783 -41.364  36.621  1.00  0.00    -0.394 OA
ATOM      5  H   UNL     1     -13.318 -41.607  35.778  1.00  0.00     0.210 HD
ENDBRANCH   3   4
ENDBRANCH   2   3
BRANCH   2   6
ATOM      6  O   UNL     1     -11.550 -40.546  35.335  1.00  0.00    -0.388 OA
ATOM      7  H   UNL     1     -12.159 -41.319  35.206  1.00  0.00     0.211 HD
ENDBRANCH   2   6
ENDBRANCH   1   2
BRANCH   1   8
ATOM      8  C   UNL     1     -11.171 -37.255  35.760  1.00  0.00     0.171 C 
BRANCH   8   9
ATOM      9  C   UNL     1     -12.191 -36.172  36.148  1.00  0.00     0.190 C 
BRANCH   9  10
ATOM     10  O   UNL     1     -11.604 -35.274  37.049  1.00  0.00    -0.394 OA
ATOM     11  H   UNL     1     -11.948 -35.520  37.947  1.00  0.00     0.210 HD
ENDBRANCH   9  10
ENDBRANCH   8   9
BRANCH   8  12
ATOM     12  O   UNL     1     -11.298 -37.592  34.399  1.00  0.00    -0.388 OA
ATOM     13  H   UNL     1     -11.853 -36.892  33.964  1.00  0.00     0.211 HD
ENDBRANCH   8  12
ENDBRANCH   1   8
BRANCH   1  14
ATOM     14  O   UNL     1     -11.743 -38.142  37.944  1.00  0.00    -0.388 OA
ATOM     15  H   UNL     1     -11.827 -38.977  38.476  1.00  0.00     0.211 HD
ENDBRANCH   1  14
TORSDOF 9
ENDMDL
MODEL 8
REMARK VINA RESULT:    -4.238      2.819      4.899
REMARK INTER + INTRA:          -6.328
REMARK INTER:                  -5.437
REMARK INTRA:                  -0.891
REMARK UNBOUND:                -0.479
REMARK SMILES OC[C@H](O)C(O)[C@@H](O)CO
REMARK SMILES IDX 5 1 7 2 9 3 10 4 8 6 3 8 2 9 1 10 4 12 6 14
REMARK H PARENT 10 5 8 7 1 11 4 13 6 15
REMARK Flexibility Score: inf
ROOT
ATOM      1  C   UNL     1     -12.989 -40.166  40.064  1.00  0.00     0.176 C 
ENDROOT
BRANCH   1   2
ATOM      2  C   UNL     1     -11.570 -40.570  40.545  1.00  0.00     0.171 C 
BRANCH   2   3
ATOM      3  C   UNL     1     -11.420 -42.094  40.718  1.00  0.00     0.190 C 
BRANCH   3   4
ATOM      4  O   UNL     1     -11.381 -42.747  39.477  1.00  0.00    -0.394 OA
ATOM      5  H   UNL     1     -11.346 -42.041  38.779  1.00  0.00     0.210 HD
ENDBRANCH   3   4
ENDBRANCH   2   3
BRANCH   2   6
ATOM      6  O   UNL     1     -11.221 -39.908  41.737  1.00  0.00    -0.388 OA
ATOM      7  H   UNL     1     -11.696 -40.355  42.484  1.00  0.00     0.211 HD
ENDBRANCH   2   6
ENDBRANCH   1   2
BRANCH   1   8
ATOM      8  C   UNL     1     -12.956 -39.581  38.628  1.00  0.00     0.171 C 
BRANCH   8   9
ATOM      9  C   UNL     1     -13.546 -40.555  37.596  1.00  0.00     0.190 C 
BRANCH   9  10
ATOM     10  O   UNL     1     -12.589 -41.521  37.259  1.00  0.00    -0.394 OA
ATOM     11  H   UNL     1     -12.484 -42.097  38.060  1.00  0.00     0.210 HD
ENDBRANCH   9  10
ENDBRANCH   8   9
BRANCH   8  12
ATOM     12  O   UNL     1     -11.653 -39.197  38.260  1.00  0.00    -0.388 OA
ATOM     13  H   UNL     1     -11.596 -38.208  38.337  1.00  0.00     0.211 HD
ENDBRANCH   8  12
ENDBRANCH   1   8
BRANCH   1  14
ATOM     14  O   UNL     1     -13.830 -41.294  40.107  1.00  0.00    -0.388 OA
ATOM     15  H   UNL     1     -13.306 -42.035  40.510  1.00  0.00     0.211 HD
ENDBRANCH   1  14
TORSDOF 9
ENDMDL
MODEL 9
REMARK VINA RESULT:    -4.171      4.185      5.428
REMARK INTER + INTRA:          -6.235
REMARK INTER:                  -5.687
REMARK INTRA:                  -0.548
REMARK UNBOUND:                -0.479
REMARK SMILES OC[C@H](O)C(O)[C@@H](O)CO
REMARK SMILES IDX 5 1 7 2 9 3 10 4 8 6 3 8 2 9 1 10 4 12 6 14
REMARK H PARENT 10 5 8 7 1 11 4 13 6 15
REMARK Flexibility Score: inf
ROOT
ATOM      1  C   UNL     1     -11.751 -38.018  40.576  1.00  0.00     0.176 C 
ENDROOT
BRANCH   1   2
ATOM      2  C   UNL     1     -12.849 -38.028  41.672  1.00  0.00     0.171 C 
BRANCH   2   3
ATOM      3  C   UNL     1     -14.031 -37.099  41.332  1.00  0.00     0.190 C 
BRANCH   3   4
ATOM      4  O   UNL     1     -14.179 -36.089  42.294  1.00  0.00    -0.394 OA
ATOM      5  H   UNL     1     -13.352 -35.539  42.266  1.00  0.00     0.210 HD
ENDBRANCH   3   4
ENDBRANCH   2   3
BRANCH   2   6
ATOM      6  O   UNL     1     -12.321 -37.701  42.935  1.00  0.00    -0.388 OA
ATOM      7  H   UNL     1     -12.041 -36.749  42.910  1.00  0.00     0.211 HD
ENDBRANCH   2   6
ENDBRANCH   1   2
BRANCH   1   8
ATOM      8  C   UNL     1     -10.905 -39.317  40.607  1.00  0.00     0.171 C 
BRANCH   8   9
ATOM      9  C   UNL     1     -11.782 -40.577  40.516  1.00  0.00     0.190 C 
BRANCH   9  10
ATOM     10  O   UNL     1     -12.057 -40.864  39.173  1.00  0.00    -0.394 OA
ATOM     11  H   UNL     1     -12.750 -41.573  39.179  1.00  0.00     0.210 HD
ENDBRANCH   9  10
ENDBRANCH   8   9
BRANCH   8  12
ATOM     12  O   UNL     1     -10.082 -39.366  41.748  1.00  0.00    -0.388 OA
ATOM     13  H   UNL     1     -10.279 -38.563  42.299  1.00  0.00     0.211 HD
ENDBRANCH   8  12
ENDBRANCH   1   8
BRANCH   1  14
ATOM     14  O   UNL     1     -12.359 -37.868  39.315  1.00  0.00    -0.388 OA
ATOM     15  H   UNL     1     -11.784 -37.258  38.783  1.00  0.00     0.211 HD
ENDBRANCH   1  14
TORSDOF 9
ENDMDL
