MODEL 1
REMARK VINA RESULT:    -5.419      0.000      0.000
REMARK INTER + INTRA:          -6.845
REMARK INTER:                  -6.528
REMARK INTRA:                  -0.316
REMARK UNBOUND:                -0.316
REMARK SMILES O=c1c(O)c(-c2ccc(O)c(O)c2)oc2cc(O)cc(O)c12
REMARK SMILES IDX 5 1 3 2 2 3 1 4 22 5 20 6 19 7 17 8 16 9 15 10 14 11 6 12
REMARK SMILES IDX 7 13 8 14 9 15 13 16 11 17 10 18 12 20 4 22 21 24 18 26
REMARK H PARENT 10 19 12 21 4 23 21 25 18 27
REMARK Flexibility Score: inf
ROOT
ATOM      1  C   UNL     1      -4.427  88.378  -8.506  1.00  0.00     0.180 A 
ATOM      2  C   UNL     1      -3.298  88.073  -7.726  1.00  0.00     0.208 A 
ATOM      3  C   UNL     1      -2.853  86.743  -7.662  1.00  0.00     0.238 A 
ATOM      4  O   UNL     1      -1.875  86.468  -6.918  1.00  0.00    -0.285 OA
ATOM      5  C   UNL     1      -3.532  85.737  -8.391  1.00  0.00     0.111 A 
ATOM      6  C   UNL     1      -3.145  84.364  -8.430  1.00  0.00     0.134 A 
ATOM      7  C   UNL     1      -3.966  83.433  -9.080  1.00  0.00     0.093 A 
ATOM      8  C   UNL     1      -5.126  83.838  -9.746  1.00  0.00     0.123 A 
ATOM      9  C   UNL     1      -5.480  85.184  -9.763  1.00  0.00     0.094 A 
ATOM     10  C   UNL     1      -4.701  86.130  -9.094  1.00  0.00     0.146 A 
ATOM     11  O   UNL     1      -5.080  87.403  -9.126  1.00  0.00    -0.452 OA
ENDROOT
BRANCH   1  12
ATOM     12  C   UNL     1      -4.940  89.760  -8.643  1.00  0.00     0.025 A 
ATOM     13  C   UNL     1      -5.823  90.310  -7.698  1.00  0.00     0.016 A 
ATOM     14  C   UNL     1      -6.276  91.626  -7.835  1.00  0.00     0.051 A 
ATOM     15  C   UNL     1      -5.842  92.413  -8.910  1.00  0.00     0.157 A 
ATOM     16  C   UNL     1      -4.492  90.561  -9.707  1.00  0.00     0.062 A 
ATOM     17  C   UNL     1      -4.946  91.880  -9.845  1.00  0.00     0.158 A 
BRANCH  15  18
ATOM     18  O   UNL     1      -6.293  93.724  -9.051  1.00  0.00    -0.504 OA
ATOM     19  H   UNL     1      -7.256  93.977  -8.865  1.00  0.00     0.293 HD
ENDBRANCH  15  18
BRANCH  17  20
ATOM     20  O   UNL     1      -4.511  92.668 -10.910  1.00  0.00    -0.504 OA
ATOM     21  H   UNL     1      -3.610  92.518 -11.347  1.00  0.00     0.293 HD
ENDBRANCH  17  20
ENDBRANCH   1  12
BRANCH   2  22
ATOM     22  O   UNL     1      -2.656  89.077  -6.996  1.00  0.00    -0.502 OA
ATOM     23  H   UNL     1      -3.164  89.818  -6.526  1.00  0.00     0.293 HD
ENDBRANCH   2  22
BRANCH   6  24
ATOM     24  O   UNL     1      -1.960  83.871  -7.878  1.00  0.00    -0.507 OA
ATOM     25  H   UNL     1      -1.583  82.952  -8.052  1.00  0.00     0.293 HD
ENDBRANCH   6  24
BRANCH   8  26
ATOM     26  O   UNL     1      -5.929  82.907 -10.402  1.00  0.00    -0.508 OA
ATOM     27  H   UNL     1      -5.966  82.858 -11.414  1.00  0.00     0.293 HD
ENDBRANCH   8  26
TORSDOF 6
ENDMDL
MODEL 2
REMARK VINA RESULT:    -5.397      6.722      8.464
REMARK INTER + INTRA:          -6.818
REMARK INTER:                  -6.511
REMARK INTRA:                  -0.307
REMARK UNBOUND:                -0.316
REMARK SMILES O=c1c(O)c(-c2ccc(O)c(O)c2)oc2cc(O)cc(O)c12
REMARK SMILES IDX 5 1 3 2 2 3 1 4 22 5 20 6 19 7 17 8 16 9 15 10 14 11 6 12
REMARK SMILES IDX 7 13 8 14 9 15 13 16 11 17 10 18 12 20 4 22 21 24 18 26
REMARK H PARENT 10 19 12 21 4 23 21 25 18 27
REMARK Flexibility Score: inf
ROOT
ATOM      1  C   UNL     1      -8.452  91.522 -13.400  1.00  0.00     0.180 A 
ATOM      2  C   UNL     1      -7.745  91.957 -12.266  1.00  0.00     0.208 A 
ATOM      3  C   UNL     1      -6.350  92.096 -12.345  1.00  0.00     0.238 A 
ATOM      4  O   UNL     1      -5.716  92.432 -11.310  1.00  0.00    -0.285 OA
ATOM      5  C   UNL     1      -5.682  91.817 -13.562  1.00  0.00     0.111 A 
ATOM      6  C   UNL     1      -4.277  91.962 -13.766  1.00  0.00     0.134 A 
ATOM      7  C   UNL     1      -3.706  91.532 -14.971  1.00  0.00     0.093 A 
ATOM      8  C   UNL     1      -4.500  91.022 -16.002  1.00  0.00     0.123 A 
ATOM      9  C   UNL     1      -5.879  90.931 -15.833  1.00  0.00     0.094 A 
ATOM     10  C   UNL     1      -6.473  91.318 -14.630  1.00  0.00     0.146 A 
ATOM     11  O   UNL     1      -7.790  91.206 -14.506  1.00  0.00    -0.452 OA
ENDROOT
BRANCH   1  12
ATOM     12  C   UNL     1      -9.926  91.375 -13.401  1.00  0.00     0.025 A 
ATOM     13  C   UNL     1     -10.772  92.489 -13.541  1.00  0.00     0.016 A 
ATOM     14  C   UNL     1     -12.160  92.323 -13.563  1.00  0.00     0.051 A 
ATOM     15  C   UNL     1     -12.720  91.044 -13.459  1.00  0.00     0.157 A 
ATOM     16  C   UNL     1     -10.492  90.093 -13.319  1.00  0.00     0.062 A 
ATOM     17  C   UNL     1     -11.885  89.927 -13.341  1.00  0.00     0.158 A 
BRANCH  15  18
ATOM     18  O   UNL     1     -14.104  90.875 -13.479  1.00  0.00    -0.504 OA
ATOM     19  H   UNL     1     -14.727  91.636 -13.724  1.00  0.00     0.293 HD
ENDBRANCH  15  18
BRANCH  17  20
ATOM     20  O   UNL     1     -12.444  88.653 -13.245  1.00  0.00    -0.504 OA
ATOM     21  H   UNL     1     -13.448  88.514 -13.226  1.00  0.00     0.293 HD
ENDBRANCH  17  20
ENDBRANCH   1  12
BRANCH   2  22
ATOM     22  O   UNL     1      -8.421  92.206 -11.069  1.00  0.00    -0.502 OA
ATOM     23  H   UNL     1      -9.415  92.401 -11.035  1.00  0.00     0.293 HD
ENDBRANCH   2  22
BRANCH   6  24
ATOM     24  O   UNL     1      -3.409  92.544 -12.839  1.00  0.00    -0.507 OA
ATOM     25  H   UNL     1      -3.133  92.121 -11.965  1.00  0.00     0.293 HD
ENDBRANCH   6  24
BRANCH   8  26
ATOM     26  O   UNL     1      -3.926  90.611 -17.204  1.00  0.00    -0.508 OA
ATOM     27  H   UNL     1      -4.323  89.854 -17.749  1.00  0.00     0.293 HD
ENDBRANCH   8  26
TORSDOF 6
ENDMDL
MODEL 3
REMARK VINA RESULT:    -5.254      5.814      9.146
REMARK INTER + INTRA:          -6.645
REMARK INTER:                  -6.328
REMARK INTRA:                  -0.317
REMARK UNBOUND:                -0.316
REMARK SMILES O=c1c(O)c(-c2ccc(O)c(O)c2)oc2cc(O)cc(O)c12
REMARK SMILES IDX 5 1 3 2 2 3 1 4 22 5 20 6 19 7 17 8 16 9 15 10 14 11 6 12
REMARK SMILES IDX 7 13 8 14 9 15 13 16 11 17 10 18 12 20 4 22 21 24 18 26
REMARK H PARENT 10 19 12 21 4 23 21 25 18 27
REMARK Flexibility Score: inf
ROOT
ATOM      1  C   UNL     1      -9.820  84.042  -8.983  1.00  0.00     0.180 A 
ATOM      2  C   UNL     1     -10.669  82.950  -9.231  1.00  0.00     0.208 A 
ATOM      3  C   UNL     1     -12.000  83.195  -9.605  1.00  0.00     0.238 A 
ATOM      4  O   UNL     1     -12.771  82.213  -9.772  1.00  0.00    -0.285 OA
ATOM      5  C   UNL     1     -12.460  84.526  -9.743  1.00  0.00     0.111 A 
ATOM      6  C   UNL     1     -13.777  84.890 -10.156  1.00  0.00     0.134 A 
ATOM      7  C   UNL     1     -14.161  86.237 -10.132  1.00  0.00     0.093 A 
ATOM      8  C   UNL     1     -13.255  87.238  -9.773  1.00  0.00     0.123 A 
ATOM      9  C   UNL     1     -11.950  86.897  -9.426  1.00  0.00     0.094 A 
ATOM     10  C   UNL     1     -11.548  85.560  -9.405  1.00  0.00     0.146 A 
ATOM     11  O   UNL     1     -10.298  85.277  -9.058  1.00  0.00    -0.452 OA
ENDROOT
BRANCH   1  12
ATOM     12  C   UNL     1      -8.397  83.864  -8.609  1.00  0.00     0.025 A 
ATOM     13  C   UNL     1      -7.994  83.822  -7.263  1.00  0.00     0.016 A 
ATOM     14  C   UNL     1      -6.649  83.630  -6.934  1.00  0.00     0.051 A 
ATOM     15  C   UNL     1      -5.693  83.464  -7.943  1.00  0.00     0.157 A 
ATOM     16  C   UNL     1      -7.437  83.676  -9.617  1.00  0.00     0.062 A 
ATOM     17  C   UNL     1      -6.087  83.483  -9.286  1.00  0.00     0.158 A 
BRANCH  15  18
ATOM     18  O   UNL     1      -4.350  83.273  -7.619  1.00  0.00    -0.504 OA
ATOM     19  H   UNL     1      -4.066  82.607  -6.910  1.00  0.00     0.293 HD
ENDBRANCH  15  18
BRANCH  17  20
ATOM     20  O   UNL     1      -5.134  83.311 -10.289  1.00  0.00    -0.504 OA
ATOM     21  H   UNL     1      -4.144  83.419 -10.104  1.00  0.00     0.293 HD
ENDBRANCH  17  20
ENDBRANCH   1  12
BRANCH   2  22
ATOM     22  O   UNL     1     -10.201  81.644  -9.067  1.00  0.00    -0.502 OA
ATOM     23  H   UNL     1     -10.508  80.877  -9.656  1.00  0.00     0.293 HD
ENDBRANCH   2  22
BRANCH   6  24
ATOM     24  O   UNL     1     -14.729  83.979 -10.621  1.00  0.00    -0.507 OA
ATOM     25  H   UNL     1     -14.594  82.980 -10.670  1.00  0.00     0.293 HD
ENDBRANCH   6  24
BRANCH   8  26
ATOM     26  O   UNL     1     -13.641  88.577  -9.767  1.00  0.00    -0.508 OA
ATOM     27  H   UNL     1     -13.889  89.061 -10.621  1.00  0.00     0.293 HD
ENDBRANCH   8  26
TORSDOF 6
ENDMDL
MODEL 4
REMARK VINA RESULT:    -5.183      4.761      7.774
REMARK INTER + INTRA:          -6.560
REMARK INTER:                  -6.321
REMARK INTRA:                  -0.239
REMARK UNBOUND:                -0.316
REMARK SMILES O=c1c(O)c(-c2ccc(O)c(O)c2)oc2cc(O)cc(O)c12
REMARK SMILES IDX 5 1 3 2 2 3 1 4 22 5 20 6 19 7 17 8 16 9 15 10 14 11 6 12
REMARK SMILES IDX 7 13 8 14 9 15 13 16 11 17 10 18 12 20 4 22 21 24 18 26
REMARK H PARENT 10 19 12 21 4 23 21 25 18 27
REMARK Flexibility Score: inf
ROOT
ATOM      1  C   UNL     1      -7.545  84.035  -8.810  1.00  0.00     0.180 A 
ATOM      2  C   UNL     1      -8.024  85.343  -8.620  1.00  0.00     0.208 A 
ATOM      3  C   UNL     1      -9.406  85.578  -8.691  1.00  0.00     0.238 A 
ATOM      4  O   UNL     1      -9.824  86.760  -8.575  1.00  0.00    -0.285 OA
ATOM      5  C   UNL     1     -10.293  84.502  -8.934  1.00  0.00     0.111 A 
ATOM      6  C   UNL     1     -11.714  84.619  -8.986  1.00  0.00     0.134 A 
ATOM      7  C   UNL     1     -12.485  83.512  -9.363  1.00  0.00     0.093 A 
ATOM      8  C   UNL     1     -11.890  82.275  -9.625  1.00  0.00     0.123 A 
ATOM      9  C   UNL     1     -10.508  82.137  -9.519  1.00  0.00     0.094 A 
ATOM     10  C   UNL     1      -9.710  83.231  -9.181  1.00  0.00     0.146 A 
ATOM     11  O   UNL     1      -8.395  83.059  -9.101  1.00  0.00    -0.452 OA
ENDROOT
BRANCH   1  12
ATOM     12  C   UNL     1      -6.103  83.704  -8.726  1.00  0.00     0.025 A 
ATOM     13  C   UNL     1      -5.415  83.743  -7.501  1.00  0.00     0.016 A 
ATOM     14  C   UNL     1      -4.060  83.403  -7.441  1.00  0.00     0.051 A 
ATOM     15  C   UNL     1      -3.380  83.008  -8.599  1.00  0.00     0.157 A 
ATOM     16  C   UNL     1      -5.422  83.286  -9.880  1.00  0.00     0.062 A 
ATOM     17  C   UNL     1      -4.062  82.946  -9.820  1.00  0.00     0.158 A 
BRANCH  15  18
ATOM     18  O   UNL     1      -2.029  82.669  -8.544  1.00  0.00    -0.504 OA
ATOM     19  H   UNL     1      -1.391  82.910  -9.294  1.00  0.00     0.293 HD
ENDBRANCH  15  18
BRANCH  17  20
ATOM     20  O   UNL     1      -3.385  82.545 -10.971  1.00  0.00    -0.504 OA
ATOM     21  H   UNL     1      -3.860  82.445 -11.860  1.00  0.00     0.293 HD
ENDBRANCH  17  20
ENDBRANCH   1  12
BRANCH   2  22
ATOM     22  O   UNL     1      -7.129  86.394  -8.404  1.00  0.00    -0.502 OA
ATOM     23  H   UNL     1      -7.331  87.347  -8.685  1.00  0.00     0.293 HD
ENDBRANCH   2  22
BRANCH   6  24
ATOM     24  O   UNL     1     -12.414  85.782  -8.653  1.00  0.00    -0.507 OA
ATOM     25  H   UNL     1     -12.909  85.927  -7.786  1.00  0.00     0.293 HD
ENDBRANCH   6  24
BRANCH   8  26
ATOM     26  O   UNL     1     -12.666  81.175  -9.984  1.00  0.00    -0.508 OA
ATOM     27  H   UNL     1     -12.610  80.766 -10.910  1.00  0.00     0.293 HD
ENDBRANCH   8  26
TORSDOF 6
ENDMDL
MODEL 5
REMARK VINA RESULT:    -5.178      5.701      7.952
REMARK INTER + INTRA:          -6.554
REMARK INTER:                  -6.237
REMARK INTRA:                  -0.317
REMARK UNBOUND:                -0.316
REMARK SMILES O=c1c(O)c(-c2ccc(O)c(O)c2)oc2cc(O)cc(O)c12
REMARK SMILES IDX 5 1 3 2 2 3 1 4 22 5 20 6 19 7 17 8 16 9 15 10 14 11 6 12
REMARK SMILES IDX 7 13 8 14 9 15 13 16 11 17 10 18 12 20 4 22 21 24 18 26
REMARK H PARENT 10 19 12 21 4 23 21 25 18 27
REMARK Flexibility Score: inf
ROOT
ATOM      1  C   UNL     1      -5.655  91.830 -14.880  1.00  0.00     0.180 A 
ATOM      2  C   UNL     1      -4.863  92.583 -13.996  1.00  0.00     0.208 A 
ATOM      3  C   UNL     1      -4.757  92.172 -12.658  1.00  0.00     0.238 A 
ATOM      4  O   UNL     1      -4.091  92.882 -11.858  1.00  0.00    -0.285 OA
ATOM      5  C   UNL     1      -5.429  91.004 -12.224  1.00  0.00     0.111 A 
ATOM      6  C   UNL     1      -5.359  90.473 -10.901  1.00  0.00     0.134 A 
ATOM      7  C   UNL     1      -6.169  89.385 -10.550  1.00  0.00     0.093 A 
ATOM      8  C   UNL     1      -6.997  88.770 -11.493  1.00  0.00     0.123 A 
ATOM      9  C   UNL     1      -7.027  89.244 -12.801  1.00  0.00     0.094 A 
ATOM     10  C   UNL     1      -6.258  90.349 -13.172  1.00  0.00     0.146 A 
ATOM     11  O   UNL     1      -6.324  90.777 -14.428  1.00  0.00    -0.452 OA
ENDROOT
BRANCH   1  12
ATOM     12  C   UNL     1      -5.795  92.186 -16.311  1.00  0.00     0.025 A 
ATOM     13  C   UNL     1      -6.855  92.990 -16.764  1.00  0.00     0.016 A 
ATOM     14  C   UNL     1      -6.953  93.333 -18.116  1.00  0.00     0.051 A 
ATOM     15  C   UNL     1      -5.989  92.889 -19.029  1.00  0.00     0.157 A 
ATOM     16  C   UNL     1      -4.819  91.760 -17.227  1.00  0.00     0.062 A 
ATOM     17  C   UNL     1      -4.918  92.104 -18.583  1.00  0.00     0.158 A 
BRANCH  15  18
ATOM     18  O   UNL     1      -6.085  93.228 -20.377  1.00  0.00    -0.504 OA
ATOM     19  H   UNL     1      -6.141  92.518 -21.099  1.00  0.00     0.293 HD
ENDBRANCH  15  18
BRANCH  17  20
ATOM     20  O   UNL     1      -3.955  91.669 -19.493  1.00  0.00    -0.504 OA
ATOM     21  H   UNL     1      -4.047  90.787 -19.981  1.00  0.00     0.293 HD
ENDBRANCH  17  20
ENDBRANCH   1  12
BRANCH   2  22
ATOM     22  O   UNL     1      -4.226  93.745 -14.439  1.00  0.00    -0.502 OA
ATOM     23  H   UNL     1      -4.598  94.672 -14.261  1.00  0.00     0.293 HD
ENDBRANCH   2  22
BRANCH   6  24
ATOM     24  O   UNL     1      -4.498  90.954  -9.911  1.00  0.00    -0.507 OA
ATOM     25  H   UNL     1      -4.271  90.464  -9.059  1.00  0.00     0.293 HD
ENDBRANCH   6  24
BRANCH   8  26
ATOM     26  O   UNL     1      -7.788  87.679 -11.138  1.00  0.00    -0.508 OA
ATOM     27  H   UNL     1      -8.701  87.529 -11.552  1.00  0.00     0.293 HD
ENDBRANCH   8  26
TORSDOF 6
ENDMDL
MODEL 6
REMARK VINA RESULT:    -5.133      6.953     10.008
REMARK INTER + INTRA:          -6.500
REMARK INTER:                  -6.182
REMARK INTRA:                  -0.317
REMARK UNBOUND:                -0.316
REMARK SMILES O=c1c(O)c(-c2ccc(O)c(O)c2)oc2cc(O)cc(O)c12
REMARK SMILES IDX 5 1 3 2 2 3 1 4 22 5 20 6 19 7 17 8 16 9 15 10 14 11 6 12
REMARK SMILES IDX 7 13 8 14 9 15 13 16 11 17 10 18 12 20 4 22 21 24 18 26
REMARK H PARENT 10 19 12 21 4 23 21 25 18 27
REMARK Flexibility Score: inf
ROOT
ATOM      1  C   UNL     1      -4.149  92.104 -15.630  1.00  0.00     0.180 A 
ATOM      2  C   UNL     1      -3.030  91.500 -16.229  1.00  0.00     0.208 A 
ATOM      3  C   UNL     1      -2.849  91.625 -17.616  1.00  0.00     0.238 A 
ATOM      4  O   UNL     1      -1.875  91.035 -18.154  1.00  0.00    -0.285 OA
ATOM      5  C   UNL     1      -3.779  92.366 -18.384  1.00  0.00     0.111 A 
ATOM      6  C   UNL     1      -3.673  92.591 -19.789  1.00  0.00     0.134 A 
ATOM      7  C   UNL     1      -4.719  93.229 -20.468  1.00  0.00     0.093 A 
ATOM      8  C   UNL     1      -5.838  93.707 -19.780  1.00  0.00     0.123 A 
ATOM      9  C   UNL     1      -5.922  93.544 -18.399  1.00  0.00     0.094 A 
ATOM     10  C   UNL     1      -4.912  92.881 -17.700  1.00  0.00     0.146 A 
ATOM     11  O   UNL     1      -5.037  92.737 -16.386  1.00  0.00    -0.452 OA
ENDROOT
BRANCH   1  12
ATOM     12  C   UNL     1      -4.393  92.038 -14.171  1.00  0.00     0.025 A 
ATOM     13  C   UNL     1      -5.060  90.945 -13.590  1.00  0.00     0.016 A 
ATOM     14  C   UNL     1      -5.259  90.893 -12.207  1.00  0.00     0.051 A 
ATOM     15  C   UNL     1      -4.783  91.923 -11.386  1.00  0.00     0.157 A 
ATOM     16  C   UNL     1      -3.900  93.058 -13.341  1.00  0.00     0.062 A 
ATOM     17  C   UNL     1      -4.099  93.005 -11.954  1.00  0.00     0.158 A 
BRANCH  15  18
ATOM     18  O   UNL     1      -4.980  91.875 -10.007  1.00  0.00    -0.504 OA
ATOM     19  H   UNL     1      -4.523  91.178  -9.431  1.00  0.00     0.293 HD
ENDBRANCH  15  18
BRANCH  17  20
ATOM     20  O   UNL     1      -3.620  94.026 -11.133  1.00  0.00    -0.504 OA
ATOM     21  H   UNL     1      -4.077  94.264 -10.261  1.00  0.00     0.293 HD
ENDBRANCH  17  20
ENDBRANCH   1  12
BRANCH   2  22
ATOM     22  O   UNL     1      -2.136  90.754 -15.456  1.00  0.00    -0.502 OA
ATOM     23  H   UNL     1      -1.151  90.678 -15.684  1.00  0.00     0.293 HD
ENDBRANCH   2  22
BRANCH   6  24
ATOM     24  O   UNL     1      -2.559  92.237 -20.554  1.00  0.00    -0.507 OA
ATOM     25  H   UNL     1      -1.636  92.629 -20.442  1.00  0.00     0.293 HD
ENDBRANCH   6  24
BRANCH   8  26
ATOM     26  O   UNL     1      -6.867  94.354 -20.460  1.00  0.00    -0.508 OA
ATOM     27  H   UNL     1      -7.770  94.515 -20.028  1.00  0.00     0.293 HD
ENDBRANCH   8  26
TORSDOF 6
ENDMDL
MODEL 7
REMARK VINA RESULT:    -5.121      4.297      6.613
REMARK INTER + INTRA:          -6.485
REMARK INTER:                  -6.158
REMARK INTRA:                  -0.328
REMARK UNBOUND:                -0.316
REMARK SMILES O=c1c(O)c(-c2ccc(O)c(O)c2)oc2cc(O)cc(O)c12
REMARK SMILES IDX 5 1 3 2 2 3 1 4 22 5 20 6 19 7 17 8 16 9 15 10 14 11 6 12
REMARK SMILES IDX 7 13 8 14 9 15 13 16 11 17 10 18 12 20 4 22 21 24 18 26
REMARK H PARENT 10 19 12 21 4 23 21 25 18 27
REMARK Flexibility Score: inf
ROOT
ATOM      1  C   UNL     1      -6.315  90.269 -12.686  1.00  0.00     0.180 A 
ATOM      2  C   UNL     1      -7.223  89.264 -12.312  1.00  0.00     0.208 A 
ATOM      3  C   UNL     1      -7.222  88.806 -10.985  1.00  0.00     0.238 A 
ATOM      4  O   UNL     1      -8.000  87.867 -10.669  1.00  0.00    -0.285 OA
ATOM      5  C   UNL     1      -6.326  89.370 -10.045  1.00  0.00     0.111 A 
ATOM      6  C   UNL     1      -6.267  89.010  -8.665  1.00  0.00     0.134 A 
ATOM      7  C   UNL     1      -5.253  89.539  -7.856  1.00  0.00     0.093 A 
ATOM      8  C   UNL     1      -4.337  90.465  -8.363  1.00  0.00     0.123 A 
ATOM      9  C   UNL     1      -4.425  90.867  -9.694  1.00  0.00     0.094 A 
ATOM     10  C   UNL     1      -5.402  90.330 -10.534  1.00  0.00     0.146 A 
ATOM     11  O   UNL     1      -5.444  90.732 -11.799  1.00  0.00    -0.452 OA
ENDROOT
BRANCH   1  12
ATOM     12  C   UNL     1      -6.273  90.821 -14.060  1.00  0.00     0.025 A 
ATOM     13  C   UNL     1      -7.135  91.857 -14.459  1.00  0.00     0.016 A 
ATOM     14  C   UNL     1      -7.062  92.378 -15.754  1.00  0.00     0.051 A 
ATOM     15  C   UNL     1      -6.119  91.882 -16.662  1.00  0.00     0.157 A 
ATOM     16  C   UNL     1      -5.316  90.341 -14.969  1.00  0.00     0.062 A 
ATOM     17  C   UNL     1      -5.242  90.864 -16.268  1.00  0.00     0.158 A 
BRANCH  15  18
ATOM     18  O   UNL     1      -6.043  92.398 -17.955  1.00  0.00    -0.504 OA
ATOM     19  H   UNL     1      -5.174  92.395 -18.477  1.00  0.00     0.293 HD
ENDBRANCH  15  18
BRANCH  17  20
ATOM     20  O   UNL     1      -4.299  90.376 -17.171  1.00  0.00    -0.504 OA
ATOM     21  H   UNL     1      -3.620  90.986 -17.611  1.00  0.00     0.293 HD
ENDBRANCH  17  20
ENDBRANCH   1  12
BRANCH   2  22
ATOM     22  O   UNL     1      -8.084  88.705 -13.260  1.00  0.00    -0.502 OA
ATOM     23  H   UNL     1      -8.258  87.708 -13.317  1.00  0.00     0.293 HD
ENDBRANCH   2  22
BRANCH   6  24
ATOM     24  O   UNL     1      -7.188  88.166  -8.038  1.00  0.00    -0.507 OA
ATOM     25  H   UNL     1      -8.139  88.027  -8.342  1.00  0.00     0.293 HD
ENDBRANCH   6  24
BRANCH   8  26
ATOM     26  O   UNL     1      -3.341  90.998  -7.548  1.00  0.00    -0.508 OA
ATOM     27  H   UNL     1      -3.540  91.319  -6.608  1.00  0.00     0.293 HD
ENDBRANCH   8  26
TORSDOF 6
ENDMDL
MODEL 8
REMARK VINA RESULT:    -5.102      1.507      2.981
REMARK INTER + INTRA:          -6.462
REMARK INTER:                  -6.354
REMARK INTRA:                  -0.108
REMARK UNBOUND:                -0.316
REMARK SMILES O=c1c(O)c(-c2ccc(O)c(O)c2)oc2cc(O)cc(O)c12
REMARK SMILES IDX 5 1 3 2 2 3 1 4 22 5 20 6 19 7 17 8 16 9 15 10 14 11 6 12
REMARK SMILES IDX 7 13 8 14 9 15 13 16 11 17 10 18 12 20 4 22 21 24 18 26
REMARK H PARENT 10 19 12 21 4 23 21 25 18 27
REMARK Flexibility Score: inf
ROOT
ATOM      1  C   UNL     1      -5.207  88.089  -9.144  1.00  0.00     0.180 A 
ATOM      2  C   UNL     1      -6.437  87.625  -9.643  1.00  0.00     0.208 A 
ATOM      3  C   UNL     1      -6.623  86.245  -9.819  1.00  0.00     0.238 A 
ATOM      4  O   UNL     1      -7.706  85.840 -10.318  1.00  0.00    -0.285 OA
ATOM      5  C   UNL     1      -5.585  85.344  -9.479  1.00  0.00     0.111 A 
ATOM      6  C   UNL     1      -5.679  83.924  -9.579  1.00  0.00     0.134 A 
ATOM      7  C   UNL     1      -4.545  83.137  -9.339  1.00  0.00     0.093 A 
ATOM      8  C   UNL     1      -3.338  83.718  -8.939  1.00  0.00     0.123 A 
ATOM      9  C   UNL     1      -3.254  85.098  -8.782  1.00  0.00     0.094 A 
ATOM     10  C   UNL     1      -4.357  85.911  -9.049  1.00  0.00     0.146 A 
ATOM     11  O   UNL     1      -4.231  87.225  -8.896  1.00  0.00    -0.452 OA
ENDROOT
BRANCH   1  12
ATOM     12  C   UNL     1      -4.944  89.527  -8.908  1.00  0.00     0.025 A 
ATOM     13  C   UNL     1      -4.611  90.009  -7.630  1.00  0.00     0.016 A 
ATOM     14  C   UNL     1      -4.344  91.368  -7.435  1.00  0.00     0.051 A 
ATOM     15  C   UNL     1      -4.394  92.259  -8.515  1.00  0.00     0.157 A 
ATOM     16  C   UNL     1      -4.972  90.421  -9.990  1.00  0.00     0.062 A 
ATOM     17  C   UNL     1      -4.705  91.784  -9.795  1.00  0.00     0.158 A 
BRANCH  15  18
ATOM     18  O   UNL     1      -4.130  93.614  -8.324  1.00  0.00    -0.504 OA
ATOM     19  H   UNL     1      -4.176  94.039  -7.405  1.00  0.00     0.293 HD
ENDBRANCH  15  18
BRANCH  17  20
ATOM     20  O   UNL     1      -4.746  92.672 -10.869  1.00  0.00    -0.504 OA
ATOM     21  H   UNL     1      -5.572  92.766 -11.449  1.00  0.00     0.293 HD
ENDBRANCH  17  20
ENDBRANCH   1  12
BRANCH   2  22
ATOM     22  O   UNL     1      -7.440  88.532  -9.994  1.00  0.00    -0.502 OA
ATOM     23  H   UNL     1      -7.709  89.304  -9.394  1.00  0.00     0.293 HD
ENDBRANCH   2  22
BRANCH   6  24
ATOM     24  O   UNL     1      -6.860  83.239  -9.880  1.00  0.00    -0.507 OA
ATOM     25  H   UNL     1      -7.127  82.932 -10.804  1.00  0.00     0.293 HD
ENDBRANCH   6  24
BRANCH   8  26
ATOM     26  O   UNL     1      -2.219  82.927  -8.687  1.00  0.00    -0.508 OA
ATOM     27  H   UNL     1      -1.302  83.334  -8.549  1.00  0.00     0.293 HD
ENDBRANCH   8  26
TORSDOF 6
ENDMDL
MODEL 9
REMARK VINA RESULT:    -5.038      4.231      7.075
REMARK INTER + INTRA:          -6.385
REMARK INTER:                  -6.069
REMARK INTRA:                  -0.316
REMARK UNBOUND:                -0.316
REMARK SMILES O=c1c(O)c(-c2ccc(O)c(O)c2)oc2cc(O)cc(O)c12
REMARK SMILES IDX 5 1 3 2 2 3 1 4 22 5 20 6 19 7 17 8 16 9 15 10 14 11 6 12
REMARK SMILES IDX 7 13 8 14 9 15 13 16 11 17 10 18 12 20 4 22 21 24 18 26
REMARK H PARENT 10 19 12 21 4 23 21 25 18 27
REMARK Flexibility Score: inf
ROOT
ATOM      1  C   UNL     1      -5.159  91.834 -12.973  1.00  0.00     0.180 A 
ATOM      2  C   UNL     1      -4.640  92.980 -12.346  1.00  0.00     0.208 A 
ATOM      3  C   UNL     1      -4.475  92.977 -10.951  1.00  0.00     0.238 A 
ATOM      4  O   UNL     1      -4.061  94.025 -10.389  1.00  0.00    -0.285 OA
ATOM      5  C   UNL     1      -4.813  91.823 -10.204  1.00  0.00     0.111 A 
ATOM      6  C   UNL     1      -4.649  91.696  -8.792  1.00  0.00     0.134 A 
ATOM      7  C   UNL     1      -5.139  90.557  -8.140  1.00  0.00     0.093 A 
ATOM      8  C   UNL     1      -5.729  89.513  -8.859  1.00  0.00     0.123 A 
ATOM      9  C   UNL     1      -5.840  89.604 -10.244  1.00  0.00     0.094 A 
ATOM     10  C   UNL     1      -5.393  90.742 -10.918  1.00  0.00     0.146 A 
ATOM     11  O   UNL     1      -5.528  90.793 -12.238  1.00  0.00    -0.452 OA
ENDROOT
BRANCH   1  12
ATOM     12  C   UNL     1      -5.338  91.753 -14.441  1.00  0.00     0.025 A 
ATOM     13  C   UNL     1      -6.498  92.244 -15.064  1.00  0.00     0.016 A 
ATOM     14  C   UNL     1      -6.635  92.177 -16.454  1.00  0.00     0.051 A 
ATOM     15  C   UNL     1      -5.611  91.634 -17.239  1.00  0.00     0.157 A 
ATOM     16  C   UNL     1      -4.305  91.228 -15.235  1.00  0.00     0.062 A 
ATOM     17  C   UNL     1      -4.443  91.161 -16.629  1.00  0.00     0.158 A 
BRANCH  15  18
ATOM     18  O   UNL     1      -5.745  91.565 -18.625  1.00  0.00    -0.504 OA
ATOM     19  H   UNL     1      -5.454  90.745 -19.146  1.00  0.00     0.293 HD
ENDBRANCH  15  18
BRANCH  17  20
ATOM     20  O   UNL     1      -3.421  90.627 -17.413  1.00  0.00    -0.504 OA
ATOM     21  H   UNL     1      -3.602  89.906 -18.101  1.00  0.00     0.293 HD
ENDBRANCH  17  20
ENDBRANCH   1  12
BRANCH   2  22
ATOM     22  O   UNL     1      -4.333  94.116 -13.099  1.00  0.00    -0.502 OA
ATOM     23  H   UNL     1      -3.578  94.133 -13.776  1.00  0.00     0.293 HD
ENDBRANCH   2  22
BRANCH   6  24
ATOM     24  O   UNL     1      -3.992  92.636  -7.994  1.00  0.00    -0.507 OA
ATOM     25  H   UNL     1      -3.141  92.461  -7.482  1.00  0.00     0.293 HD
ENDBRANCH   6  24
BRANCH   8  26
ATOM     26  O   UNL     1      -6.201  88.377  -8.204  1.00  0.00    -0.508 OA
ATOM     27  H   UNL     1      -5.787  87.466  -8.359  1.00  0.00     0.293 HD
ENDBRANCH   8  26
TORSDOF 6
ENDMDL
