MODEL 1
REMARK VINA RESULT:    -4.168      0.000      0.000
REMARK INTER + INTRA:          -5.309
REMARK INTER:                  -5.020
REMARK INTRA:                  -0.288
REMARK UNBOUND:                -0.288
REMARK SMILES NC(=O)C[C@H]([NH3+])C(=O)[O-]
REMARK SMILES IDX 4 1 5 2 6 3 7 7 8 8 9 9 2 10 3 11 1 12
REMARK H PARENT 6 4 6 5 6 6 1 13 1 14
REMARK Flexibility Score: inf
ROOT
ATOM      1  C   UNL     1     -38.897  21.369 -29.109  1.00  0.00     0.171 C 
ENDROOT
BRANCH   1   2
ATOM      2  C   UNL     1     -39.487  19.948 -29.006  1.00  0.00     0.237 C 
BRANCH   2   3
ATOM      3  N   UNL     1     -40.564  19.910 -28.011  1.00  0.00    -0.350 N 
ATOM      4  H   UNL     1     -40.295  19.314 -27.195  1.00  0.00     0.345 HD
ATOM      5  H   UNL     1     -40.768  20.879 -27.673  1.00  0.00     0.345 HD
ATOM      6  H   UNL     1     -41.436  19.525 -28.445  1.00  0.00     0.345 HD
ENDBRANCH   2   3
BRANCH   2   7
ATOM      7  C   UNL     1     -38.420  18.941 -28.657  1.00  0.00     0.100 C 
ATOM      8  O   UNL     1     -37.853  18.974 -27.533  1.00  0.00    -0.544 OA
ATOM      9  O   UNL     1     -38.042  17.980 -29.587  1.00  0.00    -0.544 OA
ENDBRANCH   2   7
ENDBRANCH   1   2
BRANCH   1  10
ATOM     10  C   UNL     1     -39.969  22.419 -29.046  1.00  0.00     0.223 C 
ATOM     11  O   UNL     1     -40.959  22.350 -29.824  1.00  0.00    -0.275 OA
ATOM     12  N   UNL     1     -39.858  23.516 -28.140  1.00  0.00    -0.369 N 
ATOM     13  H   UNL     1     -40.598  24.251 -28.110  1.00  0.00     0.159 HD
ATOM     14  H   UNL     1     -39.036  23.600 -27.502  1.00  0.00     0.159 HD
ENDBRANCH   1  10
TORSDOF 4
ENDMDL
MODEL 2
REMARK VINA RESULT:    -4.121      3.700      5.617
REMARK INTER + INTRA:          -5.253
REMARK INTER:                  -4.978
REMARK INTRA:                  -0.275
REMARK UNBOUND:                -0.288
REMARK SMILES NC(=O)C[C@H]([NH3+])C(=O)[O-]
REMARK SMILES IDX 4 1 5 2 6 3 7 7 8 8 9 9 2 10 3 11 1 12
REMARK H PARENT 6 4 6 5 6 6 1 13 1 14
REMARK Flexibility Score: inf
ROOT
ATOM      1  C   UNL     1     -36.843  17.470 -29.992  1.00  0.00     0.171 C 
ENDROOT
BRANCH   1   2
ATOM      2  C   UNL     1     -38.341  17.769 -30.203  1.00  0.00     0.237 C 
BRANCH   2   3
ATOM      3  N   UNL     1     -38.860  17.013 -31.347  1.00  0.00    -0.350 N 
ATOM      4  H   UNL     1     -39.905  16.974 -31.323  1.00  0.00     0.345 HD
ATOM      5  H   UNL     1     -38.556  17.468 -32.240  1.00  0.00     0.345 HD
ATOM      6  H   UNL     1     -38.478  16.039 -31.332  1.00  0.00     0.345 HD
ENDBRANCH   2   3
BRANCH   2   7
ATOM      7  C   UNL     1     -38.576  19.245 -30.404  1.00  0.00     0.100 C 
ATOM      8  O   UNL     1     -38.217  19.810 -31.471  1.00  0.00    -0.544 OA
ATOM      9  O   UNL     1     -39.175  19.995 -29.399  1.00  0.00    -0.544 OA
ENDBRANCH   2   7
ENDBRANCH   1   2
BRANCH   1  10
ATOM     10  C   UNL     1     -36.572  15.992 -29.971  1.00  0.00     0.223 C 
ATOM     11  O   UNL     1     -37.302  15.232 -29.280  1.00  0.00    -0.275 OA
ATOM     12  N   UNL     1     -35.471  15.447 -30.697  1.00  0.00    -0.369 N 
ATOM     13  H   UNL     1     -35.277  14.421 -30.668  1.00  0.00     0.159 HD
ATOM     14  H   UNL     1     -34.844  16.064 -31.260  1.00  0.00     0.159 HD
ENDBRANCH   1  10
TORSDOF 4
ENDMDL
MODEL 3
REMARK VINA RESULT:    -4.036      2.284      2.760
REMARK INTER + INTRA:          -5.150
REMARK INTER:                  -4.865
REMARK INTRA:                  -0.285
REMARK UNBOUND:                -0.288
REMARK SMILES NC(=O)C[C@H]([NH3+])C(=O)[O-]
REMARK SMILES IDX 4 1 5 2 6 3 7 7 8 8 9 9 2 10 3 11 1 12
REMARK H PARENT 6 4 6 5 6 6 1 13 1 14
REMARK Flexibility Score: inf
ROOT
ATOM      1  C   UNL     1     -39.118  19.537 -29.199  1.00  0.00     0.171 C 
ENDROOT
BRANCH   1   2
ATOM      2  C   UNL     1     -38.101  19.008 -30.230  1.00  0.00     0.237 C 
BRANCH   2   3
ATOM      3  N   UNL     1     -38.207  19.758 -31.486  1.00  0.00    -0.350 N 
ATOM      4  H   UNL     1     -39.204  19.827 -31.795  1.00  0.00     0.345 HD
ATOM      5  H   UNL     1     -37.823  20.723 -31.356  1.00  0.00     0.345 HD
ATOM      6  H   UNL     1     -37.647  19.283 -32.233  1.00  0.00     0.345 HD
ENDBRANCH   2   3
BRANCH   2   7
ATOM      7  C   UNL     1     -38.301  17.536 -30.484  1.00  0.00     0.100 C 
ATOM      8  O   UNL     1     -39.171  17.141 -31.305  1.00  0.00    -0.544 OA
ATOM      9  O   UNL     1     -37.535  16.603 -29.794  1.00  0.00    -0.544 OA
ENDBRANCH   2   7
ENDBRANCH   1   2
BRANCH   1  10
ATOM     10  C   UNL     1     -39.149  21.039 -29.171  1.00  0.00     0.223 C 
ATOM     11  O   UNL     1     -38.068  21.686 -29.133  1.00  0.00    -0.275 OA
ATOM     12  N   UNL     1     -40.393  21.738 -29.149  1.00  0.00    -0.369 N 
ATOM     13  H   UNL     1     -40.410  22.781 -29.116  1.00  0.00     0.159 HD
ATOM     14  H   UNL     1     -41.299  21.217 -29.161  1.00  0.00     0.159 HD
ENDBRANCH   1  10
TORSDOF 4
ENDMDL
MODEL 4
REMARK VINA RESULT:    -3.911      2.645      4.686
REMARK INTER + INTRA:          -4.999
REMARK INTER:                  -4.729
REMARK INTRA:                  -0.270
REMARK UNBOUND:                -0.288
REMARK SMILES NC(=O)C[C@H]([NH3+])C(=O)[O-]
REMARK SMILES IDX 4 1 5 2 6 3 7 7 8 8 9 9 2 10 3 11 1 12
REMARK H PARENT 6 4 6 5 6 6 1 13 1 14
REMARK Flexibility Score: inf
ROOT
ATOM      1  C   UNL     1     -38.267  18.180 -29.763  1.00  0.00     0.171 C 
ENDROOT
BRANCH   1   2
ATOM      2  C   UNL     1     -38.214  19.252 -28.656  1.00  0.00     0.237 C 
BRANCH   2   3
ATOM      3  N   UNL     1     -37.896  18.639 -27.362  1.00  0.00    -0.350 N 
ATOM      4  H   UNL     1     -37.086  19.123 -26.911  1.00  0.00     0.345 HD
ATOM      5  H   UNL     1     -38.726  18.702 -26.727  1.00  0.00     0.345 HD
ATOM      6  H   UNL     1     -37.663  17.628 -27.495  1.00  0.00     0.345 HD
ENDBRANCH   2   3
BRANCH   2   7
ATOM      7  C   UNL     1     -39.516  20.007 -28.569  1.00  0.00     0.100 C 
ATOM      8  O   UNL     1     -40.500  19.517 -27.955  1.00  0.00    -0.544 OA
ATOM      9  O   UNL     1     -39.642  21.246 -29.187  1.00  0.00    -0.544 OA
ENDBRANCH   2   7
ENDBRANCH   1   2
BRANCH   1  10
ATOM     10  C   UNL     1     -37.143  17.192 -29.631  1.00  0.00     0.223 C 
ATOM     11  O   UNL     1     -35.994  17.593 -29.303  1.00  0.00    -0.275 OA
ATOM     12  N   UNL     1     -37.356  15.809 -29.912  1.00  0.00    -0.369 N 
ATOM     13  H   UNL     1     -36.568  15.128 -29.833  1.00  0.00     0.159 HD
ATOM     14  H   UNL     1     -38.296  15.462 -30.204  1.00  0.00     0.159 HD
ENDBRANCH   1  10
TORSDOF 4
ENDMDL
MODEL 5
REMARK VINA RESULT:    -3.836      2.222      2.798
REMARK INTER + INTRA:          -4.909
REMARK INTER:                  -4.628
REMARK INTRA:                  -0.282
REMARK UNBOUND:                -0.288
REMARK SMILES NC(=O)C[C@H]([NH3+])C(=O)[O-]
REMARK SMILES IDX 4 1 5 2 6 3 7 7 8 8 9 9 2 10 3 11 1 12
REMARK H PARENT 6 4 6 5 6 6 1 13 1 14
REMARK Flexibility Score: inf
ROOT
ATOM      1  C   UNL     1     -38.331  19.061 -28.348  1.00  0.00     0.171 C 
ENDROOT
BRANCH   1   2
ATOM      2  C   UNL     1     -37.836  18.487 -29.691  1.00  0.00     0.237 C 
BRANCH   2   3
ATOM      3  N   UNL     1     -38.963  17.976 -30.479  1.00  0.00    -0.350 N 
ATOM      4  H   UNL     1     -39.597  17.394 -29.885  1.00  0.00     0.345 HD
ATOM      5  H   UNL     1     -39.508  18.777 -30.877  1.00  0.00     0.345 HD
ATOM      6  H   UNL     1     -38.608  17.397 -31.275  1.00  0.00     0.345 HD
ENDBRANCH   2   3
BRANCH   2   7
ATOM      7  C   UNL     1     -36.818  17.397 -29.472  1.00  0.00     0.100 C 
ATOM      8  O   UNL     1     -35.617  17.684 -29.224  1.00  0.00    -0.544 OA
ATOM      9  O   UNL     1     -37.199  16.063 -29.562  1.00  0.00    -0.544 OA
ENDBRANCH   2   7
ENDBRANCH   1   2
BRANCH   1  10
ATOM     10  C   UNL     1     -39.571  19.891 -28.525  1.00  0.00     0.223 C 
ATOM     11  O   UNL     1     -39.588  20.815 -29.382  1.00  0.00    -0.275 OA
ATOM     12  N   UNL     1     -40.717  19.667 -27.704  1.00  0.00    -0.369 N 
ATOM     13  H   UNL     1     -41.571  20.256 -27.821  1.00  0.00     0.159 HD
ATOM     14  H   UNL     1     -40.714  18.918 -26.976  1.00  0.00     0.159 HD
ENDBRANCH   1  10
TORSDOF 4
ENDMDL
MODEL 6
REMARK VINA RESULT:    -3.804      3.883      4.847
REMARK INTER + INTRA:          -4.870
REMARK INTER:                  -4.745
REMARK INTRA:                  -0.125
REMARK UNBOUND:                -0.288
REMARK SMILES NC(=O)C[C@H]([NH3+])C(=O)[O-]
REMARK SMILES IDX 4 1 5 2 6 3 7 7 8 8 9 9 2 10 3 11 1 12
REMARK H PARENT 6 4 6 5 6 6 1 13 1 14
REMARK Flexibility Score: inf
ROOT
ATOM      1  C   UNL     1     -36.237  17.874 -29.216  1.00  0.00     0.171 C 
ENDROOT
BRANCH   1   2
ATOM      2  C   UNL     1     -37.446  16.990 -29.583  1.00  0.00     0.237 C 
BRANCH   2   3
ATOM      3  N   UNL     1     -36.996  15.682 -30.069  1.00  0.00    -0.350 N 
ATOM      4  H   UNL     1     -36.124  15.382 -29.575  1.00  0.00     0.345 HD
ATOM      5  H   UNL     1     -37.744  14.967 -29.905  1.00  0.00     0.345 HD
ATOM      6  H   UNL     1     -36.811  15.729 -31.098  1.00  0.00     0.345 HD
ENDBRANCH   2   3
BRANCH   2   7
ATOM      7  C   UNL     1     -38.313  17.661 -30.618  1.00  0.00     0.100 C 
ATOM      8  O   UNL     1     -39.186  17.003 -31.244  1.00  0.00    -0.544 OA
ATOM      9  O   UNL     1     -38.139  19.011 -30.900  1.00  0.00    -0.544 OA
ENDBRANCH   2   7
ENDBRANCH   1   2
BRANCH   1  10
ATOM     10  C   UNL     1     -36.322  18.368 -27.799  1.00  0.00     0.223 C 
ATOM     11  O   UNL     1     -35.302  18.863 -27.247  1.00  0.00    -0.275 OA
ATOM     12  N   UNL     1     -37.537  18.247 -27.061  1.00  0.00    -0.369 N 
ATOM     13  H   UNL     1     -37.588  18.578 -26.072  1.00  0.00     0.159 HD
ATOM     14  H   UNL     1     -38.386  17.822 -27.496  1.00  0.00     0.159 HD
ENDBRANCH   1  10
TORSDOF 4
ENDMDL
MODEL 7
REMARK VINA RESULT:    -3.796      2.859      4.593
REMARK INTER + INTRA:          -4.861
REMARK INTER:                  -4.606
REMARK INTRA:                  -0.255
REMARK UNBOUND:                -0.288
REMARK SMILES NC(=O)C[C@H]([NH3+])C(=O)[O-]
REMARK SMILES IDX 4 1 5 2 6 3 7 7 8 8 9 9 2 10 3 11 1 12
REMARK H PARENT 6 4 6 5 6 6 1 13 1 14
REMARK Flexibility Score: inf
ROOT
ATOM      1  C   UNL     1     -37.614  18.546 -29.880  1.00  0.00     0.171 C 
ENDROOT
BRANCH   1   2
ATOM      2  C   UNL     1     -38.521  19.711 -30.327  1.00  0.00     0.237 C 
BRANCH   2   3
ATOM      3  N   UNL     1     -38.141  20.173 -31.666  1.00  0.00    -0.350 N 
ATOM      4  H   UNL     1     -37.577  21.052 -31.608  1.00  0.00     0.345 HD
ATOM      5  H   UNL     1     -37.575  19.436 -32.148  1.00  0.00     0.345 HD
ATOM      6  H   UNL     1     -38.999  20.351 -32.238  1.00  0.00     0.345 HD
ENDBRANCH   2   3
BRANCH   2   7
ATOM      7  C   UNL     1     -38.461  20.852 -29.344  1.00  0.00     0.100 C 
ATOM      8  O   UNL     1     -39.455  21.607 -29.179  1.00  0.00    -0.544 OA
ATOM      9  O   UNL     1     -37.293  21.089 -28.627  1.00  0.00    -0.544 OA
ENDBRANCH   2   7
ENDBRANCH   1   2
BRANCH   1  10
ATOM     10  C   UNL     1     -38.083  17.233 -30.440  1.00  0.00     0.223 C 
ATOM     11  O   UNL     1     -39.056  17.207 -31.242  1.00  0.00    -0.275 OA
ATOM     12  N   UNL     1     -37.462  16.011 -30.042  1.00  0.00    -0.369 N 
ATOM     13  H   UNL     1     -37.801  15.100 -30.422  1.00  0.00     0.159 HD
ATOM     14  H   UNL     1     -36.669  16.013 -29.364  1.00  0.00     0.159 HD
ENDBRANCH   1  10
TORSDOF 4
ENDMDL
MODEL 8
REMARK VINA RESULT:    -3.785      4.258      4.828
REMARK INTER + INTRA:          -4.848
REMARK INTER:                  -4.719
REMARK INTRA:                  -0.130
REMARK UNBOUND:                -0.288
REMARK SMILES NC(=O)C[C@H]([NH3+])C(=O)[O-]
REMARK SMILES IDX 4 1 5 2 6 3 7 7 8 8 9 9 2 10 3 11 1 12
REMARK H PARENT 6 4 6 5 6 6 1 13 1 14
REMARK Flexibility Score: inf
ROOT
ATOM      1  C   UNL     1     -37.256  16.968 -29.784  1.00  0.00     0.171 C 
ENDROOT
BRANCH   1   2
ATOM      2  C   UNL     1     -36.026  17.878 -29.589  1.00  0.00     0.237 C 
BRANCH   2   3
ATOM      3  N   UNL     1     -34.796  17.162 -29.944  1.00  0.00    -0.350 N 
ATOM      4  H   UNL     1     -34.092  17.229 -29.173  1.00  0.00     0.345 HD
ATOM      5  H   UNL     1     -35.012  16.153 -30.122  1.00  0.00     0.345 HD
ATOM      6  H   UNL     1     -34.388  17.567 -30.819  1.00  0.00     0.345 HD
ENDBRANCH   2   3
BRANCH   2   7
ATOM      7  C   UNL     1     -35.944  18.383 -28.171  1.00  0.00     0.100 C 
ATOM      8  O   UNL     1     -34.847  18.774 -27.694  1.00  0.00    -0.544 OA
ATOM      9  O   UNL     1     -37.084  18.400 -27.375  1.00  0.00    -0.544 OA
ENDBRANCH   2   7
ENDBRANCH   1   2
BRANCH   1  10
ATOM     10  C   UNL     1     -38.286  17.613 -30.668  1.00  0.00     0.223 C 
ATOM     11  O   UNL     1     -38.391  18.869 -30.692  1.00  0.00    -0.275 OA
ATOM     12  N   UNL     1     -39.173  16.814 -31.450  1.00  0.00    -0.369 N 
ATOM     13  H   UNL     1     -39.897  17.266 -32.052  1.00  0.00     0.159 HD
ATOM     14  H   UNL     1     -39.112  15.772 -31.428  1.00  0.00     0.159 HD
ENDBRANCH   1  10
TORSDOF 4
ENDMDL
MODEL 9
REMARK VINA RESULT:    -3.751      3.089      3.419
REMARK INTER + INTRA:          -4.807
REMARK INTER:                  -4.690
REMARK INTRA:                  -0.118
REMARK UNBOUND:                -0.288
REMARK SMILES NC(=O)C[C@H]([NH3+])C(=O)[O-]
REMARK SMILES IDX 4 1 5 2 6 3 7 7 8 8 9 9 2 10 3 11 1 12
REMARK H PARENT 6 4 6 5 6 6 1 13 1 14
REMARK Flexibility Score: inf
ROOT
ATOM      1  C   UNL     1     -38.777  18.849 -29.915  1.00  0.00     0.171 C 
ENDROOT
BRANCH   1   2
ATOM      2  C   UNL     1     -38.090  17.722 -30.712  1.00  0.00     0.237 C 
BRANCH   2   3
ATOM      3  N   UNL     1     -39.087  16.783 -31.237  1.00  0.00    -0.350 N 
ATOM      4  H   UNL     1     -38.871  15.805 -30.935  1.00  0.00     0.345 HD
ATOM      5  H   UNL     1     -40.038  17.045 -30.887  1.00  0.00     0.345 HD
ATOM      6  H   UNL     1     -39.101  16.826 -32.283  1.00  0.00     0.345 HD
ENDBRANCH   2   3
BRANCH   2   7
ATOM      7  C   UNL     1     -37.083  16.991 -29.861  1.00  0.00     0.100 C 
ATOM      8  O   UNL     1     -36.014  17.555 -29.508  1.00  0.00    -0.544 OA
ATOM      9  O   UNL     1     -37.325  15.677 -29.475  1.00  0.00    -0.544 OA
ENDBRANCH   2   7
ENDBRANCH   1   2
BRANCH   1  10
ATOM     10  C   UNL     1     -38.355  20.207 -30.401  1.00  0.00     0.223 C 
ATOM     11  O   UNL     1     -38.328  21.179 -29.598  1.00  0.00    -0.275 OA
ATOM     12  N   UNL     1     -38.022  20.415 -31.773  1.00  0.00    -0.369 N 
ATOM     13  H   UNL     1     -37.743  21.363 -32.109  1.00  0.00     0.159 HD
ATOM     14  H   UNL     1     -38.057  19.626 -32.456  1.00  0.00     0.159 HD
ENDBRANCH   1  10
TORSDOF 4
ENDMDL
