MODEL 1
REMARK VINA RESULT:    -4.935      0.000      0.000
REMARK INTER + INTRA:         -10.150
REMARK INTER:                  -8.974
REMARK INTRA:                  -1.176
REMARK UNBOUND:                -1.176
REMARK SMILES CCCCCCCCCCCCCC[C@@H](C)C(=O)[O-]
REMARK SMILES IDX 9 1 10 2 11 3 12 4 13 5 14 6 15 7 16 8 17 9 18 10 19 11 8 12
REMARK SMILES IDX 7 13 6 14 5 15 4 16 3 17 2 18 1 19
REMARK H PARENT
REMARK Flexibility Score: inf
ROOT
ATOM      1  C   UNL     1      -1.559 -41.612 -18.761  1.00  0.00     0.000 C 
ENDROOT
BRANCH   1   2
ATOM      2  C   UNL     1      -0.874 -41.112 -20.039  1.00  0.00     0.000 C 
BRANCH   2   3
ATOM      3  C   UNL     1      -1.538 -39.831 -20.554  1.00  0.00     0.000 C 
BRANCH   3   4
ATOM      4  C   UNL     1      -0.604 -39.072 -21.510  1.00  0.00     0.000 C 
BRANCH   4   5
ATOM      5  C   UNL     1      -0.982 -37.589 -21.668  1.00  0.00     0.001 C 
BRANCH   5   6
ATOM      6  C   UNL     1       0.203 -36.636 -21.934  1.00  0.00     0.009 C 
BRANCH   6   7
ATOM      7  C   UNL     1       1.414 -37.298 -22.628  1.00  0.00     0.032 C 
ATOM      8  C   UNL     1       1.247 -37.259 -24.150  1.00  0.00     0.014 C 
BRANCH   7   9
ATOM      9  C   UNL     1       2.704 -36.627 -22.241  1.00  0.00     0.044 C 
ATOM     10  O   UNL     1       3.288 -35.863 -23.055  1.00  0.00    -0.550 OA
ATOM     11  O   UNL     1       3.259 -36.842 -20.985  1.00  0.00    -0.550 OA
ENDBRANCH   7   9
ENDBRANCH   6   7
ENDBRANCH   5   6
ENDBRANCH   4   5
ENDBRANCH   3   4
ENDBRANCH   2   3
ENDBRANCH   1   2
BRANCH   1  12
ATOM     12  C   UNL     1      -0.530 -41.887 -17.656  1.00  0.00     0.000 C 
BRANCH  12  13
ATOM     13  C   UNL     1       0.728 -42.595 -18.184  1.00  0.00    -0.000 C 
BRANCH  13  14
ATOM     14  C   UNL     1       1.245 -43.679 -17.223  1.00  0.00    -0.000 C 
BRANCH  14  15
ATOM     15  C   UNL     1       1.712 -44.950 -17.955  1.00  0.00    -0.000 C 
BRANCH  15  16
ATOM     16  C   UNL     1       0.828 -46.192 -17.724  1.00  0.00    -0.000 C 
BRANCH  16  17
ATOM     17  C   UNL     1      -0.476 -45.933 -16.942  1.00  0.00    -0.000 C 
BRANCH  17  18
ATOM     18  C   UNL     1      -1.762 -46.018 -17.783  1.00  0.00    -0.003 C 
ATOM     19  C   UNL     1      -2.804 -44.974 -17.383  1.00  0.00     0.004 C 
ENDBRANCH  17  18
ENDBRANCH  16  17
ENDBRANCH  15  16
ENDBRANCH  14  15
ENDBRANCH  13  14
ENDBRANCH  12  13
ENDBRANCH   1  12
TORSDOF 14
ENDMDL
MODEL 2
REMARK VINA RESULT:    -4.856      6.501     11.810
REMARK INTER + INTRA:         -10.007
REMARK INTER:                  -9.150
REMARK INTRA:                  -0.856
REMARK UNBOUND:                -1.176
REMARK SMILES CCCCCCCCCCCCCC[C@@H](C)C(=O)[O-]
REMARK SMILES IDX 9 1 10 2 11 3 12 4 13 5 14 6 15 7 16 8 17 9 18 10 19 11 8 12
REMARK SMILES IDX 7 13 6 14 5 15 4 16 3 17 2 18 1 19
REMARK H PARENT
REMARK Flexibility Score: inf
ROOT
ATOM      1  C   UNL     1       6.493 -33.354 -20.466  1.00  0.00     0.000 C 
ENDROOT
BRANCH   1   2
ATOM      2  C   UNL     1       6.870 -34.810 -20.766  1.00  0.00     0.000 C 
BRANCH   2   3
ATOM      3  C   UNL     1       5.734 -35.534 -21.496  1.00  0.00     0.000 C 
BRANCH   3   4
ATOM      4  C   UNL     1       6.053 -35.692 -22.991  1.00  0.00     0.000 C 
BRANCH   4   5
ATOM      5  C   UNL     1       4.895 -36.315 -23.790  1.00  0.00     0.001 C 
BRANCH   5   6
ATOM      6  C   UNL     1       3.780 -36.957 -22.935  1.00  0.00     0.009 C 
BRANCH   6   7
ATOM      7  C   UNL     1       2.351 -36.490 -23.291  1.00  0.00     0.032 C 
ATOM      8  C   UNL     1       1.968 -36.961 -24.697  1.00  0.00     0.014 C 
BRANCH   7   9
ATOM      9  C   UNL     1       1.343 -36.997 -22.295  1.00  0.00     0.044 C 
ATOM     10  O   UNL     1       1.362 -36.576 -21.108  1.00  0.00    -0.550 OA
ATOM     11  O   UNL     1       0.384 -37.928 -22.677  1.00  0.00    -0.550 OA
ENDBRANCH   7   9
ENDBRANCH   6   7
ENDBRANCH   5   6
ENDBRANCH   4   5
ENDBRANCH   3   4
ENDBRANCH   2   3
ENDBRANCH   1   2
BRANCH   1  12
ATOM     12  C   UNL     1       7.425 -32.750 -19.406  1.00  0.00     0.000 C 
BRANCH  12  13
ATOM     13  C   UNL     1       6.877 -31.442 -18.813  1.00  0.00    -0.000 C 
BRANCH  13  14
ATOM     14  C   UNL     1       6.298 -31.630 -17.401  1.00  0.00    -0.000 C 
BRANCH  14  15
ATOM     15  C   UNL     1       5.300 -30.524 -17.015  1.00  0.00    -0.000 C 
BRANCH  15  16
ATOM     16  C   UNL     1       5.397 -29.240 -17.864  1.00  0.00    -0.000 C 
BRANCH  16  17
ATOM     17  C   UNL     1       5.763 -27.962 -17.081  1.00  0.00    -0.000 C 
BRANCH  17  18
ATOM     18  C   UNL     1       7.090 -27.305 -17.500  1.00  0.00    -0.003 C 
ATOM     19  C   UNL     1       8.248 -28.299 -17.574  1.00  0.00     0.004 C 
ENDBRANCH  17  18
ENDBRANCH  16  17
ENDBRANCH  15  16
ENDBRANCH  14  15
ENDBRANCH  13  14
ENDBRANCH  12  13
ENDBRANCH   1  12
TORSDOF 14
ENDMDL
MODEL 3
REMARK VINA RESULT:    -4.788      8.116     11.191
REMARK INTER + INTRA:          -9.882
REMARK INTER:                  -9.183
REMARK INTRA:                  -0.699
REMARK UNBOUND:                -1.176
REMARK SMILES CCCCCCCCCCCCCC[C@@H](C)C(=O)[O-]
REMARK SMILES IDX 9 1 10 2 11 3 12 4 13 5 14 6 15 7 16 8 17 9 18 10 19 11 8 12
REMARK SMILES IDX 7 13 6 14 5 15 4 16 3 17 2 18 1 19
REMARK H PARENT
REMARK Flexibility Score: inf
ROOT
ATOM      1  C   UNL     1       6.380 -33.259 -20.502  1.00  0.00     0.000 C 
ENDROOT
BRANCH   1   2
ATOM      2  C   UNL     1       7.096 -32.510 -19.371  1.00  0.00     0.000 C 
BRANCH   2   3
ATOM      3  C   UNL     1       6.141 -31.543 -18.660  1.00  0.00     0.000 C 
BRANCH   3   4
ATOM      4  C   UNL     1       6.748 -31.041 -17.342  1.00  0.00     0.000 C 
BRANCH   4   5
ATOM      5  C   UNL     1       7.248 -29.588 -17.426  1.00  0.00     0.001 C 
BRANCH   5   6
ATOM      6  C   UNL     1       7.118 -28.774 -16.120  1.00  0.00     0.009 C 
BRANCH   6   7
ATOM      7  C   UNL     1       6.072 -27.638 -16.174  1.00  0.00     0.032 C 
ATOM      8  C   UNL     1       5.996 -27.046 -17.584  1.00  0.00     0.014 C 
BRANCH   7   9
ATOM      9  C   UNL     1       4.711 -28.123 -15.752  1.00  0.00     0.044 C 
ATOM     10  O   UNL     1       3.693 -27.416 -15.972  1.00  0.00    -0.550 OA
ATOM     11  O   UNL     1       4.569 -29.354 -15.121  1.00  0.00    -0.550 OA
ENDBRANCH   7   9
ENDBRANCH   6   7
ENDBRANCH   5   6
ENDBRANCH   4   5
ENDBRANCH   3   4
ENDBRANCH   2   3
ENDBRANCH   1   2
BRANCH   1  12
ATOM     12  C   UNL     1       7.126 -34.551 -20.865  1.00  0.00     0.000 C 
BRANCH  12  13
ATOM     13  C   UNL     1       6.380 -35.387 -21.916  1.00  0.00    -0.000 C 
BRANCH  13  14
ATOM     14  C   UNL     1       6.578 -36.900 -21.717  1.00  0.00    -0.000 C 
BRANCH  14  15
ATOM     15  C   UNL     1       5.765 -37.455 -20.533  1.00  0.00    -0.000 C 
BRANCH  15  16
ATOM     16  C   UNL     1       6.611 -38.046 -19.387  1.00  0.00    -0.000 C 
BRANCH  16  17
ATOM     17  C   UNL     1       7.440 -39.291 -19.759  1.00  0.00    -0.000 C 
BRANCH  17  18
ATOM     18  C   UNL     1       7.630 -40.306 -18.617  1.00  0.00    -0.003 C 
ATOM     19  C   UNL     1       8.408 -39.731 -17.435  1.00  0.00     0.004 C 
ENDBRANCH  17  18
ENDBRANCH  16  17
ENDBRANCH  15  16
ENDBRANCH  14  15
ENDBRANCH  13  14
ENDBRANCH  12  13
ENDBRANCH   1  12
TORSDOF 14
ENDMDL
MODEL 4
REMARK VINA RESULT:    -4.668      9.176     12.446
REMARK INTER + INTRA:          -9.664
REMARK INTER:                  -8.923
REMARK INTRA:                  -0.741
REMARK UNBOUND:                -1.176
REMARK SMILES CCCCCCCCCCCCCC[C@@H](C)C(=O)[O-]
REMARK SMILES IDX 9 1 10 2 11 3 12 4 13 5 14 6 15 7 16 8 17 9 18 10 19 11 8 12
REMARK SMILES IDX 7 13 6 14 5 15 4 16 3 17 2 18 1 19
REMARK H PARENT
REMARK Flexibility Score: inf
ROOT
ATOM      1  C   UNL     1       6.670 -35.608 -20.768  1.00  0.00     0.000 C 
ENDROOT
BRANCH   1   2
ATOM      2  C   UNL     1       6.164 -36.513 -21.898  1.00  0.00     0.000 C 
BRANCH   2   3
ATOM      3  C   UNL     1       5.567 -35.685 -23.041  1.00  0.00     0.000 C 
BRANCH   3   4
ATOM      4  C   UNL     1       6.278 -35.987 -24.369  1.00  0.00     0.000 C 
BRANCH   4   5
ATOM      5  C   UNL     1       7.801 -36.142 -24.213  1.00  0.00     0.001 C 
BRANCH   5   6
ATOM      6  C   UNL     1       8.634 -35.686 -25.430  1.00  0.00     0.009 C 
BRANCH   6   7
ATOM      7  C   UNL     1       9.899 -36.532 -25.694  1.00  0.00     0.032 C 
ATOM      8  C   UNL     1       9.898 -37.064 -27.131  1.00  0.00     0.014 C 
BRANCH   7   9
ATOM      9  C   UNL     1      11.154 -35.737 -25.448  1.00  0.00     0.044 C 
ATOM     10  O   UNL     1      11.151 -34.488 -25.606  1.00  0.00    -0.550 OA
ATOM     11  O   UNL     1      12.321 -36.375 -25.043  1.00  0.00    -0.550 OA
ENDBRANCH   7   9
ENDBRANCH   6   7
ENDBRANCH   5   6
ENDBRANCH   4   5
ENDBRANCH   3   4
ENDBRANCH   2   3
ENDBRANCH   1   2
BRANCH   1  12
ATOM     12  C   UNL     1       6.428 -34.128 -21.098  1.00  0.00     0.000 C 
BRANCH  12  13
ATOM     13  C   UNL     1       7.189 -33.181 -20.156  1.00  0.00    -0.000 C 
BRANCH  13  14
ATOM     14  C   UNL     1       6.252 -32.404 -19.216  1.00  0.00    -0.000 C 
BRANCH  14  15
ATOM     15  C   UNL     1       7.015 -31.574 -18.168  1.00  0.00    -0.000 C 
BRANCH  15  16
ATOM     16  C   UNL     1       6.475 -30.145 -17.956  1.00  0.00    -0.000 C 
BRANCH  16  17
ATOM     17  C   UNL     1       6.632 -29.591 -16.526  1.00  0.00    -0.000 C 
BRANCH  17  18
ATOM     18  C   UNL     1       7.580 -28.385 -16.400  1.00  0.00    -0.003 C 
ATOM     19  C   UNL     1       8.285 -28.044 -17.712  1.00  0.00     0.004 C 
ENDBRANCH  17  18
ENDBRANCH  16  17
ENDBRANCH  15  16
ENDBRANCH  14  15
ENDBRANCH  13  14
ENDBRANCH  12  13
ENDBRANCH   1  12
TORSDOF 14
ENDMDL
MODEL 5
REMARK VINA RESULT:    -4.667      3.139      8.834
REMARK INTER + INTRA:          -9.663
REMARK INTER:                  -8.947
REMARK INTRA:                  -0.716
REMARK UNBOUND:                -1.176
REMARK SMILES CCCCCCCCCCCCCC[C@@H](C)C(=O)[O-]
REMARK SMILES IDX 9 1 10 2 11 3 12 4 13 5 14 6 15 7 16 8 17 9 18 10 19 11 8 12
REMARK SMILES IDX 7 13 6 14 5 15 4 16 3 17 2 18 1 19
REMARK H PARENT
REMARK Flexibility Score: inf
ROOT
ATOM      1  C   UNL     1      -0.839 -41.218 -19.744  1.00  0.00     0.000 C 
ENDROOT
BRANCH   1   2
ATOM      2  C   UNL     1      -1.490 -41.531 -18.392  1.00  0.00     0.000 C 
BRANCH   2   3
ATOM      3  C   UNL     1      -0.917 -42.818 -17.789  1.00  0.00     0.000 C 
BRANCH   3   4
ATOM      4  C   UNL     1      -1.893 -43.991 -17.965  1.00  0.00     0.000 C 
BRANCH   4   5
ATOM      5  C   UNL     1      -1.442 -45.264 -17.227  1.00  0.00     0.001 C 
BRANCH   5   6
ATOM      6  C   UNL     1      -0.338 -45.051 -16.169  1.00  0.00     0.009 C 
BRANCH   6   7
ATOM      7  C   UNL     1       1.026 -45.678 -16.531  1.00  0.00     0.032 C 
ATOM      8  C   UNL     1       1.000 -46.231 -17.960  1.00  0.00     0.014 C 
BRANCH   7   9
ATOM      9  C   UNL     1       2.145 -44.681 -16.393  1.00  0.00     0.044 C 
ATOM     10  O   UNL     1       2.735 -44.248 -17.418  1.00  0.00    -0.550 OA
ATOM     11  O   UNL     1       2.531 -44.229 -15.137  1.00  0.00    -0.550 OA
ENDBRANCH   7   9
ENDBRANCH   6   7
ENDBRANCH   5   6
ENDBRANCH   4   5
ENDBRANCH   3   4
ENDBRANCH   2   3
ENDBRANCH   1   2
BRANCH   1  12
ATOM     12  C   UNL     1      -1.594 -40.097 -20.474  1.00  0.00     0.000 C 
BRANCH  12  13
ATOM     13  C   UNL     1      -0.710 -39.350 -21.484  1.00  0.00    -0.000 C 
BRANCH  13  14
ATOM     14  C   UNL     1      -1.034 -37.848 -21.555  1.00  0.00    -0.000 C 
BRANCH  14  15
ATOM     15  C   UNL     1       0.194 -36.992 -21.914  1.00  0.00    -0.000 C 
BRANCH  15  16
ATOM     16  C   UNL     1       0.861 -37.346 -23.258  1.00  0.00    -0.000 C 
BRANCH  16  17
ATOM     17  C   UNL     1       2.402 -37.370 -23.240  1.00  0.00    -0.000 C 
BRANCH  17  18
ATOM     18  C   UNL     1       3.065 -37.349 -24.629  1.00  0.00    -0.003 C 
ATOM     19  C   UNL     1       2.541 -36.225 -25.521  1.00  0.00     0.004 C 
ENDBRANCH  17  18
ENDBRANCH  16  17
ENDBRANCH  15  16
ENDBRANCH  14  15
ENDBRANCH  13  14
ENDBRANCH  12  13
ENDBRANCH   1  12
TORSDOF 14
ENDMDL
MODEL 6
REMARK VINA RESULT:    -4.633      1.251      2.133
REMARK INTER + INTRA:          -9.601
REMARK INTER:                  -7.870
REMARK INTRA:                  -1.731
REMARK UNBOUND:                -1.176
REMARK SMILES CCCCCCCCCCCCCC[C@@H](C)C(=O)[O-]
REMARK SMILES IDX 9 1 10 2 11 3 12 4 13 5 14 6 15 7 16 8 17 9 18 10 19 11 8 12
REMARK SMILES IDX 7 13 6 14 5 15 4 16 3 17 2 18 1 19
REMARK H PARENT
REMARK Flexibility Score: inf
ROOT
ATOM      1  C   UNL     1      -0.769 -41.700 -16.975  1.00  0.00     0.000 C 
ENDROOT
BRANCH   1   2
ATOM      2  C   UNL     1       0.018 -41.537 -18.281  1.00  0.00     0.000 C 
BRANCH   2   3
ATOM      3  C   UNL     1      -0.911 -41.614 -19.498  1.00  0.00     0.000 C 
BRANCH   3   4
ATOM      4  C   UNL     1      -1.851 -40.400 -19.550  1.00  0.00     0.000 C 
BRANCH   4   5
ATOM      5  C   UNL     1      -1.790 -39.651 -20.894  1.00  0.00     0.001 C 
BRANCH   5   6
ATOM      6  C   UNL     1      -0.396 -39.111 -21.280  1.00  0.00     0.009 C 
BRANCH   6   7
ATOM      7  C   UNL     1      -0.401 -38.105 -22.452  1.00  0.00     0.032 C 
ATOM      8  C   UNL     1      -1.494 -37.051 -22.249  1.00  0.00     0.014 C 
BRANCH   7   9
ATOM      9  C   UNL     1       0.935 -37.428 -22.601  1.00  0.00     0.044 C 
ATOM     10  O   UNL     1       1.516 -36.948 -21.593  1.00  0.00    -0.550 OA
ATOM     11  O   UNL     1       1.536 -37.330 -23.851  1.00  0.00    -0.550 OA
ENDBRANCH   7   9
ENDBRANCH   6   7
ENDBRANCH   5   6
ENDBRANCH   4   5
ENDBRANCH   3   4
ENDBRANCH   2   3
ENDBRANCH   1   2
BRANCH   1  12
ATOM     12  C   UNL     1       0.160 -41.604 -15.756  1.00  0.00     0.000 C 
BRANCH  12  13
ATOM     13  C   UNL     1       1.539 -42.232 -16.015  1.00  0.00    -0.000 C 
BRANCH  13  14
ATOM     14  C   UNL     1       1.541 -43.757 -15.814  1.00  0.00    -0.000 C 
BRANCH  14  15
ATOM     15  C   UNL     1       2.157 -44.513 -17.005  1.00  0.00    -0.000 C 
BRANCH  15  16
ATOM     16  C   UNL     1       1.135 -45.087 -18.007  1.00  0.00    -0.000 C 
BRANCH  16  17
ATOM     17  C   UNL     1      -0.026 -45.881 -17.377  1.00  0.00    -0.000 C 
BRANCH  17  18
ATOM     18  C   UNL     1      -1.416 -45.246 -17.557  1.00  0.00    -0.003 C 
ATOM     19  C   UNL     1      -2.143 -45.021 -16.232  1.00  0.00     0.004 C 
ENDBRANCH  17  18
ENDBRANCH  16  17
ENDBRANCH  15  16
ENDBRANCH  14  15
ENDBRANCH  13  14
ENDBRANCH  12  13
ENDBRANCH   1  12
TORSDOF 14
ENDMDL
MODEL 7
REMARK VINA RESULT:    -4.632      3.772      8.915
REMARK INTER + INTRA:          -9.599
REMARK INTER:                  -8.862
REMARK INTRA:                  -0.737
REMARK UNBOUND:                -1.176
REMARK SMILES CCCCCCCCCCCCCC[C@@H](C)C(=O)[O-]
REMARK SMILES IDX 9 1 10 2 11 3 12 4 13 5 14 6 15 7 16 8 17 9 18 10 19 11 8 12
REMARK SMILES IDX 7 13 6 14 5 15 4 16 3 17 2 18 1 19
REMARK H PARENT
REMARK Flexibility Score: inf
ROOT
ATOM      1  C   UNL     1      -0.601 -39.175 -21.570  1.00  0.00     0.000 C 
ENDROOT
BRANCH   1   2
ATOM      2  C   UNL     1      -1.527 -39.910 -20.594  1.00  0.00     0.000 C 
BRANCH   2   3
ATOM      3  C   UNL     1      -0.820 -41.116 -19.965  1.00  0.00     0.000 C 
BRANCH   3   4
ATOM      4  C   UNL     1      -1.560 -41.594 -18.707  1.00  0.00     0.000 C 
BRANCH   4   5
ATOM      5  C   UNL     1      -0.609 -42.091 -17.603  1.00  0.00     0.001 C 
BRANCH   5   6
ATOM      6  C   UNL     1      -0.476 -43.625 -17.496  1.00  0.00     0.009 C 
BRANCH   6   7
ATOM      7  C   UNL     1       0.776 -44.210 -18.187  1.00  0.00     0.032 C 
ATOM      8  C   UNL     1       1.940 -43.216 -18.116  1.00  0.00     0.014 C 
BRANCH   7   9
ATOM      9  C   UNL     1       1.187 -45.518 -17.566  1.00  0.00     0.044 C 
ATOM     10  O   UNL     1       1.566 -45.556 -16.366  1.00  0.00    -0.550 OA
ATOM     11  O   UNL     1       1.148 -46.691 -18.311  1.00  0.00    -0.550 OA
ENDBRANCH   7   9
ENDBRANCH   6   7
ENDBRANCH   5   6
ENDBRANCH   4   5
ENDBRANCH   3   4
ENDBRANCH   2   3
ENDBRANCH   1   2
BRANCH   1  12
ATOM     12  C   UNL     1      -1.204 -37.828 -21.994  1.00  0.00     0.000 C 
BRANCH  12  13
ATOM     13  C   UNL     1      -0.279 -36.642 -21.681  1.00  0.00    -0.000 C 
BRANCH  13  14
ATOM     14  C   UNL     1       1.205 -37.045 -21.639  1.00  0.00    -0.000 C 
BRANCH  14  15
ATOM     15  C   UNL     1       2.035 -36.374 -22.749  1.00  0.00    -0.000 C 
BRANCH  15  16
ATOM     16  C   UNL     1       3.130 -37.266 -23.368  1.00  0.00    -0.000 C 
BRANCH  16  17
ATOM     17  C   UNL     1       3.699 -36.769 -24.712  1.00  0.00    -0.000 C 
BRANCH  17  18
ATOM     18  C   UNL     1       2.878 -37.172 -25.950  1.00  0.00    -0.003 C 
ATOM     19  C   UNL     1       3.721 -37.856 -27.026  1.00  0.00     0.004 C 
ENDBRANCH  17  18
ENDBRANCH  16  17
ENDBRANCH  15  16
ENDBRANCH  14  15
ENDBRANCH  13  14
ENDBRANCH  12  13
ENDBRANCH   1  12
TORSDOF 14
ENDMDL
MODEL 8
REMARK VINA RESULT:    -4.553      3.941      9.257
REMARK INTER + INTRA:          -9.456
REMARK INTER:                  -8.821
REMARK INTRA:                  -0.635
REMARK UNBOUND:                -1.176
REMARK SMILES CCCCCCCCCCCCCC[C@@H](C)C(=O)[O-]
REMARK SMILES IDX 9 1 10 2 11 3 12 4 13 5 14 6 15 7 16 8 17 9 18 10 19 11 8 12
REMARK SMILES IDX 7 13 6 14 5 15 4 16 3 17 2 18 1 19
REMARK H PARENT
REMARK Flexibility Score: inf
ROOT
ATOM      1  C   UNL     1      -0.602 -39.359 -21.281  1.00  0.00     0.000 C 
ENDROOT
BRANCH   1   2
ATOM      2  C   UNL     1      -1.617 -40.130 -20.428  1.00  0.00     0.000 C 
BRANCH   2   3
ATOM      3  C   UNL     1      -0.951 -41.314 -19.718  1.00  0.00     0.000 C 
BRANCH   3   4
ATOM      4  C   UNL     1      -1.545 -41.519 -18.316  1.00  0.00     0.000 C 
BRANCH   4   5
ATOM      5  C   UNL     1      -0.701 -42.459 -17.437  1.00  0.00     0.001 C 
BRANCH   5   6
ATOM      6  C   UNL     1      -0.166 -43.718 -18.152  1.00  0.00     0.009 C 
BRANCH   6   7
ATOM      7  C   UNL     1      -0.500 -45.049 -17.441  1.00  0.00     0.032 C 
ATOM      8  C   UNL     1       0.437 -45.269 -16.249  1.00  0.00     0.014 C 
BRANCH   7   9
ATOM      9  C   UNL     1      -1.930 -45.081 -16.976  1.00  0.00     0.044 C 
ATOM     10  O   UNL     1      -2.861 -45.262 -17.805  1.00  0.00    -0.550 OA
ATOM     11  O   UNL     1      -2.235 -44.914 -15.629  1.00  0.00    -0.550 OA
ENDBRANCH   7   9
ENDBRANCH   6   7
ENDBRANCH   5   6
ENDBRANCH   4   5
ENDBRANCH   3   4
ENDBRANCH   2   3
ENDBRANCH   1   2
BRANCH   1  12
ATOM     12  C   UNL     1      -1.298 -38.281 -22.125  1.00  0.00     0.000 C 
BRANCH  12  13
ATOM     13  C   UNL     1      -0.560 -36.933 -22.087  1.00  0.00    -0.000 C 
BRANCH  13  14
ATOM     14  C   UNL     1       0.882 -37.064 -21.569  1.00  0.00    -0.000 C 
BRANCH  14  15
ATOM     15  C   UNL     1       1.896 -37.337 -22.695  1.00  0.00    -0.000 C 
BRANCH  15  16
ATOM     16  C   UNL     1       2.518 -36.075 -23.326  1.00  0.00    -0.000 C 
BRANCH  16  17
ATOM     17  C   UNL     1       3.970 -36.235 -23.818  1.00  0.00    -0.000 C 
BRANCH  17  18
ATOM     18  C   UNL     1       4.990 -36.588 -22.721  1.00  0.00    -0.003 C 
ATOM     19  C   UNL     1       5.767 -35.373 -22.219  1.00  0.00     0.004 C 
ENDBRANCH  17  18
ENDBRANCH  16  17
ENDBRANCH  15  16
ENDBRANCH  14  15
ENDBRANCH  13  14
ENDBRANCH  12  13
ENDBRANCH   1  12
TORSDOF 14
ENDMDL
MODEL 9
REMARK VINA RESULT:    -4.380      5.294      8.548
REMARK INTER + INTRA:          -9.140
REMARK INTER:                  -7.658
REMARK INTRA:                  -1.482
REMARK UNBOUND:                -1.176
REMARK SMILES CCCCCCCCCCCCCC[C@@H](C)C(=O)[O-]
REMARK SMILES IDX 9 1 10 2 11 3 12 4 13 5 14 6 15 7 16 8 17 9 18 10 19 11 8 12
REMARK SMILES IDX 7 13 6 14 5 15 4 16 3 17 2 18 1 19
REMARK H PARENT
REMARK Flexibility Score: inf
ROOT
ATOM      1  C   UNL     1       2.607 -42.276 -16.260  1.00  0.00     0.000 C 
ENDROOT
BRANCH   1   2
ATOM      2  C   UNL     1       2.467 -43.024 -14.928  1.00  0.00     0.000 C 
BRANCH   2   3
ATOM      3  C   UNL     1       2.636 -44.534 -15.125  1.00  0.00     0.000 C 
BRANCH   3   4
ATOM      4  C   UNL     1       1.274 -45.224 -15.293  1.00  0.00     0.000 C 
BRANCH   4   5
ATOM      5  C   UNL     1       0.092 -44.327 -14.882  1.00  0.00     0.001 C 
BRANCH   5   6
ATOM      6  C   UNL     1      -1.271 -44.719 -15.492  1.00  0.00     0.009 C 
BRANCH   6   7
ATOM      7  C   UNL     1      -1.259 -44.898 -17.026  1.00  0.00     0.032 C 
ATOM      8  C   UNL     1      -2.655 -45.273 -17.533  1.00  0.00     0.014 C 
BRANCH   7   9
ATOM      9  C   UNL     1      -0.784 -43.651 -17.722  1.00  0.00     0.044 C 
ATOM     10  O   UNL     1      -1.504 -42.618 -17.728  1.00  0.00    -0.550 OA
ATOM     11  O   UNL     1       0.451 -43.630 -18.360  1.00  0.00    -0.550 OA
ENDBRANCH   7   9
ENDBRANCH   6   7
ENDBRANCH   5   6
ENDBRANCH   4   5
ENDBRANCH   3   4
ENDBRANCH   2   3
ENDBRANCH   1   2
BRANCH   1  12
ATOM     12  C   UNL     1       1.676 -41.056 -16.307  1.00  0.00     0.000 C 
BRANCH  12  13
ATOM     13  C   UNL     1       1.923 -40.079 -15.146  1.00  0.00    -0.000 C 
BRANCH  13  14
ATOM     14  C   UNL     1       2.645 -38.797 -15.596  1.00  0.00    -0.000 C 
BRANCH  14  15
ATOM     15  C   UNL     1       3.991 -38.590 -14.879  1.00  0.00    -0.000 C 
BRANCH  15  16
ATOM     16  C   UNL     1       4.924 -39.818 -14.884  1.00  0.00    -0.000 C 
BRANCH  16  17
ATOM     17  C   UNL     1       5.696 -40.050 -16.198  1.00  0.00    -0.000 C 
BRANCH  17  18
ATOM     18  C   UNL     1       6.953 -39.180 -16.371  1.00  0.00    -0.003 C 
ATOM     19  C   UNL     1       7.875 -39.681 -17.482  1.00  0.00     0.004 C 
ENDBRANCH  17  18
ENDBRANCH  16  17
ENDBRANCH  15  16
ENDBRANCH  14  15
ENDBRANCH  13  14
ENDBRANCH  12  13
ENDBRANCH   1  12
TORSDOF 14
ENDMDL
