MODEL 1
REMARK VINA RESULT:    -4.452      0.000      0.000
REMARK INTER + INTRA:          -5.014
REMARK INTER:                  -4.712
REMARK INTRA:                  -0.301
REMARK UNBOUND:                -0.301
REMARK SMILES C=C1CC[C@]2(C(C)C)C[C@H]12
REMARK SMILES IDX 5 1 4 2 3 3 2 4 1 5 10 6 9 7 6 8 7 9 8 10
REMARK H PARENT
REMARK Flexibility Score: inf
ROOT
ATOM      1  C   UNL     1     164.198 169.255 200.977  1.00  0.00    -0.020 C 
ATOM      2  C   UNL     1     164.702 170.064 199.768  1.00  0.00     0.012 C 
ATOM      3  C   UNL     1     166.220 169.891 199.697  1.00  0.00     0.031 C 
ATOM      4  C   UNL     1     166.575 169.104 200.911  1.00  0.00    -0.074 C 
ATOM      5  C   UNL     1     167.832 168.805 201.249  1.00  0.00     0.008 C 
ATOM      6  C   UNL     1     165.400 168.684 201.719  1.00  0.00     0.021 C 
ATOM      7  C   UNL     1     164.587 169.805 202.356  1.00  0.00     0.016 C 
ENDROOT
BRANCH   1   8
ATOM      8  C   UNL     1     162.969 168.314 200.788  1.00  0.00    -0.011 C 
ATOM      9  C   UNL     1     162.225 168.622 199.479  1.00  0.00     0.008 C 
ATOM     10  C   UNL     1     163.279 166.812 200.880  1.00  0.00     0.008 C 
ENDBRANCH   1   8
TORSDOF 1
ENDMDL
MODEL 2
REMARK VINA RESULT:    -4.421      5.307      7.355
REMARK INTER + INTRA:          -4.981
REMARK INTER:                  -4.666
REMARK INTRA:                  -0.315
REMARK UNBOUND:                -0.301
REMARK SMILES C=C1CC[C@]2(C(C)C)C[C@H]12
REMARK SMILES IDX 5 1 4 2 3 3 2 4 1 5 10 6 9 7 6 8 7 9 8 10
REMARK H PARENT
REMARK Flexibility Score: inf
ROOT
ATOM      1  C   UNL     1     167.778 162.768 200.998  1.00  0.00    -0.020 C 
ATOM      2  C   UNL     1     167.237 161.977 199.794  1.00  0.00     0.012 C 
ATOM      3  C   UNL     1     165.718 162.153 199.771  1.00  0.00     0.031 C 
ATOM      4  C   UNL     1     165.401 162.924 201.005  1.00  0.00    -0.074 C 
ATOM      5  C   UNL     1     164.155 163.221 201.385  1.00  0.00     0.008 C 
ATOM      6  C   UNL     1     166.600 163.331 201.784  1.00  0.00     0.021 C 
ATOM      7  C   UNL     1     167.430 162.201 202.380  1.00  0.00     0.016 C 
ENDROOT
BRANCH   1   8
ATOM      8  C   UNL     1     169.003 163.711 200.785  1.00  0.00    -0.011 C 
ATOM      9  C   UNL     1     169.760 163.358 199.494  1.00  0.00     0.008 C 
ATOM     10  C   UNL     1     168.682 165.212 200.817  1.00  0.00     0.008 C 
ENDBRANCH   1   8
TORSDOF 1
ENDMDL
MODEL 3
REMARK VINA RESULT:    -4.084      1.963      4.543
REMARK INTER + INTRA:          -4.623
REMARK INTER:                  -4.283
REMARK INTRA:                  -0.341
REMARK UNBOUND:                -0.301
REMARK SMILES C=C1CC[C@]2(C(C)C)C[C@H]12
REMARK SMILES IDX 5 1 4 2 3 3 2 4 1 5 10 6 9 7 6 8 7 9 8 10
REMARK H PARENT
REMARK Flexibility Score: inf
ROOT
ATOM      1  C   UNL     1     168.132 168.714 199.756  1.00  0.00    -0.020 C 
ATOM      2  C   UNL     1     167.941 168.711 201.283  1.00  0.00     0.012 C 
ATOM      3  C   UNL     1     166.514 169.180 201.571  1.00  0.00     0.031 C 
ATOM      4  C   UNL     1     165.957 169.556 200.242  1.00  0.00    -0.074 C 
ATOM      5  C   UNL     1     164.742 170.086 200.080  1.00  0.00     0.008 C 
ATOM      6  C   UNL     1     166.880 169.291 199.107  1.00  0.00     0.021 C 
ATOM      7  C   UNL     1     168.174 170.097 199.092  1.00  0.00     0.016 C 
ENDROOT
BRANCH   1   8
ATOM      8  C   UNL     1     168.768 167.461 199.079  1.00  0.00    -0.011 C 
ATOM      9  C   UNL     1     169.791 166.785 200.005  1.00  0.00     0.008 C 
ATOM     10  C   UNL     1     167.762 166.425 198.554  1.00  0.00     0.008 C 
ENDBRANCH   1   8
TORSDOF 1
ENDMDL
MODEL 4
REMARK VINA RESULT:    -4.080      4.499      6.230
REMARK INTER + INTRA:          -4.620
REMARK INTER:                  -4.280
REMARK INTRA:                  -0.340
REMARK UNBOUND:                -0.301
REMARK SMILES C=C1CC[C@]2(C(C)C)C[C@H]12
REMARK SMILES IDX 5 1 4 2 3 3 2 4 1 5 10 6 9 7 6 8 7 9 8 10
REMARK H PARENT
REMARK Flexibility Score: inf
ROOT
ATOM      1  C   UNL     1     163.869 163.285 199.753  1.00  0.00    -0.020 C 
ATOM      2  C   UNL     1     164.124 163.317 201.271  1.00  0.00     0.012 C 
ATOM      3  C   UNL     1     165.557 162.840 201.510  1.00  0.00     0.031 C 
ATOM      4  C   UNL     1     166.056 162.432 200.167  1.00  0.00    -0.074 C 
ATOM      5  C   UNL     1     167.258 161.888 199.965  1.00  0.00     0.008 C 
ATOM      6  C   UNL     1     165.089 162.683 199.066  1.00  0.00     0.021 C 
ATOM      7  C   UNL     1     163.788 161.889 199.120  1.00  0.00     0.016 C 
ENDROOT
BRANCH   1   8
ATOM      8  C   UNL     1     163.217 164.530 199.077  1.00  0.00    -0.011 C 
ATOM      9  C   UNL     1     162.244 165.238 200.033  1.00  0.00     0.008 C 
ATOM     10  C   UNL     1     164.209 165.542 198.485  1.00  0.00     0.008 C 
ENDBRANCH   1   8
TORSDOF 1
ENDMDL
MODEL 5
REMARK VINA RESULT:    -4.072      5.268      6.373
REMARK INTER + INTRA:          -4.611
REMARK INTER:                  -4.271
REMARK INTRA:                  -0.341
REMARK UNBOUND:                -0.301
REMARK SMILES C=C1CC[C@]2(C(C)C)C[C@H]12
REMARK SMILES IDX 5 1 4 2 3 3 2 4 1 5 10 6 9 7 6 8 7 9 8 10
REMARK H PARENT
REMARK Flexibility Score: inf
ROOT
ATOM      1  C   UNL     1     166.375 162.914 200.591  1.00  0.00    -0.020 C 
ATOM      2  C   UNL     1     166.499 164.448 200.542  1.00  0.00     0.012 C 
ATOM      3  C   UNL     1     167.879 164.782 199.972  1.00  0.00     0.031 C 
ATOM      4  C   UNL     1     168.561 163.466 199.820  1.00  0.00    -0.074 C 
ATOM      5  C   UNL     1     169.827 163.339 199.413  1.00  0.00     0.008 C 
ATOM      6  C   UNL     1     167.705 162.302 200.169  1.00  0.00     0.021 C 
ATOM      7  C   UNL     1     167.261 162.206 201.624  1.00  0.00     0.016 C 
ENDROOT
BRANCH   1   8
ATOM      8  C   UNL     1     165.080 162.250 200.031  1.00  0.00    -0.011 C 
ATOM      9  C   UNL     1     163.842 163.119 200.307  1.00  0.00     0.008 C 
ATOM     10  C   UNL     1     165.136 161.866 198.545  1.00  0.00     0.008 C 
ENDBRANCH   1   8
TORSDOF 1
ENDMDL
MODEL 6
REMARK VINA RESULT:    -4.058      1.092      3.964
REMARK INTER + INTRA:          -4.596
REMARK INTER:                  -4.255
REMARK INTRA:                  -0.341
REMARK UNBOUND:                -0.301
REMARK SMILES C=C1CC[C@]2(C(C)C)C[C@H]12
REMARK SMILES IDX 5 1 4 2 3 3 2 4 1 5 10 6 9 7 6 8 7 9 8 10
REMARK H PARENT
REMARK Flexibility Score: inf
ROOT
ATOM      1  C   UNL     1     165.647 169.051 200.532  1.00  0.00    -0.020 C 
ATOM      2  C   UNL     1     165.521 167.519 200.445  1.00  0.00     0.012 C 
ATOM      3  C   UNL     1     164.121 167.200 199.916  1.00  0.00     0.031 C 
ATOM      4  C   UNL     1     163.434 168.518 199.826  1.00  0.00    -0.074 C 
ATOM      5  C   UNL     1     162.155 168.655 199.468  1.00  0.00     0.008 C 
ATOM      6  C   UNL     1     164.302 169.673 200.176  1.00  0.00     0.021 C 
ATOM      7  C   UNL     1     164.799 169.729 201.616  1.00  0.00     0.016 C 
ENDROOT
BRANCH   1   8
ATOM      8  C   UNL     1     166.921 169.731 199.943  1.00  0.00    -0.011 C 
ATOM      9  C   UNL     1     168.161 168.842 200.121  1.00  0.00     0.008 C 
ATOM     10  C   UNL     1     166.799 170.186 198.481  1.00  0.00     0.008 C 
ENDBRANCH   1   8
TORSDOF 1
ENDMDL
MODEL 7
REMARK VINA RESULT:    -4.048      1.481      2.518
REMARK INTER + INTRA:          -4.586
REMARK INTER:                  -4.339
REMARK INTRA:                  -0.248
REMARK UNBOUND:                -0.301
REMARK SMILES C=C1CC[C@]2(C(C)C)C[C@H]12
REMARK SMILES IDX 5 1 4 2 3 3 2 4 1 5 10 6 9 7 6 8 7 9 8 10
REMARK H PARENT
REMARK Flexibility Score: inf
ROOT
ATOM      1  C   UNL     1     163.110 167.540 200.874  1.00  0.00    -0.020 C 
ATOM      2  C   UNL     1     162.320 168.186 199.721  1.00  0.00     0.012 C 
ATOM      3  C   UNL     1     163.230 169.224 199.062  1.00  0.00     0.031 C 
ATOM      4  C   UNL     1     164.459 169.248 199.903  1.00  0.00    -0.074 C 
ATOM      5  C   UNL     1     165.476 170.088 199.693  1.00  0.00     0.008 C 
ATOM      6  C   UNL     1     164.452 168.251 201.006  1.00  0.00     0.021 C 
ATOM      7  C   UNL     1     163.389 168.446 202.081  1.00  0.00     0.016 C 
ENDROOT
BRANCH   1   8
ATOM      8  C   UNL     1     163.116 165.985 200.998  1.00  0.00    -0.011 C 
ATOM      9  C   UNL     1     162.225 165.337 199.927  1.00  0.00     0.008 C 
ATOM     10  C   UNL     1     164.509 165.338 200.992  1.00  0.00     0.008 C 
ENDBRANCH   1   8
TORSDOF 1
ENDMDL
MODEL 8
REMARK VINA RESULT:    -4.045      5.782      6.967
REMARK INTER + INTRA:          -4.582
REMARK INTER:                  -4.321
REMARK INTRA:                  -0.261
REMARK UNBOUND:                -0.301
REMARK SMILES C=C1CC[C@]2(C(C)C)C[C@H]12
REMARK SMILES IDX 5 1 4 2 3 3 2 4 1 5 10 6 9 7 6 8 7 9 8 10
REMARK H PARENT
REMARK Flexibility Score: inf
ROOT
ATOM      1  C   UNL     1     168.510 163.008 199.782  1.00  0.00    -0.020 C 
ATOM      2  C   UNL     1     169.236 164.018 200.689  1.00  0.00     0.012 C 
ATOM      3  C   UNL     1     169.216 165.373 199.980  1.00  0.00     0.031 C 
ATOM      4  C   UNL     1     168.602 165.102 198.650  1.00  0.00    -0.074 C 
ATOM      5  C   UNL     1     168.472 166.032 197.700  1.00  0.00     0.008 C 
ATOM      6  C   UNL     1     168.148 163.698 198.472  1.00  0.00     0.021 C 
ATOM      7  C   UNL     1     169.239 162.633 198.485  1.00  0.00     0.016 C 
ENDROOT
BRANCH   1   8
ATOM      8  C   UNL     1     167.431 162.076 200.414  1.00  0.00    -0.011 C 
ATOM      9  C   UNL     1     167.366 162.251 201.940  1.00  0.00     0.008 C 
ATOM     10  C   UNL     1     166.026 162.202 199.806  1.00  0.00     0.008 C 
ENDBRANCH   1   8
TORSDOF 1
ENDMDL
MODEL 9
REMARK VINA RESULT:    -4.009      1.818      3.087
REMARK INTER + INTRA:          -4.545
REMARK INTER:                  -4.205
REMARK INTRA:                  -0.339
REMARK UNBOUND:                -0.301
REMARK SMILES C=C1CC[C@]2(C(C)C)C[C@H]12
REMARK SMILES IDX 5 1 4 2 3 3 2 4 1 5 10 6 9 7 6 8 7 9 8 10
REMARK H PARENT
REMARK Flexibility Score: inf
ROOT
ATOM      1  C   UNL     1     163.763 168.771 199.369  1.00  0.00    -0.020 C 
ATOM      2  C   UNL     1     164.516 169.962 199.988  1.00  0.00     0.012 C 
ATOM      3  C   UNL     1     164.519 169.770 201.505  1.00  0.00     0.031 C 
ATOM      4  C   UNL     1     163.679 168.562 201.741  1.00  0.00    -0.074 C 
ATOM      5  C   UNL     1     163.378 168.106 202.960  1.00  0.00     0.008 C 
ATOM      6  C   UNL     1     163.200 167.910 200.494  1.00  0.00     0.021 C 
ATOM      7  C   UNL     1     162.251 168.730 199.628  1.00  0.00     0.016 C 
ENDROOT
BRANCH   1   8
ATOM      8  C   UNL     1     164.406 168.025 198.160  1.00  0.00    -0.011 C 
ATOM      9  C   UNL     1     165.270 168.974 197.314  1.00  0.00     0.008 C 
ATOM     10  C   UNL     1     165.205 166.764 198.524  1.00  0.00     0.008 C 
ENDBRANCH   1   8
TORSDOF 1
ENDMDL
