MODEL 1
REMARK VINA RESULT:    -5.050      0.000      0.000
REMARK INTER + INTRA:          -9.184
REMARK INTER:                  -8.592
REMARK INTRA:                  -0.592
REMARK UNBOUND:                -0.592
REMARK SMILES CCCCCCCCCCCCCC(=O)[O-]
REMARK SMILES IDX 8 1 9 2 10 3 11 4 12 5 13 6 14 7 15 8 16 9 7 10 6 11 5 12
REMARK SMILES IDX 4 13 3 14 2 15 1 16
REMARK H PARENT
REMARK Flexibility Score: inf
ROOT
ATOM      1  C   UNL     1      19.343 117.379 296.226  1.00  0.00     0.000 C 
ENDROOT
BRANCH   1   2
ATOM      2  C   UNL     1      20.340 116.680 297.168  1.00  0.00     0.000 C 
BRANCH   2   3
ATOM      3  C   UNL     1      21.826 116.871 296.806  1.00  0.00     0.000 C 
BRANCH   3   4
ATOM      4  C   UNL     1      22.137 118.232 296.147  1.00  0.00     0.000 C 
BRANCH   4   5
ATOM      5  C   UNL     1      22.463 118.090 294.649  1.00  0.00     0.006 C 
BRANCH   5   6
ATOM      6  C   UNL     1      23.239 119.297 294.107  1.00  0.00     0.053 C 
BRANCH   6   7
ATOM      7  C   UNL     1      24.473 118.880 293.368  1.00  0.00     0.041 C 
ATOM      8  O   UNL     1      25.575 118.794 293.971  1.00  0.00    -0.550 OA
ATOM      9  O   UNL     1      24.413 118.618 292.004  1.00  0.00    -0.550 OA
ENDBRANCH   6   7
ENDBRANCH   5   6
ENDBRANCH   4   5
ENDBRANCH   3   4
ENDBRANCH   2   3
ENDBRANCH   1   2
BRANCH   1  10
ATOM     10  C   UNL     1      17.952 116.722 296.239  1.00  0.00     0.000 C 
BRANCH  10  11
ATOM     11  C   UNL     1      17.008 117.299 295.168  1.00  0.00    -0.000 C 
BRANCH  11  12
ATOM     12  C   UNL     1      17.685 117.733 293.855  1.00  0.00    -0.000 C 
BRANCH  12  13
ATOM     13  C   UNL     1      17.287 116.856 292.655  1.00  0.00    -0.000 C 
BRANCH  13  14
ATOM     14  C   UNL     1      18.498 116.386 291.828  1.00  0.00    -0.000 C 
BRANCH  14  15
ATOM     15  C   UNL     1      18.152 115.708 290.491  1.00  0.00    -0.003 C 
ATOM     16  C   UNL     1      17.251 114.485 290.653  1.00  0.00     0.004 C 
ENDBRANCH  14  15
ENDBRANCH  13  14
ENDBRANCH  12  13
ENDBRANCH  11  12
ENDBRANCH  10  11
ENDBRANCH   1  10
TORSDOF 12
ENDMDL
MODEL 2
REMARK VINA RESULT:    -4.858      1.103      1.498
REMARK INTER + INTRA:          -8.858
REMARK INTER:                  -7.710
REMARK INTRA:                  -1.148
REMARK UNBOUND:                -0.592
REMARK SMILES CCCCCCCCCCCCCC(=O)[O-]
REMARK SMILES IDX 8 1 9 2 10 3 11 4 12 5 13 6 14 7 15 8 16 9 7 10 6 11 5 12
REMARK SMILES IDX 4 13 3 14 2 15 1 16
REMARK H PARENT
REMARK Flexibility Score: inf
ROOT
ATOM      1  C   UNL     1      19.088 116.996 296.554  1.00  0.00     0.000 C 
ENDROOT
BRANCH   1   2
ATOM      2  C   UNL     1      20.296 116.886 297.501  1.00  0.00     0.000 C 
BRANCH   2   3
ATOM      3  C   UNL     1      21.664 116.747 296.803  1.00  0.00     0.000 C 
BRANCH   3   4
ATOM      4  C   UNL     1      22.643 117.898 297.117  1.00  0.00     0.000 C 
BRANCH   4   5
ATOM      5  C   UNL     1      22.511 119.062 296.118  1.00  0.00     0.006 C 
BRANCH   5   6
ATOM      6  C   UNL     1      23.139 118.734 294.757  1.00  0.00     0.053 C 
BRANCH   6   7
ATOM      7  C   UNL     1      24.507 119.326 294.619  1.00  0.00     0.041 C 
ATOM      8  O   UNL     1      25.490 118.592 294.333  1.00  0.00    -0.550 OA
ATOM      9  O   UNL     1      24.704 120.684 294.840  1.00  0.00    -0.550 OA
ENDBRANCH   6   7
ENDBRANCH   5   6
ENDBRANCH   4   5
ENDBRANCH   3   4
ENDBRANCH   2   3
ENDBRANCH   1   2
BRANCH   1  10
ATOM     10  C   UNL     1      18.656 118.452 296.308  1.00  0.00     0.000 C 
BRANCH  10  11
ATOM     11  C   UNL     1      18.985 118.942 294.885  1.00  0.00    -0.000 C 
BRANCH  11  12
ATOM     12  C   UNL     1      18.931 117.864 293.787  1.00  0.00    -0.000 C 
BRANCH  12  13
ATOM     13  C   UNL     1      17.505 117.608 293.267  1.00  0.00    -0.000 C 
BRANCH  13  14
ATOM     14  C   UNL     1      17.342 116.217 292.629  1.00  0.00    -0.000 C 
BRANCH  14  15
ATOM     15  C   UNL     1      18.166 115.984 291.350  1.00  0.00    -0.003 C 
ATOM     16  C   UNL     1      17.635 114.836 290.494  1.00  0.00     0.004 C 
ENDBRANCH  14  15
ENDBRANCH  13  14
ENDBRANCH  12  13
ENDBRANCH  11  12
ENDBRANCH  10  11
ENDBRANCH   1  10
TORSDOF 12
ENDMDL
MODEL 3
REMARK VINA RESULT:    -4.808      3.143      4.110
REMARK INTER + INTRA:          -8.773
REMARK INTER:                  -7.889
REMARK INTRA:                  -0.884
REMARK UNBOUND:                -0.592
REMARK SMILES CCCCCCCCCCCCCC(=O)[O-]
REMARK SMILES IDX 8 1 9 2 10 3 11 4 12 5 13 6 14 7 15 8 16 9 7 10 6 11 5 12
REMARK SMILES IDX 4 13 3 14 2 15 1 16
REMARK H PARENT
REMARK Flexibility Score: inf
ROOT
ATOM      1  C   UNL     1      20.695 119.297 295.326  1.00  0.00     0.000 C 
ENDROOT
BRANCH   1   2
ATOM      2  C   UNL     1      21.484 117.988 295.148  1.00  0.00     0.000 C 
BRANCH   2   3
ATOM      3  C   UNL     1      22.034 117.371 296.450  1.00  0.00     0.000 C 
BRANCH   3   4
ATOM      4  C   UNL     1      20.938 116.976 297.463  1.00  0.00     0.000 C 
BRANCH   4   5
ATOM      5  C   UNL     1      20.902 117.921 298.677  1.00  0.00     0.006 C 
BRANCH   5   6
ATOM      6  C   UNL     1      22.223 118.680 298.863  1.00  0.00     0.053 C 
BRANCH   6   7
ATOM      7  C   UNL     1      22.626 118.751 300.303  1.00  0.00     0.041 C 
ATOM      8  O   UNL     1      23.804 119.066 300.616  1.00  0.00    -0.550 OA
ATOM      9  O   UNL     1      21.710 118.434 301.299  1.00  0.00    -0.550 OA
ENDBRANCH   6   7
ENDBRANCH   5   6
ENDBRANCH   4   5
ENDBRANCH   3   4
ENDBRANCH   2   3
ENDBRANCH   1   2
BRANCH   1  10
ATOM     10  C   UNL     1      19.225 119.170 294.889  1.00  0.00     0.000 C 
BRANCH  10  11
ATOM     11  C   UNL     1      18.988 117.995 293.921  1.00  0.00    -0.000 C 
BRANCH  11  12
ATOM     12  C   UNL     1      17.571 117.395 293.947  1.00  0.00    -0.000 C 
BRANCH  12  13
ATOM     13  C   UNL     1      17.349 116.331 292.857  1.00  0.00    -0.000 C 
BRANCH  13  14
ATOM     14  C   UNL     1      18.322 116.475 291.672  1.00  0.00    -0.000 C 
BRANCH  14  15
ATOM     15  C   UNL     1      18.387 115.261 290.730  1.00  0.00    -0.003 C 
ATOM     16  C   UNL     1      17.015 114.660 290.429  1.00  0.00     0.004 C 
ENDBRANCH  14  15
ENDBRANCH  13  14
ENDBRANCH  12  13
ENDBRANCH  11  12
ENDBRANCH  10  11
ENDBRANCH   1  10
TORSDOF 12
ENDMDL
MODEL 4
REMARK VINA RESULT:    -4.799      2.685      3.922
REMARK INTER + INTRA:          -8.757
REMARK INTER:                  -7.254
REMARK INTRA:                  -1.503
REMARK UNBOUND:                -0.592
REMARK SMILES CCCCCCCCCCCCCC(=O)[O-]
REMARK SMILES IDX 8 1 9 2 10 3 11 4 12 5 13 6 14 7 15 8 16 9 7 10 6 11 5 12
REMARK SMILES IDX 4 13 3 14 2 15 1 16
REMARK H PARENT
REMARK Flexibility Score: inf
ROOT
ATOM      1  C   UNL     1      16.225 120.737 294.500  1.00  0.00     0.000 C 
ENDROOT
BRANCH   1   2
ATOM      2  C   UNL     1      17.481 120.970 295.357  1.00  0.00     0.000 C 
BRANCH   2   3
ATOM      3  C   UNL     1      18.821 120.737 294.632  1.00  0.00     0.000 C 
BRANCH   3   4
ATOM      4  C   UNL     1      19.751 119.735 295.348  1.00  0.00     0.000 C 
BRANCH   4   5
ATOM      5  C   UNL     1      19.185 119.287 296.707  1.00  0.00     0.006 C 
BRANCH   5   6
ATOM      6  C   UNL     1      19.686 117.895 297.115  1.00  0.00     0.053 C 
BRANCH   6   7
ATOM      7  C   UNL     1      21.181 117.834 297.168  1.00  0.00     0.041 C 
ATOM      8  O   UNL     1      21.810 117.031 296.430  1.00  0.00    -0.550 OA
ATOM      9  O   UNL     1      21.880 118.642 298.057  1.00  0.00    -0.550 OA
ENDBRANCH   6   7
ENDBRANCH   5   6
ENDBRANCH   4   5
ENDBRANCH   3   4
ENDBRANCH   2   3
ENDBRANCH   1   2
BRANCH   1  10
ATOM     10  C   UNL     1      16.261 119.398 293.743  1.00  0.00     0.000 C 
BRANCH  10  11
ATOM     11  C   UNL     1      16.112 118.180 294.674  1.00  0.00    -0.000 C 
BRANCH  11  12
ATOM     12  C   UNL     1      17.162 117.071 294.483  1.00  0.00    -0.000 C 
BRANCH  12  13
ATOM     13  C   UNL     1      17.799 117.081 293.082  1.00  0.00    -0.000 C 
BRANCH  13  14
ATOM     14  C   UNL     1      17.304 115.926 292.191  1.00  0.00    -0.000 C 
BRANCH  14  15
ATOM     15  C   UNL     1      17.995 115.817 290.821  1.00  0.00    -0.003 C 
ATOM     16  C   UNL     1      17.465 114.662 289.972  1.00  0.00     0.004 C 
ENDBRANCH  14  15
ENDBRANCH  13  14
ENDBRANCH  12  13
ENDBRANCH  11  12
ENDBRANCH  10  11
ENDBRANCH   1  10
TORSDOF 12
ENDMDL
MODEL 5
REMARK VINA RESULT:    -4.798      2.680      3.413
REMARK INTER + INTRA:          -8.755
REMARK INTER:                  -7.807
REMARK INTRA:                  -0.948
REMARK UNBOUND:                -0.592
REMARK SMILES CCCCCCCCCCCCCC(=O)[O-]
REMARK SMILES IDX 8 1 9 2 10 3 11 4 12 5 13 6 14 7 15 8 16 9 7 10 6 11 5 12
REMARK SMILES IDX 4 13 3 14 2 15 1 16
REMARK H PARENT
REMARK Flexibility Score: inf
ROOT
ATOM      1  C   UNL     1      19.152 116.903 296.574  1.00  0.00     0.000 C 
ENDROOT
BRANCH   1   2
ATOM      2  C   UNL     1      20.365 116.633 297.481  1.00  0.00     0.000 C 
BRANCH   2   3
ATOM      3  C   UNL     1      21.740 116.814 296.806  1.00  0.00     0.000 C 
BRANCH   3   4
ATOM      4  C   UNL     1      22.440 118.142 297.166  1.00  0.00     0.000 C 
BRANCH   4   5
ATOM      5  C   UNL     1      22.349 118.458 298.669  1.00  0.00     0.006 C 
BRANCH   5   6
ATOM      6  C   UNL     1      22.816 119.883 298.993  1.00  0.00     0.053 C 
BRANCH   6   7
ATOM      7  C   UNL     1      24.301 119.955 299.172  1.00  0.00     0.041 C 
ATOM      8  O   UNL     1      24.996 120.681 298.414  1.00  0.00    -0.550 OA
ATOM      9  O   UNL     1      24.922 119.192 300.154  1.00  0.00    -0.550 OA
ENDBRANCH   6   7
ENDBRANCH   5   6
ENDBRANCH   4   5
ENDBRANCH   3   4
ENDBRANCH   2   3
ENDBRANCH   1   2
BRANCH   1  10
ATOM     10  C   UNL     1      18.822 118.400 296.453  1.00  0.00     0.000 C 
BRANCH  10  11
ATOM     11  C   UNL     1      19.167 118.979 295.067  1.00  0.00    -0.000 C 
BRANCH  11  12
ATOM     12  C   UNL     1      19.032 117.997 293.890  1.00  0.00    -0.000 C 
BRANCH  12  13
ATOM     13  C   UNL     1      17.573 117.775 293.457  1.00  0.00    -0.000 C 
BRANCH  13  14
ATOM     14  C   UNL     1      17.333 116.380 292.851  1.00  0.00    -0.000 C 
BRANCH  14  15
ATOM     15  C   UNL     1      18.067 116.108 291.527  1.00  0.00    -0.003 C 
ATOM     16  C   UNL     1      17.412 115.010 290.691  1.00  0.00     0.004 C 
ENDBRANCH  14  15
ENDBRANCH  13  14
ENDBRANCH  12  13
ENDBRANCH  11  12
ENDBRANCH  10  11
ENDBRANCH   1  10
TORSDOF 12
ENDMDL
MODEL 6
REMARK VINA RESULT:    -4.762      4.039      5.212
REMARK INTER + INTRA:          -8.694
REMARK INTER:                  -7.262
REMARK INTRA:                  -1.432
REMARK UNBOUND:                -0.592
REMARK SMILES CCCCCCCCCCCCCC(=O)[O-]
REMARK SMILES IDX 8 1 9 2 10 3 11 4 12 5 13 6 14 7 15 8 16 9 7 10 6 11 5 12
REMARK SMILES IDX 4 13 3 14 2 15 1 16
REMARK H PARENT
REMARK Flexibility Score: inf
ROOT
ATOM      1  C   UNL     1      15.306 118.179 296.581  1.00  0.00     0.000 C 
ENDROOT
BRANCH   1   2
ATOM      2  C   UNL     1      14.510 118.379 295.280  1.00  0.00     0.000 C 
BRANCH   2   3
ATOM      3  C   UNL     1      14.533 119.813 294.712  1.00  0.00     0.000 C 
BRANCH   3   4
ATOM      4  C   UNL     1      15.474 119.988 293.501  1.00  0.00     0.000 C 
BRANCH   4   5
ATOM      5  C   UNL     1      16.361 121.239 293.631  1.00  0.00     0.006 C 
BRANCH   5   6
ATOM      6  C   UNL     1      16.769 121.514 295.084  1.00  0.00     0.053 C 
BRANCH   6   7
ATOM      7  C   UNL     1      18.164 121.050 295.368  1.00  0.00     0.041 C 
ATOM      8  O   UNL     1      18.999 120.941 294.432  1.00  0.00    -0.550 OA
ATOM      9  O   UNL     1      18.532 120.704 296.663  1.00  0.00    -0.550 OA
ENDBRANCH   6   7
ENDBRANCH   5   6
ENDBRANCH   4   5
ENDBRANCH   3   4
ENDBRANCH   2   3
ENDBRANCH   1   2
BRANCH   1  10
ATOM     10  C   UNL     1      16.758 117.736 296.328  1.00  0.00     0.000 C 
BRANCH  10  11
ATOM     11  C   UNL     1      16.889 116.764 295.140  1.00  0.00    -0.000 C 
BRANCH  11  12
ATOM     12  C   UNL     1      17.739 117.272 293.962  1.00  0.00    -0.000 C 
BRANCH  12  13
ATOM     13  C   UNL     1      17.314 116.672 292.610  1.00  0.00    -0.000 C 
BRANCH  13  14
ATOM     14  C   UNL     1      18.503 116.419 291.666  1.00  0.00    -0.000 C 
BRANCH  14  15
ATOM     15  C   UNL     1      18.262 115.353 290.583  1.00  0.00    -0.003 C 
ATOM     16  C   UNL     1      17.020 114.503 290.844  1.00  0.00     0.004 C 
ENDBRANCH  14  15
ENDBRANCH  13  14
ENDBRANCH  12  13
ENDBRANCH  11  12
ENDBRANCH  10  11
ENDBRANCH   1  10
TORSDOF 12
ENDMDL
MODEL 7
REMARK VINA RESULT:    -4.717      1.107      1.577
REMARK INTER + INTRA:          -8.617
REMARK INTER:                  -8.000
REMARK INTRA:                  -0.617
REMARK UNBOUND:                -0.592
REMARK SMILES CCCCCCCCCCCCCC(=O)[O-]
REMARK SMILES IDX 8 1 9 2 10 3 11 4 12 5 13 6 14 7 15 8 16 9 7 10 6 11 5 12
REMARK SMILES IDX 4 13 3 14 2 15 1 16
REMARK H PARENT
REMARK Flexibility Score: inf
ROOT
ATOM      1  C   UNL     1      20.644 117.018 297.237  1.00  0.00     0.000 C 
ENDROOT
BRANCH   1   2
ATOM      2  C   UNL     1      21.914 117.309 296.419  1.00  0.00     0.000 C 
BRANCH   2   3
ATOM      3  C   UNL     1      22.734 118.525 296.892  1.00  0.00     0.000 C 
BRANCH   3   4
ATOM      4  C   UNL     1      23.874 118.921 295.930  1.00  0.00     0.000 C 
BRANCH   4   5
ATOM      5  C   UNL     1      23.857 118.088 294.636  1.00  0.00     0.006 C 
BRANCH   5   6
ATOM      6  C   UNL     1      24.120 118.944 293.390  1.00  0.00     0.053 C 
BRANCH   6   7
ATOM      7  C   UNL     1      25.557 119.354 293.290  1.00  0.00     0.041 C 
ATOM      8  O   UNL     1      25.896 120.541 293.538  1.00  0.00    -0.550 OA
ATOM      9  O   UNL     1      26.517 118.434 292.888  1.00  0.00    -0.550 OA
ENDBRANCH   6   7
ENDBRANCH   5   6
ENDBRANCH   4   5
ENDBRANCH   3   4
ENDBRANCH   2   3
ENDBRANCH   1   2
BRANCH   1  10
ATOM     10  C   UNL     1      19.420 117.805 296.736  1.00  0.00     0.000 C 
BRANCH  10  11
ATOM     11  C   UNL     1      19.283 117.784 295.202  1.00  0.00    -0.000 C 
BRANCH  11  12
ATOM     12  C   UNL     1      17.866 117.501 294.670  1.00  0.00    -0.000 C 
BRANCH  12  13
ATOM     13  C   UNL     1      17.783 117.536 293.134  1.00  0.00    -0.000 C 
BRANCH  13  14
ATOM     14  C   UNL     1      17.440 116.165 292.522  1.00  0.00    -0.000 C 
BRANCH  14  15
ATOM     15  C   UNL     1      18.202 115.817 291.231  1.00  0.00    -0.003 C 
ATOM     16  C   UNL     1      17.555 114.683 290.439  1.00  0.00     0.004 C 
ENDBRANCH  14  15
ENDBRANCH  13  14
ENDBRANCH  12  13
ENDBRANCH  11  12
ENDBRANCH  10  11
ENDBRANCH   1  10
TORSDOF 12
ENDMDL
MODEL 8
REMARK VINA RESULT:    -4.680      4.302      5.595
REMARK INTER + INTRA:          -8.556
REMARK INTER:                  -7.229
REMARK INTRA:                  -1.327
REMARK UNBOUND:                -0.592
REMARK SMILES CCCCCCCCCCCCCC(=O)[O-]
REMARK SMILES IDX 8 1 9 2 10 3 11 4 12 5 13 6 14 7 15 8 16 9 7 10 6 11 5 12
REMARK SMILES IDX 4 13 3 14 2 15 1 16
REMARK H PARENT
REMARK Flexibility Score: inf
ROOT
ATOM      1  C   UNL     1      19.457 119.060 296.870  1.00  0.00     0.000 C 
ENDROOT
BRANCH   1   2
ATOM      2  C   UNL     1      19.834 120.386 296.187  1.00  0.00     0.000 C 
BRANCH   2   3
ATOM      3  C   UNL     1      19.315 120.550 294.744  1.00  0.00     0.000 C 
BRANCH   3   4
ATOM      4  C   UNL     1      18.098 121.492 294.624  1.00  0.00     0.000 C 
BRANCH   4   5
ATOM      5  C   UNL     1      16.764 120.735 294.744  1.00  0.00     0.006 C 
BRANCH   5   6
ATOM      6  C   UNL     1      16.025 120.640 293.402  1.00  0.00     0.053 C 
BRANCH   6   7
ATOM      7  C   UNL     1      15.386 121.941 293.026  1.00  0.00     0.041 C 
ATOM      8  O   UNL     1      15.787 122.575 292.015  1.00  0.00    -0.550 OA
ATOM      9  O   UNL     1      14.370 122.470 293.812  1.00  0.00    -0.550 OA
ENDBRANCH   6   7
ENDBRANCH   5   6
ENDBRANCH   4   5
ENDBRANCH   3   4
ENDBRANCH   2   3
ENDBRANCH   1   2
BRANCH   1  10
ATOM     10  C   UNL     1      19.491 117.862 295.904  1.00  0.00     0.000 C 
BRANCH  10  11
ATOM     11  C   UNL     1      18.186 117.043 295.920  1.00  0.00    -0.000 C 
BRANCH  11  12
ATOM     12  C   UNL     1      17.251 117.268 294.718  1.00  0.00    -0.000 C 
BRANCH  12  13
ATOM     13  C   UNL     1      17.992 117.252 293.369  1.00  0.00    -0.000 C 
BRANCH  13  14
ATOM     14  C   UNL     1      17.285 116.390 292.307  1.00  0.00    -0.000 C 
BRANCH  14  15
ATOM     15  C   UNL     1      18.191 115.873 291.176  1.00  0.00    -0.003 C 
ATOM     16  C   UNL     1      17.637 114.630 290.483  1.00  0.00     0.004 C 
ENDBRANCH  14  15
ENDBRANCH  13  14
ENDBRANCH  12  13
ENDBRANCH  11  12
ENDBRANCH  10  11
ENDBRANCH   1  10
TORSDOF 12
ENDMDL
MODEL 9
REMARK VINA RESULT:    -4.558      3.497      4.237
REMARK INTER + INTRA:          -8.347
REMARK INTER:                  -7.747
REMARK INTRA:                  -0.600
REMARK UNBOUND:                -0.592
REMARK SMILES CCCCCCCCCCCCCC(=O)[O-]
REMARK SMILES IDX 8 1 9 2 10 3 11 4 12 5 13 6 14 7 15 8 16 9 7 10 6 11 5 12
REMARK SMILES IDX 4 13 3 14 2 15 1 16
REMARK H PARENT
REMARK Flexibility Score: inf
ROOT
ATOM      1  C   UNL     1      19.181 117.589 296.393  1.00  0.00     0.000 C 
ENDROOT
BRANCH   1   2
ATOM      2  C   UNL     1      20.394 117.303 297.296  1.00  0.00     0.000 C 
BRANCH   2   3
ATOM      3  C   UNL     1      21.077 118.551 297.890  1.00  0.00     0.000 C 
BRANCH   3   4
ATOM      4  C   UNL     1      20.910 118.684 299.419  1.00  0.00     0.000 C 
BRANCH   4   5
ATOM      5  C   UNL     1      22.263 118.735 300.149  1.00  0.00     0.006 C 
BRANCH   5   6
ATOM      6  C   UNL     1      23.253 119.694 299.473  1.00  0.00     0.053 C 
BRANCH   6   7
ATOM      7  C   UNL     1      23.524 120.900 300.317  1.00  0.00     0.041 C 
ATOM      8  O   UNL     1      22.570 121.575 300.785  1.00  0.00    -0.550 OA
ATOM      9  O   UNL     1      24.833 121.299 300.560  1.00  0.00    -0.550 OA
ENDBRANCH   6   7
ENDBRANCH   5   6
ENDBRANCH   4   5
ENDBRANCH   3   4
ENDBRANCH   2   3
ENDBRANCH   1   2
BRANCH   1  10
ATOM     10  C   UNL     1      19.523 118.518 295.215  1.00  0.00     0.000 C 
BRANCH  10  11
ATOM     11  C   UNL     1      18.797 118.127 293.914  1.00  0.00    -0.000 C 
BRANCH  11  12
ATOM     12  C   UNL     1      17.645 117.120 294.078  1.00  0.00    -0.000 C 
BRANCH  12  13
ATOM     13  C   UNL     1      17.252 116.435 292.758  1.00  0.00    -0.000 C 
BRANCH  13  14
ATOM     14  C   UNL     1      18.361 116.508 291.692  1.00  0.00    -0.000 C 
BRANCH  14  15
ATOM     15  C   UNL     1      18.287 115.430 290.597  1.00  0.00    -0.003 C 
ATOM     16  C   UNL     1      17.000 114.608 290.651  1.00  0.00     0.004 C 
ENDBRANCH  14  15
ENDBRANCH  13  14
ENDBRANCH  12  13
ENDBRANCH  11  12
ENDBRANCH  10  11
ENDBRANCH   1  10
TORSDOF 12
ENDMDL
