MODEL 1
REMARK VINA RESULT:    -5.402      0.000      0.000
REMARK INTER + INTRA:         -10.097
REMARK INTER:                  -8.245
REMARK INTRA:                  -1.852
REMARK UNBOUND:                -1.852
REMARK SMILES CC(=O)CCC=C(C)CCC=C(C)CCC=C(C)C
REMARK SMILES IDX 10 1 11 2 12 3 13 4 14 5 15 6 16 7 18 8 17 9 19 10 9 11 7 12
REMARK SMILES IDX 6 13 8 14 5 15 4 16 2 17 3 18 1 19
REMARK H PARENT
REMARK Flexibility Score: inf
ROOT
ATOM      1  C   UNL     1     -23.159   4.923  -0.575  1.00  0.00     0.032 C 
ENDROOT
BRANCH   1   2
ATOM      2  C   UNL     1     -22.456   3.586  -0.562  1.00  0.00    -0.028 C 
ATOM      3  C   UNL     1     -21.926   2.999   0.536  1.00  0.00    -0.077 C 
ATOM      4  C   UNL     1     -21.958   3.667   1.889  1.00  0.00     0.039 C 
BRANCH   3   5
ATOM      5  C   UNL     1     -21.263   1.641   0.420  1.00  0.00     0.034 C 
BRANCH   5   6
ATOM      6  C   UNL     1     -22.224   0.504   0.794  1.00  0.00     0.032 C 
BRANCH   6   7
ATOM      7  C   UNL     1     -23.165   0.154  -0.337  1.00  0.00    -0.028 C 
ATOM      8  C   UNL     1     -25.130   1.141   0.849  1.00  0.00     0.039 C 
ATOM      9  C   UNL     1     -24.484   0.435  -0.318  1.00  0.00    -0.080 C 
ATOM     10  C   UNL     1     -25.325   0.044  -1.510  1.00  0.00     0.039 C 
ENDBRANCH   6   7
ENDBRANCH   5   6
ENDBRANCH   3   5
ENDBRANCH   1   2
BRANCH   1  11
ATOM     11  C   UNL     1     -24.641   4.789  -0.193  1.00  0.00     0.034 C 
BRANCH  11  12
ATOM     12  C   UNL     1     -25.548   4.791  -1.411  1.00  0.00    -0.077 C 
ATOM     13  C   UNL     1     -26.400   5.803  -1.695  1.00  0.00    -0.028 C 
ATOM     14  C   UNL     1     -25.516   3.603  -2.337  1.00  0.00     0.039 C 
BRANCH  13  15
ATOM     15  C   UNL     1     -26.503   7.092  -0.919  1.00  0.00     0.035 C 
BRANCH  15  16
ATOM     16  C   UNL     1     -26.622   8.284  -1.874  1.00  0.00     0.079 C 
BRANCH  16  17
ATOM     17  C   UNL     1     -25.311   8.840  -2.393  1.00  0.00     0.130 C 
ATOM     18  O   UNL     1     -25.356   9.626  -3.327  1.00  0.00    -0.300 OA
ATOM     19  C   UNL     1     -23.949   8.499  -1.830  1.00  0.00     0.087 C 
ENDBRANCH  16  17
ENDBRANCH  15  16
ENDBRANCH  13  15
ENDBRANCH  11  12
ENDBRANCH   1  11
TORSDOF 9
ENDMDL
MODEL 2
REMARK VINA RESULT:    -5.301      2.038      4.842
REMARK INTER + INTRA:          -9.942
REMARK INTER:                  -7.830
REMARK INTRA:                  -2.112
REMARK UNBOUND:                -1.852
REMARK SMILES CC(=O)CCC=C(C)CCC=C(C)CCC=C(C)C
REMARK SMILES IDX 10 1 11 2 12 3 13 4 14 5 15 6 16 7 18 8 17 9 19 10 9 11 7 12
REMARK SMILES IDX 6 13 8 14 5 15 4 16 2 17 3 18 1 19
REMARK H PARENT
REMARK Flexibility Score: inf
ROOT
ATOM      1  C   UNL     1     -24.880   0.249   0.467  1.00  0.00     0.032 C 
ENDROOT
BRANCH   1   2
ATOM      2  C   UNL     1     -24.857   1.554   1.226  1.00  0.00    -0.028 C 
ATOM      3  C   UNL     1     -23.760   2.324   1.412  1.00  0.00    -0.077 C 
ATOM      4  C   UNL     1     -22.404   1.915   0.890  1.00  0.00     0.039 C 
BRANCH   3   5
ATOM      5  C   UNL     1     -23.874   3.627   2.177  1.00  0.00     0.034 C 
BRANCH   5   6
ATOM      6  C   UNL     1     -22.516   4.329   2.315  1.00  0.00     0.032 C 
BRANCH   6   7
ATOM      7  C   UNL     1     -22.001   4.306   3.737  1.00  0.00    -0.028 C 
ATOM      8  C   UNL     1     -19.825   3.292   3.048  1.00  0.00     0.039 C 
ATOM      9  C   UNL     1     -20.785   3.835   4.078  1.00  0.00    -0.080 C 
ATOM     10  C   UNL     1     -20.376   3.870   5.532  1.00  0.00     0.039 C 
ENDBRANCH   6   7
ENDBRANCH   5   6
ENDBRANCH   3   5
ENDBRANCH   1   2
BRANCH   1  11
ATOM     11  C   UNL     1     -25.512   0.412  -0.924  1.00  0.00     0.034 C 
BRANCH  11  12
ATOM     12  C   UNL     1     -24.479   0.749  -1.985  1.00  0.00    -0.077 C 
ATOM     13  C   UNL     1     -24.436   1.944  -2.619  1.00  0.00    -0.028 C 
ATOM     14  C   UNL     1     -23.468  -0.300  -2.369  1.00  0.00     0.039 C 
BRANCH  13  15
ATOM     15  C   UNL     1     -25.321   3.123  -2.304  1.00  0.00     0.035 C 
BRANCH  15  16
ATOM     16  C   UNL     1     -24.553   4.165  -1.483  1.00  0.00     0.079 C 
BRANCH  16  17
ATOM     17  C   UNL     1     -25.348   5.388  -1.071  1.00  0.00     0.130 C 
ATOM     18  O   UNL     1     -26.449   5.548  -1.576  1.00  0.00    -0.300 OA
ATOM     19  C   UNL     1     -24.879   6.424  -0.073  1.00  0.00     0.087 C 
ENDBRANCH  16  17
ENDBRANCH  15  16
ENDBRANCH  13  15
ENDBRANCH  11  12
ENDBRANCH   1  11
TORSDOF 9
ENDMDL
MODEL 3
REMARK VINA RESULT:    -5.294      2.826      6.843
REMARK INTER + INTRA:          -9.930
REMARK INTER:                  -8.360
REMARK INTRA:                  -1.570
REMARK UNBOUND:                -1.852
REMARK SMILES CC(=O)CCC=C(C)CCC=C(C)CCC=C(C)C
REMARK SMILES IDX 10 1 11 2 12 3 13 4 14 5 15 6 16 7 18 8 17 9 19 10 9 11 7 12
REMARK SMILES IDX 6 13 8 14 5 15 4 16 2 17 3 18 1 19
REMARK H PARENT
REMARK Flexibility Score: inf
ROOT
ATOM      1  C   UNL     1     -23.282   2.133  -1.144  1.00  0.00     0.032 C 
ENDROOT
BRANCH   1   2
ATOM      2  C   UNL     1     -24.347   3.049  -1.700  1.00  0.00    -0.028 C 
ATOM      3  C   UNL     1     -24.848   4.132  -1.064  1.00  0.00    -0.077 C 
ATOM      4  C   UNL     1     -24.399   4.517   0.325  1.00  0.00     0.039 C 
BRANCH   3   5
ATOM      5  C   UNL     1     -25.902   4.985  -1.742  1.00  0.00     0.034 C 
BRANCH   5   6
ATOM      6  C   UNL     1     -26.251   6.227  -0.912  1.00  0.00     0.032 C 
BRANCH   6   7
ATOM      7  C   UNL     1     -25.573   7.474  -1.435  1.00  0.00    -0.028 C 
ATOM      8  C   UNL     1     -27.751   8.527  -2.059  1.00  0.00     0.039 C 
ATOM      9  C   UNL     1     -26.245   8.519  -1.960  1.00  0.00    -0.080 C 
ATOM     10  C   UNL     1     -25.460   9.715  -2.445  1.00  0.00     0.039 C 
ENDBRANCH   6   7
ENDBRANCH   5   6
ENDBRANCH   3   5
ENDBRANCH   1   2
BRANCH   1  11
ATOM     11  C   UNL     1     -23.756   0.672  -1.098  1.00  0.00     0.034 C 
BRANCH  11  12
ATOM     12  C   UNL     1     -25.024   0.508  -0.278  1.00  0.00    -0.077 C 
ATOM     13  C   UNL     1     -26.149  -0.064  -0.766  1.00  0.00    -0.028 C 
ATOM     14  C   UNL     1     -25.041   1.024   1.138  1.00  0.00     0.039 C 
BRANCH  13  15
ATOM     15  C   UNL     1     -26.277  -0.696  -2.129  1.00  0.00     0.035 C 
BRANCH  15  16
ATOM     16  C   UNL     1     -26.674   0.355  -3.172  1.00  0.00     0.079 C 
BRANCH  16  17
ATOM     17  C   UNL     1     -25.936   0.276  -4.494  1.00  0.00     0.130 C 
ATOM     18  O   UNL     1     -26.395  -0.454  -5.359  1.00  0.00    -0.300 OA
ATOM     19  C   UNL     1     -24.673   1.042  -4.822  1.00  0.00     0.087 C 
ENDBRANCH  16  17
ENDBRANCH  15  16
ENDBRANCH  13  15
ENDBRANCH  11  12
ENDBRANCH   1  11
TORSDOF 9
ENDMDL
MODEL 4
REMARK VINA RESULT:    -5.292      3.095      6.241
REMARK INTER + INTRA:          -9.929
REMARK INTER:                  -8.006
REMARK INTRA:                  -1.923
REMARK UNBOUND:                -1.852
REMARK SMILES CC(=O)CCC=C(C)CCC=C(C)CCC=C(C)C
REMARK SMILES IDX 10 1 11 2 12 3 13 4 14 5 15 6 16 7 18 8 17 9 19 10 9 11 7 12
REMARK SMILES IDX 6 13 8 14 5 15 4 16 2 17 3 18 1 19
REMARK H PARENT
REMARK Flexibility Score: inf
ROOT
ATOM      1  C   UNL     1     -25.690   3.215  -2.918  1.00  0.00     0.032 C 
ENDROOT
BRANCH   1   2
ATOM      2  C   UNL     1     -24.889   3.368  -1.647  1.00  0.00    -0.028 C 
ATOM      3  C   UNL     1     -24.978   4.416  -0.795  1.00  0.00    -0.077 C 
ATOM      4  C   UNL     1     -25.891   5.586  -1.068  1.00  0.00     0.039 C 
BRANCH   3   5
ATOM      5  C   UNL     1     -24.132   4.439   0.462  1.00  0.00     0.034 C 
BRANCH   5   6
ATOM      6  C   UNL     1     -22.696   3.972   0.192  1.00  0.00     0.032 C 
BRANCH   6   7
ATOM      7  C   UNL     1     -21.866   3.913   1.455  1.00  0.00    -0.028 C 
ATOM      8  C   UNL     1     -20.277   2.261   0.464  1.00  0.00     0.039 C 
ATOM      9  C   UNL     1     -20.771   3.138   1.588  1.00  0.00    -0.080 C 
ATOM     10  C   UNL     1     -20.017   3.167   2.896  1.00  0.00     0.039 C 
ENDBRANCH   6   7
ENDBRANCH   5   6
ENDBRANCH   3   5
ENDBRANCH   1   2
BRANCH   1  11
ATOM     11  C   UNL     1     -25.979   1.739  -3.234  1.00  0.00     0.034 C 
BRANCH  11  12
ATOM     12  C   UNL     1     -24.797   1.055  -3.898  1.00  0.00    -0.077 C 
ATOM     13  C   UNL     1     -23.980   0.196  -3.246  1.00  0.00    -0.028 C 
ATOM     14  C   UNL     1     -24.503   1.360  -5.344  1.00  0.00     0.039 C 
BRANCH  13  15
ATOM     15  C   UNL     1     -24.175  -0.275  -1.826  1.00  0.00     0.035 C 
BRANCH  15  16
ATOM     16  C   UNL     1     -23.052   0.256  -0.928  1.00  0.00     0.079 C 
BRANCH  16  17
ATOM     17  C   UNL     1     -23.310   0.166   0.564  1.00  0.00     0.130 C 
ATOM     18  O   UNL     1     -22.510  -0.461   1.242  1.00  0.00    -0.300 OA
ATOM     19  C   UNL     1     -24.483   0.804   1.274  1.00  0.00     0.087 C 
ENDBRANCH  16  17
ENDBRANCH  15  16
ENDBRANCH  13  15
ENDBRANCH  11  12
ENDBRANCH   1  11
TORSDOF 9
ENDMDL
MODEL 5
REMARK VINA RESULT:    -5.264      2.734      6.419
REMARK INTER + INTRA:          -9.886
REMARK INTER:                  -7.929
REMARK INTRA:                  -1.956
REMARK UNBOUND:                -1.852
REMARK SMILES CC(=O)CCC=C(C)CCC=C(C)CCC=C(C)C
REMARK SMILES IDX 10 1 11 2 12 3 13 4 14 5 15 6 16 7 18 8 17 9 19 10 9 11 7 12
REMARK SMILES IDX 6 13 8 14 5 15 4 16 2 17 3 18 1 19
REMARK H PARENT
REMARK Flexibility Score: inf
ROOT
ATOM      1  C   UNL     1     -24.258   2.043   1.648  1.00  0.00     0.032 C 
ENDROOT
BRANCH   1   2
ATOM      2  C   UNL     1     -24.531   3.418   1.086  1.00  0.00    -0.028 C 
ATOM      3  C   UNL     1     -23.617   4.197   0.463  1.00  0.00    -0.077 C 
ATOM      4  C   UNL     1     -22.181   3.762   0.300  1.00  0.00     0.039 C 
BRANCH   3   5
ATOM      5  C   UNL     1     -24.024   5.553  -0.076  1.00  0.00     0.034 C 
BRANCH   5   6
ATOM      6  C   UNL     1     -24.843   5.430  -1.369  1.00  0.00     0.032 C 
BRANCH   6   7
ATOM      7  C   UNL     1     -26.305   5.748  -1.152  1.00  0.00    -0.028 C 
ATOM      8  C   UNL     1     -26.016   8.110  -1.914  1.00  0.00     0.039 C 
ATOM      9  C   UNL     1     -26.844   6.961  -1.392  1.00  0.00    -0.080 C 
ATOM     10  C   UNL     1     -28.321   7.159  -1.146  1.00  0.00     0.039 C 
ENDBRANCH   6   7
ENDBRANCH   5   6
ENDBRANCH   3   5
ENDBRANCH   1   2
BRANCH   1  11
ATOM     11  C   UNL     1     -24.851   0.938   0.760  1.00  0.00     0.034 C 
BRANCH  11  12
ATOM     12  C   UNL     1     -23.917   0.552  -0.374  1.00  0.00    -0.077 C 
ATOM     13  C   UNL     1     -24.149   0.884  -1.665  1.00  0.00    -0.028 C 
ATOM     14  C   UNL     1     -22.686  -0.255  -0.053  1.00  0.00     0.039 C 
BRANCH  13  15
ATOM     15  C   UNL     1     -25.287   1.748  -2.147  1.00  0.00     0.035 C 
BRANCH  15  16
ATOM     16  C   UNL     1     -26.204   0.952  -3.083  1.00  0.00     0.079 C 
BRANCH  16  17
ATOM     17  C   UNL     1     -26.694  -0.377  -2.543  1.00  0.00     0.130 C 
ATOM     18  O   UNL     1     -27.436  -0.358  -1.573  1.00  0.00    -0.300 OA
ATOM     19  C   UNL     1     -26.337  -1.727  -3.125  1.00  0.00     0.087 C 
ENDBRANCH  16  17
ENDBRANCH  15  16
ENDBRANCH  13  15
ENDBRANCH  11  12
ENDBRANCH   1  11
TORSDOF 9
ENDMDL
MODEL 6
REMARK VINA RESULT:    -5.227      3.973      6.582
REMARK INTER + INTRA:          -9.828
REMARK INTER:                  -8.264
REMARK INTRA:                  -1.564
REMARK UNBOUND:                -1.852
REMARK SMILES CC(=O)CCC=C(C)CCC=C(C)CCC=C(C)C
REMARK SMILES IDX 10 1 11 2 12 3 13 4 14 5 15 6 16 7 18 8 17 9 19 10 9 11 7 12
REMARK SMILES IDX 6 13 8 14 5 15 4 16 2 17 3 18 1 19
REMARK H PARENT
REMARK Flexibility Score: inf
ROOT
ATOM      1  C   UNL     1     -24.435   2.984  -2.675  1.00  0.00     0.032 C 
ENDROOT
BRANCH   1   2
ATOM      2  C   UNL     1     -25.470   1.904  -2.463  1.00  0.00    -0.028 C 
ATOM      3  C   UNL     1     -25.337   0.616  -2.854  1.00  0.00    -0.077 C 
ATOM      4  C   UNL     1     -24.115   0.132  -3.595  1.00  0.00     0.039 C 
BRANCH   3   5
ATOM      5  C   UNL     1     -26.443  -0.378  -2.562  1.00  0.00     0.034 C 
BRANCH   5   6
ATOM      6  C   UNL     1     -26.541  -1.458  -3.649  1.00  0.00     0.032 C 
BRANCH   6   7
ATOM      7  C   UNL     1     -27.637  -1.165  -4.649  1.00  0.00    -0.028 C 
ATOM      8  C   UNL     1     -27.309  -3.352  -5.811  1.00  0.00     0.039 C 
ATOM      9  C   UNL     1     -27.989  -2.016  -5.634  1.00  0.00    -0.080 C 
ATOM     10  C   UNL     1     -29.105  -1.618  -6.571  1.00  0.00     0.039 C 
ENDBRANCH   6   7
ENDBRANCH   5   6
ENDBRANCH   3   5
ENDBRANCH   1   2
BRANCH   1  11
ATOM     11  C   UNL     1     -23.652   3.280  -1.387  1.00  0.00     0.034 C 
BRANCH  11  12
ATOM     12  C   UNL     1     -24.494   4.021  -0.362  1.00  0.00    -0.077 C 
ATOM     13  C   UNL     1     -24.578   3.644   0.934  1.00  0.00    -0.028 C 
ATOM     14  C   UNL     1     -25.290   5.219  -0.811  1.00  0.00     0.039 C 
BRANCH  13  15
ATOM     15  C   UNL     1     -23.792   2.520   1.562  1.00  0.00     0.035 C 
BRANCH  15  16
ATOM     16  C   UNL     1     -24.530   1.188   1.387  1.00  0.00     0.079 C 
BRANCH  16  17
ATOM     17  C   UNL     1     -23.652  -0.010   1.082  1.00  0.00     0.130 C 
ATOM     18  O   UNL     1     -23.609  -0.908   1.909  1.00  0.00    -0.300 OA
ATOM     19  C   UNL     1     -22.831  -0.178  -0.177  1.00  0.00     0.087 C 
ENDBRANCH  16  17
ENDBRANCH  15  16
ENDBRANCH  13  15
ENDBRANCH  11  12
ENDBRANCH   1  11
TORSDOF 9
ENDMDL
MODEL 7
REMARK VINA RESULT:    -5.220      3.296      5.441
REMARK INTER + INTRA:          -9.818
REMARK INTER:                  -7.896
REMARK INTRA:                  -1.922
REMARK UNBOUND:                -1.852
REMARK SMILES CC(=O)CCC=C(C)CCC=C(C)CCC=C(C)C
REMARK SMILES IDX 10 1 11 2 12 3 13 4 14 5 15 6 16 7 18 8 17 9 19 10 9 11 7 12
REMARK SMILES IDX 6 13 8 14 5 15 4 16 2 17 3 18 1 19
REMARK H PARENT
REMARK Flexibility Score: inf
ROOT
ATOM      1  C   UNL     1     -24.805   4.377  -1.383  1.00  0.00     0.032 C 
ENDROOT
BRANCH   1   2
ATOM      2  C   UNL     1     -25.425   3.007  -1.525  1.00  0.00    -0.028 C 
ATOM      3  C   UNL     1     -25.376   2.246  -2.642  1.00  0.00    -0.077 C 
ATOM      4  C   UNL     1     -24.704   2.729  -3.904  1.00  0.00     0.039 C 
BRANCH   3   5
ATOM      5  C   UNL     1     -26.022   0.875  -2.649  1.00  0.00     0.034 C 
BRANCH   5   6
ATOM      6  C   UNL     1     -25.819   0.142  -1.316  1.00  0.00     0.032 C 
BRANCH   6   7
ATOM      7  C   UNL     1     -24.357   0.013  -0.950  1.00  0.00    -0.028 C 
ATOM      8  C   UNL     1     -24.747   0.882   1.359  1.00  0.00     0.039 C 
ATOM      9  C   UNL     1     -23.863   0.350   0.258  1.00  0.00    -0.080 C 
ATOM     10  C   UNL     1     -22.385   0.171   0.511  1.00  0.00     0.039 C 
ENDBRANCH   6   7
ENDBRANCH   5   6
ENDBRANCH   3   5
ENDBRANCH   1   2
BRANCH   1  11
ATOM     11  C   UNL     1     -24.442   4.688   0.078  1.00  0.00     0.034 C 
BRANCH  11  12
ATOM     12  C   UNL     1     -23.096   4.104   0.469  1.00  0.00    -0.077 C 
ATOM     13  C   UNL     1     -22.711   3.934   1.755  1.00  0.00    -0.028 C 
ATOM     14  C   UNL     1     -22.132   3.715  -0.622  1.00  0.00     0.039 C 
BRANCH  13  15
ATOM     15  C   UNL     1     -23.578   4.200   2.960  1.00  0.00     0.035 C 
BRANCH  15  16
ATOM     16  C   UNL     1     -22.931   5.257   3.862  1.00  0.00     0.079 C 
BRANCH  16  17
ATOM     17  C   UNL     1     -22.083   4.717   4.997  1.00  0.00     0.130 C 
ATOM     18  O   UNL     1     -22.569   4.716   6.119  1.00  0.00    -0.300 OA
ATOM     19  C   UNL     1     -20.681   4.171   4.841  1.00  0.00     0.087 C 
ENDBRANCH  16  17
ENDBRANCH  15  16
ENDBRANCH  13  15
ENDBRANCH  11  12
ENDBRANCH   1  11
TORSDOF 9
ENDMDL
MODEL 8
REMARK VINA RESULT:    -5.202      2.894      6.296
REMARK INTER + INTRA:          -9.791
REMARK INTER:                  -8.030
REMARK INTRA:                  -1.761
REMARK UNBOUND:                -1.852
REMARK SMILES CC(=O)CCC=C(C)CCC=C(C)CCC=C(C)C
REMARK SMILES IDX 10 1 11 2 12 3 13 4 14 5 15 6 16 7 18 8 17 9 19 10 9 11 7 12
REMARK SMILES IDX 6 13 8 14 5 15 4 16 2 17 3 18 1 19
REMARK H PARENT
REMARK Flexibility Score: inf
ROOT
ATOM      1  C   UNL     1     -24.505   1.062   1.438  1.00  0.00     0.032 C 
ENDROOT
BRANCH   1   2
ATOM      2  C   UNL     1     -24.350   2.564   1.496  1.00  0.00    -0.028 C 
ATOM      3  C   UNL     1     -23.172   3.226   1.420  1.00  0.00    -0.077 C 
ATOM      4  C   UNL     1     -21.856   2.496   1.304  1.00  0.00     0.039 C 
BRANCH   3   5
ATOM      5  C   UNL     1     -23.153   4.740   1.469  1.00  0.00     0.034 C 
BRANCH   5   6
ATOM      6  C   UNL     1     -23.130   5.356   0.064  1.00  0.00     0.032 C 
BRANCH   6   7
ATOM      7  C   UNL     1     -24.455   5.982  -0.309  1.00  0.00    -0.028 C 
ATOM      8  C   UNL     1     -25.093   4.039  -1.744  1.00  0.00     0.039 C 
ATOM      9  C   UNL     1     -25.348   5.394  -1.131  1.00  0.00    -0.080 C 
ATOM     10  C   UNL     1     -26.644   6.113  -1.426  1.00  0.00     0.039 C 
ENDBRANCH   6   7
ENDBRANCH   5   6
ENDBRANCH   3   5
ENDBRANCH   1   2
BRANCH   1  11
ATOM     11  C   UNL     1     -25.337   0.624   0.223  1.00  0.00     0.034 C 
BRANCH  11  12
ATOM     12  C   UNL     1     -24.464   0.240  -0.959  1.00  0.00    -0.077 C 
ATOM     13  C   UNL     1     -24.900   0.276  -2.240  1.00  0.00    -0.028 C 
ATOM     14  C   UNL     1     -23.054  -0.223  -0.697  1.00  0.00     0.039 C 
BRANCH  13  15
ATOM     15  C   UNL     1     -26.250   0.784  -2.681  1.00  0.00     0.035 C 
BRANCH  15  16
ATOM     16  C   UNL     1     -27.132  -0.379  -3.147  1.00  0.00     0.079 C 
BRANCH  16  17
ATOM     17  C   UNL     1     -26.653  -1.107  -4.388  1.00  0.00     0.130 C 
ATOM     18  O   UNL     1     -26.291  -0.431  -5.340  1.00  0.00    -0.300 OA
ATOM     19  C   UNL     1     -26.582  -2.611  -4.530  1.00  0.00     0.087 C 
ENDBRANCH  16  17
ENDBRANCH  15  16
ENDBRANCH  13  15
ENDBRANCH  11  12
ENDBRANCH   1  11
TORSDOF 9
ENDMDL
MODEL 9
REMARK VINA RESULT:    -5.127      1.705      2.865
REMARK INTER + INTRA:          -9.676
REMARK INTER:                  -8.188
REMARK INTRA:                  -1.488
REMARK UNBOUND:                -1.852
REMARK SMILES CC(=O)CCC=C(C)CCC=C(C)CCC=C(C)C
REMARK SMILES IDX 10 1 11 2 12 3 13 4 14 5 15 6 16 7 18 8 17 9 19 10 9 11 7 12
REMARK SMILES IDX 6 13 8 14 5 15 4 16 2 17 3 18 1 19
REMARK H PARENT
REMARK Flexibility Score: inf
ROOT
ATOM      1  C   UNL     1     -23.916   3.776   0.603  1.00  0.00     0.032 C 
ENDROOT
BRANCH   1   2
ATOM      2  C   UNL     1     -23.390   2.498  -0.006  1.00  0.00    -0.028 C 
ATOM      3  C   UNL     1     -23.876   1.261   0.247  1.00  0.00    -0.077 C 
ATOM      4  C   UNL     1     -25.005   1.034   1.223  1.00  0.00     0.039 C 
BRANCH   3   5
ATOM      5  C   UNL     1     -23.271   0.057  -0.447  1.00  0.00     0.034 C 
BRANCH   5   6
ATOM      6  C   UNL     1     -23.657   0.001  -1.931  1.00  0.00     0.032 C 
BRANCH   6   7
ATOM      7  C   UNL     1     -25.105  -0.384  -2.132  1.00  0.00    -0.028 C 
ATOM      8  C   UNL     1     -25.716   1.904  -2.926  1.00  0.00     0.039 C 
ATOM      9  C   UNL     1     -26.046   0.473  -2.578  1.00  0.00    -0.080 C 
ATOM     10  C   UNL     1     -27.461  -0.027  -2.747  1.00  0.00     0.039 C 
ENDBRANCH   6   7
ENDBRANCH   5   6
ENDBRANCH   3   5
ENDBRANCH   1   2
BRANCH   1  11
ATOM     11  C   UNL     1     -24.926   4.472  -0.322  1.00  0.00     0.034 C 
BRANCH  11  12
ATOM     12  C   UNL     1     -24.843   5.985  -0.224  1.00  0.00    -0.077 C 
ATOM     13  C   UNL     1     -25.698   6.814  -0.866  1.00  0.00    -0.028 C 
ATOM     14  C   UNL     1     -23.745   6.597   0.607  1.00  0.00     0.039 C 
BRANCH  13  15
ATOM     15  C   UNL     1     -26.892   6.370  -1.674  1.00  0.00     0.035 C 
BRANCH  15  16
ATOM     16  C   UNL     1     -28.164   7.063  -1.175  1.00  0.00     0.079 C 
BRANCH  16  17
ATOM     17  C   UNL     1     -28.194   8.570  -1.336  1.00  0.00     0.130 C 
ATOM     18  O   UNL     1     -28.029   9.026  -2.457  1.00  0.00    -0.300 OA
ATOM     19  C   UNL     1     -28.422   9.552  -0.208  1.00  0.00     0.087 C 
ENDBRANCH  16  17
ENDBRANCH  15  16
ENDBRANCH  13  15
ENDBRANCH  11  12
ENDBRANCH   1  11
TORSDOF 9
ENDMDL
