MODEL 1
REMARK VINA RESULT:    -5.050      0.000      0.000
REMARK INTER + INTRA:          -5.840
REMARK INTER:                  -5.788
REMARK INTRA:                  -0.052
REMARK UNBOUND:                -0.052
REMARK SMILES O=C([O-])c1cc(O)c(O)c(O)c1
REMARK SMILES IDX 4 1 5 2 12 3 6 4 10 5 8 6 2 7 1 8 3 9 7 10 11 12 9 14
REMARK H PARENT 7 11 11 13 9 15
REMARK Flexibility Score: inf
ROOT
ATOM      1  C   UNL     1     -18.931  54.252  -0.436  1.00  0.00     0.005 A 
ATOM      2  C   UNL     1     -19.070  55.600  -0.063  1.00  0.00     0.060 A 
ATOM      3  C   UNL     1     -17.642  53.724  -0.617  1.00  0.00     0.060 A 
ATOM      4  C   UNL     1     -17.941  56.408   0.127  1.00  0.00     0.162 A 
ATOM      5  C   UNL     1     -16.510  54.524  -0.430  1.00  0.00     0.162 A 
ATOM      6  C   UNL     1     -16.655  55.871  -0.057  1.00  0.00     0.200 A 
ENDROOT
BRANCH   1   7
ATOM      7  C   UNL     1     -20.123  53.397  -0.636  1.00  0.00     0.072 C 
ATOM      8  O   UNL     1     -21.261  53.788  -0.265  1.00  0.00    -0.545 OA
ATOM      9  O   UNL     1     -20.002  52.150  -1.239  1.00  0.00    -0.545 OA
ENDBRANCH   1   7
BRANCH   4  10
ATOM     10  O   UNL     1     -18.092  57.744   0.497  1.00  0.00    -0.504 OA
ATOM     11  H   UNL     1     -17.767  58.500  -0.095  1.00  0.00     0.293 HD
ENDBRANCH   4  10
BRANCH   5  12
ATOM     12  O   UNL     1     -15.247  53.963  -0.620  1.00  0.00    -0.504 OA
ATOM     13  H   UNL     1     -15.123  53.005  -0.923  1.00  0.00     0.293 HD
ENDBRANCH   5  12
BRANCH   6  14
ATOM     14  O   UNL     1     -15.520  56.662   0.128  1.00  0.00    -0.502 OA
ATOM     15  H   UNL     1     -14.649  56.476  -0.352  1.00  0.00     0.293 HD
ENDBRANCH   6  14
TORSDOF 4
ENDMDL
MODEL 2
REMARK VINA RESULT:    -5.034      0.026      2.429
REMARK INTER + INTRA:          -5.823
REMARK INTER:                  -5.770
REMARK INTRA:                  -0.053
REMARK UNBOUND:                -0.052
REMARK SMILES O=C([O-])c1cc(O)c(O)c(O)c1
REMARK SMILES IDX 4 1 5 2 12 3 6 4 10 5 8 6 2 7 1 8 3 9 7 10 11 12 9 14
REMARK H PARENT 7 11 11 13 9 15
REMARK Flexibility Score: inf
ROOT
ATOM      1  C   UNL     1     -18.924  54.259  -0.429  1.00  0.00     0.005 A 
ATOM      2  C   UNL     1     -17.637  53.723  -0.614  1.00  0.00     0.060 A 
ATOM      3  C   UNL     1     -19.054  55.606  -0.057  1.00  0.00     0.060 A 
ATOM      4  C   UNL     1     -16.499  54.520  -0.430  1.00  0.00     0.162 A 
ATOM      5  C   UNL     1     -17.923  56.408   0.130  1.00  0.00     0.162 A 
ATOM      6  C   UNL     1     -16.639  55.867  -0.056  1.00  0.00     0.200 A 
ENDROOT
BRANCH   1   7
ATOM      7  C   UNL     1     -20.126  53.418  -0.624  1.00  0.00     0.072 C 
ATOM      8  O   UNL     1     -21.264  53.837  -0.282  1.00  0.00    -0.545 OA
ATOM      9  O   UNL     1     -20.016  52.153  -1.190  1.00  0.00    -0.545 OA
ENDBRANCH   1   7
BRANCH   4  10
ATOM     10  O   UNL     1     -15.228  53.977  -0.616  1.00  0.00    -0.504 OA
ATOM     11  H   UNL     1     -14.484  54.125   0.056  1.00  0.00     0.293 HD
ENDBRANCH   4  10
BRANCH   5  12
ATOM     12  O   UNL     1     -18.095  57.742   0.501  1.00  0.00    -0.504 OA
ATOM     13  H   UNL     1     -17.770  58.508  -0.076  1.00  0.00     0.293 HD
ENDBRANCH   5  12
BRANCH   6  14
ATOM     14  O   UNL     1     -15.517  56.675   0.131  1.00  0.00    -0.502 OA
ATOM     15  H   UNL     1     -14.840  56.838  -0.604  1.00  0.00     0.293 HD
ENDBRANCH   6  14
TORSDOF 4
ENDMDL
MODEL 3
REMARK VINA RESULT:    -4.999      2.732      3.070
REMARK INTER + INTRA:          -5.782
REMARK INTER:                  -5.731
REMARK INTRA:                  -0.050
REMARK UNBOUND:                -0.052
REMARK SMILES O=C([O-])c1cc(O)c(O)c(O)c1
REMARK SMILES IDX 4 1 5 2 12 3 6 4 10 5 8 6 2 7 1 8 3 9 7 10 11 12 9 14
REMARK H PARENT 7 11 11 13 9 15
REMARK Flexibility Score: inf
ROOT
ATOM      1  C   UNL     1     -19.941  54.040  -1.654  1.00  0.00     0.005 A 
ATOM      2  C   UNL     1     -20.751  54.973  -2.325  1.00  0.00     0.060 A 
ATOM      3  C   UNL     1     -18.548  54.109  -1.810  1.00  0.00     0.060 A 
ATOM      4  C   UNL     1     -20.178  55.959  -3.139  1.00  0.00     0.162 A 
ATOM      5  C   UNL     1     -17.968  55.090  -2.622  1.00  0.00     0.162 A 
ATOM      6  C   UNL     1     -18.782  56.020  -3.290  1.00  0.00     0.200 A 
ENDROOT
BRANCH   1   7
ATOM      7  C   UNL     1     -20.545  52.998  -0.793  1.00  0.00     0.072 C 
ATOM      8  O   UNL     1     -21.620  53.222  -0.175  1.00  0.00    -0.545 OA
ATOM      9  O   UNL     1     -19.935  51.756  -0.656  1.00  0.00    -0.545 OA
ENDBRANCH   1   7
BRANCH   4  10
ATOM     10  O   UNL     1     -20.991  56.879  -3.800  1.00  0.00    -0.504 OA
ATOM     11  H   UNL     1     -20.698  57.838  -3.947  1.00  0.00     0.293 HD
ENDBRANCH   4  10
BRANCH   5  12
ATOM     12  O   UNL     1     -16.579  55.125  -2.752  1.00  0.00    -0.504 OA
ATOM     13  H   UNL     1     -15.969  55.326  -1.969  1.00  0.00     0.293 HD
ENDBRANCH   5  12
BRANCH   6  14
ATOM     14  O   UNL     1     -18.195  56.996  -4.097  1.00  0.00    -0.502 OA
ATOM     15  H   UNL     1     -17.944  56.820  -5.062  1.00  0.00     0.293 HD
ENDBRANCH   6  14
TORSDOF 4
ENDMDL
MODEL 4
REMARK VINA RESULT:    -4.996      2.759      3.760
REMARK INTER + INTRA:          -5.779
REMARK INTER:                  -5.728
REMARK INTRA:                  -0.051
REMARK UNBOUND:                -0.052
REMARK SMILES O=C([O-])c1cc(O)c(O)c(O)c1
REMARK SMILES IDX 4 1 5 2 12 3 6 4 10 5 8 6 2 7 1 8 3 9 7 10 11 12 9 14
REMARK H PARENT 7 11 11 13 9 15
REMARK Flexibility Score: inf
ROOT
ATOM      1  C   UNL     1     -19.948  54.085  -1.666  1.00  0.00     0.005 A 
ATOM      2  C   UNL     1     -18.554  54.174  -1.831  1.00  0.00     0.060 A 
ATOM      3  C   UNL     1     -20.773  55.004  -2.334  1.00  0.00     0.060 A 
ATOM      4  C   UNL     1     -17.995  55.165  -2.649  1.00  0.00     0.162 A 
ATOM      5  C   UNL     1     -20.223  55.996  -3.152  1.00  0.00     0.162 A 
ATOM      6  C   UNL     1     -18.829  56.080  -3.313  1.00  0.00     0.200 A 
ENDROOT
BRANCH   1   7
ATOM      7  C   UNL     1     -20.540  53.039  -0.803  1.00  0.00     0.072 C 
ATOM      8  O   UNL     1     -21.641  53.234  -0.223  1.00  0.00    -0.545 OA
ATOM      9  O   UNL     1     -19.888  51.824  -0.621  1.00  0.00    -0.545 OA
ENDBRANCH   1   7
BRANCH   4  10
ATOM     10  O   UNL     1     -16.611  55.244  -2.804  1.00  0.00    -0.504 OA
ATOM     11  H   UNL     1     -16.011  55.580  -2.060  1.00  0.00     0.293 HD
ENDBRANCH   4  10
BRANCH   5  12
ATOM     12  O   UNL     1     -21.077  56.890  -3.798  1.00  0.00    -0.504 OA
ATOM     13  H   UNL     1     -20.745  57.758  -4.199  1.00  0.00     0.293 HD
ENDBRANCH   5  12
BRANCH   6  14
ATOM     14  O   UNL     1     -18.288  57.073  -4.132  1.00  0.00    -0.502 OA
ATOM     15  H   UNL     1     -18.865  57.662  -4.719  1.00  0.00     0.293 HD
ENDBRANCH   6  14
TORSDOF 4
ENDMDL
MODEL 5
REMARK VINA RESULT:    -4.781      2.930      4.989
REMARK INTER + INTRA:          -5.532
REMARK INTER:                  -5.480
REMARK INTRA:                  -0.052
REMARK UNBOUND:                -0.052
REMARK SMILES O=C([O-])c1cc(O)c(O)c(O)c1
REMARK SMILES IDX 4 1 5 2 12 3 6 4 10 5 8 6 2 7 1 8 3 9 7 10 11 12 9 14
REMARK H PARENT 7 11 11 13 9 15
REMARK Flexibility Score: inf
ROOT
ATOM      1  C   UNL     1     -18.664  55.225  -2.774  1.00  0.00     0.005 A 
ATOM      2  C   UNL     1     -19.481  56.321  -3.104  1.00  0.00     0.060 A 
ATOM      3  C   UNL     1     -19.263  54.047  -2.298  1.00  0.00     0.060 A 
ATOM      4  C   UNL     1     -20.873  56.242  -2.961  1.00  0.00     0.162 A 
ATOM      5  C   UNL     1     -20.652  53.961  -2.152  1.00  0.00     0.162 A 
ATOM      6  C   UNL     1     -21.463  55.060  -2.483  1.00  0.00     0.200 A 
ENDROOT
BRANCH   1   7
ATOM      7  C   UNL     1     -17.194  55.306  -2.925  1.00  0.00     0.072 C 
ATOM      8  O   UNL     1     -16.445  54.457  -2.374  1.00  0.00    -0.545 OA
ATOM      9  O   UNL     1     -16.619  56.323  -3.680  1.00  0.00    -0.545 OA
ENDBRANCH   1   7
BRANCH   4  10
ATOM     10  O   UNL     1     -21.672  57.336  -3.291  1.00  0.00    -0.504 OA
ATOM     11  H   UNL     1     -21.442  57.948  -4.066  1.00  0.00     0.293 HD
ENDBRANCH   4  10
BRANCH   5  12
ATOM     12  O   UNL     1     -21.208  52.774  -1.676  1.00  0.00    -0.504 OA
ATOM     13  H   UNL     1     -20.995  52.409  -0.756  1.00  0.00     0.293 HD
ENDBRANCH   5  12
BRANCH   6  14
ATOM     14  O   UNL     1     -22.848  54.965  -2.335  1.00  0.00    -0.502 OA
ATOM     15  H   UNL     1     -23.382  54.203  -2.733  1.00  0.00     0.293 HD
ENDBRANCH   6  14
TORSDOF 4
ENDMDL
MODEL 6
REMARK VINA RESULT:    -4.718      2.887      5.337
REMARK INTER + INTRA:          -5.460
REMARK INTER:                  -5.408
REMARK INTRA:                  -0.051
REMARK UNBOUND:                -0.052
REMARK SMILES O=C([O-])c1cc(O)c(O)c(O)c1
REMARK SMILES IDX 4 1 5 2 12 3 6 4 10 5 8 6 2 7 1 8 3 9 7 10 11 12 9 14
REMARK H PARENT 7 11 11 13 9 15
REMARK Flexibility Score: inf
ROOT
ATOM      1  C   UNL     1     -18.745  55.155  -2.623  1.00  0.00     0.005 A 
ATOM      2  C   UNL     1     -19.398  54.015  -2.121  1.00  0.00     0.060 A 
ATOM      3  C   UNL     1     -19.513  56.260  -3.023  1.00  0.00     0.060 A 
ATOM      4  C   UNL     1     -20.795  53.980  -2.021  1.00  0.00     0.162 A 
ATOM      5  C   UNL     1     -20.908  56.232  -2.927  1.00  0.00     0.162 A 
ATOM      6  C   UNL     1     -21.556  55.090  -2.425  1.00  0.00     0.200 A 
ENDROOT
BRANCH   1   7
ATOM      7  C   UNL     1     -17.269  55.194  -2.728  1.00  0.00     0.072 C 
ATOM      8  O   UNL     1     -16.555  54.440  -2.014  1.00  0.00    -0.545 OA
ATOM      9  O   UNL     1     -16.649  56.063  -3.619  1.00  0.00    -0.545 OA
ENDBRANCH   1   7
BRANCH   4  10
ATOM     10  O   UNL     1     -21.431  52.844  -1.523  1.00  0.00    -0.504 OA
ATOM     11  H   UNL     1     -22.400  52.639  -1.739  1.00  0.00     0.293 HD
ENDBRANCH   4  10
BRANCH   5  12
ATOM     12  O   UNL     1     -21.636  57.350  -3.335  1.00  0.00    -0.504 OA
ATOM     13  H   UNL     1     -21.913  57.491  -4.299  1.00  0.00     0.293 HD
ENDBRANCH   5  12
BRANCH   6  14
ATOM     14  O   UNL     1     -22.948  55.072  -2.332  1.00  0.00    -0.502 OA
ATOM     15  H   UNL     1     -23.470  54.212  -2.212  1.00  0.00     0.293 HD
ENDBRANCH   6  14
TORSDOF 4
ENDMDL
MODEL 7
REMARK VINA RESULT:    -4.682      3.372      4.711
REMARK INTER + INTRA:          -5.419
REMARK INTER:                  -5.370
REMARK INTRA:                  -0.049
REMARK UNBOUND:                -0.052
REMARK SMILES O=C([O-])c1cc(O)c(O)c(O)c1
REMARK SMILES IDX 4 1 5 2 12 3 6 4 10 5 8 6 2 7 1 8 3 9 7 10 11 12 9 14
REMARK H PARENT 7 11 11 13 9 15
REMARK Flexibility Score: inf
ROOT
ATOM      1  C   UNL     1     -20.575  53.438  -1.399  1.00  0.00     0.005 A 
ATOM      2  C   UNL     1     -19.537  54.018  -2.148  1.00  0.00     0.060 A 
ATOM      3  C   UNL     1     -21.860  54.000  -1.463  1.00  0.00     0.060 A 
ATOM      4  C   UNL     1     -19.778  55.143  -2.949  1.00  0.00     0.162 A 
ATOM      5  C   UNL     1     -22.108  55.123  -2.258  1.00  0.00     0.162 A 
ATOM      6  C   UNL     1     -21.067  55.700  -3.006  1.00  0.00     0.200 A 
ENDROOT
BRANCH   1   7
ATOM      7  C   UNL     1     -20.322  52.249  -0.554  1.00  0.00     0.072 C 
ATOM      8  O   UNL     1     -19.625  51.292  -0.986  1.00  0.00    -0.545 OA
ATOM      9  O   UNL     1     -20.848  52.173   0.731  1.00  0.00    -0.545 OA
ENDBRANCH   1   7
BRANCH   4  10
ATOM     10  O   UNL     1     -18.741  55.710  -3.687  1.00  0.00    -0.504 OA
ATOM     11  H   UNL     1     -17.822  55.860  -3.285  1.00  0.00     0.293 HD
ENDBRANCH   4  10
BRANCH   5  12
ATOM     12  O   UNL     1     -23.399  55.654  -2.294  1.00  0.00    -0.504 OA
ATOM     13  H   UNL     1     -23.586  56.631  -2.106  1.00  0.00     0.293 HD
ENDBRANCH   5  12
BRANCH   6  14
ATOM     14  O   UNL     1     -21.324  56.820  -3.798  1.00  0.00    -0.502 OA
ATOM     15  H   UNL     1     -21.656  56.743  -4.751  1.00  0.00     0.293 HD
ENDBRANCH   6  14
TORSDOF 4
ENDMDL
MODEL 8
REMARK VINA RESULT:    -4.645      4.610      5.411
REMARK INTER + INTRA:          -5.376
REMARK INTER:                  -5.327
REMARK INTRA:                  -0.048
REMARK UNBOUND:                -0.052
REMARK SMILES O=C([O-])c1cc(O)c(O)c(O)c1
REMARK SMILES IDX 4 1 5 2 12 3 6 4 10 5 8 6 2 7 1 8 3 9 7 10 11 12 9 14
REMARK H PARENT 7 11 11 13 9 15
REMARK Flexibility Score: inf
ROOT
ATOM      1  C   UNL     1     -23.437  55.467  -0.646  1.00  0.00     0.005 A 
ATOM      2  C   UNL     1     -23.573  56.796  -1.084  1.00  0.00     0.060 A 
ATOM      3  C   UNL     1     -22.483  54.641  -1.261  1.00  0.00     0.060 A 
ATOM      4  C   UNL     1     -22.770  57.292  -2.120  1.00  0.00     0.162 A 
ATOM      5  C   UNL     1     -21.678  55.128  -2.296  1.00  0.00     0.162 A 
ATOM      6  C   UNL     1     -21.818  56.458  -2.730  1.00  0.00     0.200 A 
ENDROOT
BRANCH   1   7
ATOM      7  C   UNL     1     -24.284  54.942   0.448  1.00  0.00     0.072 C 
ATOM      8  O   UNL     1     -23.776  54.276   1.389  1.00  0.00    -0.545 OA
ATOM      9  O   UNL     1     -25.654  55.179   0.454  1.00  0.00    -0.545 OA
ENDBRANCH   1   7
BRANCH   4  10
ATOM     10  O   UNL     1     -22.915  58.612  -2.545  1.00  0.00    -0.504 OA
ATOM     11  H   UNL     1     -23.731  59.162  -2.301  1.00  0.00     0.293 HD
ENDBRANCH   4  10
BRANCH   5  12
ATOM     12  O   UNL     1     -20.742  54.276  -2.883  1.00  0.00    -0.504 OA
ATOM     13  H   UNL     1     -20.182  54.555  -3.679  1.00  0.00     0.293 HD
ENDBRANCH   5  12
BRANCH   6  14
ATOM     14  O   UNL     1     -21.011  56.936  -3.763  1.00  0.00    -0.502 OA
ATOM     15  H   UNL     1     -20.230  56.405  -4.128  1.00  0.00     0.293 HD
ENDBRANCH   6  14
TORSDOF 4
ENDMDL
MODEL 9
REMARK VINA RESULT:    -4.575      3.911      5.297
REMARK INTER + INTRA:          -5.296
REMARK INTER:                  -5.245
REMARK INTRA:                  -0.051
REMARK UNBOUND:                -0.052
REMARK SMILES O=C([O-])c1cc(O)c(O)c(O)c1
REMARK SMILES IDX 4 1 5 2 12 3 6 4 10 5 8 6 2 7 1 8 3 9 7 10 11 12 9 14
REMARK H PARENT 7 11 11 13 9 15
REMARK Flexibility Score: inf
ROOT
ATOM      1  C   UNL     1     -21.301  53.957  -1.423  1.00  0.00     0.005 A 
ATOM      2  C   UNL     1     -22.475  54.118  -0.666  1.00  0.00     0.060 A 
ATOM      3  C   UNL     1     -20.993  54.904  -2.412  1.00  0.00     0.060 A 
ATOM      4  C   UNL     1     -23.327  55.207  -0.894  1.00  0.00     0.162 A 
ATOM      5  C   UNL     1     -21.839  55.993  -2.647  1.00  0.00     0.162 A 
ATOM      6  C   UNL     1     -23.011  56.149  -1.887  1.00  0.00     0.200 A 
ENDROOT
BRANCH   1   7
ATOM      7  C   UNL     1     -20.400  52.807  -1.182  1.00  0.00     0.072 C 
ATOM      8  O   UNL     1     -19.656  52.373  -2.101  1.00  0.00    -0.545 OA
ATOM      9  O   UNL     1     -20.361  52.192   0.064  1.00  0.00    -0.545 OA
ENDBRANCH   1   7
BRANCH   4  10
ATOM     10  O   UNL     1     -24.488  55.356  -0.137  1.00  0.00    -0.504 OA
ATOM     11  H   UNL     1     -24.958  54.559   0.279  1.00  0.00     0.293 HD
ENDBRANCH   4  10
BRANCH   5  12
ATOM     12  O   UNL     1     -21.498  56.912  -3.640  1.00  0.00    -0.504 OA
ATOM     13  H   UNL     1     -21.912  56.886  -4.563  1.00  0.00     0.293 HD
ENDBRANCH   5  12
BRANCH   6  14
ATOM     14  O   UNL     1     -23.849  57.239  -2.127  1.00  0.00    -0.502 OA
ATOM     15  H   UNL     1     -24.800  57.276  -1.782  1.00  0.00     0.293 HD
ENDBRANCH   6  14
TORSDOF 4
ENDMDL
