MODEL 1
REMARK VINA RESULT:    -4.711      0.000      0.000
REMARK INTER + INTRA:          -5.171
REMARK INTER:                  -5.124
REMARK INTRA:                  -0.048
REMARK UNBOUND:                -0.048
REMARK SMILES CCc1cccc(O)c1
REMARK SMILES IDX 3 1 9 2 7 3 6 4 5 5 4 6 2 7 1 8 8 9
REMARK H PARENT 8 10
REMARK Flexibility Score: inf
ROOT
ATOM      1  C   UNL     1    -108.263 -15.042  52.680  1.00  0.00    -0.045 A 
ATOM      2  C   UNL     1    -107.266 -14.195  52.167  1.00  0.00     0.049 A 
ATOM      3  C   UNL     1    -106.727 -13.176  52.961  1.00  0.00     0.115 A 
ATOM      4  C   UNL     1    -107.190 -12.994  54.271  1.00  0.00     0.046 A 
ATOM      5  C   UNL     1    -108.190 -13.825  54.783  1.00  0.00     0.004 A 
ATOM      6  C   UNL     1    -108.730 -14.843  53.990  1.00  0.00     0.004 A 
ENDROOT
BRANCH   1   7
ATOM      7  C   UNL     1    -108.866 -16.116  51.815  1.00  0.00     0.032 C 
ATOM      8  C   UNL     1    -107.791 -16.800  50.976  1.00  0.00     0.009 C 
ENDBRANCH   1   7
BRANCH   3   9
ATOM      9  O   UNL     1    -105.735 -12.350  52.437  1.00  0.00    -0.508 OA
ATOM     10  H   UNL     1    -105.965 -11.514  51.911  1.00  0.00     0.293 HD
ENDBRANCH   3   9
TORSDOF 2
ENDMDL
MODEL 2
REMARK VINA RESULT:    -4.207      1.578      2.240
REMARK INTER + INTRA:          -4.624
REMARK INTER:                  -4.550
REMARK INTRA:                  -0.074
REMARK UNBOUND:                -0.048
REMARK SMILES CCc1cccc(O)c1
REMARK SMILES IDX 3 1 9 2 7 3 6 4 5 5 4 6 2 7 1 8 8 9
REMARK H PARENT 8 10
REMARK Flexibility Score: inf
ROOT
ATOM      1  C   UNL     1    -107.780 -15.097  52.230  1.00  0.00    -0.045 A 
ATOM      2  C   UNL     1    -108.501 -14.737  53.381  1.00  0.00     0.049 A 
ATOM      3  C   UNL     1    -108.070 -13.673  54.183  1.00  0.00     0.115 A 
ATOM      4  C   UNL     1    -106.909 -12.969  53.839  1.00  0.00     0.046 A 
ATOM      5  C   UNL     1    -106.180 -13.329  52.702  1.00  0.00     0.004 A 
ATOM      6  C   UNL     1    -106.610 -14.392  51.902  1.00  0.00     0.004 A 
ENDROOT
BRANCH   1   7
ATOM      7  C   UNL     1    -108.226 -16.262  51.388  1.00  0.00     0.032 C 
ATOM      8  C   UNL     1    -107.042 -16.881  50.653  1.00  0.00     0.009 C 
ENDBRANCH   1   7
BRANCH   3   9
ATOM      9  O   UNL     1    -108.801 -13.328  55.317  1.00  0.00    -0.508 OA
ATOM     10  H   UNL     1    -108.570 -13.704  56.230  1.00  0.00     0.293 HD
ENDBRANCH   3   9
TORSDOF 2
ENDMDL
MODEL 3
REMARK VINA RESULT:    -4.140      1.519      2.910
REMARK INTER + INTRA:          -4.551
REMARK INTER:                  -4.495
REMARK INTRA:                  -0.056
REMARK UNBOUND:                -0.048
REMARK SMILES CCc1cccc(O)c1
REMARK SMILES IDX 3 1 9 2 7 3 6 4 5 5 4 6 2 7 1 8 8 9
REMARK H PARENT 8 10
REMARK Flexibility Score: inf
ROOT
ATOM      1  C   UNL     1    -109.384 -14.904  54.301  1.00  0.00    -0.045 A 
ATOM      2  C   UNL     1    -108.512 -13.882  54.712  1.00  0.00     0.049 A 
ATOM      3  C   UNL     1    -107.468 -13.466  53.878  1.00  0.00     0.115 A 
ATOM      4  C   UNL     1    -107.286 -14.078  52.631  1.00  0.00     0.046 A 
ATOM      5  C   UNL     1    -108.142 -15.104  52.222  1.00  0.00     0.004 A 
ATOM      6  C   UNL     1    -109.185 -15.521  53.054  1.00  0.00     0.004 A 
ENDROOT
BRANCH   1   7
ATOM      7  C   UNL     1    -110.487 -15.373  55.212  1.00  0.00     0.032 C 
ATOM      8  C   UNL     1    -110.066 -16.631  55.966  1.00  0.00     0.009 C 
ENDBRANCH   1   7
BRANCH   3   9
ATOM      9  O   UNL     1    -106.617 -12.446  54.300  1.00  0.00    -0.508 OA
ATOM     10  H   UNL     1    -106.182 -12.465  55.216  1.00  0.00     0.293 HD
ENDBRANCH   3   9
TORSDOF 2
ENDMDL
MODEL 4
REMARK VINA RESULT:    -4.109      2.447      3.918
REMARK INTER + INTRA:          -4.517
REMARK INTER:                  -4.441
REMARK INTRA:                  -0.076
REMARK UNBOUND:                -0.048
REMARK SMILES CCc1cccc(O)c1
REMARK SMILES IDX 3 1 9 2 7 3 6 4 5 5 4 6 2 7 1 8 8 9
REMARK H PARENT 8 10
REMARK Flexibility Score: inf
ROOT
ATOM      1  C   UNL     1    -107.788 -14.052  53.742  1.00  0.00    -0.045 A 
ATOM      2  C   UNL     1    -108.600 -14.289  54.864  1.00  0.00     0.049 A 
ATOM      3  C   UNL     1    -109.667 -15.192  54.788  1.00  0.00     0.115 A 
ATOM      4  C   UNL     1    -109.932 -15.856  53.583  1.00  0.00     0.046 A 
ATOM      5  C   UNL     1    -109.137 -15.616  52.459  1.00  0.00     0.004 A 
ATOM      6  C   UNL     1    -108.071 -14.714  52.535  1.00  0.00     0.004 A 
ENDROOT
BRANCH   1   7
ATOM      7  C   UNL     1    -106.662 -13.057  53.816  1.00  0.00     0.032 C 
ATOM      8  C   UNL     1    -105.946 -12.951  52.472  1.00  0.00     0.009 C 
ENDBRANCH   1   7
BRANCH   3   9
ATOM      9  O   UNL     1    -110.457 -15.418  55.913  1.00  0.00    -0.508 OA
ATOM     10  H   UNL     1    -110.045 -15.570  56.827  1.00  0.00     0.293 HD
ENDBRANCH   3   9
TORSDOF 2
ENDMDL
MODEL 5
REMARK VINA RESULT:    -3.980     13.084     14.030
REMARK INTER + INTRA:          -4.376
REMARK INTER:                  -4.326
REMARK INTRA:                  -0.050
REMARK UNBOUND:                -0.048
REMARK SMILES CCc1cccc(O)c1
REMARK SMILES IDX 3 1 9 2 7 3 6 4 5 5 4 6 2 7 1 8 8 9
REMARK H PARENT 8 10
REMARK Flexibility Score: inf
ROOT
ATOM      1  C   UNL     1    -101.964  -3.144  46.386  1.00  0.00    -0.045 A 
ATOM      2  C   UNL     1    -102.797  -3.070  47.514  1.00  0.00     0.049 A 
ATOM      3  C   UNL     1    -102.276  -2.685  48.755  1.00  0.00     0.115 A 
ATOM      4  C   UNL     1    -100.913  -2.380  48.873  1.00  0.00     0.046 A 
ATOM      5  C   UNL     1    -100.076  -2.465  47.757  1.00  0.00     0.004 A 
ATOM      6  C   UNL     1    -100.596  -2.850  46.518  1.00  0.00     0.004 A 
ENDROOT
BRANCH   1   7
ATOM      7  C   UNL     1    -102.520  -3.590  45.060  1.00  0.00     0.032 C 
ATOM      8  C   UNL     1    -103.370  -4.846  45.226  1.00  0.00     0.009 C 
ENDBRANCH   1   7
BRANCH   3   9
ATOM      9  O   UNL     1    -103.119  -2.611  49.862  1.00  0.00    -0.508 OA
ATOM     10  H   UNL     1    -102.754  -2.453  50.795  1.00  0.00     0.293 HD
ENDBRANCH   3   9
TORSDOF 2
ENDMDL
MODEL 6
REMARK VINA RESULT:    -3.846     12.431     14.147
REMARK INTER + INTRA:          -4.231
REMARK INTER:                  -4.180
REMARK INTRA:                  -0.051
REMARK UNBOUND:                -0.048
REMARK SMILES CCc1cccc(O)c1
REMARK SMILES IDX 3 1 9 2 7 3 6 4 5 5 4 6 2 7 1 8 8 9
REMARK H PARENT 8 10
REMARK Flexibility Score: inf
ROOT
ATOM      1  C   UNL     1    -101.238  -2.703  47.616  1.00  0.00    -0.045 A 
ATOM      2  C   UNL     1    -101.927  -2.857  48.831  1.00  0.00     0.049 A 
ATOM      3  C   UNL     1    -103.192  -3.456  48.856  1.00  0.00     0.115 A 
ATOM      4  C   UNL     1    -103.777  -3.897  47.662  1.00  0.00     0.046 A 
ATOM      5  C   UNL     1    -103.103  -3.735  46.449  1.00  0.00     0.004 A 
ATOM      6  C   UNL     1    -101.840  -3.136  46.423  1.00  0.00     0.004 A 
ENDROOT
BRANCH   1   7
ATOM      7  C   UNL     1     -99.893  -2.029  47.586  1.00  0.00     0.032 C 
ATOM      8  C   UNL     1     -99.844  -0.875  48.584  1.00  0.00     0.009 C 
ENDBRANCH   1   7
BRANCH   3   9
ATOM      9  O   UNL     1    -103.856  -3.605  50.072  1.00  0.00    -0.508 OA
ATOM     10  H   UNL     1    -104.645  -4.236  50.169  1.00  0.00     0.293 HD
ENDBRANCH   3   9
TORSDOF 2
ENDMDL
MODEL 7
REMARK VINA RESULT:    -3.818      2.472      3.582
REMARK INTER + INTRA:          -4.201
REMARK INTER:                  -4.125
REMARK INTRA:                  -0.076
REMARK UNBOUND:                -0.048
REMARK SMILES CCc1cccc(O)c1
REMARK SMILES IDX 3 1 9 2 7 3 6 4 5 5 4 6 2 7 1 8 8 9
REMARK H PARENT 8 10
REMARK Flexibility Score: inf
ROOT
ATOM      1  C   UNL     1    -107.861 -14.568  52.758  1.00  0.00    -0.045 A 
ATOM      2  C   UNL     1    -108.616 -15.643  52.259  1.00  0.00     0.049 A 
ATOM      3  C   UNL     1    -109.652 -16.194  53.022  1.00  0.00     0.115 A 
ATOM      4  C   UNL     1    -109.933 -15.676  54.293  1.00  0.00     0.046 A 
ATOM      5  C   UNL     1    -109.178 -14.615  54.800  1.00  0.00     0.004 A 
ATOM      6  C   UNL     1    -108.141 -14.065  54.039  1.00  0.00     0.004 A 
ENDROOT
BRANCH   1   7
ATOM      7  C   UNL     1    -106.725 -13.999  51.951  1.00  0.00     0.032 C 
ATOM      8  C   UNL     1    -105.966 -12.948  52.755  1.00  0.00     0.009 C 
ENDBRANCH   1   7
BRANCH   3   9
ATOM      9  O   UNL     1    -110.394 -17.256  52.507  1.00  0.00    -0.508 OA
ATOM     10  H   UNL     1    -111.301 -17.109  52.079  1.00  0.00     0.293 HD
ENDBRANCH   3   9
TORSDOF 2
ENDMDL
MODEL 8
REMARK VINA RESULT:    -3.722     12.556     14.039
REMARK INTER + INTRA:          -4.096
REMARK INTER:                  -4.026
REMARK INTRA:                  -0.070
REMARK UNBOUND:                -0.048
REMARK SMILES CCc1cccc(O)c1
REMARK SMILES IDX 3 1 9 2 7 3 6 4 5 5 4 6 2 7 1 8 8 9
REMARK H PARENT 8 10
REMARK Flexibility Score: inf
ROOT
ATOM      1  C   UNL     1    -102.567  -3.247  47.799  1.00  0.00    -0.045 A 
ATOM      2  C   UNL     1    -102.044  -3.131  46.500  1.00  0.00     0.049 A 
ATOM      3  C   UNL     1    -100.775  -2.577  46.294  1.00  0.00     0.115 A 
ATOM      4  C   UNL     1    -100.026  -2.127  47.389  1.00  0.00     0.046 A 
ATOM      5  C   UNL     1    -100.545  -2.228  48.683  1.00  0.00     0.004 A 
ATOM      6  C   UNL     1    -101.813  -2.780  48.889  1.00  0.00     0.004 A 
ENDROOT
BRANCH   1   7
ATOM      7  C   UNL     1    -103.944  -3.812  48.016  1.00  0.00     0.032 C 
ATOM      8  C   UNL     1    -103.997  -4.627  49.305  1.00  0.00     0.009 C 
ENDBRANCH   1   7
BRANCH   3   9
ATOM      9  O   UNL     1    -100.272  -2.476  44.999  1.00  0.00    -0.508 OA
ATOM     10  H   UNL     1    -100.707  -1.874  44.308  1.00  0.00     0.293 HD
ENDBRANCH   3   9
TORSDOF 2
ENDMDL
MODEL 9
REMARK VINA RESULT:    -3.650     13.327     14.395
REMARK INTER + INTRA:          -4.017
REMARK INTER:                  -3.943
REMARK INTRA:                  -0.074
REMARK UNBOUND:                -0.048
REMARK SMILES CCc1cccc(O)c1
REMARK SMILES IDX 3 1 9 2 7 3 6 4 5 5 4 6 2 7 1 8 8 9
REMARK H PARENT 8 10
REMARK Flexibility Score: inf
ROOT
ATOM      1  C   UNL     1    -101.812  -3.143  46.507  1.00  0.00    -0.045 A 
ATOM      2  C   UNL     1    -100.567  -2.496  46.435  1.00  0.00     0.049 A 
ATOM      3  C   UNL     1     -99.970  -1.979  47.591  1.00  0.00     0.115 A 
ATOM      4  C   UNL     1    -100.623  -2.101  48.825  1.00  0.00     0.046 A 
ATOM      5  C   UNL     1    -101.867  -2.732  48.902  1.00  0.00     0.004 A 
ATOM      6  C   UNL     1    -102.464  -3.247  47.747  1.00  0.00     0.004 A 
ENDROOT
BRANCH   1   7
ATOM      7  C   UNL     1    -102.467  -3.669  45.259  1.00  0.00     0.032 C 
ATOM      8  C   UNL     1    -103.579  -4.654  45.606  1.00  0.00     0.009 C 
ENDBRANCH   1   7
BRANCH   3   9
ATOM      9  O   UNL     1     -98.732  -1.346  47.501  1.00  0.00    -0.508 OA
ATOM     10  H   UNL     1     -97.865  -1.870  47.556  1.00  0.00     0.293 HD
ENDBRANCH   3   9
TORSDOF 2
ENDMDL
