MODEL 1
REMARK VINA RESULT:    -4.971      0.000      0.000
REMARK INTER + INTRA:          -9.078
REMARK INTER:                  -7.731
REMARK INTRA:                  -1.346
REMARK UNBOUND:                -1.346
REMARK SMILES COc1cc(CNC(=O)CCCCC=CC(C)C)ccc1O
REMARK SMILES IDX 11 1 12 2 13 3 14 4 15 5 16 6 17 7 18 8 10 9 8 10 9 11 7 12
REMARK SMILES IDX 6 14 5 15 4 16 19 17 3 18 20 19 21 20 2 21 1 22 22 23
REMARK H PARENT 7 13 22 24
REMARK Flexibility Score: inf
ROOT
ATOM      1  C   UNL     1      -9.417 -22.008   0.712  1.00  0.00     0.010 C 
ENDROOT
BRANCH   1   2
ATOM      2  C   UNL     1     -10.682 -21.761  -0.124  1.00  0.00     0.005 C 
BRANCH   2   3
ATOM      3  C   UNL     1     -11.215 -20.328   0.029  1.00  0.00     0.027 C 
BRANCH   3   4
ATOM      4  C   UNL     1     -12.716 -20.309   0.121  1.00  0.00    -0.031 C 
ATOM      5  C   UNL     1     -13.363 -19.464   0.938  1.00  0.00    -0.028 C 
BRANCH   5   6
ATOM      6  C   UNL     1     -14.871 -19.461   1.030  1.00  0.00     0.005 C 
ATOM      7  C   UNL     1     -15.454 -18.295   0.225  1.00  0.00     0.012 C 
ATOM      8  C   UNL     1     -15.316 -19.377   2.494  1.00  0.00     0.012 C 
ENDBRANCH   5   6
ENDBRANCH   3   4
ENDBRANCH   2   3
ENDBRANCH   1   2
BRANCH   1   9
ATOM      9  C   UNL     1      -8.162 -21.401   0.071  1.00  0.00     0.100 C 
BRANCH   9  10
ATOM     10  C   UNL     1      -7.561 -20.380   0.988  1.00  0.00     0.220 C 
ATOM     11  O   UNL     1      -6.414 -19.920   0.739  1.00  0.00    -0.275 OA
ATOM     12  N   UNL     1      -8.314 -19.888   2.107  1.00  0.00    -0.352 N 
ATOM     13  H   UNL     1      -9.243 -20.319   2.315  1.00  0.00     0.163 HD
BRANCH  12  14
ATOM     14  C   UNL     1      -7.956 -18.659   2.808  1.00  0.00     0.151 C 
BRANCH  14  15
ATOM     15  C   UNL     1      -9.056 -17.647   2.643  1.00  0.00    -0.025 A 
ATOM     16  C   UNL     1      -8.766 -16.348   2.194  1.00  0.00     0.056 A 
ATOM     17  C   UNL     1     -10.390 -18.018   2.862  1.00  0.00     0.009 A 
ATOM     18  C   UNL     1      -9.801 -15.415   1.984  1.00  0.00     0.160 A 
ATOM     19  C   UNL     1     -11.419 -17.097   2.661  1.00  0.00     0.050 A 
ATOM     20  C   UNL     1     -11.129 -15.797   2.225  1.00  0.00     0.157 A 
BRANCH  18  21
ATOM     21  O   UNL     1      -9.552 -14.109   1.537  1.00  0.00    -0.493 OA
ATOM     22  C   UNL     1      -8.991 -13.074   2.340  1.00  0.00     0.278 C 
ENDBRANCH  18  21
BRANCH  20  23
ATOM     23  O   UNL     1     -12.157 -14.878   2.023  1.00  0.00    -0.504 OA
ATOM     24  H   UNL     1     -13.038 -15.152   1.602  1.00  0.00     0.293 HD
ENDBRANCH  20  23
ENDBRANCH  14  15
ENDBRANCH  12  14
ENDBRANCH   9  10
ENDBRANCH   1   9
TORSDOF 10
ENDMDL
MODEL 2
REMARK VINA RESULT:    -4.759      2.132      5.006
REMARK INTER + INTRA:          -8.748
REMARK INTER:                  -7.863
REMARK INTRA:                  -0.885
REMARK UNBOUND:                -1.346
REMARK SMILES COc1cc(CNC(=O)CCCCC=CC(C)C)ccc1O
REMARK SMILES IDX 11 1 12 2 13 3 14 4 15 5 16 6 17 7 18 8 10 9 8 10 9 11 7 12
REMARK SMILES IDX 6 14 5 15 4 16 19 17 3 18 20 19 21 20 2 21 1 22 22 23
REMARK H PARENT 7 13 22 24
REMARK Flexibility Score: inf
ROOT
ATOM      1  C   UNL     1      -7.843 -20.377   0.465  1.00  0.00     0.010 C 
ENDROOT
BRANCH   1   2
ATOM      2  C   UNL     1      -9.196 -20.802   1.056  1.00  0.00     0.005 C 
BRANCH   2   3
ATOM      3  C   UNL     1      -9.591 -22.230   0.648  1.00  0.00     0.027 C 
BRANCH   3   4
ATOM      4  C   UNL     1      -8.389 -23.132   0.581  1.00  0.00    -0.031 C 
ATOM      5  C   UNL     1      -8.309 -24.258   1.307  1.00  0.00    -0.028 C 
BRANCH   5   6
ATOM      6  C   UNL     1      -7.093 -25.150   1.239  1.00  0.00     0.005 C 
ATOM      7  C   UNL     1      -6.396 -25.211   2.603  1.00  0.00     0.012 C 
ATOM      8  C   UNL     1      -6.122 -24.649   0.164  1.00  0.00     0.012 C 
ENDBRANCH   5   6
ENDBRANCH   3   4
ENDBRANCH   2   3
ENDBRANCH   1   2
BRANCH   1   9
ATOM      9  C   UNL     1      -6.739 -20.290   1.527  1.00  0.00     0.100 C 
BRANCH   9  10
ATOM     10  C   UNL     1      -7.023 -19.161   2.471  1.00  0.00     0.220 C 
ATOM     11  O   UNL     1      -7.002 -19.371   3.714  1.00  0.00    -0.275 OA
ATOM     12  N   UNL     1      -7.256 -17.841   1.960  1.00  0.00    -0.352 N 
ATOM     13  H   UNL     1      -7.311 -17.705   0.926  1.00  0.00     0.163 HD
BRANCH  12  14
ATOM     14  C   UNL     1      -7.171 -16.652   2.804  1.00  0.00     0.151 C 
BRANCH  14  15
ATOM     15  C   UNL     1      -8.461 -15.884   2.723  1.00  0.00    -0.025 A 
ATOM     16  C   UNL     1      -9.689 -16.561   2.654  1.00  0.00     0.056 A 
ATOM     17  C   UNL     1      -8.449 -14.484   2.795  1.00  0.00     0.009 A 
ATOM     18  C   UNL     1     -10.902 -15.844   2.635  1.00  0.00     0.160 A 
ATOM     19  C   UNL     1      -9.647 -13.768   2.772  1.00  0.00     0.050 A 
ATOM     20  C   UNL     1     -10.872 -14.443   2.690  1.00  0.00     0.157 A 
BRANCH  18  21
ATOM     21  O   UNL     1     -12.149 -16.484   2.567  1.00  0.00    -0.493 OA
ATOM     22  C   UNL     1     -12.740 -16.971   1.365  1.00  0.00     0.278 C 
ENDBRANCH  18  21
BRANCH  20  23
ATOM     23  O   UNL     1     -12.068 -13.727   2.669  1.00  0.00    -0.504 OA
ATOM     24  H   UNL     1     -12.718 -13.756   3.446  1.00  0.00     0.293 HD
ENDBRANCH  20  23
ENDBRANCH  14  15
ENDBRANCH  12  14
ENDBRANCH   9  10
ENDBRANCH   1   9
TORSDOF 10
ENDMDL
MODEL 3
REMARK VINA RESULT:    -4.713      2.261      4.953
REMARK INTER + INTRA:          -8.676
REMARK INTER:                  -7.663
REMARK INTRA:                  -1.014
REMARK UNBOUND:                -1.346
REMARK SMILES COc1cc(CNC(=O)CCCCC=CC(C)C)ccc1O
REMARK SMILES IDX 11 1 12 2 13 3 14 4 15 5 16 6 17 7 18 8 10 9 8 10 9 11 7 12
REMARK SMILES IDX 6 14 5 15 4 16 19 17 3 18 20 19 21 20 2 21 1 22 22 23
REMARK H PARENT 7 13 22 24
REMARK Flexibility Score: inf
ROOT
ATOM      1  C   UNL     1      -9.389 -21.376   0.972  1.00  0.00     0.010 C 
ENDROOT
BRANCH   1   2
ATOM      2  C   UNL     1      -9.719 -22.814   0.543  1.00  0.00     0.005 C 
BRANCH   2   3
ATOM      3  C   UNL     1      -9.373 -23.843   1.631  1.00  0.00     0.027 C 
BRANCH   3   4
ATOM      4  C   UNL     1      -8.103 -24.579   1.304  1.00  0.00    -0.031 C 
ATOM      5  C   UNL     1      -7.009 -24.478   2.074  1.00  0.00    -0.028 C 
BRANCH   5   6
ATOM      6  C   UNL     1      -5.736 -25.214   1.729  1.00  0.00     0.005 C 
ATOM      7  C   UNL     1      -5.378 -25.003   0.254  1.00  0.00     0.012 C 
ATOM      8  C   UNL     1      -5.884 -26.708   2.036  1.00  0.00     0.012 C 
ENDBRANCH   5   6
ENDBRANCH   3   4
ENDBRANCH   2   3
ENDBRANCH   1   2
BRANCH   1   9
ATOM      9  C   UNL     1      -7.969 -20.955   0.572  1.00  0.00     0.100 C 
BRANCH   9  10
ATOM     10  C   UNL     1      -7.517 -19.806   1.422  1.00  0.00     0.220 C 
ATOM     11  O   UNL     1      -6.632 -19.021   0.985  1.00  0.00    -0.275 OA
ATOM     12  N   UNL     1      -8.132 -19.570   2.696  1.00  0.00    -0.352 N 
ATOM     13  H   UNL     1      -8.830 -20.261   3.053  1.00  0.00     0.163 HD
BRANCH  12  14
ATOM     14  C   UNL     1      -8.013 -18.294   3.396  1.00  0.00     0.151 C 
BRANCH  14  15
ATOM     15  C   UNL     1      -9.167 -17.405   3.022  1.00  0.00    -0.025 A 
ATOM     16  C   UNL     1      -8.948 -16.058   2.693  1.00  0.00     0.056 A 
ATOM     17  C   UNL     1     -10.460 -17.937   2.924  1.00  0.00     0.009 A 
ATOM     18  C   UNL     1     -10.019 -15.237   2.287  1.00  0.00     0.160 A 
ATOM     19  C   UNL     1     -11.526 -17.128   2.527  1.00  0.00     0.050 A 
ATOM     20  C   UNL     1     -11.310 -15.780   2.211  1.00  0.00     0.157 A 
BRANCH  18  21
ATOM     21  O   UNL     1      -9.842 -13.886   1.951  1.00  0.00    -0.493 OA
ATOM     22  C   UNL     1      -8.628 -13.163   2.132  1.00  0.00     0.278 C 
ENDBRANCH  18  21
BRANCH  20  23
ATOM     23  O   UNL     1     -12.375 -14.973   1.814  1.00  0.00    -0.504 OA
ATOM     24  H   UNL     1     -12.943 -15.203   1.007  1.00  0.00     0.293 HD
ENDBRANCH  20  23
ENDBRANCH  14  15
ENDBRANCH  12  14
ENDBRANCH   9  10
ENDBRANCH   1   9
TORSDOF 10
ENDMDL
MODEL 4
REMARK VINA RESULT:    -4.692     17.913     19.911
REMARK INTER + INTRA:          -8.644
REMARK INTER:                  -7.523
REMARK INTRA:                  -1.121
REMARK UNBOUND:                -1.346
REMARK SMILES COc1cc(CNC(=O)CCCCC=CC(C)C)ccc1O
REMARK SMILES IDX 11 1 12 2 13 3 14 4 15 5 16 6 17 7 18 8 10 9 8 10 9 11 7 12
REMARK SMILES IDX 6 14 5 15 4 16 19 17 3 18 20 19 21 20 2 21 1 22 22 23
REMARK H PARENT 7 13 22 24
REMARK Flexibility Score: inf
ROOT
ATOM      1  C   UNL     1     -10.488 -27.798  17.544  1.00  0.00     0.010 C 
ENDROOT
BRANCH   1   2
ATOM      2  C   UNL     1     -11.349 -27.505  18.782  1.00  0.00     0.005 C 
BRANCH   2   3
ATOM      3  C   UNL     1     -10.878 -28.284  20.020  1.00  0.00     0.027 C 
BRANCH   3   4
ATOM      4  C   UNL     1      -9.618 -29.054  19.736  1.00  0.00    -0.031 C 
ATOM      5  C   UNL     1      -9.466 -30.329  20.124  1.00  0.00    -0.028 C 
BRANCH   5   6
ATOM      6  C   UNL     1      -8.192 -31.089  19.842  1.00  0.00     0.005 C 
ATOM      7  C   UNL     1      -7.621 -30.690  18.477  1.00  0.00     0.012 C 
ATOM      8  C   UNL     1      -8.448 -32.599  19.895  1.00  0.00     0.012 C 
ENDBRANCH   5   6
ENDBRANCH   3   4
ENDBRANCH   2   3
ENDBRANCH   1   2
BRANCH   1   9
ATOM      9  C   UNL     1      -9.786 -26.544  17.006  1.00  0.00     0.100 C 
BRANCH   9  10
ATOM     10  C   UNL     1      -8.301 -26.692  17.134  1.00  0.00     0.220 C 
ATOM     11  O   UNL     1      -7.727 -26.313  18.190  1.00  0.00    -0.275 OA
ATOM     12  N   UNL     1      -7.549 -27.317  16.083  1.00  0.00    -0.352 N 
ATOM     13  H   UNL     1      -8.044 -27.581  15.201  1.00  0.00     0.163 HD
BRANCH  12  14
ATOM     14  C   UNL     1      -6.195 -27.822  16.286  1.00  0.00     0.151 C 
BRANCH  14  15
ATOM     15  C   UNL     1      -5.820 -28.732  15.149  1.00  0.00    -0.025 A 
ATOM     16  C   UNL     1      -5.905 -30.126  15.297  1.00  0.00     0.056 A 
ATOM     17  C   UNL     1      -5.459 -28.191  13.908  1.00  0.00     0.009 A 
ATOM     18  C   UNL     1      -5.608 -30.979  14.215  1.00  0.00     0.160 A 
ATOM     19  C   UNL     1      -5.160 -29.032  12.833  1.00  0.00     0.050 A 
ATOM     20  C   UNL     1      -5.231 -30.423  12.985  1.00  0.00     0.157 A 
BRANCH  18  21
ATOM     21  O   UNL     1      -5.680 -32.377  14.323  1.00  0.00    -0.493 OA
ATOM     22  C   UNL     1      -5.208 -33.125  15.440  1.00  0.00     0.278 C 
ENDBRANCH  18  21
BRANCH  20  23
ATOM     23  O   UNL     1      -4.934 -31.262  11.911  1.00  0.00    -0.504 OA
ATOM     24  H   UNL     1      -5.138 -30.993  10.956  1.00  0.00     0.293 HD
ENDBRANCH  20  23
ENDBRANCH  14  15
ENDBRANCH  12  14
ENDBRANCH   9  10
ENDBRANCH   1   9
TORSDOF 10
ENDMDL
MODEL 5
REMARK VINA RESULT:    -4.658      2.576      5.544
REMARK INTER + INTRA:          -8.591
REMARK INTER:                  -7.817
REMARK INTRA:                  -0.774
REMARK UNBOUND:                -1.346
REMARK SMILES COc1cc(CNC(=O)CCCCC=CC(C)C)ccc1O
REMARK SMILES IDX 11 1 12 2 13 3 14 4 15 5 16 6 17 7 18 8 10 9 8 10 9 11 7 12
REMARK SMILES IDX 6 14 5 15 4 16 19 17 3 18 20 19 21 20 2 21 1 22 22 23
REMARK H PARENT 7 13 22 24
REMARK Flexibility Score: inf
ROOT
ATOM      1  C   UNL     1      -9.843 -22.077   0.876  1.00  0.00     0.010 C 
ENDROOT
BRANCH   1   2
ATOM      2  C   UNL     1      -8.983 -23.346   0.982  1.00  0.00     0.005 C 
BRANCH   2   3
ATOM      3  C   UNL     1      -7.679 -23.237   0.178  1.00  0.00     0.027 C 
BRANCH   3   4
ATOM      4  C   UNL     1      -6.533 -23.888   0.902  1.00  0.00    -0.031 C 
ATOM      5  C   UNL     1      -6.733 -24.744   1.916  1.00  0.00    -0.028 C 
BRANCH   5   6
ATOM      6  C   UNL     1      -5.574 -25.383   2.644  1.00  0.00     0.005 C 
ATOM      7  C   UNL     1      -6.008 -26.704   3.288  1.00  0.00     0.012 C 
ATOM      8  C   UNL     1      -5.016 -24.427   3.704  1.00  0.00     0.012 C 
ENDBRANCH   5   6
ENDBRANCH   3   4
ENDBRANCH   2   3
ENDBRANCH   1   2
BRANCH   1   9
ATOM      9  C   UNL     1      -9.175 -20.982   0.034  1.00  0.00     0.100 C 
BRANCH   9  10
ATOM     10  C   UNL     1      -8.462 -20.013   0.926  1.00  0.00     0.220 C 
ATOM     11  O   UNL     1      -7.532 -19.303   0.455  1.00  0.00    -0.275 OA
ATOM     12  N   UNL     1      -8.877 -19.854   2.291  1.00  0.00    -0.352 N 
ATOM     13  H   UNL     1      -9.620 -20.486   2.667  1.00  0.00     0.163 HD
BRANCH  12  14
ATOM     14  C   UNL     1      -8.490 -18.698   3.094  1.00  0.00     0.151 C 
BRANCH  14  15
ATOM     15  C   UNL     1      -9.426 -17.555   2.816  1.00  0.00    -0.025 A 
ATOM     16  C   UNL     1     -10.796 -17.791   2.614  1.00  0.00     0.056 A 
ATOM     17  C   UNL     1      -8.949 -16.237   2.835  1.00  0.00     0.009 A 
ATOM     18  C   UNL     1     -11.684 -16.716   2.409  1.00  0.00     0.160 A 
ATOM     19  C   UNL     1      -9.824 -15.168   2.628  1.00  0.00     0.050 A 
ATOM     20  C   UNL     1     -11.188 -15.404   2.413  1.00  0.00     0.157 A 
BRANCH  18  21
ATOM     21  O   UNL     1     -13.059 -16.910   2.203  1.00  0.00    -0.493 OA
ATOM     22  C   UNL     1     -13.678 -18.183   2.042  1.00  0.00     0.278 C 
ENDBRANCH  18  21
BRANCH  20  23
ATOM     23  O   UNL     1     -12.061 -14.337   2.208  1.00  0.00    -0.504 OA
ATOM     24  H   UNL     1     -13.028 -14.377   2.510  1.00  0.00     0.293 HD
ENDBRANCH  20  23
ENDBRANCH  14  15
ENDBRANCH  12  14
ENDBRANCH   9  10
ENDBRANCH   1   9
TORSDOF 10
ENDMDL
MODEL 6
REMARK VINA RESULT:    -4.598      2.422      5.675
REMARK INTER + INTRA:          -8.498
REMARK INTER:                  -7.523
REMARK INTRA:                  -0.974
REMARK UNBOUND:                -1.346
REMARK SMILES COc1cc(CNC(=O)CCCCC=CC(C)C)ccc1O
REMARK SMILES IDX 11 1 12 2 13 3 14 4 15 5 16 6 17 7 18 8 10 9 8 10 9 11 7 12
REMARK SMILES IDX 6 14 5 15 4 16 19 17 3 18 20 19 21 20 2 21 1 22 22 23
REMARK H PARENT 7 13 22 24
REMARK Flexibility Score: inf
ROOT
ATOM      1  C   UNL     1     -11.447 -20.048  -0.032  1.00  0.00     0.010 C 
ENDROOT
BRANCH   1   2
ATOM      2  C   UNL     1     -10.432 -20.812   0.831  1.00  0.00     0.005 C 
BRANCH   2   3
ATOM      3  C   UNL     1     -10.100 -22.198   0.256  1.00  0.00     0.027 C 
BRANCH   3   4
ATOM      4  C   UNL     1      -8.664 -22.565   0.507  1.00  0.00    -0.031 C 
ATOM      5  C   UNL     1      -8.318 -23.753   1.028  1.00  0.00    -0.028 C 
BRANCH   5   6
ATOM      6  C   UNL     1      -6.873 -24.106   1.286  1.00  0.00     0.005 C 
ATOM      7  C   UNL     1      -6.219 -24.650   0.011  1.00  0.00     0.012 C 
ATOM      8  C   UNL     1      -6.767 -25.130   2.421  1.00  0.00     0.012 C 
ENDBRANCH   5   6
ENDBRANCH   3   4
ENDBRANCH   2   3
ENDBRANCH   1   2
BRANCH   1   9
ATOM      9  C   UNL     1     -12.854 -20.042   0.580  1.00  0.00     0.100 C 
BRANCH   9  10
ATOM     10  C   UNL     1     -13.032 -18.832   1.445  1.00  0.00     0.220 C 
ATOM     11  O   UNL     1     -13.786 -18.895   2.454  1.00  0.00    -0.275 OA
ATOM     12  N   UNL     1     -12.300 -17.632   1.159  1.00  0.00    -0.352 N 
ATOM     13  H   UNL     1     -11.717 -17.593   0.293  1.00  0.00     0.163 HD
BRANCH  12  14
ATOM     14  C   UNL     1     -12.138 -16.564   2.142  1.00  0.00     0.151 C 
BRANCH  14  15
ATOM     15  C   UNL     1     -10.689 -16.451   2.529  1.00  0.00    -0.025 A 
ATOM     16  C   UNL     1      -9.935 -17.603   2.804  1.00  0.00     0.056 A 
ATOM     17  C   UNL     1     -10.062 -15.198   2.540  1.00  0.00     0.009 A 
ATOM     18  C   UNL     1      -8.563 -17.504   3.111  1.00  0.00     0.160 A 
ATOM     19  C   UNL     1      -8.704 -15.093   2.848  1.00  0.00     0.050 A 
ATOM     20  C   UNL     1      -7.954 -16.241   3.136  1.00  0.00     0.157 A 
BRANCH  18  21
ATOM     21  O   UNL     1      -7.776 -18.631   3.393  1.00  0.00    -0.493 OA
ATOM     22  C   UNL     1      -7.190 -19.473   2.405  1.00  0.00     0.278 C 
ENDBRANCH  18  21
BRANCH  20  23
ATOM     23  O   UNL     1      -6.598 -16.135   3.442  1.00  0.00    -0.504 OA
ATOM     24  H   UNL     1      -6.266 -15.518   4.174  1.00  0.00     0.293 HD
ENDBRANCH  20  23
ENDBRANCH  14  15
ENDBRANCH  12  14
ENDBRANCH   9  10
ENDBRANCH   1   9
TORSDOF 10
ENDMDL
MODEL 7
REMARK VINA RESULT:    -4.593     14.267     17.970
REMARK INTER + INTRA:          -8.490
REMARK INTER:                  -7.936
REMARK INTRA:                  -0.553
REMARK UNBOUND:                -1.346
REMARK SMILES COc1cc(CNC(=O)CCCCC=CC(C)C)ccc1O
REMARK SMILES IDX 11 1 12 2 13 3 14 4 15 5 16 6 17 7 18 8 10 9 8 10 9 11 7 12
REMARK SMILES IDX 6 14 5 15 4 16 19 17 3 18 20 19 21 20 2 21 1 22 22 23
REMARK H PARENT 7 13 22 24
REMARK Flexibility Score: inf
ROOT
ATOM      1  C   UNL     1     -24.998 -25.655  11.847  1.00  0.00     0.010 C 
ENDROOT
BRANCH   1   2
ATOM      2  C   UNL     1     -24.900 -25.821  13.371  1.00  0.00     0.005 C 
BRANCH   2   3
ATOM      3  C   UNL     1     -24.812 -27.296  13.795  1.00  0.00     0.027 C 
BRANCH   3   4
ATOM      4  C   UNL     1     -23.916 -27.470  14.990  1.00  0.00    -0.031 C 
ATOM      5  C   UNL     1     -24.190 -26.889  16.169  1.00  0.00    -0.028 C 
BRANCH   5   6
ATOM      6  C   UNL     1     -23.278 -27.063  17.360  1.00  0.00     0.005 C 
ATOM      7  C   UNL     1     -23.175 -25.755  18.151  1.00  0.00     0.012 C 
ATOM      8  C   UNL     1     -21.889 -27.524  16.905  1.00  0.00     0.012 C 
ENDBRANCH   5   6
ENDBRANCH   3   4
ENDBRANCH   2   3
ENDBRANCH   1   2
BRANCH   1   9
ATOM      9  C   UNL     1     -23.945 -24.687  11.292  1.00  0.00     0.100 C 
BRANCH   9  10
ATOM     10  C   UNL     1     -24.593 -23.395  10.897  1.00  0.00     0.220 C 
ATOM     11  O   UNL     1     -24.990 -22.600  11.791  1.00  0.00    -0.275 OA
ATOM     12  N   UNL     1     -24.703 -23.043   9.510  1.00  0.00    -0.352 N 
ATOM     13  H   UNL     1     -24.406 -23.740   8.790  1.00  0.00     0.163 HD
BRANCH  12  14
ATOM     14  C   UNL     1     -24.974 -21.678   9.071  1.00  0.00     0.151 C 
BRANCH  14  15
ATOM     15  C   UNL     1     -24.325 -21.439   7.736  1.00  0.00    -0.025 A 
ATOM     16  C   UNL     1     -24.502 -20.217   7.068  1.00  0.00     0.056 A 
ATOM     17  C   UNL     1     -23.473 -22.407   7.187  1.00  0.00     0.009 A 
ATOM     18  C   UNL     1     -23.849 -19.969   5.844  1.00  0.00     0.160 A 
ATOM     19  C   UNL     1     -22.826 -22.169   5.973  1.00  0.00     0.050 A 
ATOM     20  C   UNL     1     -23.014 -20.955   5.299  1.00  0.00     0.157 A 
BRANCH  18  21
ATOM     21  O   UNL     1     -24.002 -18.762   5.145  1.00  0.00    -0.493 OA
ATOM     22  C   UNL     1     -24.966 -18.539   4.120  1.00  0.00     0.278 C 
ENDBRANCH  18  21
BRANCH  20  23
ATOM     23  O   UNL     1     -22.368 -20.718   4.087  1.00  0.00    -0.504 OA
ATOM     24  H   UNL     1     -21.760 -19.917   3.958  1.00  0.00     0.293 HD
ENDBRANCH  20  23
ENDBRANCH  14  15
ENDBRANCH  12  14
ENDBRANCH   9  10
ENDBRANCH   1   9
TORSDOF 10
ENDMDL
MODEL 8
REMARK VINA RESULT:    -4.412      3.002      5.924
REMARK INTER + INTRA:          -8.208
REMARK INTER:                  -7.492
REMARK INTRA:                  -0.716
REMARK UNBOUND:                -1.346
REMARK SMILES COc1cc(CNC(=O)CCCCC=CC(C)C)ccc1O
REMARK SMILES IDX 11 1 12 2 13 3 14 4 15 5 16 6 17 7 18 8 10 9 8 10 9 11 7 12
REMARK SMILES IDX 6 14 5 15 4 16 19 17 3 18 20 19 21 20 2 21 1 22 22 23
REMARK H PARENT 7 13 22 24
REMARK Flexibility Score: inf
ROOT
ATOM      1  C   UNL     1     -10.032 -21.102   0.509  1.00  0.00     0.010 C 
ENDROOT
BRANCH   1   2
ATOM      2  C   UNL     1      -8.953 -22.106   0.075  1.00  0.00     0.005 C 
BRANCH   2   3
ATOM      3  C   UNL     1      -8.952 -23.375   0.941  1.00  0.00     0.027 C 
BRANCH   3   4
ATOM      4  C   UNL     1      -7.613 -24.059   0.908  1.00  0.00    -0.031 C 
ATOM      5  C   UNL     1      -7.386 -25.203   1.572  1.00  0.00    -0.028 C 
BRANCH   5   6
ATOM      6  C   UNL     1      -6.034 -25.875   1.540  1.00  0.00     0.005 C 
ATOM      7  C   UNL     1      -5.821 -26.711   2.806  1.00  0.00     0.012 C 
ATOM      8  C   UNL     1      -4.923 -24.830   1.393  1.00  0.00     0.012 C 
ENDBRANCH   5   6
ENDBRANCH   3   4
ENDBRANCH   2   3
ENDBRANCH   1   2
BRANCH   1   9
ATOM      9  C   UNL     1     -11.407 -21.419  -0.094  1.00  0.00     0.100 C 
BRANCH   9  10
ATOM     10  C   UNL     1     -12.318 -20.240   0.058  1.00  0.00     0.220 C 
ATOM     11  O   UNL     1     -13.544 -20.427   0.286  1.00  0.00    -0.275 OA
ATOM     12  N   UNL     1     -11.784 -18.909   0.006  1.00  0.00    -0.352 N 
ATOM     13  H   UNL     1     -10.774 -18.782  -0.228  1.00  0.00     0.163 HD
BRANCH  12  14
ATOM     14  C   UNL     1     -12.522 -17.752   0.504  1.00  0.00     0.151 C 
BRANCH  14  15
ATOM     15  C   UNL     1     -11.623 -16.915   1.370  1.00  0.00    -0.025 A 
ATOM     16  C   UNL     1     -10.329 -17.358   1.688  1.00  0.00     0.056 A 
ATOM     17  C   UNL     1     -12.043 -15.649   1.801  1.00  0.00     0.009 A 
ATOM     18  C   UNL     1      -9.463 -16.550   2.452  1.00  0.00     0.160 A 
ATOM     19  C   UNL     1     -11.192 -14.845   2.562  1.00  0.00     0.050 A 
ATOM     20  C   UNL     1      -9.905 -15.293   2.891  1.00  0.00     0.157 A 
BRANCH  18  21
ATOM     21  O   UNL     1      -8.164 -16.957   2.792  1.00  0.00    -0.493 OA
ATOM     22  C   UNL     1      -7.776 -18.309   3.017  1.00  0.00     0.278 C 
ENDBRANCH  18  21
BRANCH  20  23
ATOM     23  O   UNL     1      -9.055 -14.490   3.650  1.00  0.00    -0.504 OA
ATOM     24  H   UNL     1      -8.944 -14.630   4.647  1.00  0.00     0.293 HD
ENDBRANCH  20  23
ENDBRANCH  14  15
ENDBRANCH  12  14
ENDBRANCH   9  10
ENDBRANCH   1   9
TORSDOF 10
ENDMDL
