MODEL 1
REMARK VINA RESULT:    -2.474      0.000      0.000
REMARK INTER + INTRA:          -3.312
REMARK INTER:                  -2.908
REMARK INTRA:                  -0.405
REMARK UNBOUND:                -0.405
REMARK SMILES [NH3+][C@@H](CO)C(=O)[O-]
REMARK SMILES IDX 3 1 2 2 1 3 5 7 6 8 7 9 4 10
REMARK H PARENT 1 4 1 5 1 6 4 11
REMARK Flexibility Score: inf
ROOT
ATOM      1  C   UNL     1       2.154 -32.004  -0.572  1.00  0.00     0.227 C 
ENDROOT
BRANCH   1   2
ATOM      2  C   UNL     1       1.730 -33.442  -0.922  1.00  0.00     0.253 C 
BRANCH   2   3
ATOM      3  N   UNL     1       0.329 -33.488  -1.362  1.00  0.00    -0.348 N 
ATOM      4  H   UNL     1       0.266 -33.767  -2.368  1.00  0.00     0.345 HD
ATOM      5  H   UNL     1      -0.112 -32.547  -1.239  1.00  0.00     0.345 HD
ATOM      6  H   UNL     1      -0.204 -34.175  -0.782  1.00  0.00     0.345 HD
ENDBRANCH   2   3
BRANCH   2   7
ATOM      7  C   UNL     1       1.929 -34.340   0.271  1.00  0.00     0.102 C 
ATOM      8  O   UNL     1       3.027 -34.935   0.438  1.00  0.00    -0.544 OA
ATOM      9  O   UNL     1       0.911 -34.506   1.202  1.00  0.00    -0.544 OA
ENDBRANCH   2   7
ENDBRANCH   1   2
BRANCH   1  10
ATOM     10  O   UNL     1       2.657 -31.938   0.735  1.00  0.00    -0.390 OA
ATOM     11  H   UNL     1       2.110 -31.265   1.217  1.00  0.00     0.210 HD
ENDBRANCH   1  10
TORSDOF 4
ENDMDL
MODEL 2
REMARK VINA RESULT:    -2.441      8.644      9.436
REMARK INTER + INTRA:          -3.273
REMARK INTER:                  -2.874
REMARK INTRA:                  -0.399
REMARK UNBOUND:                -0.405
REMARK SMILES [NH3+][C@@H](CO)C(=O)[O-]
REMARK SMILES IDX 3 1 2 2 1 3 5 7 6 8 7 9 4 10
REMARK H PARENT 1 4 1 5 1 6 4 11
REMARK Flexibility Score: inf
ROOT
ATOM      1  C   UNL     1       3.922 -41.132  -5.996  1.00  0.00     0.227 C 
ENDROOT
BRANCH   1   2
ATOM      2  C   UNL     1       3.289 -39.730  -6.032  1.00  0.00     0.253 C 
BRANCH   2   3
ATOM      3  N   UNL     1       3.586 -38.984  -4.802  1.00  0.00    -0.348 N 
ATOM      4  H   UNL     1       4.619 -38.911  -4.653  1.00  0.00     0.345 HD
ATOM      5  H   UNL     1       3.154 -39.467  -3.981  1.00  0.00     0.345 HD
ATOM      6  H   UNL     1       3.181 -38.022  -4.862  1.00  0.00     0.345 HD
ENDBRANCH   2   3
BRANCH   2   7
ATOM      7  C   UNL     1       1.800 -39.844  -6.224  1.00  0.00     0.102 C 
ATOM      8  O   UNL     1       1.030 -39.811  -5.228  1.00  0.00    -0.544 OA
ATOM      9  O   UNL     1       1.265 -39.972  -7.500  1.00  0.00    -0.544 OA
ENDBRANCH   2   7
ENDBRANCH   1   2
BRANCH   1  10
ATOM     10  O   UNL     1       2.932 -42.124  -5.950  1.00  0.00    -0.390 OA
ATOM     11  H   UNL     1       3.361 -42.937  -5.577  1.00  0.00     0.210 HD
ENDBRANCH   1  10
TORSDOF 4
ENDMDL
MODEL 3
REMARK VINA RESULT:    -2.379      1.701      2.318
REMARK INTER + INTRA:          -3.200
REMARK INTER:                  -2.840
REMARK INTRA:                  -0.360
REMARK UNBOUND:                -0.405
REMARK SMILES [NH3+][C@@H](CO)C(=O)[O-]
REMARK SMILES IDX 3 1 2 2 1 3 5 7 6 8 7 9 4 10
REMARK H PARENT 1 4 1 5 1 6 4 11
REMARK Flexibility Score: inf
ROOT
ATOM      1  C   UNL     1       0.975 -33.341  -1.976  1.00  0.00     0.227 C 
ENDROOT
BRANCH   1   2
ATOM      2  C   UNL     1       2.183 -33.654  -1.074  1.00  0.00     0.253 C 
BRANCH   2   3
ATOM      3  N   UNL     1       2.701 -35.004  -1.334  1.00  0.00    -0.348 N 
ATOM      4  H   UNL     1       2.431 -35.659  -0.564  1.00  0.00     0.345 HD
ATOM      5  H   UNL     1       3.744 -34.975  -1.410  1.00  0.00     0.345 HD
ATOM      6  H   UNL     1       2.319 -35.364  -2.239  1.00  0.00     0.345 HD
ENDBRANCH   2   3
BRANCH   2   7
ATOM      7  C   UNL     1       1.791 -33.517   0.373  1.00  0.00     0.102 C 
ATOM      8  O   UNL     1       1.797 -32.385   0.925  1.00  0.00    -0.544 OA
ATOM      9  O   UNL     1       1.405 -34.634   1.104  1.00  0.00    -0.544 OA
ENDBRANCH   2   7
ENDBRANCH   1   2
BRANCH   1  10
ATOM     10  O   UNL     1      -0.228 -33.554  -1.288  1.00  0.00    -0.390 OA
ATOM     11  H   UNL     1      -0.936 -33.648  -1.977  1.00  0.00     0.210 HD
ENDBRANCH   1  10
TORSDOF 4
ENDMDL
MODEL 4
REMARK VINA RESULT:    -2.374      1.496      2.088
REMARK INTER + INTRA:          -3.195
REMARK INTER:                  -2.978
REMARK INTRA:                  -0.217
REMARK UNBOUND:                -0.405
REMARK SMILES [NH3+][C@@H](CO)C(=O)[O-]
REMARK SMILES IDX 3 1 2 2 1 3 5 7 6 8 7 9 4 10
REMARK H PARENT 1 4 1 5 1 6 4 11
REMARK Flexibility Score: inf
ROOT
ATOM      1  C   UNL     1       4.080 -33.682  -0.742  1.00  0.00     0.227 C 
ENDROOT
BRANCH   1   2
ATOM      2  C   UNL     1       2.687 -34.328  -0.647  1.00  0.00     0.253 C 
BRANCH   2   3
ATOM      3  N   UNL     1       1.934 -34.146  -1.895  1.00  0.00    -0.348 N 
ATOM      4  H   UNL     1       1.010 -33.692  -1.709  1.00  0.00     0.345 HD
ATOM      5  H   UNL     1       1.774 -35.074  -2.352  1.00  0.00     0.345 HD
ATOM      6  H   UNL     1       2.481 -33.549  -2.557  1.00  0.00     0.345 HD
ENDBRANCH   2   3
BRANCH   2   7
ATOM      7  C   UNL     1       1.925 -33.739   0.510  1.00  0.00     0.102 C 
ATOM      8  O   UNL     1       1.178 -34.470   1.213  1.00  0.00    -0.544 OA
ATOM      9  O   UNL     1       2.053 -32.391   0.820  1.00  0.00    -0.544 OA
ENDBRANCH   2   7
ENDBRANCH   1   2
BRANCH   1  10
ATOM     10  O   UNL     1       4.791 -33.854   0.455  1.00  0.00    -0.390 OA
ATOM     11  H   UNL     1       4.322 -33.316   1.144  1.00  0.00     0.210 HD
ENDBRANCH   1  10
TORSDOF 4
ENDMDL
MODEL 5
REMARK VINA RESULT:    -2.337     10.878     11.537
REMARK INTER + INTRA:          -3.152
REMARK INTER:                  -2.754
REMARK INTRA:                  -0.398
REMARK UNBOUND:                -0.405
REMARK SMILES [NH3+][C@@H](CO)C(=O)[O-]
REMARK SMILES IDX 3 1 2 2 1 3 5 7 6 8 7 9 4 10
REMARK H PARENT 1 4 1 5 1 6 4 11
REMARK Flexibility Score: inf
ROOT
ATOM      1  C   UNL     1      -7.802 -40.190  -3.148  1.00  0.00     0.227 C 
ENDROOT
BRANCH   1   2
ATOM      2  C   UNL     1      -6.311 -40.008  -2.811  1.00  0.00     0.253 C 
BRANCH   2   3
ATOM      3  N   UNL     1      -5.577 -39.445  -3.951  1.00  0.00    -0.348 N 
ATOM      4  H   UNL     1      -4.668 -39.031  -3.639  1.00  0.00     0.345 HD
ATOM      5  H   UNL     1      -6.152 -38.701  -4.412  1.00  0.00     0.345 HD
ATOM      6  H   UNL     1      -5.388 -40.192  -4.658  1.00  0.00     0.345 HD
ENDBRANCH   2   3
BRANCH   2   7
ATOM      7  C   UNL     1      -5.712 -41.329  -2.408  1.00  0.00     0.102 C 
ATOM      8  O   UNL     1      -5.261 -42.113  -3.285  1.00  0.00    -0.544 OA
ATOM      9  O   UNL     1      -5.639 -41.686  -1.067  1.00  0.00    -0.544 OA
ENDBRANCH   2   7
ENDBRANCH   1   2
BRANCH   1  10
ATOM     10  O   UNL     1      -8.231 -41.486  -2.826  1.00  0.00    -0.390 OA
ATOM     11  H   UNL     1      -9.087 -41.629  -3.305  1.00  0.00     0.210 HD
ENDBRANCH   1  10
TORSDOF 4
ENDMDL
MODEL 6
REMARK VINA RESULT:    -2.270      1.708      1.893
REMARK INTER + INTRA:          -3.073
REMARK INTER:                  -2.667
REMARK INTRA:                  -0.406
REMARK UNBOUND:                -0.405
REMARK SMILES [NH3+][C@@H](CO)C(=O)[O-]
REMARK SMILES IDX 3 1 2 2 1 3 5 7 6 8 7 9 4 10
REMARK H PARENT 1 4 1 5 1 6 4 11
REMARK Flexibility Score: inf
ROOT
ATOM      1  C   UNL     1       1.584 -31.567  -1.058  1.00  0.00     0.227 C 
ENDROOT
BRANCH   1   2
ATOM      2  C   UNL     1       1.529 -33.072  -0.736  1.00  0.00     0.253 C 
BRANCH   2   3
ATOM      3  N   UNL     1       1.184 -33.856  -1.929  1.00  0.00    -0.348 N 
ATOM      4  H   UNL     1       0.388 -33.415  -2.445  1.00  0.00     0.345 HD
ATOM      5  H   UNL     1       0.916 -34.828  -1.649  1.00  0.00     0.345 HD
ATOM      6  H   UNL     1       2.011 -33.918  -2.565  1.00  0.00     0.345 HD
ENDBRANCH   2   3
BRANCH   2   7
ATOM      7  C   UNL     1       0.529 -33.325   0.361  1.00  0.00     0.102 C 
ATOM      8  O   UNL     1       0.903 -33.358   1.563  1.00  0.00    -0.544 OA
ATOM      9  O   UNL     1      -0.814 -33.509   0.056  1.00  0.00    -0.544 OA
ENDBRANCH   2   7
ENDBRANCH   1   2
BRANCH   1  10
ATOM     10  O   UNL     1       0.623 -30.864  -0.317  1.00  0.00    -0.390 OA
ATOM     11  H   UNL     1       0.680 -31.202   0.614  1.00  0.00     0.210 HD
ENDBRANCH   1  10
TORSDOF 4
ENDMDL
MODEL 7
REMARK VINA RESULT:    -2.253      1.399      2.147
REMARK INTER + INTRA:          -3.053
REMARK INTER:                  -2.667
REMARK INTRA:                  -0.386
REMARK UNBOUND:                -0.405
REMARK SMILES [NH3+][C@@H](CO)C(=O)[O-]
REMARK SMILES IDX 3 1 2 2 1 3 5 7 6 8 7 9 4 10
REMARK H PARENT 1 4 1 5 1 6 4 11
REMARK Flexibility Score: inf
ROOT
ATOM      1  C   UNL     1       0.954 -33.530   0.421  1.00  0.00     0.227 C 
ENDROOT
BRANCH   1   2
ATOM      2  C   UNL     1       1.871 -33.398  -0.809  1.00  0.00     0.253 C 
BRANCH   2   3
ATOM      3  N   UNL     1       1.156 -33.751  -2.042  1.00  0.00    -0.348 N 
ATOM      4  H   UNL     1       0.253 -34.232  -1.823  1.00  0.00     0.345 HD
ATOM      5  H   UNL     1       1.749 -34.385  -2.627  1.00  0.00     0.345 HD
ATOM      6  H   UNL     1       0.958 -32.888  -2.598  1.00  0.00     0.345 HD
ENDBRANCH   2   3
BRANCH   2   7
ATOM      7  C   UNL     1       3.083 -34.277  -0.640  1.00  0.00     0.102 C 
ATOM      8  O   UNL     1       3.172 -35.360  -1.277  1.00  0.00    -0.544 OA
ATOM      9  O   UNL     1       4.116 -33.892   0.206  1.00  0.00    -0.544 OA
ENDBRANCH   2   7
ENDBRANCH   1   2
BRANCH   1  10
ATOM     10  O   UNL     1       1.316 -34.642   1.195  1.00  0.00    -0.390 OA
ATOM     11  H   UNL     1       1.849 -34.296   1.957  1.00  0.00     0.210 HD
ENDBRANCH   1  10
TORSDOF 4
ENDMDL
MODEL 8
REMARK VINA RESULT:    -2.246     13.757     14.401
REMARK INTER + INTRA:          -3.044
REMARK INTER:                  -2.663
REMARK INTRA:                  -0.381
REMARK UNBOUND:                -0.405
REMARK SMILES [NH3+][C@@H](CO)C(=O)[O-]
REMARK SMILES IDX 3 1 2 2 1 3 5 7 6 8 7 9 4 10
REMARK H PARENT 1 4 1 5 1 6 4 11
REMARK Flexibility Score: inf
ROOT
ATOM      1  C   UNL     1      -2.255 -40.834 -13.215  1.00  0.00     0.227 C 
ENDROOT
BRANCH   1   2
ATOM      2  C   UNL     1      -1.816 -39.654 -12.330  1.00  0.00     0.253 C 
BRANCH   2   3
ATOM      3  N   UNL     1      -1.486 -38.476 -13.144  1.00  0.00    -0.348 N 
ATOM      4  H   UNL     1      -1.108 -37.706 -12.546  1.00  0.00     0.345 HD
ATOM      5  H   UNL     1      -2.343 -38.137 -13.640  1.00  0.00     0.345 HD
ATOM      6  H   UNL     1      -0.773 -38.730 -13.866  1.00  0.00     0.345 HD
ENDBRANCH   2   3
BRANCH   2   7
ATOM      7  C   UNL     1      -0.631 -40.054 -11.492  1.00  0.00     0.102 C 
ATOM      8  O   UNL     1      -0.773 -40.279 -10.261  1.00  0.00    -0.544 OA
ATOM      9  O   UNL     1       0.624 -40.193 -12.073  1.00  0.00    -0.544 OA
ENDBRANCH   2   7
ENDBRANCH   1   2
BRANCH   1  10
ATOM     10  O   UNL     1      -1.758 -42.045 -12.712  1.00  0.00    -0.390 OA
ATOM     11  H   UNL     1      -2.419 -42.368 -12.045  1.00  0.00     0.210 HD
ENDBRANCH   1  10
TORSDOF 4
ENDMDL
MODEL 9
REMARK VINA RESULT:    -2.237      8.762      9.391
REMARK INTER + INTRA:          -3.034
REMARK INTER:                  -2.628
REMARK INTRA:                  -0.407
REMARK UNBOUND:                -0.405
REMARK SMILES [NH3+][C@@H](CO)C(=O)[O-]
REMARK SMILES IDX 3 1 2 2 1 3 5 7 6 8 7 9 4 10
REMARK H PARENT 1 4 1 5 1 6 4 11
REMARK Flexibility Score: inf
ROOT
ATOM      1  C   UNL     1       1.152 -39.553  -7.365  1.00  0.00     0.227 C 
ENDROOT
BRANCH   1   2
ATOM      2  C   UNL     1       1.481 -40.284  -6.050  1.00  0.00     0.253 C 
BRANCH   2   3
ATOM      3  N   UNL     1       1.092 -39.478  -4.886  1.00  0.00    -0.348 N 
ATOM      4  H   UNL     1       1.598 -38.562  -4.882  1.00  0.00     0.345 HD
ATOM      5  H   UNL     1       1.314 -39.997  -4.005  1.00  0.00     0.345 HD
ATOM      6  H   UNL     1       0.062 -39.299  -4.905  1.00  0.00     0.345 HD
ENDBRANCH   2   3
BRANCH   2   7
ATOM      7  C   UNL     1       2.952 -40.602  -5.994  1.00  0.00     0.102 C 
ATOM      8  O   UNL     1       3.366 -41.742  -6.332  1.00  0.00    -0.544 OA
ATOM      9  O   UNL     1       3.863 -39.636  -5.585  1.00  0.00    -0.544 OA
ENDBRANCH   2   7
ENDBRANCH   1   2
BRANCH   1  10
ATOM     10  O   UNL     1       2.263 -39.545  -8.221  1.00  0.00    -0.390 OA
ATOM     11  H   UNL     1       2.011 -38.996  -9.008  1.00  0.00     0.210 HD
ENDBRANCH   1  10
TORSDOF 4
ENDMDL
