MODEL 1
REMARK VINA RESULT:    -3.671      0.000      0.000
REMARK INTER + INTRA:          -5.434
REMARK INTER:                  -4.959
REMARK INTRA:                  -0.475
REMARK UNBOUND:                -0.475
REMARK SMILES CCCCCCC=CC(=O)[O-]
REMARK SMILES IDX 5 1 6 2 7 3 8 4 9 5 10 6 11 7 4 8 3 9 2 10 1 11
REMARK H PARENT
REMARK Flexibility Score: inf
ROOT
ATOM      1  C   UNL     1      57.017  27.449  51.584  1.00  0.00     0.004 C 
ENDROOT
BRANCH   1   2
ATOM      2  C   UNL     1      58.324  28.264  51.591  1.00  0.00     0.027 C 
BRANCH   2   3
ATOM      3  C   UNL     1      58.693  28.764  50.219  1.00  0.00    -0.025 C 
ATOM      4  C   UNL     1      59.574  28.196  49.380  1.00  0.00     0.020 C 
BRANCH   4   5
ATOM      5  C   UNL     1      60.392  26.993  49.643  1.00  0.00     0.064 C 
ATOM      6  O   UNL     1      61.621  27.131  49.874  1.00  0.00    -0.545 OA
ATOM      7  O   UNL     1      59.846  25.715  49.670  1.00  0.00    -0.545 OA
ENDBRANCH   4   5
ENDBRANCH   2   3
ENDBRANCH   1   2
BRANCH   1   8
ATOM      8  C   UNL     1      55.835  28.208  50.949  1.00  0.00     0.000 C 
BRANCH   8   9
ATOM      9  C   UNL     1      54.777  27.273  50.320  1.00  0.00    -0.000 C 
BRANCH   9  10
ATOM     10  C   UNL     1      55.320  25.876  49.975  1.00  0.00    -0.003 C 
ATOM     11  C   UNL     1      54.254  24.954  49.388  1.00  0.00     0.004 C 
ENDBRANCH   9  10
ENDBRANCH   8   9
ENDBRANCH   1   8
TORSDOF 6
ENDMDL
MODEL 2
REMARK VINA RESULT:    -3.664     11.822     13.723
REMARK INTER + INTRA:          -5.424
REMARK INTER:                  -5.085
REMARK INTRA:                  -0.339
REMARK UNBOUND:                -0.475
REMARK SMILES CCCCCCC=CC(=O)[O-]
REMARK SMILES IDX 5 1 6 2 7 3 8 4 9 5 10 6 11 7 4 8 3 9 2 10 1 11
REMARK H PARENT
REMARK Flexibility Score: inf
ROOT
ATOM      1  C   UNL     1      62.676  32.654  60.597  1.00  0.00     0.004 C 
ENDROOT
BRANCH   1   2
ATOM      2  C   UNL     1      61.518  31.680  60.312  1.00  0.00     0.027 C 
BRANCH   2   3
ATOM      3  C   UNL     1      61.159  30.851  61.518  1.00  0.00    -0.025 C 
ATOM      4  C   UNL     1      61.804  29.754  61.945  1.00  0.00     0.020 C 
BRANCH   4   5
ATOM      5  C   UNL     1      62.966  29.108  61.301  1.00  0.00     0.064 C 
ATOM      6  O   UNL     1      64.125  29.470  61.632  1.00  0.00    -0.545 OA
ATOM      7  O   UNL     1      62.826  28.095  60.359  1.00  0.00    -0.545 OA
ENDBRANCH   4   5
ENDBRANCH   2   3
ENDBRANCH   1   2
BRANCH   1   8
ATOM      8  C   UNL     1      62.261  34.135  60.485  1.00  0.00     0.000 C 
BRANCH   8   9
ATOM      9  C   UNL     1      63.228  35.096  61.213  1.00  0.00    -0.000 C 
BRANCH   9  10
ATOM     10  C   UNL     1      64.582  34.456  61.560  1.00  0.00    -0.003 C 
ATOM     11  C   UNL     1      65.720  35.474  61.624  1.00  0.00     0.004 C 
ENDBRANCH   9  10
ENDBRANCH   8   9
ENDBRANCH   1   8
TORSDOF 6
ENDMDL
MODEL 3
REMARK VINA RESULT:    -3.487      1.299      2.001
REMARK INTER + INTRA:          -5.185
REMARK INTER:                  -4.611
REMARK INTRA:                  -0.574
REMARK UNBOUND:                -0.475
REMARK SMILES CCCCCCC=CC(=O)[O-]
REMARK SMILES IDX 5 1 6 2 7 3 8 4 9 5 10 6 11 7 4 8 3 9 2 10 1 11
REMARK H PARENT
REMARK Flexibility Score: inf
ROOT
ATOM      1  C   UNL     1      57.209  25.491  50.736  1.00  0.00     0.004 C 
ENDROOT
BRANCH   1   2
ATOM      2  C   UNL     1      57.723  26.720  51.510  1.00  0.00     0.027 C 
BRANCH   2   3
ATOM      3  C   UNL     1      57.554  27.998  50.731  1.00  0.00    -0.025 C 
ATOM      4  C   UNL     1      58.516  28.645  50.054  1.00  0.00     0.020 C 
BRANCH   4   5
ATOM      5  C   UNL     1      59.942  28.266  49.969  1.00  0.00     0.064 C 
ATOM      6  O   UNL     1      60.795  28.966  50.573  1.00  0.00    -0.545 OA
ATOM      7  O   UNL     1      60.371  27.147  49.266  1.00  0.00    -0.545 OA
ENDBRANCH   4   5
ENDBRANCH   2   3
ENDBRANCH   1   2
BRANCH   1   8
ATOM      8  C   UNL     1      55.694  25.260  50.907  1.00  0.00     0.000 C 
BRANCH   8   9
ATOM      9  C   UNL     1      54.911  25.338  49.577  1.00  0.00    -0.000 C 
BRANCH   9  10
ATOM     10  C   UNL     1      53.631  26.185  49.669  1.00  0.00    -0.003 C 
ATOM     11  C   UNL     1      53.891  27.598  50.188  1.00  0.00     0.004 C 
ENDBRANCH   9  10
ENDBRANCH   8   9
ENDBRANCH   1   8
TORSDOF 6
ENDMDL
MODEL 4
REMARK VINA RESULT:    -3.361      1.388      2.298
REMARK INTER + INTRA:          -5.015
REMARK INTER:                  -4.556
REMARK INTRA:                  -0.459
REMARK UNBOUND:                -0.475
REMARK SMILES CCCCCCC=CC(=O)[O-]
REMARK SMILES IDX 5 1 6 2 7 3 8 4 9 5 10 6 11 7 4 8 3 9 2 10 1 11
REMARK H PARENT
REMARK Flexibility Score: inf
ROOT
ATOM      1  C   UNL     1      58.519  28.560  50.188  1.00  0.00     0.004 C 
ENDROOT
BRANCH   1   2
ATOM      2  C   UNL     1      59.793  27.875  49.659  1.00  0.00     0.027 C 
BRANCH   2   3
ATOM      3  C   UNL     1      59.694  26.373  49.701  1.00  0.00    -0.025 C 
ATOM      4  C   UNL     1      60.625  25.531  50.179  1.00  0.00     0.020 C 
BRANCH   4   5
ATOM      5  C   UNL     1      61.951  25.898  50.719  1.00  0.00     0.064 C 
ATOM      6  O   UNL     1      62.041  26.249  51.924  1.00  0.00    -0.545 OA
ATOM      7  O   UNL     1      63.107  25.842  49.950  1.00  0.00    -0.545 OA
ENDBRANCH   4   5
ENDBRANCH   2   3
ENDBRANCH   1   2
BRANCH   1   8
ATOM      8  C   UNL     1      57.498  27.565  50.775  1.00  0.00     0.000 C 
BRANCH   8   9
ATOM      9  C   UNL     1      56.046  28.094  50.746  1.00  0.00    -0.000 C 
BRANCH   9  10
ATOM     10  C   UNL     1      55.009  27.017  50.386  1.00  0.00    -0.003 C 
ATOM     11  C   UNL     1      55.648  25.688  49.986  1.00  0.00     0.004 C 
ENDBRANCH   9  10
ENDBRANCH   8   9
ENDBRANCH   1   8
TORSDOF 6
ENDMDL
MODEL 5
REMARK VINA RESULT:    -3.350      2.657      5.126
REMARK INTER + INTRA:          -5.000
REMARK INTER:                  -4.624
REMARK INTRA:                  -0.376
REMARK UNBOUND:                -0.475
REMARK SMILES CCCCCCC=CC(=O)[O-]
REMARK SMILES IDX 5 1 6 2 7 3 8 4 9 5 10 6 11 7 4 8 3 9 2 10 1 11
REMARK H PARENT
REMARK Flexibility Score: inf
ROOT
ATOM      1  C   UNL     1      58.449  28.625  50.399  1.00  0.00     0.004 C 
ENDROOT
BRANCH   1   2
ATOM      2  C   UNL     1      57.453  27.556  50.884  1.00  0.00     0.027 C 
BRANCH   2   3
ATOM      3  C   UNL     1      56.021  27.971  50.675  1.00  0.00    -0.025 C 
ATOM      4  C   UNL     1      54.981  27.149  50.462  1.00  0.00     0.020 C 
BRANCH   4   5
ATOM      5  C   UNL     1      55.031  25.677  50.345  1.00  0.00     0.064 C 
ATOM      6  O   UNL     1      55.008  25.156  49.199  1.00  0.00    -0.545 OA
ATOM      7  O   UNL     1      55.130  24.846  51.455  1.00  0.00    -0.545 OA
ENDBRANCH   4   5
ENDBRANCH   2   3
ENDBRANCH   1   2
BRANCH   1   8
ATOM      8  C   UNL     1      59.621  28.037  49.588  1.00  0.00     0.000 C 
BRANCH   8   9
ATOM      9  C   UNL     1      59.777  26.509  49.762  1.00  0.00    -0.000 C 
BRANCH   9  10
ATOM     10  C   UNL     1      61.219  26.071  50.069  1.00  0.00    -0.003 C 
ATOM     11  C   UNL     1      62.235  27.195  49.872  1.00  0.00     0.004 C 
ENDBRANCH   9  10
ENDBRANCH   8   9
ENDBRANCH   1   8
TORSDOF 6
ENDMDL
MODEL 6
REMARK VINA RESULT:    -3.301     11.801     13.357
REMARK INTER + INTRA:          -4.934
REMARK INTER:                  -4.285
REMARK INTRA:                  -0.649
REMARK UNBOUND:                -0.475
REMARK SMILES CCCCCCC=CC(=O)[O-]
REMARK SMILES IDX 5 1 6 2 7 3 8 4 9 5 10 6 11 7 4 8 3 9 2 10 1 11
REMARK H PARENT
REMARK Flexibility Score: inf
ROOT
ATOM      1  C   UNL     1      63.896  32.377  59.873  1.00  0.00     0.004 C 
ENDROOT
BRANCH   1   2
ATOM      2  C   UNL     1      62.502  31.789  59.584  1.00  0.00     0.027 C 
BRANCH   2   3
ATOM      3  C   UNL     1      61.660  31.675  60.827  1.00  0.00    -0.025 C 
ATOM      4  C   UNL     1      61.602  30.616  61.650  1.00  0.00     0.020 C 
BRANCH   4   5
ATOM      5  C   UNL     1      62.314  29.331  61.485  1.00  0.00     0.064 C 
ATOM      6  O   UNL     1      63.547  29.283  61.730  1.00  0.00    -0.545 OA
ATOM      7  O   UNL     1      61.664  28.167  61.093  1.00  0.00    -0.545 OA
ENDBRANCH   4   5
ENDBRANCH   2   3
ENDBRANCH   1   2
BRANCH   1   8
ATOM      8  C   UNL     1      63.900  33.370  61.051  1.00  0.00     0.000 C 
BRANCH   8   9
ATOM      9  C   UNL     1      63.860  34.849  60.604  1.00  0.00    -0.000 C 
BRANCH   9  10
ATOM     10  C   UNL     1      62.707  35.649  61.231  1.00  0.00    -0.003 C 
ATOM     11  C   UNL     1      61.357  35.352  60.581  1.00  0.00     0.004 C 
ENDBRANCH   9  10
ENDBRANCH   8   9
ENDBRANCH   1   8
TORSDOF 6
ENDMDL
MODEL 7
REMARK VINA RESULT:    -3.198     12.318     13.196
REMARK INTER + INTRA:          -4.794
REMARK INTER:                  -4.447
REMARK INTRA:                  -0.347
REMARK UNBOUND:                -0.475
REMARK SMILES CCCCCCC=CC(=O)[O-]
REMARK SMILES IDX 5 1 6 2 7 3 8 4 9 5 10 6 11 7 4 8 3 9 2 10 1 11
REMARK H PARENT
REMARK Flexibility Score: inf
ROOT
ATOM      1  C   UNL     1      61.381  30.273  61.437  1.00  0.00     0.004 C 
ENDROOT
BRANCH   1   2
ATOM      2  C   UNL     1      62.744  29.665  61.817  1.00  0.00     0.027 C 
BRANCH   2   3
ATOM      3  C   UNL     1      63.045  28.407  61.046  1.00  0.00    -0.025 C 
ATOM      4  C   UNL     1      64.251  28.020  60.602  1.00  0.00     0.020 C 
BRANCH   4   5
ATOM      5  C   UNL     1      65.521  28.763  60.738  1.00  0.00     0.064 C 
ATOM      6  O   UNL     1      66.493  28.208  61.313  1.00  0.00    -0.545 OA
ATOM      7  O   UNL     1      65.689  30.046  60.231  1.00  0.00    -0.545 OA
ENDBRANCH   4   5
ENDBRANCH   2   3
ENDBRANCH   1   2
BRANCH   1   8
ATOM      8  C   UNL     1      61.497  31.689  60.838  1.00  0.00     0.000 C 
BRANCH   8   9
ATOM      9  C   UNL     1      62.959  32.150  60.639  1.00  0.00    -0.000 C 
BRANCH   9  10
ATOM     10  C   UNL     1      63.144  33.672  60.767  1.00  0.00    -0.003 C 
ATOM     11  C   UNL     1      64.508  34.057  61.338  1.00  0.00     0.004 C 
ENDBRANCH   9  10
ENDBRANCH   8   9
ENDBRANCH   1   8
TORSDOF 6
ENDMDL
MODEL 8
REMARK VINA RESULT:    -3.171      1.665      2.192
REMARK INTER + INTRA:          -4.758
REMARK INTER:                  -4.340
REMARK INTRA:                  -0.418
REMARK UNBOUND:                -0.475
REMARK SMILES CCCCCCC=CC(=O)[O-]
REMARK SMILES IDX 5 1 6 2 7 3 8 4 9 5 10 6 11 7 4 8 3 9 2 10 1 11
REMARK H PARENT
REMARK Flexibility Score: inf
ROOT
ATOM      1  C   UNL     1      56.758  26.089  50.298  1.00  0.00     0.004 C 
ENDROOT
BRANCH   1   2
ATOM      2  C   UNL     1      58.080  25.816  51.039  1.00  0.00     0.027 C 
BRANCH   2   3
ATOM      3  C   UNL     1      59.244  25.663  50.096  1.00  0.00    -0.025 C 
ATOM      4  C   UNL     1      60.040  26.650  49.654  1.00  0.00     0.020 C 
BRANCH   4   5
ATOM      5  C   UNL     1      59.914  28.089  49.963  1.00  0.00     0.064 C 
ATOM      6  O   UNL     1      59.192  28.810  49.225  1.00  0.00    -0.545 OA
ATOM      7  O   UNL     1      60.543  28.672  51.057  1.00  0.00    -0.545 OA
ENDBRANCH   4   5
ENDBRANCH   2   3
ENDBRANCH   1   2
BRANCH   1   8
ATOM      8  C   UNL     1      56.085  27.408  50.728  1.00  0.00     0.000 C 
BRANCH   8   9
ATOM      9  C   UNL     1      54.606  27.231  51.141  1.00  0.00    -0.000 C 
BRANCH   9  10
ATOM     10  C   UNL     1      53.627  27.299  49.957  1.00  0.00    -0.003 C 
ATOM     11  C   UNL     1      53.160  25.920  49.494  1.00  0.00     0.004 C 
ENDBRANCH   9  10
ENDBRANCH   8   9
ENDBRANCH   1   8
TORSDOF 6
ENDMDL
MODEL 9
REMARK VINA RESULT:    -3.110      3.469      5.660
REMARK INTER + INTRA:          -4.677
REMARK INTER:                  -4.215
REMARK INTRA:                  -0.462
REMARK UNBOUND:                -0.475
REMARK SMILES CCCCCCC=CC(=O)[O-]
REMARK SMILES IDX 5 1 6 2 7 3 8 4 9 5 10 6 11 7 4 8 3 9 2 10 1 11
REMARK H PARENT
REMARK Flexibility Score: inf
ROOT
ATOM      1  C   UNL     1      57.369  25.317  51.383  1.00  0.00     0.004 C 
ENDROOT
BRANCH   1   2
ATOM      2  C   UNL     1      56.535  26.116  50.363  1.00  0.00     0.027 C 
BRANCH   2   3
ATOM      3  C   UNL     1      55.507  25.261  49.671  1.00  0.00    -0.025 C 
ATOM      4  C   UNL     1      54.177  25.448  49.693  1.00  0.00     0.020 C 
BRANCH   4   5
ATOM      5  C   UNL     1      53.447  26.499  50.432  1.00  0.00     0.064 C 
ATOM      6  O   UNL     1      52.875  26.198  51.512  1.00  0.00    -0.545 OA
ATOM      7  O   UNL     1      53.392  27.816  49.991  1.00  0.00    -0.545 OA
ENDBRANCH   4   5
ENDBRANCH   2   3
ENDBRANCH   1   2
BRANCH   1   8
ATOM      8  C   UNL     1      58.870  25.665  51.341  1.00  0.00     0.000 C 
BRANCH   8   9
ATOM      9  C   UNL     1      59.407  25.880  49.907  1.00  0.00    -0.000 C 
BRANCH   9  10
ATOM     10  C   UNL     1      60.237  27.165  49.750  1.00  0.00    -0.003 C 
ATOM     11  C   UNL     1      59.372  28.419  49.633  1.00  0.00     0.004 C 
ENDBRANCH   9  10
ENDBRANCH   8   9
ENDBRANCH   1   8
TORSDOF 6
ENDMDL
