MODEL 1
REMARK VINA RESULT:    -3.607      0.000      0.000
REMARK INTER + INTRA:          -5.363
REMARK INTER:                  -4.872
REMARK INTRA:                  -0.490
REMARK UNBOUND:                -0.490
REMARK SMILES O=C[C@H](O)[C@H](O)[C@H](O)CO
REMARK SMILES IDX 7 1 9 2 10 3 5 5 3 6 2 7 1 8 4 9 6 11 8 13
REMARK H PARENT 10 4 4 10 6 12 8 14
REMARK Flexibility Score: inf
ROOT
ATOM      1  C   UNL     1      20.915  -9.761 -18.454  1.00  0.00     0.171 C 
ENDROOT
BRANCH   1   2
ATOM      2  C   UNL     1      21.042  -8.603 -19.464  1.00  0.00     0.190 C 
BRANCH   2   3
ATOM      3  O   UNL     1      19.823  -8.391 -20.123  1.00  0.00    -0.394 OA
ATOM      4  H   UNL     1      19.998  -8.520 -21.092  1.00  0.00     0.210 HD
ENDBRANCH   2   3
ENDBRANCH   1   2
BRANCH   1   5
ATOM      5  C   UNL     1      19.887 -10.828 -18.934  1.00  0.00     0.181 C 
BRANCH   5   6
ATOM      6  C   UNL     1      19.712 -12.013 -17.951  1.00  0.00     0.209 C 
BRANCH   6   7
ATOM      7  C   UNL     1      19.898 -13.340 -18.642  1.00  0.00     0.258 C 
ATOM      8  O   UNL     1      20.965 -13.932 -18.596  1.00  0.00    -0.300 OA
ENDBRANCH   6   7
BRANCH   6   9
ATOM      9  O   UNL     1      18.455 -11.946 -17.324  1.00  0.00    -0.383 OA
ATOM     10  H   UNL     1      18.590 -12.213 -16.377  1.00  0.00     0.211 HD
ENDBRANCH   6   9
ENDBRANCH   5   6
BRANCH   5  11
ATOM     11  O   UNL     1      20.244 -11.321 -20.203  1.00  0.00    -0.387 OA
ATOM     12  H   UNL     1      21.110 -10.906 -20.454  1.00  0.00     0.211 HD
ENDBRANCH   5  11
ENDBRANCH   1   5
BRANCH   1  13
ATOM     13  O   UNL     1      20.570  -9.257 -17.187  1.00  0.00    -0.388 OA
ATOM     14  H   UNL     1      19.764  -8.688 -17.301  1.00  0.00     0.211 HD
ENDBRANCH   1  13
TORSDOF 8
ENDMDL
MODEL 2
REMARK VINA RESULT:    -3.520     16.304     16.862
REMARK INTER + INTRA:          -5.245
REMARK INTER:                  -4.570
REMARK INTRA:                  -0.676
REMARK UNBOUND:                -0.490
REMARK SMILES O=C[C@H](O)[C@H](O)[C@H](O)CO
REMARK SMILES IDX 7 1 9 2 10 3 5 5 3 6 2 7 1 8 4 9 6 11 8 13
REMARK H PARENT 10 4 4 10 6 12 8 14
REMARK Flexibility Score: inf
ROOT
ATOM      1  C   UNL     1       9.152  -7.317  -6.263  1.00  0.00     0.171 C 
ENDROOT
BRANCH   1   2
ATOM      2  C   UNL     1       9.405  -5.850  -6.663  1.00  0.00     0.190 C 
BRANCH   2   3
ATOM      3  O   UNL     1      10.452  -5.768  -7.592  1.00  0.00    -0.394 OA
ATOM      4  H   UNL     1      10.145  -6.246  -8.407  1.00  0.00     0.210 HD
ENDBRANCH   2   3
ENDBRANCH   1   2
BRANCH   1   5
ATOM      5  C   UNL     1       7.963  -7.930  -7.060  1.00  0.00     0.181 C 
BRANCH   5   6
ATOM      6  C   UNL     1       7.866  -9.473  -6.947  1.00  0.00     0.209 C 
BRANCH   6   7
ATOM      7  C   UNL     1       6.966 -10.051  -8.010  1.00  0.00     0.258 C 
ATOM      8  O   UNL     1       7.402 -10.353  -9.111  1.00  0.00    -0.300 OA
ENDBRANCH   6   7
BRANCH   6   9
ATOM      9  O   UNL     1       7.427  -9.842  -5.663  1.00  0.00    -0.383 OA
ATOM     10  H   UNL     1       6.842 -10.636  -5.775  1.00  0.00     0.211 HD
ENDBRANCH   6   9
ENDBRANCH   5   6
BRANCH   5  11
ATOM     11  O   UNL     1       8.037  -7.564  -8.416  1.00  0.00    -0.387 OA
ATOM     12  H   UNL     1       8.981  -7.325  -8.612  1.00  0.00     0.211 HD
ENDBRANCH   5  11
ENDBRANCH   1   5
BRANCH   1  13
ATOM     13  O   UNL     1       8.935  -7.405  -4.876  1.00  0.00    -0.388 OA
ATOM     14  H   UNL     1       8.857  -8.368  -4.646  1.00  0.00     0.211 HD
ENDBRANCH   1  13
TORSDOF 8
ENDMDL
MODEL 3
REMARK VINA RESULT:    -3.478     16.284     17.447
REMARK INTER + INTRA:          -5.188
REMARK INTER:                  -4.665
REMARK INTRA:                  -0.523
REMARK UNBOUND:                -0.490
REMARK SMILES O=C[C@H](O)[C@H](O)[C@H](O)CO
REMARK SMILES IDX 7 1 9 2 10 3 5 5 3 6 2 7 1 8 4 9 6 11 8 13
REMARK H PARENT 10 4 4 10 6 12 8 14
REMARK Flexibility Score: inf
ROOT
ATOM      1  C   UNL     1       9.185  -6.246  -7.099  1.00  0.00     0.171 C 
ENDROOT
BRANCH   1   2
ATOM      2  C   UNL     1       8.459  -5.111  -6.349  1.00  0.00     0.190 C 
BRANCH   2   3
ATOM      3  O   UNL     1       7.160  -5.507  -6.000  1.00  0.00    -0.394 OA
ATOM      4  H   UNL     1       7.192  -5.772  -5.043  1.00  0.00     0.210 HD
ENDBRANCH   2   3
ENDBRANCH   1   2
BRANCH   1   5
ATOM      5  C   UNL     1       9.341  -7.513  -6.206  1.00  0.00     0.181 C 
BRANCH   5   6
ATOM      6  C   UNL     1       8.524  -8.732  -6.705  1.00  0.00     0.209 C 
BRANCH   6   7
ATOM      7  C   UNL     1       7.533  -8.336  -7.771  1.00  0.00     0.258 C 
ATOM      8  O   UNL     1       6.369  -8.093  -7.492  1.00  0.00    -0.300 OA
ENDBRANCH   6   7
BRANCH   6   9
ATOM      9  O   UNL     1       7.876  -9.360  -5.626  1.00  0.00    -0.383 OA
ATOM     10  H   UNL     1       8.576  -9.835  -5.106  1.00  0.00     0.211 HD
ENDBRANCH   6   9
ENDBRANCH   5   6
BRANCH   5  11
ATOM     11  O   UNL     1       8.988  -7.225  -4.875  1.00  0.00    -0.387 OA
ATOM     12  H   UNL     1       8.710  -8.077  -4.447  1.00  0.00     0.211 HD
ENDBRANCH   5  11
ENDBRANCH   1   5
BRANCH   1  13
ATOM     13  O   UNL     1      10.432  -5.793  -7.562  1.00  0.00    -0.388 OA
ATOM     14  H   UNL     1      10.921  -6.578  -7.925  1.00  0.00     0.211 HD
ENDBRANCH   1  13
TORSDOF 8
ENDMDL
MODEL 4
REMARK VINA RESULT:    -3.476     15.815     17.308
REMARK INTER + INTRA:          -5.185
REMARK INTER:                  -4.354
REMARK INTRA:                  -0.831
REMARK UNBOUND:                -0.490
REMARK SMILES O=C[C@H](O)[C@H](O)[C@H](O)CO
REMARK SMILES IDX 7 1 9 2 10 3 5 5 3 6 2 7 1 8 4 9 6 11 8 13
REMARK H PARENT 10 4 4 10 6 12 8 14
REMARK Flexibility Score: inf
ROOT
ATOM      1  C   UNL     1       7.859  -9.472  -7.963  1.00  0.00     0.171 C 
ENDROOT
BRANCH   1   2
ATOM      2  C   UNL     1       6.839  -9.976  -6.921  1.00  0.00     0.190 C 
BRANCH   2   3
ATOM      3  O   UNL     1       7.375  -9.886  -5.628  1.00  0.00    -0.394 OA
ATOM      4  H   UNL     1       6.687 -10.251  -5.011  1.00  0.00     0.210 HD
ENDBRANCH   2   3
ENDBRANCH   1   2
BRANCH   1   5
ATOM      5  C   UNL     1       8.032  -7.926  -7.893  1.00  0.00     0.181 C 
BRANCH   5   6
ATOM      6  C   UNL     1       9.370  -7.476  -7.254  1.00  0.00     0.209 C 
BRANCH   6   7
ATOM      7  C   UNL     1       9.150  -6.802  -5.922  1.00  0.00     0.258 C 
ATOM      8  O   UNL     1       8.903  -7.452  -4.919  1.00  0.00    -0.300 OA
ENDBRANCH   6   7
BRANCH   6   9
ATOM      9  O   UNL     1      10.072  -6.633  -8.133  1.00  0.00    -0.383 OA
ATOM     10  H   UNL     1      11.021  -6.926  -8.118  1.00  0.00     0.211 HD
ENDBRANCH   6   9
ENDBRANCH   5   6
BRANCH   5  11
ATOM     11  O   UNL     1       6.959  -7.341  -7.195  1.00  0.00    -0.387 OA
ATOM     12  H   UNL     1       6.219  -8.002  -7.172  1.00  0.00     0.211 HD
ENDBRANCH   5  11
ENDBRANCH   1   5
BRANCH   1  13
ATOM     13  O   UNL     1       7.472  -9.884  -9.250  1.00  0.00    -0.388 OA
ATOM     14  H   UNL     1       7.715 -10.842  -9.344  1.00  0.00     0.211 HD
ENDBRANCH   1  13
TORSDOF 8
ENDMDL
MODEL 5
REMARK VINA RESULT:    -3.474     16.652     17.527
REMARK INTER + INTRA:          -5.183
REMARK INTER:                  -4.489
REMARK INTRA:                  -0.694
REMARK UNBOUND:                -0.490
REMARK SMILES O=C[C@H](O)[C@H](O)[C@H](O)CO
REMARK SMILES IDX 7 1 9 2 10 3 5 5 3 6 2 7 1 8 4 9 6 11 8 13
REMARK H PARENT 10 4 4 10 6 12 8 14
REMARK Flexibility Score: inf
ROOT
ATOM      1  C   UNL     1       8.663  -7.048  -6.199  1.00  0.00     0.171 C 
ENDROOT
BRANCH   1   2
ATOM      2  C   UNL     1       8.365  -5.535  -6.243  1.00  0.00     0.190 C 
BRANCH   2   3
ATOM      3  O   UNL     1       7.011  -5.295  -5.969  1.00  0.00    -0.394 OA
ATOM      4  H   UNL     1       6.980  -4.525  -5.343  1.00  0.00     0.210 HD
ENDBRANCH   2   3
ENDBRANCH   1   2
BRANCH   1   5
ATOM      5  C   UNL     1       7.504  -7.878  -6.825  1.00  0.00     0.181 C 
BRANCH   5   6
ATOM      6  C   UNL     1       7.763  -9.405  -6.833  1.00  0.00     0.209 C 
BRANCH   6   7
ATOM      7  C   UNL     1       6.980 -10.095  -7.922  1.00  0.00     0.258 C 
ATOM      8  O   UNL     1       7.445 -10.234  -9.042  1.00  0.00    -0.300 OA
ENDBRANCH   6   7
BRANCH   6   9
ATOM      9  O   UNL     1       7.467  -9.957  -5.574  1.00  0.00    -0.383 OA
ATOM     10  H   UNL     1       7.350  -9.197  -4.946  1.00  0.00     0.211 HD
ENDBRANCH   6   9
ENDBRANCH   5   6
BRANCH   5  11
ATOM     11  O   UNL     1       7.237  -7.441  -8.136  1.00  0.00    -0.387 OA
ATOM     12  H   UNL     1       6.279  -7.623  -8.324  1.00  0.00     0.211 HD
ENDBRANCH   5  11
ENDBRANCH   1   5
BRANCH   1  13
ATOM     13  O   UNL     1       8.918  -7.448  -4.875  1.00  0.00    -0.388 OA
ATOM     14  H   UNL     1       9.467  -8.275  -4.912  1.00  0.00     0.211 HD
ENDBRANCH   1  13
TORSDOF 8
ENDMDL
MODEL 6
REMARK VINA RESULT:    -3.466     15.501     16.810
REMARK INTER + INTRA:          -5.173
REMARK INTER:                  -4.863
REMARK INTRA:                  -0.309
REMARK UNBOUND:                -0.490
REMARK SMILES O=C[C@H](O)[C@H](O)[C@H](O)CO
REMARK SMILES IDX 7 1 9 2 10 3 5 5 3 6 2 7 1 8 4 9 6 11 8 13
REMARK H PARENT 10 4 4 10 6 12 8 14
REMARK Flexibility Score: inf
ROOT
ATOM      1  C   UNL     1       7.866  -6.557  -6.843  1.00  0.00     0.171 C 
ENDROOT
BRANCH   1   2
ATOM      2  C   UNL     1       8.336  -7.795  -6.052  1.00  0.00     0.190 C 
BRANCH   2   3
ATOM      3  O   UNL     1       8.991  -7.405  -4.875  1.00  0.00    -0.394 OA
ATOM      4  H   UNL     1       8.384  -6.771  -4.410  1.00  0.00     0.210 HD
ENDBRANCH   2   3
ENDBRANCH   1   2
BRANCH   1   5
ATOM      5  C   UNL     1       9.049  -5.872  -7.588  1.00  0.00     0.181 C 
BRANCH   5   6
ATOM      6  C   UNL     1       9.316  -6.452  -9.000  1.00  0.00     0.209 C 
BRANCH   6   7
ATOM      7  C   UNL     1       8.041  -6.914  -9.660  1.00  0.00     0.258 C 
ATOM      8  O   UNL     1       7.870  -6.786 -10.862  1.00  0.00    -0.300 OA
ENDBRANCH   6   7
BRANCH   6   9
ATOM      9  O   UNL     1      10.252  -7.498  -8.929  1.00  0.00    -0.383 OA
ATOM     10  H   UNL     1      10.965  -7.206  -8.302  1.00  0.00     0.211 HD
ENDBRANCH   6   9
ENDBRANCH   5   6
BRANCH   5  11
ATOM     11  O   UNL     1      10.226  -5.947  -6.821  1.00  0.00    -0.387 OA
ATOM     12  H   UNL     1      10.174  -5.243  -6.123  1.00  0.00     0.211 HD
ENDBRANCH   5  11
ENDBRANCH   1   5
BRANCH   1  13
ATOM     13  O   UNL     1       7.217  -5.656  -5.980  1.00  0.00    -0.388 OA
ATOM     14  H   UNL     1       7.622  -5.759  -5.079  1.00  0.00     0.211 HD
ENDBRANCH   1  13
TORSDOF 8
ENDMDL
MODEL 7
REMARK VINA RESULT:    -3.437     15.994     17.283
REMARK INTER + INTRA:          -5.132
REMARK INTER:                  -4.631
REMARK INTRA:                  -0.501
REMARK UNBOUND:                -0.490
REMARK SMILES O=C[C@H](O)[C@H](O)[C@H](O)CO
REMARK SMILES IDX 7 1 9 2 10 3 5 5 3 6 2 7 1 8 4 9 6 11 8 13
REMARK H PARENT 10 4 4 10 6 12 8 14
REMARK Flexibility Score: inf
ROOT
ATOM      1  C   UNL     1       8.943  -8.431  -7.141  1.00  0.00     0.171 C 
ENDROOT
BRANCH   1   2
ATOM      2  C   UNL     1       7.976  -9.618  -6.953  1.00  0.00     0.190 C 
BRANCH   2   3
ATOM      3  O   UNL     1       7.517  -9.671  -5.629  1.00  0.00    -0.394 OA
ATOM      4  H   UNL     1       7.330 -10.627  -5.432  1.00  0.00     0.210 HD
ENDBRANCH   2   3
ENDBRANCH   1   2
BRANCH   1   5
ATOM      5  C   UNL     1       8.547  -7.224  -6.240  1.00  0.00     0.181 C 
BRANCH   5   6
ATOM      6  C   UNL     1       9.177  -5.880  -6.686  1.00  0.00     0.209 C 
BRANCH   6   7
ATOM      7  C   UNL     1       8.254  -5.112  -7.599  1.00  0.00     0.258 C 
ATOM      8  O   UNL     1       8.380  -5.163  -8.813  1.00  0.00    -0.300 OA
ENDBRANCH   6   7
BRANCH   6   9
ATOM      9  O   UNL     1      10.420  -6.104  -7.303  1.00  0.00    -0.383 OA
ATOM     10  H   UNL     1      10.234  -6.362  -8.243  1.00  0.00     0.211 HD
ENDBRANCH   6   9
ENDBRANCH   5   6
BRANCH   5  11
ATOM     11  O   UNL     1       8.886  -7.477  -4.898  1.00  0.00    -0.387 OA
ATOM     12  H   UNL     1       8.056  -7.745  -4.424  1.00  0.00     0.211 HD
ENDBRANCH   5  11
ENDBRANCH   1   5
BRANCH   1  13
ATOM     13  O   UNL     1       8.989  -8.061  -8.497  1.00  0.00    -0.388 OA
ATOM     14  H   UNL     1       8.442  -8.716  -9.005  1.00  0.00     0.211 HD
ENDBRANCH   1  13
TORSDOF 8
ENDMDL
MODEL 8
REMARK VINA RESULT:    -3.384     15.078     16.245
REMARK INTER + INTRA:          -5.061
REMARK INTER:                  -4.313
REMARK INTRA:                  -0.748
REMARK UNBOUND:                -0.490
REMARK SMILES O=C[C@H](O)[C@H](O)[C@H](O)CO
REMARK SMILES IDX 7 1 9 2 10 3 5 5 3 6 2 7 1 8 4 9 6 11 8 13
REMARK H PARENT 10 4 4 10 6 12 8 14
REMARK Flexibility Score: inf
ROOT
ATOM      1  C   UNL     1       9.469  -6.668  -9.013  1.00  0.00     0.171 C 
ENDROOT
BRANCH   1   2
ATOM      2  C   UNL     1       9.501  -5.455  -8.060  1.00  0.00     0.190 C 
BRANCH   2   3
ATOM      3  O   UNL     1      10.524  -5.603  -7.113  1.00  0.00    -0.394 OA
ATOM      4  H   UNL     1      11.205  -4.910  -7.321  1.00  0.00     0.210 HD
ENDBRANCH   2   3
ENDBRANCH   1   2
BRANCH   1   5
ATOM      5  C   UNL     1       9.058  -7.971  -8.266  1.00  0.00     0.181 C 
BRANCH   5   6
ATOM      6  C   UNL     1       7.934  -7.762  -7.220  1.00  0.00     0.209 C 
BRANCH   6   7
ATOM      7  C   UNL     1       8.364  -8.213  -5.846  1.00  0.00     0.258 C 
ATOM      8  O   UNL     1       8.955  -7.457  -5.091  1.00  0.00    -0.300 OA
ENDBRANCH   6   7
BRANCH   6   9
ATOM      9  O   UNL     1       6.763  -8.428  -7.623  1.00  0.00    -0.383 OA
ATOM     10  H   UNL     1       6.001  -7.959  -7.191  1.00  0.00     0.211 HD
ENDBRANCH   6   9
ENDBRANCH   5   6
BRANCH   5  11
ATOM     11  O   UNL     1      10.176  -8.556  -7.642  1.00  0.00    -0.387 OA
ATOM     12  H   UNL     1      10.544  -9.238  -8.263  1.00  0.00     0.211 HD
ENDBRANCH   5  11
ENDBRANCH   1   5
BRANCH   1  13
ATOM     13  O   UNL     1      10.717  -6.814  -9.644  1.00  0.00    -0.388 OA
ATOM     14  H   UNL     1      10.783  -6.113 -10.344  1.00  0.00     0.211 HD
ENDBRANCH   1  13
TORSDOF 8
ENDMDL
MODEL 9
REMARK VINA RESULT:    -1.966     15.371     16.764
REMARK INTER + INTRA:          -3.145
REMARK INTER:                  -2.878
REMARK INTRA:                  -0.268
REMARK UNBOUND:                -0.490
REMARK SMILES O=C[C@H](O)[C@H](O)[C@H](O)CO
REMARK SMILES IDX 7 1 9 2 10 3 5 5 3 6 2 7 1 8 4 9 6 11 8 13
REMARK H PARENT 10 4 4 10 6 12 8 14
REMARK Flexibility Score: inf
ROOT
ATOM      1  C   UNL     1       8.241  -7.715  -6.033  1.00  0.00     0.171 C 
ENDROOT
BRANCH   1   2
ATOM      2  C   UNL     1       8.263  -9.214  -6.397  1.00  0.00     0.190 C 
BRANCH   2   3
ATOM      3  O   UNL     1       7.318  -9.917  -5.636  1.00  0.00    -0.394 OA
ATOM      4  H   UNL     1       7.778 -10.197  -4.802  1.00  0.00     0.210 HD
ENDBRANCH   2   3
ENDBRANCH   1   2
BRANCH   1   5
ATOM      5  C   UNL     1       8.737  -6.832  -7.216  1.00  0.00     0.181 C 
BRANCH   5   6
ATOM      6  C   UNL     1       8.438  -7.435  -8.612  1.00  0.00     0.209 C 
BRANCH   6   7
ATOM      7  C   UNL     1       9.299  -6.811  -9.682  1.00  0.00     0.258 C 
ATOM      8  O   UNL     1      10.467  -7.138  -9.821  1.00  0.00    -0.300 OA
ENDBRANCH   6   7
BRANCH   6   9
ATOM      9  O   UNL     1       7.073  -7.296  -8.922  1.00  0.00    -0.383 OA
ATOM     10  H   UNL     1       6.968  -6.421  -9.378  1.00  0.00     0.211 HD
ENDBRANCH   6   9
ENDBRANCH   5   6
BRANCH   5  11
ATOM     11  O   UNL     1      10.116  -6.580  -7.100  1.00  0.00    -0.387 OA
ATOM     12  H   UNL     1      10.409  -6.125  -7.933  1.00  0.00     0.211 HD
ENDBRANCH   5  11
ENDBRANCH   1   5
BRANCH   1  13
ATOM     13  O   UNL     1       9.008  -7.492  -4.875  1.00  0.00    -0.388 OA
ATOM     14  H   UNL     1       9.891  -7.142  -5.164  1.00  0.00     0.211 HD
ENDBRANCH   1  13
TORSDOF 8
ENDMDL
