MODEL 1
REMARK VINA RESULT:    -3.845      0.000      0.000
REMARK INTER + INTRA:          -4.636
REMARK INTER:                  -4.632
REMARK INTRA:                  -0.004
REMARK UNBOUND:                -0.004
REMARK SMILES OCC(O)CO
REMARK SMILES IDX 3 1 5 2 6 3 2 5 1 6 4 8
REMARK H PARENT 6 4 1 7 4 9
REMARK Flexibility Score: inf
ROOT
ATOM      1  C   UNL     1     -49.175 -50.307  14.548  1.00  0.00     0.165 C 
ENDROOT
BRANCH   1   2
ATOM      2  C   UNL     1     -50.378 -51.165  14.982  1.00  0.00     0.190 C 
BRANCH   2   3
ATOM      3  O   UNL     1     -51.078 -51.672  13.876  1.00  0.00    -0.394 OA
ATOM      4  H   UNL     1     -51.680 -52.383  14.217  1.00  0.00     0.210 HD
ENDBRANCH   2   3
ENDBRANCH   1   2
BRANCH   1   5
ATOM      5  C   UNL     1     -48.221 -49.977  15.710  1.00  0.00     0.190 C 
BRANCH   5   6
ATOM      6  O   UNL     1     -48.935 -49.589  16.852  1.00  0.00    -0.394 OA
ATOM      7  H   UNL     1     -49.872 -49.885  16.706  1.00  0.00     0.210 HD
ENDBRANCH   5   6
ENDBRANCH   1   5
BRANCH   1   8
ATOM      8  O   UNL     1     -49.591 -49.143  13.876  1.00  0.00    -0.388 OA
ATOM      9  H   UNL     1     -48.974 -48.991  13.114  1.00  0.00     0.211 HD
ENDBRANCH   1   8
TORSDOF 5
ENDMDL
MODEL 2
REMARK VINA RESULT:    -3.801     16.301     16.861
REMARK INTER + INTRA:          -4.583
REMARK INTER:                  -4.370
REMARK INTRA:                  -0.213
REMARK UNBOUND:                -0.004
REMARK SMILES OCC(O)CO
REMARK SMILES IDX 3 1 5 2 6 3 2 5 1 6 4 8
REMARK H PARENT 6 4 1 7 4 9
REMARK Flexibility Score: inf
ROOT
ATOM      1  C   UNL     1     -42.826 -51.101  30.614  1.00  0.00     0.165 C 
ENDROOT
BRANCH   1   2
ATOM      2  C   UNL     1     -44.363 -51.165  30.537  1.00  0.00     0.190 C 
BRANCH   2   3
ATOM      3  O   UNL     1     -44.823 -52.489  30.472  1.00  0.00    -0.394 OA
ATOM      4  H   UNL     1     -44.109 -53.062  30.854  1.00  0.00     0.210 HD
ENDBRANCH   2   3
ENDBRANCH   1   2
BRANCH   1   5
ATOM      5  C   UNL     1     -42.137 -51.650  29.352  1.00  0.00     0.190 C 
BRANCH   5   6
ATOM      6  O   UNL     1     -42.363 -53.026  29.213  1.00  0.00    -0.394 OA
ATOM      7  H   UNL     1     -42.439 -53.196  28.237  1.00  0.00     0.210 HD
ENDBRANCH   5   6
ENDBRANCH   1   5
BRANCH   1   8
ATOM      8  O   UNL     1     -42.345 -51.730  31.778  1.00  0.00    -0.388 OA
ATOM      9  H   UNL     1     -41.584 -51.195  32.124  1.00  0.00     0.211 HD
ENDBRANCH   1   8
TORSDOF 5
ENDMDL
MODEL 3
REMARK VINA RESULT:    -3.778      4.159      5.020
REMARK INTER + INTRA:          -4.555
REMARK INTER:                  -4.343
REMARK INTRA:                  -0.213
REMARK UNBOUND:                -0.004
REMARK SMILES OCC(O)CO
REMARK SMILES IDX 3 1 5 2 6 3 2 5 1 6 4 8
REMARK H PARENT 6 4 1 7 4 9
REMARK Flexibility Score: inf
ROOT
ATOM      1  C   UNL     1     -51.280 -50.658  18.811  1.00  0.00     0.165 C 
ENDROOT
BRANCH   1   2
ATOM      2  C   UNL     1     -49.741 -50.586  18.839  1.00  0.00     0.190 C 
BRANCH   2   3
ATOM      3  O   UNL     1     -49.165 -51.866  18.866  1.00  0.00    -0.394 OA
ATOM      4  H   UNL     1     -48.687 -51.985  18.005  1.00  0.00     0.210 HD
ENDBRANCH   2   3
ENDBRANCH   1   2
BRANCH   1   5
ATOM      5  C   UNL     1     -51.874 -51.341  20.056  1.00  0.00     0.190 C 
BRANCH   5   6
ATOM      6  O   UNL     1     -51.561 -52.707  20.077  1.00  0.00    -0.394 OA
ATOM      7  H   UNL     1     -52.376 -53.181  19.766  1.00  0.00     0.210 HD
ENDBRANCH   5   6
ENDBRANCH   1   5
BRANCH   1   8
ATOM      8  O   UNL     1     -51.744 -51.256  17.625  1.00  0.00    -0.388 OA
ATOM      9  H   UNL     1     -52.007 -52.190  17.834  1.00  0.00     0.211 HD
ENDBRANCH   1   8
TORSDOF 5
ENDMDL
MODEL 4
REMARK VINA RESULT:    -3.684      2.524      3.709
REMARK INTER + INTRA:          -4.441
REMARK INTER:                  -4.221
REMARK INTRA:                  -0.220
REMARK UNBOUND:                -0.004
REMARK SMILES OCC(O)CO
REMARK SMILES IDX 3 1 5 2 6 3 2 5 1 6 4 8
REMARK H PARENT 6 4 1 7 4 9
REMARK Flexibility Score: inf
ROOT
ATOM      1  C   UNL     1     -48.793 -51.122  16.957  1.00  0.00     0.165 C 
ENDROOT
BRANCH   1   2
ATOM      2  C   UNL     1     -49.237 -50.597  18.336  1.00  0.00     0.190 C 
BRANCH   2   3
ATOM      3  O   UNL     1     -49.801 -51.616  19.120  1.00  0.00    -0.394 OA
ATOM      4  H   UNL     1     -49.047 -52.127  19.514  1.00  0.00     0.210 HD
ENDBRANCH   2   3
ENDBRANCH   1   2
BRANCH   1   5
ATOM      5  C   UNL     1     -49.918 -51.083  15.907  1.00  0.00     0.190 C 
BRANCH   5   6
ATOM      6  O   UNL     1     -51.176 -51.009  16.520  1.00  0.00    -0.394 OA
ATOM      7  H   UNL     1     -51.101 -51.522  17.367  1.00  0.00     0.210 HD
ENDBRANCH   5   6
ENDBRANCH   1   5
BRANCH   1   8
ATOM      8  O   UNL     1     -48.226 -52.406  17.056  1.00  0.00    -0.388 OA
ATOM      9  H   UNL     1     -48.806 -52.954  17.646  1.00  0.00     0.211 HD
ENDBRANCH   1   8
TORSDOF 5
ENDMDL
MODEL 5
REMARK VINA RESULT:    -3.659      1.660      1.660
REMARK INTER + INTRA:          -4.412
REMARK INTER:                  -4.190
REMARK INTRA:                  -0.222
REMARK UNBOUND:                -0.004
REMARK SMILES OCC(O)CO
REMARK SMILES IDX 3 1 5 2 6 3 2 5 1 6 4 8
REMARK H PARENT 6 4 1 7 4 9
REMARK Flexibility Score: inf
ROOT
ATOM      1  C   UNL     1     -48.894 -50.537  15.167  1.00  0.00     0.165 C 
ENDROOT
BRANCH   1   2
ATOM      2  C   UNL     1     -50.307 -51.127  14.991  1.00  0.00     0.190 C 
BRANCH   2   3
ATOM      3  O   UNL     1     -51.043 -51.072  16.185  1.00  0.00    -0.394 OA
ATOM      4  H   UNL     1     -51.654 -50.294  16.111  1.00  0.00     0.210 HD
ENDBRANCH   2   3
ENDBRANCH   1   2
BRANCH   1   5
ATOM      5  C   UNL     1     -48.274 -50.859  16.539  1.00  0.00     0.190 C 
BRANCH   5   6
ATOM      6  O   UNL     1     -48.371 -52.228  16.825  1.00  0.00    -0.394 OA
ATOM      7  H   UNL     1     -48.144 -52.325  17.787  1.00  0.00     0.210 HD
ENDBRANCH   5   6
ENDBRANCH   1   5
BRANCH   1   8
ATOM      8  O   UNL     1     -48.881 -49.154  14.908  1.00  0.00    -0.388 OA
ATOM      9  H   UNL     1     -49.402 -48.992  14.079  1.00  0.00     0.211 HD
ENDBRANCH   1   8
TORSDOF 5
ENDMDL
MODEL 6
REMARK VINA RESULT:    -3.659      1.932      2.727
REMARK INTER + INTRA:          -4.412
REMARK INTER:                  -4.188
REMARK INTRA:                  -0.224
REMARK UNBOUND:                -0.004
REMARK SMILES OCC(O)CO
REMARK SMILES IDX 3 1 5 2 6 3 2 5 1 6 4 8
REMARK H PARENT 6 4 1 7 4 9
REMARK Flexibility Score: inf
ROOT
ATOM      1  C   UNL     1     -48.816 -51.031  16.042  1.00  0.00     0.165 C 
ENDROOT
BRANCH   1   2
ATOM      2  C   UNL     1     -49.954 -50.706  17.029  1.00  0.00     0.190 C 
BRANCH   2   3
ATOM      3  O   UNL     1     -51.212 -51.009  16.485  1.00  0.00    -0.394 OA
ATOM      4  H   UNL     1     -51.169 -50.790  15.518  1.00  0.00     0.210 HD
ENDBRANCH   2   3
ENDBRANCH   1   2
BRANCH   1   5
ATOM      5  C   UNL     1     -49.293 -51.120  14.582  1.00  0.00     0.190 C 
BRANCH   5   6
ATOM      6  O   UNL     1     -49.811 -49.893  14.146  1.00  0.00    -0.394 OA
ATOM      7  H   UNL     1     -50.094 -50.032  13.204  1.00  0.00     0.210 HD
ENDBRANCH   5   6
ENDBRANCH   1   5
BRANCH   1   8
ATOM      8  O   UNL     1     -48.120 -52.191  16.428  1.00  0.00    -0.388 OA
ATOM      9  H   UNL     1     -48.734 -52.965  16.334  1.00  0.00     0.211 HD
ENDBRANCH   1   8
TORSDOF 5
ENDMDL
MODEL 7
REMARK VINA RESULT:    -3.594      1.360      2.972
REMARK INTER + INTRA:          -4.334
REMARK INTER:                  -4.110
REMARK INTRA:                  -0.224
REMARK UNBOUND:                -0.004
REMARK SMILES OCC(O)CO
REMARK SMILES IDX 3 1 5 2 6 3 2 5 1 6 4 8
REMARK H PARENT 6 4 1 7 4 9
REMARK Flexibility Score: inf
ROOT
ATOM      1  C   UNL     1     -49.790 -51.136  16.029  1.00  0.00     0.165 C 
ENDROOT
BRANCH   1   2
ATOM      2  C   UNL     1     -48.958 -50.398  17.095  1.00  0.00     0.190 C 
BRANCH   2   3
ATOM      3  O   UNL     1     -48.599 -49.110  16.671  1.00  0.00    -0.394 OA
ATOM      4  H   UNL     1     -47.691 -48.930  17.029  1.00  0.00     0.210 HD
ENDBRANCH   2   3
ENDBRANCH   1   2
BRANCH   1   5
ATOM      5  C   UNL     1     -49.274 -50.907  14.598  1.00  0.00     0.190 C 
BRANCH   5   6
ATOM      6  O   UNL     1     -49.792 -49.722  14.059  1.00  0.00    -0.394 OA
ATOM      7  H   UNL     1     -50.652 -49.558  14.529  1.00  0.00     0.210 HD
ENDBRANCH   5   6
ENDBRANCH   1   5
BRANCH   1   8
ATOM      8  O   UNL     1     -51.158 -50.822  16.140  1.00  0.00    -0.388 OA
ATOM      9  H   UNL     1     -51.566 -50.907  15.239  1.00  0.00     0.211 HD
ENDBRANCH   1   8
TORSDOF 5
ENDMDL
MODEL 8
REMARK VINA RESULT:    -3.586      2.722      3.378
REMARK INTER + INTRA:          -4.324
REMARK INTER:                  -4.118
REMARK INTRA:                  -0.205
REMARK UNBOUND:                -0.004
REMARK SMILES OCC(O)CO
REMARK SMILES IDX 3 1 5 2 6 3 2 5 1 6 4 8
REMARK H PARENT 6 4 1 7 4 9
REMARK Flexibility Score: inf
ROOT
ATOM      1  C   UNL     1     -49.602 -50.787  16.900  1.00  0.00     0.165 C 
ENDROOT
BRANCH   1   2
ATOM      2  C   UNL     1     -48.383 -51.653  16.528  1.00  0.00     0.190 C 
BRANCH   2   3
ATOM      3  O   UNL     1     -48.118 -52.622  17.508  1.00  0.00    -0.394 OA
ATOM      4  H   UNL     1     -48.251 -53.508  17.082  1.00  0.00     0.210 HD
ENDBRANCH   2   3
ENDBRANCH   1   2
BRANCH   1   5
ATOM      5  C   UNL     1     -49.650 -50.428  18.396  1.00  0.00     0.190 C 
BRANCH   5   6
ATOM      6  O   UNL     1     -50.069 -51.523  19.163  1.00  0.00    -0.394 OA
ATOM      7  H   UNL     1     -49.472 -52.277  18.917  1.00  0.00     0.210 HD
ENDBRANCH   5   6
ENDBRANCH   1   5
BRANCH   1   8
ATOM      8  O   UNL     1     -50.803 -51.383  16.475  1.00  0.00    -0.388 OA
ATOM      9  H   UNL     1     -50.576 -52.135  15.869  1.00  0.00     0.211 HD
ENDBRANCH   1   8
TORSDOF 5
ENDMDL
MODEL 9
REMARK VINA RESULT:    -3.565     16.659     18.059
REMARK INTER + INTRA:          -4.299
REMARK INTER:                  -4.078
REMARK INTRA:                  -0.221
REMARK UNBOUND:                -0.004
REMARK SMILES OCC(O)CO
REMARK SMILES IDX 3 1 5 2 6 3 2 5 1 6 4 8
REMARK H PARENT 6 4 1 7 4 9
REMARK Flexibility Score: inf
ROOT
ATOM      1  C   UNL     1     -45.296 -51.775  32.573  1.00  0.00     0.165 C 
ENDROOT
BRANCH   1   2
ATOM      2  C   UNL     1     -44.972 -51.366  31.124  1.00  0.00     0.190 C 
BRANCH   2   3
ATOM      3  O   UNL     1     -44.572 -52.468  30.353  1.00  0.00    -0.394 OA
ATOM      4  H   UNL     1     -43.581 -52.437  30.297  1.00  0.00     0.210 HD
ENDBRANCH   2   3
ENDBRANCH   1   2
BRANCH   1   5
ATOM      5  C   UNL     1     -44.061 -51.768  33.491  1.00  0.00     0.190 C 
BRANCH   5   6
ATOM      6  O   UNL     1     -42.878 -51.839  32.742  1.00  0.00    -0.394 OA
ATOM      7  H   UNL     1     -42.211 -51.286  33.227  1.00  0.00     0.210 HD
ENDBRANCH   5   6
ENDBRANCH   1   5
BRANCH   1   8
ATOM      8  O   UNL     1     -45.966 -53.012  32.619  1.00  0.00    -0.388 OA
ATOM      9  H   UNL     1     -46.723 -52.928  33.255  1.00  0.00     0.211 HD
ENDBRANCH   1   8
TORSDOF 5
ENDMDL
