MODEL 1
REMARK VINA RESULT:    95.200      0.000      0.000
REMARK INTER + INTRA:         111.855
REMARK INTER:                 111.896
REMARK INTRA:                  -0.041
REMARK UNBOUND:                -0.041
REMARK SMILES C=C(C)[C@H]1CC[C@@]2(CO)CC[C@@]3(C)[C@H](CC[C@H]4[C@@]5(C)CC[C@@H](O)C(C)(C)[C@@H]5CC[C@@]43C)[C@H]12
REMARK SMILES IDX 4 1 5 2 6 3 7 4 32 5 14 6 15 7 16 8 17 9 18 10 20 11 21 12
REMARK SMILES IDX 22 13 24 14 27 15 28 16 29 17 30 18 12 19 11 20 10 21 13 22
REMARK SMILES IDX 31 23 25 24 26 25 19 26 2 27 3 28 1 29 8 30 9 31 23 33
REMARK H PARENT 9 32 23 34
REMARK Flexibility Score: inf
ROOT
ATOM      1  C   UNL     1      12.866  15.406  30.404  1.00  0.00     0.018 C 
ATOM      2  C   UNL     1      13.935  15.962  29.434  1.00  0.00     0.009 C 
ATOM      3  C   UNL     1      14.483  14.757  28.644  1.00  0.00     0.010 C 
ATOM      4  C   UNL     1      13.440  13.638  28.834  1.00  0.00    -0.003 C 
ATOM      5  C   UNL     1      13.026  13.883  30.286  1.00  0.00     0.008 C 
ATOM      6  C   UNL     1      11.953  12.923  30.875  1.00  0.00    -0.000 C 
ATOM      7  C   UNL     1      10.478  13.375  30.698  1.00  0.00     0.005 C 
ATOM      8  C   UNL     1       9.453  12.472  31.437  1.00  0.00     0.005 C 
ATOM      9  C   UNL     1      10.031  11.094  31.869  1.00  0.00     0.002 C 
ATOM     10  C   UNL     1       9.044  10.084  32.660  1.00  0.00    -0.026 C 
ATOM     11  C   UNL     1       7.694  10.781  33.034  1.00  0.00     0.010 C 
ATOM     12  C   UNL     1       6.638   9.842  33.642  1.00  0.00     0.033 C 
ATOM     13  C   UNL     1       6.328   8.641  32.727  1.00  0.00     0.120 C 
ATOM     14  C   UNL     1       7.611   7.827  32.352  1.00  0.00    -0.006 C 
ATOM     15  C   UNL     1       8.709   8.820  31.785  1.00  0.00     0.003 C 
ATOM     16  C   UNL     1       9.958   8.113  31.178  1.00  0.00     0.005 C 
ATOM     17  C   UNL     1      11.206   9.003  31.027  1.00  0.00     0.008 C 
ATOM     18  C   UNL     1      10.900  10.493  30.693  1.00  0.00    -0.024 C 
ATOM     19  C   UNL     1      12.260  11.379  30.558  1.00  0.00    -0.024 C 
ATOM     20  C   UNL     1      12.967  11.158  29.149  1.00  0.00     0.008 C 
ATOM     21  C   UNL     1      14.026  12.212  28.756  1.00  0.00     0.010 C 
ATOM     22  C   UNL     1      13.323  10.923  31.617  1.00  0.00     0.012 C 
ATOM     23  C   UNL     1      10.097  10.509  29.339  1.00  0.00     0.012 C 
ATOM     24  C   UNL     1       8.068   6.983  33.581  1.00  0.00     0.014 C 
ATOM     25  C   UNL     1       7.228   6.811  31.236  1.00  0.00     0.014 C 
ATOM     26  C   UNL     1       9.752   9.678  33.994  1.00  0.00     0.012 C 
ENDROOT
BRANCH   1  27
ATOM     27  C   UNL     1      13.010  15.929  31.831  1.00  0.00    -0.077 C 
ATOM     28  C   UNL     1      13.884  17.125  32.110  1.00  0.00     0.039 C 
ATOM     29  C   UNL     1      12.377  15.345  32.864  1.00  0.00     0.008 C 
ENDBRANCH   1  27
BRANCH   4  30
ATOM     30  C   UNL     1      12.299  13.841  27.783  1.00  0.00     0.163 C 
BRANCH  30  31
ATOM     31  O   UNL     1      12.736  14.651  26.723  1.00  0.00    -0.396 OA
ATOM     32  H   UNL     1      11.951  14.833  26.144  1.00  0.00     0.210 HD
ENDBRANCH  30  31
ENDBRANCH   4  30
BRANCH  13  33
ATOM     33  O   UNL     1       5.687   9.106  31.562  1.00  0.00    -0.393 OA
ATOM     34  H   UNL     1       6.374   9.573  31.018  1.00  0.00     0.210 HD
ENDBRANCH  13  33
TORSDOF 4
ENDMDL
MODEL 2
REMARK VINA RESULT:    96.468      1.726      3.461
REMARK INTER + INTRA:         113.345
REMARK INTER:                 113.459
REMARK INTRA:                  -0.113
REMARK UNBOUND:                -0.041
REMARK SMILES C=C(C)[C@H]1CC[C@@]2(CO)CC[C@@]3(C)[C@H](CC[C@H]4[C@@]5(C)CC[C@@H](O)C(C)(C)[C@@H]5CC[C@@]43C)[C@H]12
REMARK SMILES IDX 4 1 5 2 6 3 7 4 32 5 14 6 15 7 16 8 17 9 18 10 20 11 21 12
REMARK SMILES IDX 22 13 24 14 27 15 28 16 29 17 30 18 12 19 11 20 10 21 13 22
REMARK SMILES IDX 31 23 25 24 26 25 19 26 2 27 3 28 1 29 8 30 9 31 23 33
REMARK H PARENT 9 32 23 34
REMARK Flexibility Score: inf
ROOT
ATOM      1  C   UNL     1      12.307  13.491  27.004  1.00  0.00     0.018 C 
ATOM      2  C   UNL     1      13.584  14.344  26.812  1.00  0.00     0.009 C 
ATOM      3  C   UNL     1      14.147  14.617  28.222  1.00  0.00     0.010 C 
ATOM      4  C   UNL     1      13.475  13.575  29.137  1.00  0.00    -0.003 C 
ATOM      5  C   UNL     1      12.075  13.521  28.521  1.00  0.00     0.008 C 
ATOM      6  C   UNL     1      11.059  12.550  29.189  1.00  0.00    -0.000 C 
ATOM      7  C   UNL     1      11.034  11.107  28.617  1.00  0.00     0.005 C 
ATOM      8  C   UNL     1       9.900  10.221  29.201  1.00  0.00     0.005 C 
ATOM      9  C   UNL     1       9.268  10.791  30.504  1.00  0.00     0.002 C 
ATOM     10  C   UNL     1       8.067   9.947  31.183  1.00  0.00    -0.026 C 
ATOM     11  C   UNL     1       7.606   8.767  30.265  1.00  0.00     0.010 C 
ATOM     12  C   UNL     1       6.581   7.819  30.909  1.00  0.00     0.033 C 
ATOM     13  C   UNL     1       7.085   7.230  32.241  1.00  0.00     0.120 C 
ATOM     14  C   UNL     1       7.504   8.337  33.265  1.00  0.00    -0.006 C 
ATOM     15  C   UNL     1       8.513   9.339  32.564  1.00  0.00     0.003 C 
ATOM     16  C   UNL     1       9.170  10.367  33.534  1.00  0.00     0.005 C 
ATOM     17  C   UNL     1       9.791  11.603  32.855  1.00  0.00     0.008 C 
ATOM     18  C   UNL     1      10.412  11.327  31.454  1.00  0.00    -0.024 C 
ATOM     19  C   UNL     1      11.040  12.674  30.790  1.00  0.00    -0.024 C 
ATOM     20  C   UNL     1      12.465  13.025  31.407  1.00  0.00     0.008 C 
ATOM     21  C   UNL     1      13.317  14.032  30.603  1.00  0.00     0.010 C 
ATOM     22  C   UNL     1      10.144  13.920  31.116  1.00  0.00     0.012 C 
ATOM     23  C   UNL     1      11.532  10.238  31.651  1.00  0.00     0.012 C 
ATOM     24  C   UNL     1       6.225   9.008  33.856  1.00  0.00     0.014 C 
ATOM     25  C   UNL     1       8.229   7.644  34.455  1.00  0.00     0.014 C 
ATOM     26  C   UNL     1       6.849  10.914  31.357  1.00  0.00     0.012 C 
ENDROOT
BRANCH   1  27
ATOM     27  C   UNL     1      11.116  13.992  26.191  1.00  0.00    -0.077 C 
ATOM     28  C   UNL     1      11.290  15.136  25.226  1.00  0.00     0.039 C 
ATOM     29  C   UNL     1       9.895  13.441  26.316  1.00  0.00     0.008 C 
ENDBRANCH   1  27
BRANCH   4  30
ATOM     30  C   UNL     1      14.284  12.239  29.044  1.00  0.00     0.163 C 
BRANCH  30  31
ATOM     31  O   UNL     1      15.603  12.483  28.627  1.00  0.00    -0.396 OA
ATOM     32  H   UNL     1      16.107  11.633  28.720  1.00  0.00     0.210 HD
ENDBRANCH  30  31
ENDBRANCH   4  30
BRANCH  13  33
ATOM     33  O   UNL     1       8.171   6.372  31.980  1.00  0.00    -0.393 OA
ATOM     34  H   UNL     1       8.942   6.709  32.506  1.00  0.00     0.210 HD
ENDBRANCH  13  33
TORSDOF 4
ENDMDL
