MODEL 1
REMARK VINA RESULT:    -6.135      0.000      0.000
REMARK INTER + INTRA:         -15.539
REMARK INTER:                 -13.309
REMARK INTRA:                  -2.230
REMARK UNBOUND:                -2.230
REMARK SMILES CCCCCCCCCCCCCCCCCCCCCC(=O)[O-]
REMARK SMILES IDX 12 1 11 2 10 3 9 4 8 5 7 6 6 7 5 8 4 9 3 10 2 11 1 12 13 13
REMARK SMILES IDX 14 14 15 15 16 16 17 17 18 18 19 19 20 20 21 21 22 22 23 23
REMARK SMILES IDX 24 24
REMARK H PARENT
REMARK Flexibility Score: inf
ROOT
ATOM      1  C   UNL     1      15.583  22.480  16.838  1.00  0.00     0.000 C 
ENDROOT
BRANCH   1   2
ATOM      2  C   UNL     1      14.491  23.282  17.570  1.00  0.00     0.000 C 
BRANCH   2   3
ATOM      3  C   UNL     1      13.924  22.610  18.835  1.00  0.00     0.000 C 
BRANCH   3   4
ATOM      4  C   UNL     1      14.231  21.107  18.906  1.00  0.00    -0.000 C 
BRANCH   4   5
ATOM      5  C   UNL     1      15.100  20.780  20.131  1.00  0.00    -0.000 C 
BRANCH   5   6
ATOM      6  C   UNL     1      15.662  19.343  20.083  1.00  0.00    -0.000 C 
BRANCH   6   7
ATOM      7  C   UNL     1      16.499  19.049  18.827  1.00  0.00    -0.000 C 
BRANCH   7   8
ATOM      8  C   UNL     1      17.697  20.000  18.672  1.00  0.00    -0.000 C 
BRANCH   8   9
ATOM      9  C   UNL     1      18.100  20.211  17.204  1.00  0.00    -0.000 C 
BRANCH   9  10
ATOM     10  C   UNL     1      17.448  19.189  16.261  1.00  0.00    -0.000 C 
BRANCH  10  11
ATOM     11  C   UNL     1      18.481  18.601  15.292  1.00  0.00    -0.003 C 
ATOM     12  C   UNL     1      18.648  19.488  14.062  1.00  0.00     0.004 C 
ENDBRANCH  10  11
ENDBRANCH   9  10
ENDBRANCH   8   9
ENDBRANCH   7   8
ENDBRANCH   6   7
ENDBRANCH   5   6
ENDBRANCH   4   5
ENDBRANCH   3   4
ENDBRANCH   2   3
ENDBRANCH   1   2
BRANCH   1  13
ATOM     13  C   UNL     1      15.388  22.450  15.316  1.00  0.00     0.000 C 
BRANCH  13  14
ATOM     14  C   UNL     1      14.773  21.114  14.869  1.00  0.00     0.000 C 
BRANCH  14  15
ATOM     15  C   UNL     1      14.692  20.977  13.341  1.00  0.00     0.000 C 
BRANCH  15  16
ATOM     16  C   UNL     1      15.752  21.823  12.614  1.00  0.00     0.000 C 
BRANCH  16  17
ATOM     17  C   UNL     1      15.915  21.427  11.138  1.00  0.00     0.000 C 
BRANCH  17  18
ATOM     18  C   UNL     1      17.081  20.450  10.909  1.00  0.00     0.000 C 
BRANCH  18  19
ATOM     19  C   UNL     1      18.053  20.947   9.818  1.00  0.00     0.000 C 
BRANCH  19  20
ATOM     20  C   UNL     1      18.203  19.972   8.638  1.00  0.00     0.006 C 
BRANCH  20  21
ATOM     21  C   UNL     1      18.567  20.675   7.325  1.00  0.00     0.053 C 
BRANCH  21  22
ATOM     22  C   UNL     1      20.023  20.508   7.029  1.00  0.00     0.041 C 
ATOM     23  O   UNL     1      20.755  21.518   6.862  1.00  0.00    -0.550 OA
ATOM     24  O   UNL     1      20.563  19.234   6.889  1.00  0.00    -0.550 OA
ENDBRANCH  21  22
ENDBRANCH  20  21
ENDBRANCH  19  20
ENDBRANCH  18  19
ENDBRANCH  17  18
ENDBRANCH  16  17
ENDBRANCH  15  16
ENDBRANCH  14  15
ENDBRANCH  13  14
ENDBRANCH   1  13
TORSDOF 20
ENDMDL
MODEL 2
REMARK VINA RESULT:    -5.959      2.510      7.770
REMARK INTER + INTRA:         -15.156
REMARK INTER:                 -13.224
REMARK INTRA:                  -1.932
REMARK UNBOUND:                -2.230
REMARK SMILES CCCCCCCCCCCCCCCCCCCCCC(=O)[O-]
REMARK SMILES IDX 12 1 11 2 10 3 9 4 8 5 7 6 6 7 5 8 4 9 3 10 2 11 1 12 13 13
REMARK SMILES IDX 14 14 15 15 16 16 17 17 18 18 19 19 20 20 21 21 22 22 23 23
REMARK SMILES IDX 24 24
REMARK H PARENT
REMARK Flexibility Score: inf
ROOT
ATOM      1  C   UNL     1      15.633  22.225  15.669  1.00  0.00     0.000 C 
ENDROOT
BRANCH   1   2
ATOM      2  C   UNL     1      14.376  21.889  14.847  1.00  0.00     0.000 C 
BRANCH   2   3
ATOM      3  C   UNL     1      14.641  21.169  13.512  1.00  0.00     0.000 C 
BRANCH   3   4
ATOM      4  C   UNL     1      15.858  21.727  12.760  1.00  0.00    -0.000 C 
BRANCH   4   5
ATOM      5  C   UNL     1      15.825  21.318  11.279  1.00  0.00    -0.000 C 
BRANCH   5   6
ATOM      6  C   UNL     1      16.917  20.283  10.932  1.00  0.00    -0.000 C 
BRANCH   6   7
ATOM      7  C   UNL     1      18.049  20.850  10.059  1.00  0.00    -0.000 C 
BRANCH   7   8
ATOM      8  C   UNL     1      18.082  20.234   8.651  1.00  0.00    -0.000 C 
BRANCH   8   9
ATOM      9  C   UNL     1      18.730  21.164   7.613  1.00  0.00    -0.000 C 
BRANCH   9  10
ATOM     10  C   UNL     1      19.557  20.399   6.570  1.00  0.00    -0.000 C 
BRANCH  10  11
ATOM     11  C   UNL     1      20.987  20.162   7.072  1.00  0.00    -0.003 C 
ATOM     12  C   UNL     1      21.640  18.993   6.341  1.00  0.00     0.004 C 
ENDBRANCH  10  11
ENDBRANCH   9  10
ENDBRANCH   8   9
ENDBRANCH   7   8
ENDBRANCH   6   7
ENDBRANCH   5   6
ENDBRANCH   4   5
ENDBRANCH   3   4
ENDBRANCH   2   3
ENDBRANCH   1   2
BRANCH   1  13
ATOM     13  C   UNL     1      15.313  22.913  17.004  1.00  0.00     0.000 C 
BRANCH  13  14
ATOM     14  C   UNL     1      13.965  22.428  17.560  1.00  0.00     0.000 C 
BRANCH  14  15
ATOM     15  C   UNL     1      14.093  21.147  18.399  1.00  0.00     0.000 C 
BRANCH  15  16
ATOM     16  C   UNL     1      14.715  21.406  19.782  1.00  0.00     0.000 C 
BRANCH  16  17
ATOM     17  C   UNL     1      15.890  20.462  20.089  1.00  0.00     0.000 C 
BRANCH  17  18
ATOM     18  C   UNL     1      16.446  19.777  18.829  1.00  0.00     0.000 C 
BRANCH  18  19
ATOM     19  C   UNL     1      17.918  20.157  18.560  1.00  0.00     0.000 C 
BRANCH  19  20
ATOM     20  C   UNL     1      18.573  19.325  17.444  1.00  0.00     0.006 C 
BRANCH  20  21
ATOM     21  C   UNL     1      18.732  20.104  16.134  1.00  0.00     0.053 C 
BRANCH  21  22
ATOM     22  C   UNL     1      18.074  19.373  15.007  1.00  0.00     0.041 C 
ATOM     23  O   UNL     1      18.677  19.222  13.913  1.00  0.00    -0.550 OA
ATOM     24  O   UNL     1      16.775  18.900  15.150  1.00  0.00    -0.550 OA
ENDBRANCH  21  22
ENDBRANCH  20  21
ENDBRANCH  19  20
ENDBRANCH  18  19
ENDBRANCH  17  18
ENDBRANCH  16  17
ENDBRANCH  15  16
ENDBRANCH  14  15
ENDBRANCH  13  14
ENDBRANCH   1  13
TORSDOF 20
ENDMDL
MODEL 3
REMARK VINA RESULT:    -5.903      3.009      6.219
REMARK INTER + INTRA:         -15.035
REMARK INTER:                 -12.235
REMARK INTRA:                  -2.800
REMARK UNBOUND:                -2.230
REMARK SMILES CCCCCCCCCCCCCCCCCCCCCC(=O)[O-]
REMARK SMILES IDX 12 1 11 2 10 3 9 4 8 5 7 6 6 7 5 8 4 9 3 10 2 11 1 12 13 13
REMARK SMILES IDX 14 14 15 15 16 16 17 17 18 18 19 19 20 20 21 21 22 22 23 23
REMARK SMILES IDX 24 24
REMARK H PARENT
REMARK Flexibility Score: inf
ROOT
ATOM      1  C   UNL     1      14.963  21.289  19.341  1.00  0.00     0.000 C 
ENDROOT
BRANCH   1   2
ATOM      2  C   UNL     1      13.916  22.083  18.538  1.00  0.00     0.000 C 
BRANCH   2   3
ATOM      3  C   UNL     1      14.493  23.127  17.565  1.00  0.00     0.000 C 
BRANCH   3   4
ATOM      4  C   UNL     1      15.457  22.521  16.534  1.00  0.00    -0.000 C 
BRANCH   4   5
ATOM      5  C   UNL     1      14.801  21.346  15.791  1.00  0.00    -0.000 C 
BRANCH   5   6
ATOM      6  C   UNL     1      14.343  21.735  14.369  1.00  0.00    -0.000 C 
BRANCH   6   7
ATOM      7  C   UNL     1      15.380  22.563  13.592  1.00  0.00    -0.000 C 
BRANCH   7   8
ATOM      8  C   UNL     1      15.763  21.927  12.246  1.00  0.00    -0.000 C 
BRANCH   8   9
ATOM      9  C   UNL     1      16.282  20.488  12.398  1.00  0.00    -0.000 C 
BRANCH   9  10
ATOM     10  C   UNL     1      17.573  20.239  11.603  1.00  0.00    -0.000 C 
BRANCH  10  11
ATOM     11  C   UNL     1      17.590  21.071  10.314  1.00  0.00    -0.003 C 
ATOM     12  C   UNL     1      18.043  20.231   9.124  1.00  0.00     0.004 C 
ENDBRANCH  10  11
ENDBRANCH   9  10
ENDBRANCH   8   9
ENDBRANCH   7   8
ENDBRANCH   6   7
ENDBRANCH   5   6
ENDBRANCH   4   5
ENDBRANCH   3   4
ENDBRANCH   2   3
ENDBRANCH   1   2
BRANCH   1  13
ATOM     13  C   UNL     1      14.469  19.896  19.759  1.00  0.00     0.000 C 
BRANCH  13  14
ATOM     14  C   UNL     1      13.875  19.143  18.559  1.00  0.00     0.000 C 
BRANCH  14  15
ATOM     15  C   UNL     1      14.689  17.897  18.176  1.00  0.00     0.000 C 
BRANCH  15  16
ATOM     16  C   UNL     1      16.200  18.087  18.396  1.00  0.00     0.000 C 
BRANCH  16  17
ATOM     17  C   UNL     1      16.970  18.286  17.080  1.00  0.00     0.000 C 
BRANCH  17  18
ATOM     18  C   UNL     1      17.815  19.572  17.075  1.00  0.00     0.000 C 
BRANCH  18  19
ATOM     19  C   UNL     1      18.198  20.012  15.646  1.00  0.00     0.000 C 
BRANCH  19  20
ATOM     20  C   UNL     1      19.151  19.035  14.937  1.00  0.00     0.006 C 
BRANCH  20  21
ATOM     21  C   UNL     1      20.480  18.851  15.680  1.00  0.00     0.053 C 
BRANCH  21  22
ATOM     22  C   UNL     1      20.753  17.399  15.911  1.00  0.00     0.041 C 
ATOM     23  O   UNL     1      21.909  16.936  15.727  1.00  0.00    -0.550 OA
ATOM     24  O   UNL     1      19.719  16.547  16.283  1.00  0.00    -0.550 OA
ENDBRANCH  21  22
ENDBRANCH  20  21
ENDBRANCH  19  20
ENDBRANCH  18  19
ENDBRANCH  17  18
ENDBRANCH  16  17
ENDBRANCH  15  16
ENDBRANCH  14  15
ENDBRANCH  13  14
ENDBRANCH   1  13
TORSDOF 20
ENDMDL
MODEL 4
REMARK VINA RESULT:    -5.898      1.121      3.717
REMARK INTER + INTRA:         -15.023
REMARK INTER:                 -12.619
REMARK INTRA:                  -2.405
REMARK UNBOUND:                -2.230
REMARK SMILES CCCCCCCCCCCCCCCCCCCCCC(=O)[O-]
REMARK SMILES IDX 12 1 11 2 10 3 9 4 8 5 7 6 6 7 5 8 4 9 3 10 2 11 1 12 13 13
REMARK SMILES IDX 14 14 15 15 16 16 17 17 18 18 19 19 20 20 21 21 22 22 23 23
REMARK SMILES IDX 24 24
REMARK H PARENT
REMARK Flexibility Score: inf
ROOT
ATOM      1  C   UNL     1      17.868  18.714  17.980  1.00  0.00     0.000 C 
ENDROOT
BRANCH   1   2
ATOM      2  C   UNL     1      16.851  17.641  17.552  1.00  0.00     0.000 C 
BRANCH   2   3
ATOM      3  C   UNL     1      15.373  18.021  17.760  1.00  0.00     0.000 C 
BRANCH   3   4
ATOM      4  C   UNL     1      15.129  18.794  19.065  1.00  0.00    -0.000 C 
BRANCH   4   5
ATOM      5  C   UNL     1      14.183  19.982  18.832  1.00  0.00    -0.000 C 
BRANCH   5   6
ATOM      6  C   UNL     1      14.849  21.335  19.163  1.00  0.00    -0.000 C 
BRANCH   6   7
ATOM      7  C   UNL     1      14.102  22.549  18.585  1.00  0.00    -0.000 C 
BRANCH   7   8
ATOM      8  C   UNL     1      14.001  22.512  17.052  1.00  0.00    -0.000 C 
BRANCH   8   9
ATOM      9  C   UNL     1      15.371  22.628  16.366  1.00  0.00    -0.000 C 
BRANCH   9  10
ATOM     10  C   UNL     1      15.861  21.288  15.796  1.00  0.00    -0.000 C 
BRANCH  10  11
ATOM     11  C   UNL     1      15.303  21.056  14.386  1.00  0.00    -0.003 C 
ATOM     12  C   UNL     1      15.356  22.335  13.557  1.00  0.00     0.004 C 
ENDBRANCH  10  11
ENDBRANCH   9  10
ENDBRANCH   8   9
ENDBRANCH   7   8
ENDBRANCH   6   7
ENDBRANCH   5   6
ENDBRANCH   4   5
ENDBRANCH   3   4
ENDBRANCH   2   3
ENDBRANCH   1   2
BRANCH   1  13
ATOM     13  C   UNL     1      18.911  19.020  16.896  1.00  0.00     0.000 C 
BRANCH  13  14
ATOM     14  C   UNL     1      19.176  17.782  16.026  1.00  0.00     0.000 C 
BRANCH  14  15
ATOM     15  C   UNL     1      19.451  18.135  14.556  1.00  0.00     0.000 C 
BRANCH  15  16
ATOM     16  C   UNL     1      18.620  19.336  14.071  1.00  0.00     0.000 C 
BRANCH  16  17
ATOM     17  C   UNL     1      18.064  19.136  12.652  1.00  0.00     0.000 C 
BRANCH  17  18
ATOM     18  C   UNL     1      17.971  20.453  11.860  1.00  0.00     0.000 C 
BRANCH  18  19
ATOM     19  C   UNL     1      17.360  20.247  10.457  1.00  0.00     0.000 C 
BRANCH  19  20
ATOM     20  C   UNL     1      18.189  20.884   9.327  1.00  0.00     0.006 C 
BRANCH  20  21
ATOM     21  C   UNL     1      18.334  19.970   8.105  1.00  0.00     0.053 C 
BRANCH  21  22
ATOM     22  C   UNL     1      19.510  20.385   7.279  1.00  0.00     0.041 C 
ATOM     23  O   UNL     1      20.356  19.529   6.909  1.00  0.00    -0.550 OA
ATOM     24  O   UNL     1      19.697  21.724   6.959  1.00  0.00    -0.550 OA
ENDBRANCH  21  22
ENDBRANCH  20  21
ENDBRANCH  19  20
ENDBRANCH  18  19
ENDBRANCH  17  18
ENDBRANCH  16  17
ENDBRANCH  15  16
ENDBRANCH  14  15
ENDBRANCH  13  14
ENDBRANCH   1  13
TORSDOF 20
ENDMDL
MODEL 5
REMARK VINA RESULT:    -5.803      3.737      7.321
REMARK INTER + INTRA:         -14.818
REMARK INTER:                 -11.925
REMARK INTRA:                  -2.893
REMARK UNBOUND:                -2.230
REMARK SMILES CCCCCCCCCCCCCCCCCCCCCC(=O)[O-]
REMARK SMILES IDX 12 1 11 2 10 3 9 4 8 5 7 6 6 7 5 8 4 9 3 10 2 11 1 12 13 13
REMARK SMILES IDX 14 14 15 15 16 16 17 17 18 18 19 19 20 20 21 21 22 22 23 23
REMARK SMILES IDX 24 24
REMARK H PARENT
REMARK Flexibility Score: inf
ROOT
ATOM      1  C   UNL     1      14.211  21.705  15.446  1.00  0.00     0.000 C 
ENDROOT
BRANCH   1   2
ATOM      2  C   UNL     1      14.418  21.506  13.934  1.00  0.00     0.000 C 
BRANCH   2   3
ATOM      3  C   UNL     1      15.746  22.053  13.378  1.00  0.00     0.000 C 
BRANCH   3   4
ATOM      4  C   UNL     1      15.909  21.816  11.869  1.00  0.00    -0.000 C 
BRANCH   4   5
ATOM      5  C   UNL     1      16.977  20.747  11.591  1.00  0.00    -0.000 C 
BRANCH   5   6
ATOM      6  C   UNL     1      17.727  20.322  12.872  1.00  0.00    -0.000 C 
BRANCH   6   7
ATOM      7  C   UNL     1      17.860  18.798  13.032  1.00  0.00    -0.000 C 
BRANCH   7   8
ATOM      8  C   UNL     1      19.052  18.393  13.915  1.00  0.00    -0.000 C 
BRANCH   8   9
ATOM      9  C   UNL     1      19.458  19.497  14.904  1.00  0.00    -0.000 C 
BRANCH   9  10
ATOM     10  C   UNL     1      20.192  18.945  16.135  1.00  0.00    -0.000 C 
BRANCH  10  11
ATOM     11  C   UNL     1      20.776  17.556  15.847  1.00  0.00    -0.003 C 
ATOM     12  C   UNL     1      22.254  17.493  16.219  1.00  0.00     0.004 C 
ENDBRANCH  10  11
ENDBRANCH   9  10
ENDBRANCH   8   9
ENDBRANCH   7   8
ENDBRANCH   6   7
ENDBRANCH   5   6
ENDBRANCH   4   5
ENDBRANCH   3   4
ENDBRANCH   2   3
ENDBRANCH   1   2
BRANCH   1  13
ATOM     13  C   UNL     1      15.301  22.572  16.093  1.00  0.00     0.000 C 
BRANCH  13  14
ATOM     14  C   UNL     1      14.751  23.318  17.319  1.00  0.00     0.000 C 
BRANCH  14  15
ATOM     15  C   UNL     1      14.022  22.390  18.303  1.00  0.00     0.000 C 
BRANCH  15  16
ATOM     16  C   UNL     1      14.617  22.448  19.721  1.00  0.00     0.000 C 
BRANCH  16  17
ATOM     17  C   UNL     1      14.669  21.069  20.398  1.00  0.00     0.000 C 
BRANCH  17  18
ATOM     18  C   UNL     1      15.080  19.946  19.428  1.00  0.00     0.000 C 
BRANCH  18  19
ATOM     19  C   UNL     1      16.612  19.803  19.318  1.00  0.00     0.000 C 
BRANCH  19  20
ATOM     20  C   UNL     1      17.141  19.949  17.880  1.00  0.00     0.006 C 
BRANCH  20  21
ATOM     21  C   UNL     1      16.310  19.168  16.856  1.00  0.00     0.053 C 
BRANCH  21  22
ATOM     22  C   UNL     1      16.342  17.705  17.163  1.00  0.00     0.041 C 
ATOM     23  O   UNL     1      17.412  17.055  17.032  1.00  0.00    -0.550 OA
ATOM     24  O   UNL     1      15.179  17.049  17.548  1.00  0.00    -0.550 OA
ENDBRANCH  21  22
ENDBRANCH  20  21
ENDBRANCH  19  20
ENDBRANCH  18  19
ENDBRANCH  17  18
ENDBRANCH  16  17
ENDBRANCH  15  16
ENDBRANCH  14  15
ENDBRANCH  13  14
ENDBRANCH   1  13
TORSDOF 20
ENDMDL
MODEL 6
REMARK VINA RESULT:    -5.755     11.578     15.440
REMARK INTER + INTRA:         -14.715
REMARK INTER:                 -12.173
REMARK INTRA:                  -2.542
REMARK UNBOUND:                -2.230
REMARK SMILES CCCCCCCCCCCCCCCCCCCCCC(=O)[O-]
REMARK SMILES IDX 12 1 11 2 10 3 9 4 8 5 7 6 6 7 5 8 4 9 3 10 2 11 1 12 13 13
REMARK SMILES IDX 14 14 15 15 16 16 17 17 18 18 19 19 20 20 21 21 22 22 23 23
REMARK SMILES IDX 24 24
REMARK H PARENT
REMARK Flexibility Score: inf
ROOT
ATOM      1  C   UNL     1      32.813  18.027   9.614  1.00  0.00     0.000 C 
ENDROOT
BRANCH   1   2
ATOM      2  C   UNL     1      34.088  18.797  10.003  1.00  0.00     0.000 C 
BRANCH   2   3
ATOM      3  C   UNL     1      33.875  19.953  10.998  1.00  0.00     0.000 C 
BRANCH   3   4
ATOM      4  C   UNL     1      33.993  21.338  10.343  1.00  0.00    -0.000 C 
BRANCH   4   5
ATOM      5  C   UNL     1      33.517  21.299   8.882  1.00  0.00    -0.000 C 
BRANCH   5   6
ATOM      6  C   UNL     1      32.011  21.609   8.748  1.00  0.00    -0.000 C 
BRANCH   6   7
ATOM      7  C   UNL     1      31.465  22.512   9.867  1.00  0.00    -0.000 C 
BRANCH   7   8
ATOM      8  C   UNL     1      30.133  22.005  10.445  1.00  0.00    -0.000 C 
BRANCH   8   9
ATOM      9  C   UNL     1      29.411  21.031   9.501  1.00  0.00    -0.000 C 
BRANCH   9  10
ATOM     10  C   UNL     1      29.246  19.631  10.112  1.00  0.00    -0.000 C 
BRANCH  10  11
ATOM     11  C   UNL     1      29.996  19.524  11.445  1.00  0.00    -0.003 C 
ATOM     12  C   UNL     1      29.025  19.388  12.613  1.00  0.00     0.004 C 
ENDBRANCH  10  11
ENDBRANCH   9  10
ENDBRANCH   8   9
ENDBRANCH   7   8
ENDBRANCH   6   7
ENDBRANCH   5   6
ENDBRANCH   4   5
ENDBRANCH   3   4
ENDBRANCH   2   3
ENDBRANCH   1   2
BRANCH   1  13
ATOM     13  C   UNL     1      33.070  16.920   8.582  1.00  0.00     0.000 C 
BRANCH  13  14
ATOM     14  C   UNL     1      31.936  16.862   7.546  1.00  0.00     0.000 C 
BRANCH  14  15
ATOM     15  C   UNL     1      31.117  18.161   7.488  1.00  0.00     0.000 C 
BRANCH  15  16
ATOM     16  C   UNL     1      30.251  18.258   6.220  1.00  0.00     0.000 C 
BRANCH  16  17
ATOM     17  C   UNL     1      29.046  17.304   6.252  1.00  0.00     0.000 C 
BRANCH  17  18
ATOM     18  C   UNL     1      27.864  17.866   7.062  1.00  0.00     0.000 C 
BRANCH  18  19
ATOM     19  C   UNL     1      26.910  18.710   6.191  1.00  0.00     0.000 C 
BRANCH  19  20
ATOM     20  C   UNL     1      25.645  17.950   5.752  1.00  0.00     0.006 C 
BRANCH  20  21
ATOM     21  C   UNL     1      24.490  18.884   5.373  1.00  0.00     0.053 C 
BRANCH  21  22
ATOM     22  C   UNL     1      23.176  18.244   5.690  1.00  0.00     0.041 C 
ATOM     23  O   UNL     1      22.180  18.956   5.985  1.00  0.00    -0.550 OA
ATOM     24  O   UNL     1      23.063  16.859   5.708  1.00  0.00    -0.550 OA
ENDBRANCH  21  22
ENDBRANCH  20  21
ENDBRANCH  19  20
ENDBRANCH  18  19
ENDBRANCH  17  18
ENDBRANCH  16  17
ENDBRANCH  15  16
ENDBRANCH  14  15
ENDBRANCH  13  14
ENDBRANCH   1  13
TORSDOF 20
ENDMDL
MODEL 7
REMARK VINA RESULT:    -5.649      1.375      3.722
REMARK INTER + INTRA:         -14.484
REMARK INTER:                 -12.660
REMARK INTRA:                  -1.824
REMARK UNBOUND:                -2.230
REMARK SMILES CCCCCCCCCCCCCCCCCCCCCC(=O)[O-]
REMARK SMILES IDX 12 1 11 2 10 3 9 4 8 5 7 6 6 7 5 8 4 9 3 10 2 11 1 12 13 13
REMARK SMILES IDX 14 14 15 15 16 16 17 17 18 18 19 19 20 20 21 21 22 22 23 23
REMARK SMILES IDX 24 24
REMARK H PARENT
REMARK Flexibility Score: inf
ROOT
ATOM      1  C   UNL     1      17.631  19.218  15.733  1.00  0.00     0.000 C 
ENDROOT
BRANCH   1   2
ATOM      2  C   UNL     1      17.960  18.087  16.724  1.00  0.00     0.000 C 
BRANCH   2   3
ATOM      3  C   UNL     1      17.363  18.260  18.134  1.00  0.00     0.000 C 
BRANCH   3   4
ATOM      4  C   UNL     1      16.211  19.275  18.179  1.00  0.00    -0.000 C 
BRANCH   4   5
ATOM      5  C   UNL     1      16.238  20.081  19.487  1.00  0.00    -0.000 C 
BRANCH   5   6
ATOM      6  C   UNL     1      15.159  21.185  19.517  1.00  0.00    -0.000 C 
BRANCH   6   7
ATOM      7  C   UNL     1      14.381  21.324  18.197  1.00  0.00    -0.000 C 
BRANCH   7   8
ATOM      8  C   UNL     1      14.780  22.576  17.399  1.00  0.00    -0.000 C 
BRANCH   8   9
ATOM      9  C   UNL     1      15.279  22.242  15.985  1.00  0.00    -0.000 C 
BRANCH   9  10
ATOM     10  C   UNL     1      14.181  21.631  15.101  1.00  0.00    -0.000 C 
BRANCH  10  11
ATOM     11  C   UNL     1      14.701  21.377  13.680  1.00  0.00    -0.003 C 
ATOM     12  C   UNL     1      15.584  22.526  13.204  1.00  0.00     0.004 C 
ENDBRANCH  10  11
ENDBRANCH   9  10
ENDBRANCH   8   9
ENDBRANCH   7   8
ENDBRANCH   6   7
ENDBRANCH   5   6
ENDBRANCH   4   5
ENDBRANCH   3   4
ENDBRANCH   2   3
ENDBRANCH   1   2
BRANCH   1  13
ATOM     13  C   UNL     1      18.558  19.232  14.509  1.00  0.00     0.000 C 
BRANCH  13  14
ATOM     14  C   UNL     1      17.748  19.119  13.208  1.00  0.00     0.000 C 
BRANCH  14  15
ATOM     15  C   UNL     1      18.155  20.168  12.161  1.00  0.00     0.000 C 
BRANCH  15  16
ATOM     16  C   UNL     1      17.474  19.940  10.800  1.00  0.00     0.000 C 
BRANCH  16  17
ATOM     17  C   UNL     1      17.986  20.900   9.714  1.00  0.00     0.000 C 
BRANCH  17  18
ATOM     18  C   UNL     1      18.020  20.254   8.317  1.00  0.00     0.000 C 
BRANCH  18  19
ATOM     19  C   UNL     1      19.298  20.622   7.535  1.00  0.00     0.000 C 
BRANCH  19  20
ATOM     20  C   UNL     1      20.131  19.401   7.108  1.00  0.00     0.006 C 
BRANCH  20  21
ATOM     21  C   UNL     1      21.414  19.784   6.363  1.00  0.00     0.053 C 
BRANCH  21  22
ATOM     22  C   UNL     1      22.293  18.587   6.186  1.00  0.00     0.041 C 
ATOM     23  O   UNL     1      23.452  18.717   5.713  1.00  0.00    -0.550 OA
ATOM     24  O   UNL     1      21.814  17.320   6.498  1.00  0.00    -0.550 OA
ENDBRANCH  21  22
ENDBRANCH  20  21
ENDBRANCH  19  20
ENDBRANCH  18  19
ENDBRANCH  17  18
ENDBRANCH  16  17
ENDBRANCH  15  16
ENDBRANCH  14  15
ENDBRANCH  13  14
ENDBRANCH   1  13
TORSDOF 20
ENDMDL
MODEL 8
REMARK VINA RESULT:    -5.623      2.269      4.924
REMARK INTER + INTRA:         -14.428
REMARK INTER:                 -11.414
REMARK INTRA:                  -3.014
REMARK UNBOUND:                -2.230
REMARK SMILES CCCCCCCCCCCCCCCCCCCCCC(=O)[O-]
REMARK SMILES IDX 12 1 11 2 10 3 9 4 8 5 7 6 6 7 5 8 4 9 3 10 2 11 1 12 13 13
REMARK SMILES IDX 14 14 15 15 16 16 17 17 18 18 19 19 20 20 21 21 22 22 23 23
REMARK SMILES IDX 24 24
REMARK H PARENT
REMARK Flexibility Score: inf
ROOT
ATOM      1  C   UNL     1      20.033  18.230  16.240  1.00  0.00     0.000 C 
ENDROOT
BRANCH   1   2
ATOM      2  C   UNL     1      18.980  17.108  16.207  1.00  0.00     0.000 C 
BRANCH   2   3
ATOM      3  C   UNL     1      17.950  17.144  17.351  1.00  0.00     0.000 C 
BRANCH   3   4
ATOM      4  C   UNL     1      16.498  17.161  16.852  1.00  0.00    -0.000 C 
BRANCH   4   5
ATOM      5  C   UNL     1      15.558  17.760  17.910  1.00  0.00    -0.000 C 
BRANCH   5   6
ATOM      6  C   UNL     1      16.303  18.684  18.898  1.00  0.00    -0.000 C 
BRANCH   6   7
ATOM      7  C   UNL     1      15.405  19.245  20.014  1.00  0.00    -0.000 C 
BRANCH   7   8
ATOM      8  C   UNL     1      15.859  20.630  20.505  1.00  0.00    -0.000 C 
BRANCH   8   9
ATOM      9  C   UNL     1      14.687  21.609  20.679  1.00  0.00    -0.000 C 
BRANCH   9  10
ATOM     10  C   UNL     1      14.029  21.984  19.343  1.00  0.00    -0.000 C 
BRANCH  10  11
ATOM     11  C   UNL     1      15.067  22.535  18.357  1.00  0.00    -0.003 C 
ATOM     12  C   UNL     1      14.400  23.352  17.255  1.00  0.00     0.004 C 
ENDBRANCH  10  11
ENDBRANCH   9  10
ENDBRANCH   8   9
ENDBRANCH   7   8
ENDBRANCH   6   7
ENDBRANCH   5   6
ENDBRANCH   4   5
ENDBRANCH   3   4
ENDBRANCH   2   3
ENDBRANCH   1   2
BRANCH   1  13
ATOM     13  C   UNL     1      19.514  19.557  15.667  1.00  0.00     0.000 C 
BRANCH  13  14
ATOM     14  C   UNL     1      18.954  20.454  16.782  1.00  0.00     0.000 C 
BRANCH  14  15
ATOM     15  C   UNL     1      17.481  20.829  16.561  1.00  0.00     0.000 C 
BRANCH  15  16
ATOM     16  C   UNL     1      16.980  20.455  15.155  1.00  0.00     0.000 C 
BRANCH  16  17
ATOM     17  C   UNL     1      15.446  20.421  15.063  1.00  0.00     0.000 C 
BRANCH  17  18
ATOM     18  C   UNL     1      14.873  21.597  14.253  1.00  0.00     0.000 C 
BRANCH  18  19
ATOM     19  C   UNL     1      15.916  22.208  13.294  1.00  0.00     0.000 C 
BRANCH  19  20
ATOM     20  C   UNL     1      15.775  21.721  11.841  1.00  0.00     0.006 C 
BRANCH  20  21
ATOM     21  C   UNL     1      17.121  21.608  11.116  1.00  0.00     0.053 C 
BRANCH  21  22
ATOM     22  C   UNL     1      17.649  20.212  11.211  1.00  0.00     0.041 C 
ATOM     23  O   UNL     1      17.334  19.356  10.343  1.00  0.00    -0.550 OA
ATOM     24  O   UNL     1      18.451  19.843  12.285  1.00  0.00    -0.550 OA
ENDBRANCH  21  22
ENDBRANCH  20  21
ENDBRANCH  19  20
ENDBRANCH  18  19
ENDBRANCH  17  18
ENDBRANCH  16  17
ENDBRANCH  15  16
ENDBRANCH  14  15
ENDBRANCH  13  14
ENDBRANCH   1  13
TORSDOF 20
ENDMDL
MODEL 9
REMARK VINA RESULT:    -5.475      3.728      7.106
REMARK INTER + INTRA:         -14.107
REMARK INTER:                 -11.817
REMARK INTRA:                  -2.290
REMARK UNBOUND:                -2.230
REMARK SMILES CCCCCCCCCCCCCCCCCCCCCC(=O)[O-]
REMARK SMILES IDX 12 1 11 2 10 3 9 4 8 5 7 6 6 7 5 8 4 9 3 10 2 11 1 12 13 13
REMARK SMILES IDX 14 14 15 15 16 16 17 17 18 18 19 19 20 20 21 21 22 22 23 23
REMARK SMILES IDX 24 24
REMARK H PARENT
REMARK Flexibility Score: inf
ROOT
ATOM      1  C   UNL     1      18.430  19.578  13.233  1.00  0.00     0.000 C 
ENDROOT
BRANCH   1   2
ATOM      2  C   UNL     1      17.647  19.705  11.914  1.00  0.00     0.000 C 
BRANCH   2   3
ATOM      3  C   UNL     1      17.379  21.149  11.450  1.00  0.00     0.000 C 
BRANCH   3   4
ATOM      4  C   UNL     1      15.883  21.487  11.370  1.00  0.00    -0.000 C 
BRANCH   4   5
ATOM      5  C   UNL     1      15.180  21.195  12.706  1.00  0.00    -0.000 C 
BRANCH   5   6
ATOM      6  C   UNL     1      15.523  22.240  13.789  1.00  0.00    -0.000 C 
BRANCH   6   7
ATOM      7  C   UNL     1      14.673  22.110  15.064  1.00  0.00    -0.000 C 
BRANCH   7   8
ATOM      8  C   UNL     1      15.420  22.566  16.328  1.00  0.00    -0.000 C 
BRANCH   8   9
ATOM      9  C   UNL     1      14.642  22.260  17.617  1.00  0.00    -0.000 C 
BRANCH   9  10
ATOM     10  C   UNL     1      13.991  20.869  17.597  1.00  0.00    -0.000 C 
BRANCH  10  11
ATOM     11  C   UNL     1      14.991  19.791  18.033  1.00  0.00    -0.003 C 
ATOM     12  C   UNL     1      15.900  20.302  19.147  1.00  0.00     0.004 C 
ENDBRANCH  10  11
ENDBRANCH   9  10
ENDBRANCH   8   9
ENDBRANCH   7   8
ENDBRANCH   6   7
ENDBRANCH   5   6
ENDBRANCH   4   5
ENDBRANCH   3   4
ENDBRANCH   2   3
ENDBRANCH   1   2
BRANCH   1  13
ATOM     13  C   UNL     1      17.562  19.092  14.403  1.00  0.00     0.000 C 
BRANCH  13  14
ATOM     14  C   UNL     1      17.881  19.878  15.684  1.00  0.00     0.000 C 
BRANCH  14  15
ATOM     15  C   UNL     1      18.757  19.085  16.666  1.00  0.00     0.000 C 
BRANCH  15  16
ATOM     16  C   UNL     1      18.841  17.591  16.310  1.00  0.00     0.000 C 
BRANCH  16  17
ATOM     17  C   UNL     1      20.149  17.227  15.587  1.00  0.00     0.000 C 
BRANCH  17  18
ATOM     18  C   UNL     1      21.371  17.960  16.167  1.00  0.00     0.000 C 
BRANCH  18  19
ATOM     19  C   UNL     1      22.588  17.026  16.330  1.00  0.00     0.000 C 
BRANCH  19  20
ATOM     20  C   UNL     1      23.909  17.774  16.580  1.00  0.00     0.006 C 
BRANCH  20  21
ATOM     21  C   UNL     1      23.836  19.258  16.200  1.00  0.00     0.053 C 
BRANCH  21  22
ATOM     22  C   UNL     1      24.965  19.619  15.287  1.00  0.00     0.041 C 
ATOM     23  O   UNL     1      25.235  20.828  15.064  1.00  0.00    -0.550 OA
ATOM     24  O   UNL     1      25.687  18.621  14.644  1.00  0.00    -0.550 OA
ENDBRANCH  21  22
ENDBRANCH  20  21
ENDBRANCH  19  20
ENDBRANCH  18  19
ENDBRANCH  17  18
ENDBRANCH  16  17
ENDBRANCH  15  16
ENDBRANCH  14  15
ENDBRANCH  13  14
ENDBRANCH   1  13
TORSDOF 20
ENDMDL
