MODEL 1
REMARK VINA RESULT:    -5.272      0.000      0.000
REMARK INTER + INTRA:          -7.942
REMARK INTER:                  -6.504
REMARK INTRA:                  -1.438
REMARK UNBOUND:                -1.438
REMARK SMILES CC(C)=CCC[C@H](C)c1ccc(C)cc1
REMARK SMILES IDX 6 1 7 2 8 3 9 4 13 5 12 6 11 7 14 8 10 9 15 10 5 11 4 12
REMARK SMILES IDX 2 13 1 14 3 15
REMARK H PARENT
REMARK Flexibility Score: inf
ROOT
ATOM      1  C   UNL     1       5.968 -16.532   8.878  1.00  0.00     0.012 C 
ENDROOT
BRANCH   1   2
ATOM      2  C   UNL     1       4.669 -15.781   9.240  1.00  0.00     0.016 C 
ATOM      3  C   UNL     1       3.441 -16.665   8.985  1.00  0.00     0.013 C 
BRANCH   2   4
ATOM      4  C   UNL     1       4.544 -14.465   8.493  1.00  0.00    -0.045 A 
ATOM      5  C   UNL     1       4.233 -10.722   6.359  1.00  0.00     0.044 C 
ATOM      6  C   UNL     1       4.340 -12.036   7.074  1.00  0.00    -0.051 A 
ATOM      7  C   UNL     1       3.184 -12.713   7.487  1.00  0.00     0.004 A 
ATOM      8  C   UNL     1       5.599 -12.567   7.394  1.00  0.00     0.004 A 
ATOM      9  C   UNL     1       3.283 -13.919   8.185  1.00  0.00     0.004 A 
ATOM     10  C   UNL     1       5.700 -13.773   8.091  1.00  0.00     0.004 A 
ENDBRANCH   2   4
ENDBRANCH   1   2
BRANCH   1  11
ATOM     11  C   UNL     1       5.732 -17.620   7.819  1.00  0.00     0.028 C 
BRANCH  11  12
ATOM     12  C   UNL     1       6.520 -17.326   6.566  1.00  0.00    -0.028 C 
ATOM     13  C   UNL     1       6.027 -16.670   5.491  1.00  0.00    -0.080 C 
ATOM     14  C   UNL     1       4.587 -16.223   5.416  1.00  0.00     0.039 C 
ATOM     15  C   UNL     1       6.913 -16.404   4.302  1.00  0.00     0.039 C 
ENDBRANCH  11  12
ENDBRANCH   1  11
TORSDOF 4
ENDMDL
MODEL 2
REMARK VINA RESULT:    -5.197      1.522      5.251
REMARK INTER + INTRA:          -7.850
REMARK INTER:                  -6.347
REMARK INTRA:                  -1.503
REMARK UNBOUND:                -1.438
REMARK SMILES CC(C)=CCC[C@H](C)c1ccc(C)cc1
REMARK SMILES IDX 6 1 7 2 8 3 9 4 13 5 12 6 11 7 14 8 10 9 15 10 5 11 4 12
REMARK SMILES IDX 2 13 1 14 3 15
REMARK H PARENT
REMARK Flexibility Score: inf
ROOT
ATOM      1  C   UNL     1       4.178 -13.732   8.352  1.00  0.00     0.012 C 
ENDROOT
BRANCH   1   2
ATOM      2  C   UNL     1       5.426 -14.118   7.529  1.00  0.00     0.016 C 
ATOM      3  C   UNL     1       5.327 -13.566   6.100  1.00  0.00     0.013 C 
BRANCH   2   4
ATOM      4  C   UNL     1       5.651 -15.620   7.507  1.00  0.00    -0.045 A 
ATOM      5  C   UNL     1       6.295 -19.889   7.402  1.00  0.00     0.044 C 
ATOM      6  C   UNL     1       6.101 -18.403   7.436  1.00  0.00    -0.051 A 
ATOM      7  C   UNL     1       6.098 -17.718   8.659  1.00  0.00     0.004 A 
ATOM      8  C   UNL     1       5.854 -17.694   6.251  1.00  0.00     0.004 A 
ATOM      9  C   UNL     1       5.881 -16.338   8.695  1.00  0.00     0.004 A 
ATOM     10  C   UNL     1       5.637 -16.314   6.285  1.00  0.00     0.004 A 
ENDBRANCH   2   4
ENDBRANCH   1   2
BRANCH   1  11
ATOM     11  C   UNL     1       2.901 -14.391   7.810  1.00  0.00     0.028 C 
BRANCH  11  12
ATOM     12  C   UNL     1       2.182 -15.141   8.904  1.00  0.00    -0.028 C 
ATOM     13  C   UNL     1       1.982 -16.479   8.908  1.00  0.00    -0.080 C 
ATOM     14  C   UNL     1       2.409 -17.356   7.757  1.00  0.00     0.039 C 
ATOM     15  C   UNL     1       1.276 -17.129  10.070  1.00  0.00     0.039 C 
ENDBRANCH  11  12
ENDBRANCH   1  11
TORSDOF 4
ENDMDL
MODEL 3
REMARK VINA RESULT:    -5.079      2.632      6.408
REMARK INTER + INTRA:          -7.705
REMARK INTER:                  -6.486
REMARK INTRA:                  -1.219
REMARK UNBOUND:                -1.438
REMARK SMILES CC(C)=CCC[C@H](C)c1ccc(C)cc1
REMARK SMILES IDX 6 1 7 2 8 3 9 4 13 5 12 6 11 7 14 8 10 9 15 10 5 11 4 12
REMARK SMILES IDX 2 13 1 14 3 15
REMARK H PARENT
REMARK Flexibility Score: inf
ROOT
ATOM      1  C   UNL     1       6.337 -17.045   8.537  1.00  0.00     0.012 C 
ENDROOT
BRANCH   1   2
ATOM      2  C   UNL     1       6.487 -17.734   7.164  1.00  0.00     0.016 C 
ATOM      3  C   UNL     1       6.042 -16.797   6.033  1.00  0.00     0.013 C 
BRANCH   2   4
ATOM      4  C   UNL     1       5.726 -19.048   7.100  1.00  0.00    -0.045 A 
ATOM      5  C   UNL     1       3.531 -22.762   6.897  1.00  0.00     0.044 C 
ATOM      6  C   UNL     1       4.303 -21.477   6.939  1.00  0.00    -0.051 A 
ATOM      7  C   UNL     1       5.631 -21.464   7.387  1.00  0.00     0.004 A 
ATOM      8  C   UNL     1       3.681 -20.267   6.596  1.00  0.00     0.004 A 
ATOM      9  C   UNL     1       6.340 -20.262   7.461  1.00  0.00     0.004 A 
ATOM     10  C   UNL     1       4.388 -19.064   6.669  1.00  0.00     0.004 A 
ENDBRANCH   2   4
ENDBRANCH   1   2
BRANCH   1  11
ATOM     11  C   UNL     1       5.329 -15.887   8.496  1.00  0.00     0.028 C 
BRANCH  11  12
ATOM     12  C   UNL     1       4.076 -16.242   9.257  1.00  0.00    -0.028 C 
ATOM     13  C   UNL     1       2.843 -16.312   8.705  1.00  0.00    -0.080 C 
ATOM     14  C   UNL     1       2.591 -15.965   7.259  1.00  0.00     0.039 C 
ATOM     15  C   UNL     1       1.662 -16.706   9.554  1.00  0.00     0.039 C 
ENDBRANCH  11  12
ENDBRANCH   1  11
TORSDOF 4
ENDMDL
MODEL 4
REMARK VINA RESULT:    -5.037      2.163      3.098
REMARK INTER + INTRA:          -7.653
REMARK INTER:                  -6.828
REMARK INTRA:                  -0.825
REMARK UNBOUND:                -1.438
REMARK SMILES CC(C)=CCC[C@H](C)c1ccc(C)cc1
REMARK SMILES IDX 6 1 7 2 8 3 9 4 13 5 12 6 11 7 14 8 10 9 15 10 5 11 4 12
REMARK SMILES IDX 2 13 1 14 3 15
REMARK H PARENT
REMARK Flexibility Score: inf
ROOT
ATOM      1  C   UNL     1       6.536 -17.677   7.631  1.00  0.00     0.012 C 
ENDROOT
BRANCH   1   2
ATOM      2  C   UNL     1       5.748 -16.954   6.517  1.00  0.00     0.016 C 
ATOM      3  C   UNL     1       6.435 -17.139   5.157  1.00  0.00     0.013 C 
BRANCH   2   4
ATOM      4  C   UNL     1       5.555 -15.479   6.822  1.00  0.00    -0.045 A 
ATOM      5  C   UNL     1       5.018 -11.291   7.731  1.00  0.00     0.044 C 
ATOM      6  C   UNL     1       5.234 -12.740   7.412  1.00  0.00    -0.051 A 
ATOM      7  C   UNL     1       5.173 -13.189   6.086  1.00  0.00     0.004 A 
ATOM      8  C   UNL     1       5.432 -13.669   8.445  1.00  0.00     0.004 A 
ATOM      9  C   UNL     1       5.338 -14.545   5.792  1.00  0.00     0.004 A 
ATOM     10  C   UNL     1       5.598 -15.025   8.152  1.00  0.00     0.004 A 
ENDBRANCH   2   4
ENDBRANCH   1   2
BRANCH   1  11
ATOM     11  C   UNL     1       5.826 -18.953   8.107  1.00  0.00     0.028 C 
BRANCH  11  12
ATOM     12  C   UNL     1       6.198 -20.128   7.237  1.00  0.00    -0.028 C 
ATOM     13  C   UNL     1       5.364 -20.710   6.345  1.00  0.00    -0.080 C 
ATOM     14  C   UNL     1       3.929 -20.272   6.185  1.00  0.00     0.039 C 
ATOM     15  C   UNL     1       5.850 -21.861   5.504  1.00  0.00     0.039 C 
ENDBRANCH  11  12
ENDBRANCH   1  11
TORSDOF 4
ENDMDL
MODEL 5
REMARK VINA RESULT:    -4.999      1.333      4.999
REMARK INTER + INTRA:          -7.606
REMARK INTER:                  -6.123
REMARK INTRA:                  -1.483
REMARK UNBOUND:                -1.438
REMARK SMILES CC(C)=CCC[C@H](C)c1ccc(C)cc1
REMARK SMILES IDX 6 1 7 2 8 3 9 4 13 5 12 6 11 7 14 8 10 9 15 10 5 11 4 12
REMARK SMILES IDX 2 13 1 14 3 15
REMARK H PARENT
REMARK Flexibility Score: inf
ROOT
ATOM      1  C   UNL     1       3.689 -13.060   8.376  1.00  0.00     0.012 C 
ENDROOT
BRANCH   1   2
ATOM      2  C   UNL     1       5.045 -13.293   7.676  1.00  0.00     0.016 C 
ATOM      3  C   UNL     1       5.061 -12.638   6.289  1.00  0.00     0.013 C 
BRANCH   2   4
ATOM      4  C   UNL     1       5.387 -14.770   7.573  1.00  0.00    -0.045 A 
ATOM      5  C   UNL     1       6.354 -18.972   7.325  1.00  0.00     0.044 C 
ATOM      6  C   UNL     1       5.989 -17.520   7.412  1.00  0.00    -0.051 A 
ATOM      7  C   UNL     1       5.757 -16.778   6.246  1.00  0.00     0.004 A 
ATOM      8  C   UNL     1       5.943 -16.876   8.658  1.00  0.00     0.004 A 
ATOM      9  C   UNL     1       5.452 -15.417   6.325  1.00  0.00     0.004 A 
ATOM     10  C   UNL     1       5.638 -15.515   8.738  1.00  0.00     0.004 A 
ENDBRANCH   2   4
ENDBRANCH   1   2
BRANCH   1  11
ATOM     11  C   UNL     1       2.582 -13.959   7.804  1.00  0.00     0.028 C 
BRANCH  11  12
ATOM     12  C   UNL     1       2.020 -14.861   8.875  1.00  0.00    -0.028 C 
ATOM     13  C   UNL     1       1.911 -16.204   8.761  1.00  0.00    -0.080 C 
ATOM     14  C   UNL     1       2.284 -16.933   7.493  1.00  0.00     0.039 C 
ATOM     15  C   UNL     1       1.362 -17.013   9.907  1.00  0.00     0.039 C 
ENDBRANCH  11  12
ENDBRANCH   1  11
TORSDOF 4
ENDMDL
MODEL 6
REMARK VINA RESULT:    -4.991      1.956      2.678
REMARK INTER + INTRA:          -7.596
REMARK INTER:                  -7.077
REMARK INTRA:                  -0.519
REMARK UNBOUND:                -1.438
REMARK SMILES CC(C)=CCC[C@H](C)c1ccc(C)cc1
REMARK SMILES IDX 6 1 7 2 8 3 9 4 13 5 12 6 11 7 14 8 10 9 15 10 5 11 4 12
REMARK SMILES IDX 2 13 1 14 3 15
REMARK H PARENT
REMARK Flexibility Score: inf
ROOT
ATOM      1  C   UNL     1       6.208 -17.211   8.473  1.00  0.00     0.012 C 
ENDROOT
BRANCH   1   2
ATOM      2  C   UNL     1       4.970 -16.311   8.679  1.00  0.00     0.016 C 
ATOM      3  C   UNL     1       3.695 -17.025   8.212  1.00  0.00     0.013 C 
BRANCH   2   4
ATOM      4  C   UNL     1       5.119 -14.971   7.979  1.00  0.00    -0.045 A 
ATOM      5  C   UNL     1       5.535 -11.180   5.953  1.00  0.00     0.044 C 
ATOM      6  C   UNL     1       5.361 -12.492   6.656  1.00  0.00    -0.051 A 
ATOM      7  C   UNL     1       5.344 -12.547   8.057  1.00  0.00     0.004 A 
ATOM      8  C   UNL     1       5.282 -13.684   5.920  1.00  0.00     0.004 A 
ATOM      9  C   UNL     1       5.218 -13.774   8.714  1.00  0.00     0.004 A 
ATOM     10  C   UNL     1       5.155 -14.912   6.575  1.00  0.00     0.004 A 
ENDBRANCH   2   4
ENDBRANCH   1   2
BRANCH   1  11
ATOM     11  C   UNL     1       6.073 -18.106   7.231  1.00  0.00     0.028 C 
BRANCH  11  12
ATOM     12  C   UNL     1       6.064 -19.563   7.621  1.00  0.00    -0.028 C 
ATOM     13  C   UNL     1       5.181 -20.473   7.150  1.00  0.00    -0.080 C 
ATOM     14  C   UNL     1       4.053 -20.091   6.223  1.00  0.00     0.039 C 
ATOM     15  C   UNL     1       5.284 -21.912   7.583  1.00  0.00     0.039 C 
ENDBRANCH  11  12
ENDBRANCH   1  11
TORSDOF 4
ENDMDL
MODEL 7
REMARK VINA RESULT:    -4.957      1.568      3.808
REMARK INTER + INTRA:          -7.555
REMARK INTER:                  -6.200
REMARK INTRA:                  -1.354
REMARK UNBOUND:                -1.438
REMARK SMILES CC(C)=CCC[C@H](C)c1ccc(C)cc1
REMARK SMILES IDX 6 1 7 2 8 3 9 4 13 5 12 6 11 7 14 8 10 9 15 10 5 11 4 12
REMARK SMILES IDX 2 13 1 14 3 15
REMARK H PARENT
REMARK Flexibility Score: inf
ROOT
ATOM      1  C   UNL     1       4.006 -16.601   9.187  1.00  0.00     0.012 C 
ENDROOT
BRANCH   1   2
ATOM      2  C   UNL     1       5.186 -16.409   8.210  1.00  0.00     0.016 C 
ATOM      3  C   UNL     1       6.512 -16.804   8.873  1.00  0.00     0.013 C 
BRANCH   2   4
ATOM      4  C   UNL     1       5.258 -14.988   7.676  1.00  0.00    -0.045 A 
ATOM      5  C   UNL     1       5.455 -10.965   6.118  1.00  0.00     0.044 C 
ATOM      6  C   UNL     1       5.357 -12.360   6.660  1.00  0.00    -0.051 A 
ATOM      7  C   UNL     1       5.363 -12.583   8.043  1.00  0.00     0.004 A 
ATOM      8  C   UNL     1       5.326 -13.457   5.786  1.00  0.00     0.004 A 
ATOM      9  C   UNL     1       5.308 -13.885   8.548  1.00  0.00     0.004 A 
ATOM     10  C   UNL     1       5.270 -14.759   6.289  1.00  0.00     0.004 A 
ENDBRANCH   2   4
ENDBRANCH   1   2
BRANCH   1  11
ATOM     11  C   UNL     1       2.647 -16.514   8.476  1.00  0.00     0.028 C 
BRANCH  11  12
ATOM     12  C   UNL     1       1.703 -15.617   9.238  1.00  0.00    -0.028 C 
ATOM     13  C   UNL     1       1.301 -14.397   8.814  1.00  0.00    -0.080 C 
ATOM     14  C   UNL     1       1.828 -13.777   7.543  1.00  0.00     0.039 C 
ATOM     15  C   UNL     1       0.328 -13.598   9.642  1.00  0.00     0.039 C 
ENDBRANCH  11  12
ENDBRANCH   1  11
TORSDOF 4
ENDMDL
MODEL 8
REMARK VINA RESULT:    -4.950      1.308      1.776
REMARK INTER + INTRA:          -7.546
REMARK INTER:                  -6.061
REMARK INTRA:                  -1.485
REMARK UNBOUND:                -1.438
REMARK SMILES CC(C)=CCC[C@H](C)c1ccc(C)cc1
REMARK SMILES IDX 6 1 7 2 8 3 9 4 13 5 12 6 11 7 14 8 10 9 15 10 5 11 4 12
REMARK SMILES IDX 2 13 1 14 3 15
REMARK H PARENT
REMARK Flexibility Score: inf
ROOT
ATOM      1  C   UNL     1       6.028 -17.974   7.344  1.00  0.00     0.012 C 
ENDROOT
BRANCH   1   2
ATOM      2  C   UNL     1       4.741 -17.567   8.094  1.00  0.00     0.016 C 
ATOM      3  C   UNL     1       3.500 -18.136   7.393  1.00  0.00     0.013 C 
BRANCH   2   4
ATOM      4  C   UNL     1       4.624 -16.061   8.248  1.00  0.00    -0.045 A 
ATOM      5  C   UNL     1       4.335 -11.773   8.681  1.00  0.00     0.044 C 
ATOM      6  C   UNL     1       4.433 -13.258   8.501  1.00  0.00    -0.051 A 
ATOM      7  C   UNL     1       3.274 -14.045   8.465  1.00  0.00     0.004 A 
ATOM      8  C   UNL     1       5.689 -13.881   8.434  1.00  0.00     0.004 A 
ATOM      9  C   UNL     1       3.367 -15.433   8.334  1.00  0.00     0.004 A 
ATOM     10  C   UNL     1       5.784 -15.268   8.303  1.00  0.00     0.004 A 
ENDBRANCH   2   4
ENDBRANCH   1   2
BRANCH   1  11
ATOM     11  C   UNL     1       5.777 -18.198   5.845  1.00  0.00     0.028 C 
BRANCH  11  12
ATOM     12  C   UNL     1       6.527 -17.181   5.020  1.00  0.00    -0.028 C 
ATOM     13  C   UNL     1       5.975 -16.060   4.505  1.00  0.00    -0.080 C 
ATOM     14  C   UNL     1       4.505 -15.750   4.652  1.00  0.00     0.039 C 
ATOM     15  C   UNL     1       6.826 -15.096   3.720  1.00  0.00     0.039 C 
ENDBRANCH  11  12
ENDBRANCH   1  11
TORSDOF 4
ENDMDL
MODEL 9
REMARK VINA RESULT:    -4.843      1.585      3.441
REMARK INTER + INTRA:          -7.413
REMARK INTER:                  -5.863
REMARK INTRA:                  -1.550
REMARK UNBOUND:                -1.438
REMARK SMILES CC(C)=CCC[C@H](C)c1ccc(C)cc1
REMARK SMILES IDX 6 1 7 2 8 3 9 4 13 5 12 6 11 7 14 8 10 9 15 10 5 11 4 12
REMARK SMILES IDX 2 13 1 14 3 15
REMARK H PARENT
REMARK Flexibility Score: inf
ROOT
ATOM      1  C   UNL     1       4.728 -18.036   6.062  1.00  0.00     0.012 C 
ENDROOT
BRANCH   1   2
ATOM      2  C   UNL     1       5.901 -17.391   6.831  1.00  0.00     0.016 C 
ATOM      3  C   UNL     1       6.103 -18.076   8.189  1.00  0.00     0.013 C 
BRANCH   2   4
ATOM      4  C   UNL     1       5.709 -15.895   7.010  1.00  0.00    -0.045 A 
ATOM      5  C   UNL     1       5.152 -11.638   7.478  1.00  0.00     0.044 C 
ATOM      6  C   UNL     1       5.316 -13.120   7.321  1.00  0.00    -0.051 A 
ATOM      7  C   UNL     1       5.629 -13.918   8.430  1.00  0.00     0.004 A 
ATOM      8  C   UNL     1       5.225 -13.711   6.052  1.00  0.00     0.004 A 
ATOM      9  C   UNL     1       5.818 -15.294   8.278  1.00  0.00     0.004 A 
ATOM     10  C   UNL     1       5.413 -15.087   5.898  1.00  0.00     0.004 A 
ENDBRANCH   2   4
ENDBRANCH   1   2
BRANCH   1  11
ATOM     11  C   UNL     1       3.541 -18.359   6.982  1.00  0.00     0.028 C 
BRANCH  11  12
ATOM     12  C   UNL     1       2.518 -17.251   6.944  1.00  0.00    -0.028 C 
ATOM     13  C   UNL     1       2.190 -16.478   8.004  1.00  0.00    -0.080 C 
ATOM     14  C   UNL     1       2.782 -16.705   9.374  1.00  0.00     0.039 C 
ATOM     15  C   UNL     1       1.175 -15.377   7.846  1.00  0.00     0.039 C 
ENDBRANCH  11  12
ENDBRANCH   1  11
TORSDOF 4
ENDMDL
