MODEL 1
REMARK VINA RESULT:    -3.908      0.000      0.000
REMARK INTER + INTRA:          -4.487
REMARK INTER:                  -4.250
REMARK INTRA:                  -0.236
REMARK UNBOUND:                -0.236
REMARK SMILES O=C([O-])c1ccccc1O
REMARK SMILES IDX 4 1 9 2 5 3 8 4 6 5 7 6 2 7 1 8 3 9 10 10
REMARK H PARENT 10 11
REMARK Flexibility Score: inf
ROOT
ATOM      1  C   UNL     1     169.295 186.462  31.572  1.00  0.00     0.039 A 
ATOM      2  C   UNL     1     170.288 185.575  31.093  1.00  0.00     0.124 A 
ATOM      3  C   UNL     1     169.474 187.067  32.830  1.00  0.00     0.014 A 
ATOM      4  C   UNL     1     171.425 185.313  31.872  1.00  0.00     0.047 A 
ATOM      5  C   UNL     1     170.610 186.797  33.596  1.00  0.00     0.001 A 
ATOM      6  C   UNL     1     171.584 185.922  33.118  1.00  0.00     0.004 A 
ENDROOT
BRANCH   1   7
ATOM      7  C   UNL     1     168.074 186.772  30.785  1.00  0.00     0.075 C 
ATOM      8  O   UNL     1     167.540 187.912  30.835  1.00  0.00    -0.545 OA
ATOM      9  O   UNL     1     167.498 185.801  29.973  1.00  0.00    -0.545 OA
ENDBRANCH   1   7
BRANCH   2  10
ATOM     10  O   UNL     1     170.153 184.954  29.852  1.00  0.00    -0.507 OA
ATOM     11  H   UNL     1     170.430 183.990  29.705  1.00  0.00     0.293 HD
ENDBRANCH   2  10
TORSDOF 2
ENDMDL
MODEL 2
REMARK VINA RESULT:    -3.792      3.134      4.678
REMARK INTER + INTRA:          -4.361
REMARK INTER:                  -4.107
REMARK INTRA:                  -0.254
REMARK UNBOUND:                -0.236
REMARK SMILES O=C([O-])c1ccccc1O
REMARK SMILES IDX 4 1 9 2 5 3 8 4 6 5 7 6 2 7 1 8 3 9 10 10
REMARK H PARENT 10 11
REMARK Flexibility Score: inf
ROOT
ATOM      1  C   UNL     1     171.583 184.725  32.539  1.00  0.00     0.039 A 
ATOM      2  C   UNL     1     171.228 185.928  33.194  1.00  0.00     0.124 A 
ATOM      3  C   UNL     1     170.887 184.356  31.373  1.00  0.00     0.014 A 
ATOM      4  C   UNL     1     170.197 186.727  32.678  1.00  0.00     0.047 A 
ATOM      5  C   UNL     1     169.862 185.161  30.869  1.00  0.00     0.001 A 
ATOM      6  C   UNL     1     169.518 186.344  31.521  1.00  0.00     0.004 A 
ENDROOT
BRANCH   1   7
ATOM      7  C   UNL     1     172.667 183.844  33.046  1.00  0.00     0.075 C 
ATOM      8  O   UNL     1     173.520 183.347  32.264  1.00  0.00    -0.545 OA
ATOM      9  O   UNL     1     172.758 183.555  34.404  1.00  0.00    -0.545 OA
ENDBRANCH   1   7
BRANCH   2  10
ATOM     10  O   UNL     1     171.892 186.333  34.353  1.00  0.00    -0.507 OA
ATOM     11  H   UNL     1     172.032 185.702  35.134  1.00  0.00     0.293 HD
ENDBRANCH   2  10
TORSDOF 2
ENDMDL
MODEL 3
REMARK VINA RESULT:    -3.750     21.932     22.560
REMARK INTER + INTRA:          -4.315
REMARK INTER:                  -4.060
REMARK INTRA:                  -0.255
REMARK UNBOUND:                -0.236
REMARK SMILES O=C([O-])c1ccccc1O
REMARK SMILES IDX 4 1 9 2 5 3 8 4 6 5 7 6 2 7 1 8 3 9 10 10
REMARK H PARENT 10 11
REMARK Flexibility Score: inf
ROOT
ATOM      1  C   UNL     1     162.733 170.313  17.419  1.00  0.00     0.039 A 
ATOM      2  C   UNL     1     163.862 169.538  17.777  1.00  0.00     0.124 A 
ATOM      3  C   UNL     1     162.725 170.965  16.171  1.00  0.00     0.014 A 
ATOM      4  C   UNL     1     164.946 169.433  16.893  1.00  0.00     0.047 A 
ATOM      5  C   UNL     1     163.811 170.852  15.300  1.00  0.00     0.001 A 
ATOM      6  C   UNL     1     164.920 170.087  15.660  1.00  0.00     0.004 A 
ENDROOT
BRANCH   1   7
ATOM      7  C   UNL     1     161.560 170.456  18.319  1.00  0.00     0.075 C 
ATOM      8  O   UNL     1     160.386 170.311  17.887  1.00  0.00    -0.545 OA
ATOM      9  O   UNL     1     161.743 170.752  19.666  1.00  0.00    -0.545 OA
ENDBRANCH   1   7
BRANCH   2  10
ATOM     10  O   UNL     1     163.913 168.875  19.003  1.00  0.00    -0.507 OA
ATOM     11  H   UNL     1     163.461 169.248  19.829  1.00  0.00     0.293 HD
ENDBRANCH   2  10
TORSDOF 2
ENDMDL
MODEL 4
REMARK VINA RESULT:    -3.716      2.656      4.315
REMARK INTER + INTRA:          -4.278
REMARK INTER:                  -4.023
REMARK INTRA:                  -0.255
REMARK UNBOUND:                -0.236
REMARK SMILES O=C([O-])c1ccccc1O
REMARK SMILES IDX 4 1 9 2 5 3 8 4 6 5 7 6 2 7 1 8 3 9 10 10
REMARK H PARENT 10 11
REMARK Flexibility Score: inf
ROOT
ATOM      1  C   UNL     1     171.860 184.775  32.976  1.00  0.00     0.039 A 
ATOM      2  C   UNL     1     171.080 184.582  31.811  1.00  0.00     0.124 A 
ATOM      3  C   UNL     1     171.669 185.945  33.735  1.00  0.00     0.014 A 
ATOM      4  C   UNL     1     170.136 185.549  31.433  1.00  0.00     0.047 A 
ATOM      5  C   UNL     1     170.726 186.901  33.347  1.00  0.00     0.001 A 
ATOM      6  C   UNL     1     169.961 186.703  32.199  1.00  0.00     0.004 A 
ENDROOT
BRANCH   1   7
ATOM      7  C   UNL     1     172.871 183.781  33.418  1.00  0.00     0.075 C 
ATOM      8  O   UNL     1     172.952 183.427  34.624  1.00  0.00    -0.545 OA
ATOM      9  O   UNL     1     173.751 183.220  32.498  1.00  0.00    -0.545 OA
ENDBRANCH   1   7
BRANCH   2  10
ATOM     10  O   UNL     1     171.236 183.438  31.029  1.00  0.00    -0.507 OA
ATOM     11  H   UNL     1     171.070 183.449  30.030  1.00  0.00     0.293 HD
ENDBRANCH   2  10
TORSDOF 2
ENDMDL
MODEL 5
REMARK VINA RESULT:    -3.658      2.403      3.880
REMARK INTER + INTRA:          -4.215
REMARK INTER:                  -3.970
REMARK INTRA:                  -0.245
REMARK UNBOUND:                -0.236
REMARK SMILES O=C([O-])c1ccccc1O
REMARK SMILES IDX 4 1 9 2 5 3 8 4 6 5 7 6 2 7 1 8 3 9 10 10
REMARK H PARENT 10 11
REMARK Flexibility Score: inf
ROOT
ATOM      1  C   UNL     1     169.778 184.982  32.396  1.00  0.00     0.039 A 
ATOM      2  C   UNL     1     170.030 185.547  31.123  1.00  0.00     0.124 A 
ATOM      3  C   UNL     1     168.447 184.710  32.767  1.00  0.00     0.014 A 
ATOM      4  C   UNL     1     168.961 185.826  30.258  1.00  0.00     0.047 A 
ATOM      5  C   UNL     1     167.392 184.993  31.896  1.00  0.00     0.001 A 
ATOM      6  C   UNL     1     167.649 185.550  30.644  1.00  0.00     0.004 A 
ENDROOT
BRANCH   1   7
ATOM      7  C   UNL     1     170.875 184.668  33.348  1.00  0.00     0.075 C 
ATOM      8  O   UNL     1     170.835 183.635  34.068  1.00  0.00    -0.545 OA
ATOM      9  O   UNL     1     171.972 185.516  33.456  1.00  0.00    -0.545 OA
ENDBRANCH   1   7
BRANCH   2  10
ATOM     10  O   UNL     1     171.332 185.832  30.714  1.00  0.00    -0.507 OA
ATOM     11  H   UNL     1     171.524 186.320  29.847  1.00  0.00     0.293 HD
ENDBRANCH   2  10
TORSDOF 2
ENDMDL
MODEL 6
REMARK VINA RESULT:    -3.648      1.331      2.419
REMARK INTER + INTRA:          -4.204
REMARK INTER:                  -4.026
REMARK INTRA:                  -0.178
REMARK UNBOUND:                -0.236
REMARK SMILES O=C([O-])c1ccccc1O
REMARK SMILES IDX 4 1 9 2 5 3 8 4 6 5 7 6 2 7 1 8 3 9 10 10
REMARK H PARENT 10 11
REMARK Flexibility Score: inf
ROOT
ATOM      1  C   UNL     1     168.912 186.025  31.190  1.00  0.00     0.039 A 
ATOM      2  C   UNL     1     168.947 187.027  32.189  1.00  0.00     0.124 A 
ATOM      3  C   UNL     1     170.107 185.362  30.851  1.00  0.00     0.014 A 
ATOM      4  C   UNL     1     170.159 187.343  32.820  1.00  0.00     0.047 A 
ATOM      5  C   UNL     1     171.307 185.686  31.488  1.00  0.00     0.001 A 
ATOM      6  C   UNL     1     171.333 186.675  32.471  1.00  0.00     0.004 A 
ENDROOT
BRANCH   1   7
ATOM      7  C   UNL     1     167.654 185.654  30.492  1.00  0.00     0.075 C 
ATOM      8  O   UNL     1     166.750 185.005  31.082  1.00  0.00    -0.545 OA
ATOM      9  O   UNL     1     167.453 186.024  29.166  1.00  0.00    -0.545 OA
ENDBRANCH   1   7
BRANCH   2  10
ATOM     10  O   UNL     1     167.787 187.709  32.556  1.00  0.00    -0.507 OA
ATOM     11  H   UNL     1     167.822 188.626  32.988  1.00  0.00     0.293 HD
ENDBRANCH   2  10
TORSDOF 2
ENDMDL
MODEL 7
REMARK VINA RESULT:    -3.581      5.462      6.896
REMARK INTER + INTRA:          -4.131
REMARK INTER:                  -3.919
REMARK INTRA:                  -0.212
REMARK UNBOUND:                -0.236
REMARK SMILES O=C([O-])c1ccccc1O
REMARK SMILES IDX 4 1 9 2 5 3 8 4 6 5 7 6 2 7 1 8 3 9 10 10
REMARK H PARENT 10 11
REMARK Flexibility Score: inf
ROOT
ATOM      1  C   UNL     1     164.773 183.016  31.376  1.00  0.00     0.039 A 
ATOM      2  C   UNL     1     164.320 182.880  30.042  1.00  0.00     0.124 A 
ATOM      3  C   UNL     1     164.065 182.364  32.403  1.00  0.00     0.014 A 
ATOM      4  C   UNL     1     163.182 182.106  29.765  1.00  0.00     0.047 A 
ATOM      5  C   UNL     1     162.934 181.596  32.114  1.00  0.00     0.001 A 
ATOM      6  C   UNL     1     162.494 181.468  30.797  1.00  0.00     0.004 A 
ENDROOT
BRANCH   1   7
ATOM      7  C   UNL     1     165.972 183.823  31.720  1.00  0.00     0.075 C 
ATOM      8  O   UNL     1     166.367 184.753  30.968  1.00  0.00    -0.545 OA
ATOM      9  O   UNL     1     166.679 183.563  32.889  1.00  0.00    -0.545 OA
ENDBRANCH   1   7
BRANCH   2  10
ATOM     10  O   UNL     1     164.990 183.508  28.992  1.00  0.00    -0.507 OA
ATOM     11  H   UNL     1     166.002 183.569  28.967  1.00  0.00     0.293 HD
ENDBRANCH   2  10
TORSDOF 2
ENDMDL
MODEL 8
REMARK VINA RESULT:    -3.541      1.908      2.448
REMARK INTER + INTRA:          -4.088
REMARK INTER:                  -3.837
REMARK INTRA:                  -0.251
REMARK UNBOUND:                -0.236
REMARK SMILES O=C([O-])c1ccccc1O
REMARK SMILES IDX 4 1 9 2 5 3 8 4 6 5 7 6 2 7 1 8 3 9 10 10
REMARK H PARENT 10 11
REMARK Flexibility Score: inf
ROOT
ATOM      1  C   UNL     1     168.102 185.137  31.749  1.00  0.00     0.039 A 
ATOM      2  C   UNL     1     168.722 185.442  30.514  1.00  0.00     0.124 A 
ATOM      3  C   UNL     1     168.910 184.949  32.886  1.00  0.00     0.014 A 
ATOM      4  C   UNL     1     170.119 185.550  30.441  1.00  0.00     0.047 A 
ATOM      5  C   UNL     1     170.300 185.059  32.799  1.00  0.00     0.001 A 
ATOM      6  C   UNL     1     170.903 185.360  31.579  1.00  0.00     0.004 A 
ENDROOT
BRANCH   1   7
ATOM      7  C   UNL     1     166.627 185.012  31.878  1.00  0.00     0.075 C 
ATOM      8  O   UNL     1     165.962 184.307  31.074  1.00  0.00    -0.545 OA
ATOM      9  O   UNL     1     165.954 185.676  32.898  1.00  0.00    -0.545 OA
ENDBRANCH   1   7
BRANCH   2  10
ATOM     10  O   UNL     1     167.960 185.637  29.361  1.00  0.00    -0.507 OA
ATOM     11  H   UNL     1     167.667 184.861  28.780  1.00  0.00     0.293 HD
ENDBRANCH   2  10
TORSDOF 2
ENDMDL
MODEL 9
REMARK VINA RESULT:    -3.492      2.431      3.470
REMARK INTER + INTRA:          -4.034
REMARK INTER:                  -3.794
REMARK INTRA:                  -0.240
REMARK UNBOUND:                -0.236
REMARK SMILES O=C([O-])c1ccccc1O
REMARK SMILES IDX 4 1 9 2 5 3 8 4 6 5 7 6 2 7 1 8 3 9 10 10
REMARK H PARENT 10 11
REMARK Flexibility Score: inf
ROOT
ATOM      1  C   UNL     1     171.014 184.700  32.282  1.00  0.00     0.039 A 
ATOM      2  C   UNL     1     171.826 185.115  33.365  1.00  0.00     0.124 A 
ATOM      3  C   UNL     1     170.933 183.327  31.982  1.00  0.00     0.014 A 
ATOM      4  C   UNL     1     172.530 184.162  34.116  1.00  0.00     0.047 A 
ATOM      5  C   UNL     1     171.640 182.389  32.738  1.00  0.00     0.001 A 
ATOM      6  C   UNL     1     172.437 182.805  33.803  1.00  0.00     0.004 A 
ENDROOT
BRANCH   1   7
ATOM      7  C   UNL     1     170.249 185.669  31.457  1.00  0.00     0.075 C 
ATOM      8  O   UNL     1     170.080 185.482  30.223  1.00  0.00    -0.545 OA
ATOM      9  O   UNL     1     169.701 186.806  32.041  1.00  0.00    -0.545 OA
ENDBRANCH   1   7
BRANCH   2  10
ATOM     10  O   UNL     1     171.935 186.465  33.699  1.00  0.00    -0.507 OA
ATOM     11  H   UNL     1     171.341 187.168  33.275  1.00  0.00     0.293 HD
ENDBRANCH   2  10
TORSDOF 2
ENDMDL
