MODEL 1
REMARK VINA RESULT:    -4.295      0.000      0.000
REMARK INTER + INTRA:          -5.384
REMARK INTER:                  -5.174
REMARK INTRA:                  -0.211
REMARK UNBOUND:                -0.211
REMARK SMILES NC(=O)C[C@H]([NH3+])C(=O)[O-]
REMARK SMILES IDX 4 1 5 2 6 3 7 7 8 8 9 9 2 10 3 11 1 12
REMARK H PARENT 6 4 6 5 6 6 1 13 1 14
REMARK Flexibility Score: inf
ROOT
ATOM      1  C   UNL     1     -14.970 -26.140 -13.892  1.00  0.00     0.171 C 
ENDROOT
BRANCH   1   2
ATOM      2  C   UNL     1     -14.618 -26.953 -12.630  1.00  0.00     0.237 C 
BRANCH   2   3
ATOM      3  N   UNL     1     -13.165 -26.988 -12.429  1.00  0.00    -0.350 N 
ATOM      4  H   UNL     1     -12.910 -26.421 -11.588  1.00  0.00     0.345 HD
ATOM      5  H   UNL     1     -12.666 -26.601 -13.264  1.00  0.00     0.345 HD
ATOM      6  H   UNL     1     -12.852 -27.972 -12.267  1.00  0.00     0.345 HD
ENDBRANCH   2   3
BRANCH   2   7
ATOM      7  C   UNL     1     -15.166 -28.354 -12.717  1.00  0.00     0.100 C 
ATOM      8  O   UNL     1     -14.502 -29.329 -12.275  1.00  0.00    -0.544 OA
ATOM      9  O   UNL     1     -16.404 -28.579 -13.306  1.00  0.00    -0.544 OA
ENDBRANCH   2   7
ENDBRANCH   1   2
BRANCH   1  10
ATOM     10  C   UNL     1     -13.986 -26.383 -15.000  1.00  0.00     0.223 C 
ATOM     11  O   UNL     1     -13.820 -27.551 -15.443  1.00  0.00    -0.275 OA
ATOM     12  N   UNL     1     -13.208 -25.309 -15.529  1.00  0.00    -0.369 N 
ATOM     13  H   UNL     1     -13.319 -24.339 -15.161  1.00  0.00     0.159 HD
ATOM     14  H   UNL     1     -12.514 -25.486 -16.289  1.00  0.00     0.159 HD
ENDBRANCH   1  10
TORSDOF 4
ENDMDL
MODEL 2
REMARK VINA RESULT:    -4.261      2.197      2.779
REMARK INTER + INTRA:          -5.344
REMARK INTER:                  -5.078
REMARK INTRA:                  -0.266
REMARK UNBOUND:                -0.211
REMARK SMILES NC(=O)C[C@H]([NH3+])C(=O)[O-]
REMARK SMILES IDX 4 1 5 2 6 3 7 7 8 8 9 9 2 10 3 11 1 12
REMARK H PARENT 6 4 6 5 6 6 1 13 1 14
REMARK Flexibility Score: inf
ROOT
ATOM      1  C   UNL     1     -15.992 -27.849 -13.260  1.00  0.00     0.171 C 
ENDROOT
BRANCH   1   2
ATOM      2  C   UNL     1     -15.362 -29.246 -13.094  1.00  0.00     0.237 C 
BRANCH   2   3
ATOM      3  N   UNL     1     -14.321 -29.464 -14.106  1.00  0.00    -0.350 N 
ATOM      4  H   UNL     1     -14.251 -28.626 -14.728  1.00  0.00     0.345 HD
ATOM      5  H   UNL     1     -14.542 -30.304 -14.689  1.00  0.00     0.345 HD
ATOM      6  H   UNL     1     -13.395 -29.601 -13.639  1.00  0.00     0.345 HD
ENDBRANCH   2   3
BRANCH   2   7
ATOM      7  C   UNL     1     -16.407 -30.327 -13.181  1.00  0.00     0.100 C 
ATOM      8  O   UNL     1     -17.630 -30.031 -13.248  1.00  0.00    -0.544 OA
ATOM      9  O   UNL     1     -16.026 -31.664 -13.169  1.00  0.00    -0.544 OA
ENDBRANCH   2   7
ENDBRANCH   1   2
BRANCH   1  10
ATOM     10  C   UNL     1     -14.980 -26.757 -13.062  1.00  0.00     0.223 C 
ATOM     11  O   UNL     1     -14.033 -26.923 -12.248  1.00  0.00    -0.275 OA
ATOM     12  N   UNL     1     -15.105 -25.518 -13.759  1.00  0.00    -0.369 N 
ATOM     13  H   UNL     1     -15.894 -25.356 -14.423  1.00  0.00     0.159 HD
ATOM     14  H   UNL     1     -14.407 -24.756 -13.607  1.00  0.00     0.159 HD
ENDBRANCH   1  10
TORSDOF 4
ENDMDL
MODEL 3
REMARK VINA RESULT:    -4.147      2.214      2.677
REMARK INTER + INTRA:          -5.206
REMARK INTER:                  -5.111
REMARK INTRA:                  -0.095
REMARK UNBOUND:                -0.211
REMARK SMILES NC(=O)C[C@H]([NH3+])C(=O)[O-]
REMARK SMILES IDX 4 1 5 2 6 3 7 7 8 8 9 9 2 10 3 11 1 12
REMARK H PARENT 6 4 6 5 6 6 1 13 1 14
REMARK Flexibility Score: inf
ROOT
ATOM      1  C   UNL     1     -15.372 -27.732 -13.656  1.00  0.00     0.171 C 
ENDROOT
BRANCH   1   2
ATOM      2  C   UNL     1     -14.095 -28.492 -14.069  1.00  0.00     0.237 C 
BRANCH   2   3
ATOM      3  N   UNL     1     -13.889 -28.400 -15.519  1.00  0.00    -0.350 N 
ATOM      4  H   UNL     1     -13.670 -29.347 -15.907  1.00  0.00     0.345 HD
ATOM      5  H   UNL     1     -13.100 -27.750 -15.741  1.00  0.00     0.345 HD
ATOM      6  H   UNL     1     -14.761 -28.054 -15.981  1.00  0.00     0.345 HD
ENDBRANCH   2   3
BRANCH   2   7
ATOM      7  C   UNL     1     -14.160 -29.935 -13.642  1.00  0.00     0.100 C 
ATOM      8  O   UNL     1     -14.558 -30.243 -12.487  1.00  0.00    -0.544 OA
ATOM      9  O   UNL     1     -13.762 -30.937 -14.519  1.00  0.00    -0.544 OA
ENDBRANCH   2   7
ENDBRANCH   1   2
BRANCH   1  10
ATOM     10  C   UNL     1     -15.055 -26.361 -13.132  1.00  0.00     0.223 C 
ATOM     11  O   UNL     1     -14.828 -26.198 -11.903  1.00  0.00    -0.275 OA
ATOM     12  N   UNL     1     -15.047 -25.233 -14.007  1.00  0.00    -0.369 N 
ATOM     13  H   UNL     1     -15.251 -25.347 -15.025  1.00  0.00     0.159 HD
ATOM     14  H   UNL     1     -14.841 -24.279 -13.636  1.00  0.00     0.159 HD
ENDBRANCH   1  10
TORSDOF 4
ENDMDL
MODEL 4
REMARK VINA RESULT:    -4.096      1.764      1.881
REMARK INTER + INTRA:          -5.145
REMARK INTER:                  -4.658
REMARK INTRA:                  -0.487
REMARK UNBOUND:                -0.211
REMARK SMILES NC(=O)C[C@H]([NH3+])C(=O)[O-]
REMARK SMILES IDX 4 1 5 2 6 3 7 7 8 8 9 9 2 10 3 11 1 12
REMARK H PARENT 6 4 6 5 6 6 1 13 1 14
REMARK Flexibility Score: inf
ROOT
ATOM      1  C   UNL     1     -15.177 -27.743 -13.507  1.00  0.00     0.171 C 
ENDROOT
BRANCH   1   2
ATOM      2  C   UNL     1     -14.249 -27.937 -12.291  1.00  0.00     0.237 C 
BRANCH   2   3
ATOM      3  N   UNL     1     -13.148 -26.968 -12.324  1.00  0.00    -0.350 N 
ATOM      4  H   UNL     1     -13.387 -26.139 -11.732  1.00  0.00     0.345 HD
ATOM      5  H   UNL     1     -12.967 -26.646 -13.303  1.00  0.00     0.345 HD
ATOM      6  H   UNL     1     -12.279 -27.404 -11.938  1.00  0.00     0.345 HD
ENDBRANCH   2   3
BRANCH   2   7
ATOM      7  C   UNL     1     -13.706 -29.341 -12.241  1.00  0.00     0.100 C 
ATOM      8  O   UNL     1     -13.247 -29.812 -11.166  1.00  0.00    -0.544 OA
ATOM      9  O   UNL     1     -13.691 -30.121 -13.392  1.00  0.00    -0.544 OA
ENDBRANCH   2   7
ENDBRANCH   1   2
BRANCH   1  10
ATOM     10  C   UNL     1     -14.457 -27.094 -14.655  1.00  0.00     0.223 C 
ATOM     11  O   UNL     1     -14.403 -25.837 -14.728  1.00  0.00    -0.275 OA
ATOM     12  N   UNL     1     -13.868 -27.889 -15.684  1.00  0.00    -0.369 N 
ATOM     13  H   UNL     1     -13.920 -28.931 -15.649  1.00  0.00     0.159 HD
ATOM     14  H   UNL     1     -13.382 -27.433 -16.488  1.00  0.00     0.159 HD
ENDBRANCH   1  10
TORSDOF 4
ENDMDL
MODEL 5
REMARK VINA RESULT:    -3.984      2.624      3.691
REMARK INTER + INTRA:          -5.010
REMARK INTER:                  -4.535
REMARK INTRA:                  -0.475
REMARK UNBOUND:                -0.211
REMARK SMILES NC(=O)C[C@H]([NH3+])C(=O)[O-]
REMARK SMILES IDX 4 1 5 2 6 3 7 7 8 8 9 9 2 10 3 11 1 12
REMARK H PARENT 6 4 6 5 6 6 1 13 1 14
REMARK Flexibility Score: inf
ROOT
ATOM      1  C   UNL     1     -14.481 -28.961 -12.563  1.00  0.00     0.171 C 
ENDROOT
BRANCH   1   2
ATOM      2  C   UNL     1     -15.555 -27.942 -12.994  1.00  0.00     0.237 C 
BRANCH   2   3
ATOM      3  N   UNL     1     -16.697 -28.628 -13.608  1.00  0.00    -0.350 N 
ATOM      4  H   UNL     1     -17.557 -28.039 -13.513  1.00  0.00     0.345 HD
ATOM      5  H   UNL     1     -16.865 -29.552 -13.148  1.00  0.00     0.345 HD
ATOM      6  H   UNL     1     -16.516 -28.777 -14.627  1.00  0.00     0.345 HD
ENDBRANCH   2   3
BRANCH   2   7
ATOM      7  C   UNL     1     -14.985 -26.923 -13.946  1.00  0.00     0.100 C 
ATOM      8  O   UNL     1     -14.181 -27.272 -14.850  1.00  0.00    -0.544 OA
ATOM      9  O   UNL     1     -15.331 -25.583 -13.818  1.00  0.00    -0.544 OA
ENDBRANCH   2   7
ENDBRANCH   1   2
BRANCH   1  10
ATOM     10  C   UNL     1     -14.628 -30.264 -13.295  1.00  0.00     0.223 C 
ATOM     11  O   UNL     1     -15.306 -31.195 -12.783  1.00  0.00    -0.275 OA
ATOM     12  N   UNL     1     -13.974 -30.470 -14.547  1.00  0.00    -0.369 N 
ATOM     13  H   UNL     1     -13.393 -29.717 -14.976  1.00  0.00     0.159 HD
ATOM     14  H   UNL     1     -14.067 -31.383 -15.045  1.00  0.00     0.159 HD
ENDBRANCH   1  10
TORSDOF 4
ENDMDL
MODEL 6
REMARK VINA RESULT:    -3.962      2.373      3.753
REMARK INTER + INTRA:          -4.983
REMARK INTER:                  -4.879
REMARK INTRA:                  -0.104
REMARK UNBOUND:                -0.211
REMARK SMILES NC(=O)C[C@H]([NH3+])C(=O)[O-]
REMARK SMILES IDX 4 1 5 2 6 3 7 7 8 8 9 9 2 10 3 11 1 12
REMARK H PARENT 6 4 6 5 6 6 1 13 1 14
REMARK Flexibility Score: inf
ROOT
ATOM      1  C   UNL     1     -14.034 -28.883 -13.470  1.00  0.00     0.171 C 
ENDROOT
BRANCH   1   2
ATOM      2  C   UNL     1     -14.643 -27.742 -14.309  1.00  0.00     0.237 C 
BRANCH   2   3
ATOM      3  N   UNL     1     -13.779 -27.427 -15.453  1.00  0.00    -0.350 N 
ATOM      4  H   UNL     1     -13.434 -26.443 -15.376  1.00  0.00     0.345 HD
ATOM      5  H   UNL     1     -14.302 -27.535 -16.353  1.00  0.00     0.345 HD
ATOM      6  H   UNL     1     -12.949 -28.064 -15.458  1.00  0.00     0.345 HD
ENDBRANCH   2   3
BRANCH   2   7
ATOM      7  C   UNL     1     -14.866 -26.511 -13.471  1.00  0.00     0.100 C 
ATOM      8  O   UNL     1     -15.332 -25.461 -13.988  1.00  0.00    -0.544 OA
ATOM      9  O   UNL     1     -14.540 -26.522 -12.120  1.00  0.00    -0.544 OA
ENDBRANCH   2   7
ENDBRANCH   1   2
BRANCH   1  10
ATOM     10  C   UNL     1     -15.084 -29.852 -13.008  1.00  0.00     0.223 C 
ATOM     11  O   UNL     1     -14.775 -30.772 -12.204  1.00  0.00    -0.275 OA
ATOM     12  N   UNL     1     -16.420 -29.764 -13.503  1.00  0.00    -0.369 N 
ATOM     13  H   UNL     1     -16.689 -29.020 -14.184  1.00  0.00     0.159 HD
ATOM     14  H   UNL     1     -17.143 -30.450 -13.191  1.00  0.00     0.159 HD
ENDBRANCH   1  10
TORSDOF 4
ENDMDL
MODEL 7
REMARK VINA RESULT:    -3.958      2.248      2.751
REMARK INTER + INTRA:          -4.979
REMARK INTER:                  -4.707
REMARK INTRA:                  -0.272
REMARK UNBOUND:                -0.211
REMARK SMILES NC(=O)C[C@H]([NH3+])C(=O)[O-]
REMARK SMILES IDX 4 1 5 2 6 3 7 7 8 8 9 9 2 10 3 11 1 12
REMARK H PARENT 6 4 6 5 6 6 1 13 1 14
REMARK Flexibility Score: inf
ROOT
ATOM      1  C   UNL     1     -13.712 -28.379 -13.343  1.00  0.00     0.171 C 
ENDROOT
BRANCH   1   2
ATOM      2  C   UNL     1     -14.525 -29.688 -13.309  1.00  0.00     0.237 C 
BRANCH   2   3
ATOM      3  N   UNL     1     -15.953 -29.413 -13.502  1.00  0.00    -0.350 N 
ATOM      4  H   UNL     1     -16.362 -30.109 -14.168  1.00  0.00     0.345 HD
ATOM      5  H   UNL     1     -16.096 -28.450 -13.886  1.00  0.00     0.345 HD
ATOM      6  H   UNL     1     -16.458 -29.498 -12.590  1.00  0.00     0.345 HD
ENDBRANCH   2   3
BRANCH   2   7
ATOM      7  C   UNL     1     -14.307 -30.429 -12.015  1.00  0.00     0.100 C 
ATOM      8  O   UNL     1     -14.955 -31.480 -11.763  1.00  0.00    -0.544 OA
ATOM      9  O   UNL     1     -13.400 -29.943 -11.082  1.00  0.00    -0.544 OA
ENDBRANCH   2   7
ENDBRANCH   1   2
BRANCH   1  10
ATOM     10  C   UNL     1     -14.232 -27.431 -14.386  1.00  0.00     0.223 C 
ATOM     11  O   UNL     1     -14.965 -26.466 -14.044  1.00  0.00    -0.275 OA
ATOM     12  N   UNL     1     -13.935 -27.639 -15.767  1.00  0.00    -0.369 N 
ATOM     13  H   UNL     1     -13.345 -28.445 -16.071  1.00  0.00     0.159 HD
ATOM     14  H   UNL     1     -14.311 -26.987 -16.490  1.00  0.00     0.159 HD
ENDBRANCH   1  10
TORSDOF 4
ENDMDL
MODEL 8
REMARK VINA RESULT:    -3.949      2.836      3.800
REMARK INTER + INTRA:          -4.968
REMARK INTER:                  -4.486
REMARK INTRA:                  -0.482
REMARK UNBOUND:                -0.211
REMARK SMILES NC(=O)C[C@H]([NH3+])C(=O)[O-]
REMARK SMILES IDX 4 1 5 2 6 3 7 7 8 8 9 9 2 10 3 11 1 12
REMARK H PARENT 6 4 6 5 6 6 1 13 1 14
REMARK Flexibility Score: inf
ROOT
ATOM      1  C   UNL     1     -14.792 -29.099 -12.623  1.00  0.00     0.171 C 
ENDROOT
BRANCH   1   2
ATOM      2  C   UNL     1     -13.787 -29.607 -13.676  1.00  0.00     0.237 C 
BRANCH   2   3
ATOM      3  N   UNL     1     -13.994 -28.922 -14.957  1.00  0.00    -0.350 N 
ATOM      4  H   UNL     1     -15.014 -28.907 -15.190  1.00  0.00     0.345 HD
ATOM      5  H   UNL     1     -13.476 -29.408 -15.725  1.00  0.00     0.345 HD
ATOM      6  H   UNL     1     -13.661 -27.933 -14.889  1.00  0.00     0.345 HD
ENDBRANCH   2   3
BRANCH   2   7
ATOM      7  C   UNL     1     -13.898 -31.098 -13.859  1.00  0.00     0.100 C 
ATOM      8  O   UNL     1     -14.963 -31.611 -14.295  1.00  0.00    -0.544 OA
ATOM      9  O   UNL     1     -12.828 -31.920 -13.527  1.00  0.00    -0.544 OA
ENDBRANCH   2   7
ENDBRANCH   1   2
BRANCH   1  10
ATOM     10  C   UNL     1     -16.015 -28.509 -13.264  1.00  0.00     0.223 C 
ATOM     11  O   UNL     1     -16.099 -27.261 -13.419  1.00  0.00    -0.275 OA
ATOM     12  N   UNL     1     -17.100 -29.346 -13.663  1.00  0.00    -0.369 N 
ATOM     13  H   UNL     1     -17.056 -30.379 -13.524  1.00  0.00     0.159 HD
ATOM     14  H   UNL     1     -17.955 -28.929 -14.094  1.00  0.00     0.159 HD
ENDBRANCH   1  10
TORSDOF 4
ENDMDL
MODEL 9
REMARK VINA RESULT:    -3.930      1.854      3.341
REMARK INTER + INTRA:          -4.945
REMARK INTER:                  -4.759
REMARK INTRA:                  -0.186
REMARK UNBOUND:                -0.211
REMARK SMILES NC(=O)C[C@H]([NH3+])C(=O)[O-]
REMARK SMILES IDX 4 1 5 2 6 3 7 7 8 8 9 9 2 10 3 11 1 12
REMARK H PARENT 6 4 6 5 6 6 1 13 1 14
REMARK Flexibility Score: inf
ROOT
ATOM      1  C   UNL     1     -13.073 -27.718 -13.163  1.00  0.00     0.171 C 
ENDROOT
BRANCH   1   2
ATOM      2  C   UNL     1     -14.280 -27.940 -14.096  1.00  0.00     0.237 C 
BRANCH   2   3
ATOM      3  N   UNL     1     -13.910 -27.666 -15.490  1.00  0.00    -0.350 N 
ATOM      4  H   UNL     1     -12.892 -27.861 -15.631  1.00  0.00     0.345 HD
ATOM      5  H   UNL     1     -14.102 -26.667 -15.734  1.00  0.00     0.345 HD
ATOM      6  H   UNL     1     -14.453 -28.288 -16.130  1.00  0.00     0.345 HD
ENDBRANCH   2   3
BRANCH   2   7
ATOM      7  C   UNL     1     -15.447 -27.079 -13.688  1.00  0.00     0.100 C 
ATOM      8  O   UNL     1     -16.507 -27.604 -13.255  1.00  0.00    -0.544 OA
ATOM      9  O   UNL     1     -15.365 -25.697 -13.807  1.00  0.00    -0.544 OA
ENDBRANCH   2   7
ENDBRANCH   1   2
BRANCH   1  10
ATOM     10  C   UNL     1     -13.363 -28.179 -11.763  1.00  0.00     0.223 C 
ATOM     11  O   UNL     1     -13.732 -29.366 -11.560  1.00  0.00    -0.275 OA
ATOM     12  N   UNL     1     -13.262 -27.272 -10.665  1.00  0.00    -0.369 N 
ATOM     13  H   UNL     1     -12.977 -26.280 -10.817  1.00  0.00     0.159 HD
ATOM     14  H   UNL     1     -13.480 -27.593  -9.696  1.00  0.00     0.159 HD
ENDBRANCH   1  10
TORSDOF 4
ENDMDL
