MODEL 1
REMARK VINA RESULT:    -3.440      0.000      0.000
REMARK INTER + INTRA:          -4.886
REMARK INTER:                  -4.647
REMARK INTRA:                  -0.239
REMARK UNBOUND:                -0.239
REMARK SMILES CCCCCCCC(=O)[O-]
REMARK SMILES IDX 5 1 6 2 7 3 8 4 9 5 10 6 4 7 3 8 2 9 1 10
REMARK H PARENT
REMARK Flexibility Score: inf
ROOT
ATOM      1  C   UNL     1     -17.478  20.515  42.232  1.00  0.00     0.000 C 
ENDROOT
BRANCH   1   2
ATOM      2  C   UNL     1     -17.486  19.002  42.504  1.00  0.00     0.006 C 
BRANCH   2   3
ATOM      3  C   UNL     1     -17.102  18.176  41.270  1.00  0.00     0.053 C 
BRANCH   3   4
ATOM      4  C   UNL     1     -16.744  16.779  41.668  1.00  0.00     0.041 C 
ATOM      5  O   UNL     1     -16.643  16.474  42.886  1.00  0.00    -0.550 OA
ATOM      6  O   UNL     1     -16.570  15.802  40.697  1.00  0.00    -0.550 OA
ENDBRANCH   3   4
ENDBRANCH   2   3
ENDBRANCH   1   2
BRANCH   1   7
ATOM      7  C   UNL     1     -18.762  21.209  42.720  1.00  0.00     0.000 C 
BRANCH   7   8
ATOM      8  C   UNL     1     -20.037  20.546  42.171  1.00  0.00    -0.000 C 
BRANCH   8   9
ATOM      9  C   UNL     1     -20.628  21.300  40.971  1.00  0.00    -0.003 C 
ATOM     10  C   UNL     1     -21.803  22.176  41.397  1.00  0.00     0.004 C 
ENDBRANCH   8   9
ENDBRANCH   7   8
ENDBRANCH   1   7
TORSDOF 6
ENDMDL
MODEL 2
REMARK VINA RESULT:    -3.428     17.062     18.537
REMARK INTER + INTRA:          -4.869
REMARK INTER:                  -4.643
REMARK INTRA:                  -0.225
REMARK UNBOUND:                -0.239
REMARK SMILES CCCCCCCC(=O)[O-]
REMARK SMILES IDX 5 1 6 2 7 3 8 4 9 5 10 6 4 7 3 8 2 9 1 10
REMARK H PARENT
REMARK Flexibility Score: inf
ROOT
ATOM      1  C   UNL     1      -7.500  30.842  46.924  1.00  0.00     0.000 C 
ENDROOT
BRANCH   1   2
ATOM      2  C   UNL     1      -6.279  31.543  47.539  1.00  0.00     0.006 C 
BRANCH   2   3
ATOM      3  C   UNL     1      -6.563  33.002  47.921  1.00  0.00     0.053 C 
BRANCH   3   4
ATOM      4  C   UNL     1      -5.594  33.466  48.963  1.00  0.00     0.041 C 
ATOM      5  O   UNL     1      -4.430  33.815  48.635  1.00  0.00    -0.550 OA
ATOM      6  O   UNL     1      -5.993  33.560  50.290  1.00  0.00    -0.550 OA
ENDBRANCH   3   4
ENDBRANCH   2   3
ENDBRANCH   1   2
BRANCH   1   7
ATOM      7  C   UNL     1      -7.136  29.509  46.247  1.00  0.00     0.000 C 
BRANCH   7   8
ATOM      8  C   UNL     1      -5.805  28.932  46.757  1.00  0.00    -0.000 C 
BRANCH   8   9
ATOM      9  C   UNL     1      -5.611  27.457  46.375  1.00  0.00    -0.003 C 
ATOM     10  C   UNL     1      -6.894  26.867  45.797  1.00  0.00     0.004 C 
ENDBRANCH   8   9
ENDBRANCH   7   8
ENDBRANCH   1   7
TORSDOF 6
ENDMDL
MODEL 3
REMARK VINA RESULT:    -3.398      3.864      5.629
REMARK INTER + INTRA:          -4.828
REMARK INTER:                  -4.627
REMARK INTRA:                  -0.202
REMARK UNBOUND:                -0.239
REMARK SMILES CCCCCCCC(=O)[O-]
REMARK SMILES IDX 5 1 6 2 7 3 8 4 9 5 10 6 4 7 3 8 2 9 1 10
REMARK H PARENT
REMARK Flexibility Score: inf
ROOT
ATOM      1  C   UNL     1     -19.085  21.573  41.910  1.00  0.00     0.000 C 
ENDROOT
BRANCH   1   2
ATOM      2  C   UNL     1     -20.457  20.945  41.616  1.00  0.00     0.006 C 
BRANCH   2   3
ATOM      3  C   UNL     1     -21.535  21.992  41.313  1.00  0.00     0.053 C 
BRANCH   3   4
ATOM      4  C   UNL     1     -21.834  22.023  39.847  1.00  0.00     0.041 C 
ATOM      5  O   UNL     1     -20.943  22.365  39.026  1.00  0.00    -0.550 OA
ATOM      6  O   UNL     1     -23.082  21.627  39.383  1.00  0.00    -0.550 OA
ENDBRANCH   3   4
ENDBRANCH   2   3
ENDBRANCH   1   2
BRANCH   1   7
ATOM      7  C   UNL     1     -18.458  21.040  43.211  1.00  0.00     0.000 C 
BRANCH   7   8
ATOM      8  C   UNL     1     -17.842  19.641  43.040  1.00  0.00    -0.000 C 
BRANCH   8   9
ATOM      9  C   UNL     1     -17.300  19.401  41.623  1.00  0.00    -0.003 C 
ATOM     10  C   UNL     1     -17.047  17.917  41.376  1.00  0.00     0.004 C 
ENDBRANCH   8   9
ENDBRANCH   7   8
ENDBRANCH   1   7
TORSDOF 6
ENDMDL
MODEL 4
REMARK VINA RESULT:    -3.397      2.001      3.164
REMARK INTER + INTRA:          -4.827
REMARK INTER:                  -4.501
REMARK INTRA:                  -0.326
REMARK UNBOUND:                -0.239
REMARK SMILES CCCCCCCC(=O)[O-]
REMARK SMILES IDX 5 1 6 2 7 3 8 4 9 5 10 6 4 7 3 8 2 9 1 10
REMARK H PARENT
REMARK Flexibility Score: inf
ROOT
ATOM      1  C   UNL     1     -20.699  20.842  41.746  1.00  0.00     0.000 C 
ENDROOT
BRANCH   1   2
ATOM      2  C   UNL     1     -19.180  21.028  41.592  1.00  0.00     0.006 C 
BRANCH   2   3
ATOM      3  C   UNL     1     -18.436  20.955  42.931  1.00  0.00     0.053 C 
BRANCH   3   4
ATOM      4  C   UNL     1     -17.718  19.648  43.058  1.00  0.00     0.041 C 
ATOM      5  O   UNL     1     -17.339  19.240  44.188  1.00  0.00    -0.550 OA
ATOM      6  O   UNL     1     -17.513  18.856  41.936  1.00  0.00    -0.550 OA
ENDBRANCH   3   4
ENDBRANCH   2   3
ENDBRANCH   1   2
BRANCH   1   7
ATOM      7  C   UNL     1     -21.488  22.111  41.378  1.00  0.00     0.000 C 
BRANCH   7   8
ATOM      8  C   UNL     1     -22.308  21.942  40.088  1.00  0.00    -0.000 C 
BRANCH   8   9
ATOM      9  C   UNL     1     -21.481  22.204  38.821  1.00  0.00    -0.003 C 
ATOM     10  C   UNL     1     -20.673  23.491  38.949  1.00  0.00     0.004 C 
ENDBRANCH   8   9
ENDBRANCH   7   8
ENDBRANCH   1   7
TORSDOF 6
ENDMDL
MODEL 5
REMARK VINA RESULT:    -3.367      2.504      3.667
REMARK INTER + INTRA:          -4.786
REMARK INTER:                  -4.387
REMARK INTRA:                  -0.399
REMARK UNBOUND:                -0.239
REMARK SMILES CCCCCCCC(=O)[O-]
REMARK SMILES IDX 5 1 6 2 7 3 8 4 9 5 10 6 4 7 3 8 2 9 1 10
REMARK H PARENT
REMARK Flexibility Score: inf
ROOT
ATOM      1  C   UNL     1     -21.116  21.402  41.348  1.00  0.00     0.000 C 
ENDROOT
BRANCH   1   2
ATOM      2  C   UNL     1     -20.460  20.404  42.315  1.00  0.00     0.006 C 
BRANCH   2   3
ATOM      3  C   UNL     1     -19.054  19.985  41.870  1.00  0.00     0.053 C 
BRANCH   3   4
ATOM      4  C   UNL     1     -18.071  20.198  42.978  1.00  0.00     0.041 C 
ATOM      5  O   UNL     1     -17.926  21.342  43.484  1.00  0.00    -0.550 OA
ATOM      6  O   UNL     1     -17.351  19.125  43.486  1.00  0.00    -0.550 OA
ENDBRANCH   3   4
ENDBRANCH   2   3
ENDBRANCH   1   2
BRANCH   1   7
ATOM      7  C   UNL     1     -20.087  22.143  40.477  1.00  0.00     0.000 C 
BRANCH   7   8
ATOM      8  C   UNL     1     -19.716  23.523  41.045  1.00  0.00    -0.000 C 
BRANCH   8   9
ATOM      9  C   UNL     1     -20.914  24.243  41.683  1.00  0.00    -0.003 C 
ATOM     10  C   UNL     1     -20.472  25.516  42.399  1.00  0.00     0.004 C 
ENDBRANCH   8   9
ENDBRANCH   7   8
ENDBRANCH   1   7
TORSDOF 6
ENDMDL
MODEL 6
REMARK VINA RESULT:    -3.344     17.699     19.053
REMARK INTER + INTRA:          -4.756
REMARK INTER:                  -4.537
REMARK INTRA:                  -0.219
REMARK UNBOUND:                -0.239
REMARK SMILES CCCCCCCC(=O)[O-]
REMARK SMILES IDX 5 1 6 2 7 3 8 4 9 5 10 6 4 7 3 8 2 9 1 10
REMARK H PARENT
REMARK Flexibility Score: inf
ROOT
ATOM      1  C   UNL     1      -5.745  31.921  47.089  1.00  0.00     0.000 C 
ENDROOT
BRANCH   1   2
ATOM      2  C   UNL     1      -6.390  32.977  48.001  1.00  0.00     0.006 C 
BRANCH   2   3
ATOM      3  C   UNL     1      -5.387  33.612  48.973  1.00  0.00     0.053 C 
BRANCH   3   4
ATOM      4  C   UNL     1      -6.065  33.972  50.258  1.00  0.00     0.041 C 
ATOM      5  O   UNL     1      -5.604  33.558  51.355  1.00  0.00    -0.550 OA
ATOM      6  O   UNL     1      -7.176  34.805  50.249  1.00  0.00    -0.550 OA
ENDBRANCH   3   4
ENDBRANCH   2   3
ENDBRANCH   1   2
BRANCH   1   7
ATOM      7  C   UNL     1      -6.374  30.527  47.264  1.00  0.00     0.000 C 
BRANCH   7   8
ATOM      8  C   UNL     1      -7.888  30.525  46.992  1.00  0.00    -0.000 C 
BRANCH   8   9
ATOM      9  C   UNL     1      -8.255  29.802  45.688  1.00  0.00    -0.003 C 
ATOM     10  C   UNL     1      -7.342  28.603  45.449  1.00  0.00     0.004 C 
ENDBRANCH   8   9
ENDBRANCH   7   8
ENDBRANCH   1   7
TORSDOF 6
ENDMDL
MODEL 7
REMARK VINA RESULT:    -3.318      4.734      6.400
REMARK INTER + INTRA:          -4.721
REMARK INTER:                  -4.470
REMARK INTRA:                  -0.251
REMARK UNBOUND:                -0.239
REMARK SMILES CCCCCCCC(=O)[O-]
REMARK SMILES IDX 5 1 6 2 7 3 8 4 9 5 10 6 4 7 3 8 2 9 1 10
REMARK H PARENT
REMARK Flexibility Score: inf
ROOT
ATOM      1  C   UNL     1     -21.741  21.974  38.641  1.00  0.00     0.000 C 
ENDROOT
BRANCH   1   2
ATOM      2  C   UNL     1     -22.197  21.966  40.109  1.00  0.00     0.006 C 
BRANCH   2   3
ATOM      3  C   UNL     1     -21.141  21.382  41.055  1.00  0.00     0.053 C 
BRANCH   3   4
ATOM      4  C   UNL     1     -20.013  22.349  41.237  1.00  0.00     0.041 C 
ATOM      5  O   UNL     1     -18.853  22.049  40.848  1.00  0.00    -0.550 OA
ATOM      6  O   UNL     1     -20.252  23.600  41.791  1.00  0.00    -0.550 OA
ENDBRANCH   3   4
ENDBRANCH   2   3
ENDBRANCH   1   2
BRANCH   1   7
ATOM      7  C   UNL     1     -22.685  21.173  37.726  1.00  0.00     0.000 C 
BRANCH   7   8
ATOM      8  C   UNL     1     -22.325  21.316  36.238  1.00  0.00    -0.000 C 
BRANCH   8   9
ATOM      9  C   UNL     1     -21.149  22.275  36.000  1.00  0.00    -0.003 C 
ATOM     10  C   UNL     1     -20.703  22.246  34.542  1.00  0.00     0.004 C 
ENDBRANCH   8   9
ENDBRANCH   7   8
ENDBRANCH   1   7
TORSDOF 6
ENDMDL
MODEL 8
REMARK VINA RESULT:    -3.302     16.724     17.936
REMARK INTER + INTRA:          -4.699
REMARK INTER:                  -4.405
REMARK INTRA:                  -0.294
REMARK UNBOUND:                -0.239
REMARK SMILES CCCCCCCC(=O)[O-]
REMARK SMILES IDX 5 1 6 2 7 3 8 4 9 5 10 6 4 7 3 8 2 9 1 10
REMARK H PARENT
REMARK Flexibility Score: inf
ROOT
ATOM      1  C   UNL     1      -7.424  31.342  47.165  1.00  0.00     0.000 C 
ENDROOT
BRANCH   1   2
ATOM      2  C   UNL     1      -6.370  30.226  47.251  1.00  0.00     0.006 C 
BRANCH   2   3
ATOM      3  C   UNL     1      -6.706  29.025  46.359  1.00  0.00     0.053 C 
BRANCH   3   4
ATOM      4  C   UNL     1      -5.605  28.012  46.413  1.00  0.00     0.041 C 
ATOM      5  O   UNL     1      -4.404  28.385  46.466  1.00  0.00    -0.550 OA
ATOM      6  O   UNL     1      -5.909  26.657  46.455  1.00  0.00    -0.550 OA
ENDBRANCH   3   4
ENDBRANCH   2   3
ENDBRANCH   1   2
BRANCH   1   7
ATOM      7  C   UNL     1      -6.826  32.739  47.415  1.00  0.00     0.000 C 
BRANCH   7   8
ATOM      8  C   UNL     1      -5.322  32.689  47.731  1.00  0.00    -0.000 C 
BRANCH   8   9
ATOM      9  C   UNL     1      -4.922  33.641  48.868  1.00  0.00    -0.003 C 
ATOM     10  C   UNL     1      -6.044  33.771  49.894  1.00  0.00     0.004 C 
ENDBRANCH   8   9
ENDBRANCH   7   8
ENDBRANCH   1   7
TORSDOF 6
ENDMDL
MODEL 9
REMARK VINA RESULT:    -3.254     15.881     17.072
REMARK INTER + INTRA:          -4.635
REMARK INTER:                  -4.421
REMARK INTRA:                  -0.214
REMARK UNBOUND:                -0.239
REMARK SMILES CCCCCCCC(=O)[O-]
REMARK SMILES IDX 5 1 6 2 7 3 8 4 9 5 10 6 4 7 3 8 2 9 1 10
REMARK H PARENT
REMARK Flexibility Score: inf
ROOT
ATOM      1  C   UNL     1      -6.098  30.369  47.273  1.00  0.00     0.000 C 
ENDROOT
BRANCH   1   2
ATOM      2  C   UNL     1      -6.091  29.340  46.131  1.00  0.00     0.006 C 
BRANCH   2   3
ATOM      3  C   UNL     1      -5.435  28.014  46.533  1.00  0.00     0.053 C 
BRANCH   3   4
ATOM      4  C   UNL     1      -6.343  26.867  46.220  1.00  0.00     0.041 C 
ATOM      5  O   UNL     1      -6.045  25.702  46.594  1.00  0.00    -0.550 OA
ATOM      6  O   UNL     1      -7.544  27.091  45.558  1.00  0.00    -0.550 OA
ENDBRANCH   3   4
ENDBRANCH   2   3
ENDBRANCH   1   2
BRANCH   1   7
ATOM      7  C   UNL     1      -7.269  31.362  47.166  1.00  0.00     0.000 C 
BRANCH   7   8
ATOM      8  C   UNL     1      -6.842  32.812  47.450  1.00  0.00    -0.000 C 
BRANCH   8   9
ATOM      9  C   UNL     1      -5.566  32.898  48.299  1.00  0.00    -0.003 C 
ATOM     10  C   UNL     1      -5.813  33.682  49.584  1.00  0.00     0.004 C 
ENDBRANCH   8   9
ENDBRANCH   7   8
ENDBRANCH   1   7
TORSDOF 6
ENDMDL
