MODEL 1
REMARK VINA RESULT:    -3.112      0.000      0.000
REMARK INTER + INTRA:          -3.685
REMARK INTER:                  -3.840
REMARK INTRA:                   0.155
REMARK UNBOUND:                 0.155
REMARK SMILES COc1cc(-c2[o+]c3cc(O)cc(O)c3cc2O)ccc1O
REMARK SMILES IDX 6 1 7 2 8 3 9 4 10 5 12 6 13 7 15 8 16 9 17 10 5 11 3 12
REMARK SMILES IDX 21 13 4 14 20 15 19 16 2 17 1 18 22 19 18 21 11 23 14 25
REMARK H PARENT 22 20 18 22 11 24 14 26
REMARK Flexibility Score: inf
ROOT
ATOM      1  C   UNL     1      16.456  40.121  11.431  1.00  0.00     0.402 A 
ATOM      2  O   UNL     1      16.233  40.841  10.335  1.00  0.00    -0.202 OA
ATOM      3  C   UNL     1      16.311  42.168  10.304  1.00  0.00     0.368 A 
ATOM      4  C   UNL     1      16.056  42.836   9.105  1.00  0.00     0.162 A 
ATOM      5  C   UNL     1      16.127  44.229   9.043  1.00  0.00     0.128 A 
ATOM      6  C   UNL     1      16.455  44.959  10.190  1.00  0.00     0.093 A 
ATOM      7  C   UNL     1      16.715  44.314  11.405  1.00  0.00     0.136 A 
ATOM      8  C   UNL     1      16.646  42.898  11.470  1.00  0.00     0.125 A 
ATOM      9  C   UNL     1      16.903  42.165  12.640  1.00  0.00     0.078 A 
ATOM     10  C   UNL     1      16.820  40.770  12.626  1.00  0.00     0.223 A 
ENDROOT
BRANCH   1  11
ATOM     11  C   UNL     1      16.329  38.648  11.340  1.00  0.00     0.087 A 
ATOM     12  C   UNL     1      15.343  36.570  12.169  1.00  0.00     0.161 A 
ATOM     13  C   UNL     1      16.102  35.847  11.239  1.00  0.00     0.157 A 
ATOM     14  C   UNL     1      15.467  37.974  12.219  1.00  0.00     0.068 A 
ATOM     15  C   UNL     1      16.977  36.515  10.373  1.00  0.00     0.051 A 
ATOM     16  C   UNL     1      17.096  37.905  10.427  1.00  0.00     0.022 A 
BRANCH  12  17
ATOM     17  O   UNL     1      14.483  35.864  13.024  1.00  0.00    -0.493 OA
ATOM     18  C   UNL     1      13.391  35.061  12.587  1.00  0.00     0.278 C 
ENDBRANCH  12  17
BRANCH  13  19
ATOM     19  O   UNL     1      15.982  34.459  11.182  1.00  0.00    -0.504 OA
ATOM     20  H   UNL     1      15.662  33.988  10.344  1.00  0.00     0.293 HD
ENDBRANCH  13  19
ENDBRANCH   1  11
BRANCH  10  21
ATOM     21  O   UNL     1      17.123  40.038  13.774  1.00  0.00    -0.500 OA
ATOM     22  H   UNL     1      17.894  40.295  14.381  1.00  0.00     0.294 HD
ENDBRANCH  10  21
BRANCH   5  23
ATOM     23  O   UNL     1      15.870  44.877   7.837  1.00  0.00    -0.507 OA
ATOM     24  H   UNL     1      15.346  44.428   7.095  1.00  0.00     0.293 HD
ENDBRANCH   5  23
BRANCH   7  25
ATOM     25  O   UNL     1      17.033  45.115  12.505  1.00  0.00    -0.507 OA
ATOM     26  H   UNL     1      16.353  45.591  13.079  1.00  0.00     0.293 HD
ENDBRANCH   7  25
TORSDOF 6
ENDMDL
MODEL 2
REMARK VINA RESULT:    -2.545      4.308      8.111
REMARK INTER + INTRA:          -2.985
REMARK INTER:                  -2.992
REMARK INTRA:                   0.008
REMARK UNBOUND:                 0.155
REMARK SMILES COc1cc(-c2[o+]c3cc(O)cc(O)c3cc2O)ccc1O
REMARK SMILES IDX 6 1 7 2 8 3 9 4 10 5 12 6 13 7 15 8 16 9 17 10 5 11 3 12
REMARK SMILES IDX 21 13 4 14 20 15 19 16 2 17 1 18 22 19 18 21 11 23 14 25
REMARK H PARENT 22 20 18 22 11 24 14 26
REMARK Flexibility Score: inf
ROOT
ATOM      1  C   UNL     1      12.323  35.040  13.637  1.00  0.00     0.402 A 
ATOM      2  O   UNL     1      13.061  36.139  13.497  1.00  0.00    -0.202 OA
ATOM      3  C   UNL     1      14.104  36.219  12.677  1.00  0.00     0.368 A 
ATOM      4  C   UNL     1      14.820  37.416  12.602  1.00  0.00     0.162 A 
ATOM      5  C   UNL     1      15.921  37.528  11.752  1.00  0.00     0.128 A 
ATOM      6  C   UNL     1      16.311  36.435  10.971  1.00  0.00     0.093 A 
ATOM      7  C   UNL     1      15.610  35.223  11.028  1.00  0.00     0.136 A 
ATOM      8  C   UNL     1      14.489  35.107  11.890  1.00  0.00     0.125 A 
ATOM      9  C   UNL     1      13.719  33.938  12.002  1.00  0.00     0.078 A 
ATOM     10  C   UNL     1      12.624  33.900  12.869  1.00  0.00     0.223 A 
ENDROOT
BRANCH   1  11
ATOM     11  C   UNL     1      11.191  35.074  14.591  1.00  0.00     0.087 A 
ATOM     12  C   UNL     1       8.782  34.960  14.997  1.00  0.00     0.161 A 
ATOM     13  C   UNL     1       9.008  35.190  16.360  1.00  0.00     0.157 A 
ATOM     14  C   UNL     1       9.881  34.910  14.113  1.00  0.00     0.068 A 
ATOM     15  C   UNL     1      10.312  35.372  16.836  1.00  0.00     0.051 A 
ATOM     16  C   UNL     1      11.396  35.323  15.958  1.00  0.00     0.022 A 
BRANCH  12  17
ATOM     17  O   UNL     1       7.461  34.788  14.557  1.00  0.00    -0.493 OA
ATOM     18  C   UNL     1       6.644  33.667  14.875  1.00  0.00     0.278 C 
ENDBRANCH  12  17
BRANCH  13  19
ATOM     19  O   UNL     1       7.927  35.238  17.239  1.00  0.00    -0.504 OA
ATOM     20  H   UNL     1       7.194  35.930  17.140  1.00  0.00     0.293 HD
ENDBRANCH  13  19
ENDBRANCH   1  11
BRANCH  10  21
ATOM     21  O   UNL     1      11.830  32.755  12.945  1.00  0.00    -0.500 OA
ATOM     22  H   UNL     1      11.018  32.710  13.550  1.00  0.00     0.294 HD
ENDBRANCH  10  21
BRANCH   5  23
ATOM     23  O   UNL     1      16.621  38.730  11.691  1.00  0.00    -0.507 OA
ATOM     24  H   UNL     1      16.467  39.469  12.368  1.00  0.00     0.293 HD
ENDBRANCH   5  23
BRANCH   7  25
ATOM     25  O   UNL     1      16.065  34.178  10.219  1.00  0.00    -0.507 OA
ATOM     26  H   UNL     1      16.680  33.441  10.531  1.00  0.00     0.293 HD
ENDBRANCH   7  25
TORSDOF 6
ENDMDL
MODEL 3
REMARK VINA RESULT:    -2.223      1.755      3.176
REMARK INTER + INTRA:          -2.588
REMARK INTER:                  -2.804
REMARK INTRA:                   0.216
REMARK UNBOUND:                 0.155
REMARK SMILES COc1cc(-c2[o+]c3cc(O)cc(O)c3cc2O)ccc1O
REMARK SMILES IDX 6 1 7 2 8 3 9 4 10 5 12 6 13 7 15 8 16 9 17 10 5 11 3 12
REMARK SMILES IDX 21 13 4 14 20 15 19 16 2 17 1 18 22 19 18 21 11 23 14 25
REMARK H PARENT 22 20 18 22 11 24 14 26
REMARK Flexibility Score: inf
ROOT
ATOM      1  C   UNL     1      16.378  41.741  11.343  1.00  0.00     0.402 A 
ATOM      2  O   UNL     1      15.967  42.630  12.244  1.00  0.00    -0.202 OA
ATOM      3  C   UNL     1      15.910  43.936  12.008  1.00  0.00     0.368 A 
ATOM      4  C   UNL     1      15.468  44.792  13.019  1.00  0.00     0.162 A 
ATOM      5  C   UNL     1      15.401  46.169  12.801  1.00  0.00     0.128 A 
ATOM      6  C   UNL     1      15.780  46.695  11.561  1.00  0.00     0.093 A 
ATOM      7  C   UNL     1      16.228  45.860  10.531  1.00  0.00     0.136 A 
ATOM      8  C   UNL     1      16.295  44.459  10.749  1.00  0.00     0.125 A 
ATOM      9  C   UNL     1      16.717  43.544   9.771  1.00  0.00     0.078 A 
ATOM     10  C   UNL     1      16.752  42.177  10.058  1.00  0.00     0.223 A 
ENDROOT
BRANCH   1  11
ATOM     11  C   UNL     1      16.404  40.312  11.731  1.00  0.00     0.087 A 
ATOM     12  C   UNL     1      15.639  38.020  11.357  1.00  0.00     0.161 A 
ATOM     13  C   UNL     1      16.379  37.599  12.470  1.00  0.00     0.157 A 
ATOM     14  C   UNL     1      15.649  39.383  10.997  1.00  0.00     0.068 A 
ATOM     15  C   UNL     1      17.117  38.525  13.215  1.00  0.00     0.051 A 
ATOM     16  C   UNL     1      17.125  39.874  12.855  1.00  0.00     0.022 A 
BRANCH  12  17
ATOM     17  O   UNL     1      14.906  37.062  10.639  1.00  0.00    -0.493 OA
ATOM     18  C   UNL     1      15.468  35.900  10.039  1.00  0.00     0.278 C 
ENDBRANCH  12  17
BRANCH  13  19
ATOM     19  O   UNL     1      16.375  36.252  12.830  1.00  0.00    -0.504 OA
ATOM     20  H   UNL     1      15.765  35.583  12.374  1.00  0.00     0.293 HD
ENDBRANCH  13  19
ENDBRANCH   1  11
BRANCH  10  21
ATOM     21  O   UNL     1      17.125  41.263   9.072  1.00  0.00    -0.500 OA
ATOM     22  H   UNL     1      17.659  41.547   8.259  1.00  0.00     0.294 HD
ENDBRANCH  10  21
BRANCH   5  23
ATOM     23  O   UNL     1      14.956  47.005  13.822  1.00  0.00    -0.507 OA
ATOM     24  H   UNL     1      15.521  47.183  14.645  1.00  0.00     0.293 HD
ENDBRANCH   5  23
BRANCH   7  25
ATOM     25  O   UNL     1      16.592  46.463   9.324  1.00  0.00    -0.507 OA
ATOM     26  H   UNL     1      15.955  46.962   8.721  1.00  0.00     0.293 HD
ENDBRANCH   7  25
TORSDOF 6
ENDMDL
MODEL 4
REMARK VINA RESULT:    -2.124      1.621      2.391
REMARK INTER + INTRA:          -2.465
REMARK INTER:                  -3.045
REMARK INTRA:                   0.580
REMARK UNBOUND:                 0.155
REMARK SMILES COc1cc(-c2[o+]c3cc(O)cc(O)c3cc2O)ccc1O
REMARK SMILES IDX 6 1 7 2 8 3 9 4 10 5 12 6 13 7 15 8 16 9 17 10 5 11 3 12
REMARK SMILES IDX 21 13 4 14 20 15 19 16 2 17 1 18 22 19 18 21 11 23 14 25
REMARK H PARENT 22 20 18 22 11 24 14 26
REMARK Flexibility Score: inf
ROOT
ATOM      1  C   UNL     1      16.431  41.792  11.012  1.00  0.00     0.402 A 
ATOM      2  O   UNL     1      16.131  42.001   9.732  1.00  0.00    -0.202 OA
ATOM      3  C   UNL     1      16.082  43.210   9.181  1.00  0.00     0.368 A 
ATOM      4  C   UNL     1      15.754  43.329   7.829  1.00  0.00     0.162 A 
ATOM      5  C   UNL     1      15.693  44.585   7.225  1.00  0.00     0.128 A 
ATOM      6  C   UNL     1      15.960  45.733   7.979  1.00  0.00     0.093 A 
ATOM      7  C   UNL     1      16.292  45.642   9.336  1.00  0.00     0.136 A 
ATOM      8  C   UNL     1      16.357  44.365   9.953  1.00  0.00     0.125 A 
ATOM      9  C   UNL     1      16.694  44.176  11.303  1.00  0.00     0.078 A 
ATOM     10  C   UNL     1      16.743  42.886  11.839  1.00  0.00     0.223 A 
ENDROOT
BRANCH   1  11
ATOM     11  C   UNL     1      16.443  40.397  11.509  1.00  0.00     0.087 A 
ATOM     12  C   UNL     1      15.699  38.079  11.279  1.00  0.00     0.161 A 
ATOM     13  C   UNL     1      16.391  37.748  12.452  1.00  0.00     0.157 A 
ATOM     14  C   UNL     1      15.723  39.411  10.816  1.00  0.00     0.068 A 
ATOM     15  C   UNL     1      17.093  38.733  13.156  1.00  0.00     0.051 A 
ATOM     16  C   UNL     1      17.114  40.051  12.693  1.00  0.00     0.022 A 
BRANCH  12  17
ATOM     17  O   UNL     1      15.000  37.066  10.605  1.00  0.00    -0.493 OA
ATOM     18  C   UNL     1      15.606  35.909  10.037  1.00  0.00     0.278 C 
ENDBRANCH  12  17
BRANCH  13  19
ATOM     19  O   UNL     1      16.373  36.433  12.914  1.00  0.00    -0.504 OA
ATOM     20  H   UNL     1      16.474  36.215  13.898  1.00  0.00     0.293 HD
ENDBRANCH  13  19
ENDBRANCH   1  11
BRANCH  10  21
ATOM     21  O   UNL     1      17.125  42.694  13.167  1.00  0.00    -0.500 OA
ATOM     22  H   UNL     1      16.808  43.311  13.906  1.00  0.00     0.294 HD
ENDBRANCH  10  21
BRANCH   5  23
ATOM     23  O   UNL     1      15.364  44.682   5.875  1.00  0.00    -0.507 OA
ATOM     24  H   UNL     1      16.005  45.084   5.200  1.00  0.00     0.293 HD
ENDBRANCH   5  23
BRANCH   7  25
ATOM     25  O   UNL     1      16.542  46.835  10.020  1.00  0.00    -0.507 OA
ATOM     26  H   UNL     1      16.660  46.905  11.019  1.00  0.00     0.293 HD
ENDBRANCH   7  25
TORSDOF 6
ENDMDL
MODEL 5
REMARK VINA RESULT:    -1.941     20.739     21.944
REMARK INTER + INTRA:          -2.240
REMARK INTER:                  -2.077
REMARK INTRA:                  -0.163
REMARK UNBOUND:                 0.155
REMARK SMILES COc1cc(-c2[o+]c3cc(O)cc(O)c3cc2O)ccc1O
REMARK SMILES IDX 6 1 7 2 8 3 9 4 10 5 12 6 13 7 15 8 16 9 17 10 5 11 3 12
REMARK SMILES IDX 21 13 4 14 20 15 19 16 2 17 1 18 22 19 18 21 11 23 14 25
REMARK H PARENT 22 20 18 22 11 24 14 26
REMARK Flexibility Score: inf
ROOT
ATOM      1  C   UNL     1      -1.893  41.417  23.945  1.00  0.00     0.402 A 
ATOM      2  O   UNL     1      -1.346  42.395  23.225  1.00  0.00    -0.202 OA
ATOM      3  C   UNL     1      -1.447  43.681  23.545  1.00  0.00     0.368 A 
ATOM      4  C   UNL     1      -0.841  44.635  22.725  1.00  0.00     0.162 A 
ATOM      5  C   UNL     1      -0.933  45.993  23.034  1.00  0.00     0.128 A 
ATOM      6  C   UNL     1      -1.637  46.401  24.171  1.00  0.00     0.093 A 
ATOM      7  C   UNL     1      -2.255  45.465  25.010  1.00  0.00     0.136 A 
ATOM      8  C   UNL     1      -2.161  44.083  24.700  1.00  0.00     0.125 A 
ATOM      9  C   UNL     1      -2.735  43.074  25.489  1.00  0.00     0.078 A 
ATOM     10  C   UNL     1      -2.596  41.732  25.122  1.00  0.00     0.223 A 
ENDROOT
BRANCH   1  11
ATOM     11  C   UNL     1      -1.717  40.023  23.479  1.00  0.00     0.087 A 
ATOM     12  C   UNL     1      -0.867  37.766  23.881  1.00  0.00     0.161 A 
ATOM     13  C   UNL     1      -1.310  37.380  22.608  1.00  0.00     0.157 A 
ATOM     14  C   UNL     1      -1.067  39.095  24.308  1.00  0.00     0.068 A 
ATOM     15  C   UNL     1      -1.941  38.308  21.772  1.00  0.00     0.051 A 
ATOM     16  C   UNL     1      -2.137  39.623  22.199  1.00  0.00     0.022 A 
BRANCH  12  17
ATOM     17  O   UNL     1      -0.233  36.808  24.687  1.00  0.00    -0.493 OA
ATOM     18  C   UNL     1       0.227  37.048  26.014  1.00  0.00     0.278 C 
ENDBRANCH  12  17
BRANCH  13  19
ATOM     19  O   UNL     1      -1.117  36.067  22.181  1.00  0.00    -0.504 OA
ATOM     20  H   UNL     1      -1.845  35.368  22.268  1.00  0.00     0.293 HD
ENDBRANCH  13  19
ENDBRANCH   1  11
BRANCH  10  21
ATOM     21  O   UNL     1      -3.125  40.726  25.931  1.00  0.00    -0.500 OA
ATOM     22  H   UNL     1      -2.786  40.569  26.874  1.00  0.00     0.294 HD
ENDBRANCH  10  21
BRANCH   5  23
ATOM     23  O   UNL     1      -0.321  46.929  22.203  1.00  0.00    -0.507 OA
ATOM     24  H   UNL     1       0.345  47.603  22.563  1.00  0.00     0.293 HD
ENDBRANCH   5  23
BRANCH   7  25
ATOM     25  O   UNL     1      -2.942  45.953  26.124  1.00  0.00    -0.507 OA
ATOM     26  H   UNL     1      -2.751  45.681  27.077  1.00  0.00     0.293 HD
ENDBRANCH   7  25
TORSDOF 6
ENDMDL
MODEL 6
REMARK VINA RESULT:    -0.453      6.732      9.722
REMARK INTER + INTRA:          -0.403
REMARK INTER:                  -0.288
REMARK INTRA:                  -0.116
REMARK UNBOUND:                 0.155
REMARK SMILES COc1cc(-c2[o+]c3cc(O)cc(O)c3cc2O)ccc1O
REMARK SMILES IDX 6 1 7 2 8 3 9 4 10 5 12 6 13 7 15 8 16 9 17 10 5 11 3 12
REMARK SMILES IDX 21 13 4 14 20 15 19 16 2 17 1 18 22 19 18 21 11 23 14 25
REMARK H PARENT 22 20 18 22 11 24 14 26
REMARK Flexibility Score: inf
ROOT
ATOM      1  C   UNL     1      11.421  34.919  13.983  1.00  0.00     0.402 A 
ATOM      2  O   UNL     1      10.492  34.022  13.659  1.00  0.00    -0.202 OA
ATOM      3  C   UNL     1       9.271  34.013  14.184  1.00  0.00     0.368 A 
ATOM      4  C   UNL     1       8.366  33.028  13.783  1.00  0.00     0.162 A 
ATOM      5  C   UNL     1       7.078  32.992  14.320  1.00  0.00     0.128 A 
ATOM      6  C   UNL     1       6.692  33.947  15.266  1.00  0.00     0.093 A 
ATOM      7  C   UNL     1       7.581  34.945  15.686  1.00  0.00     0.136 A 
ATOM      8  C   UNL     1       8.890  34.986  15.140  1.00  0.00     0.125 A 
ATOM      9  C   UNL     1       9.842  35.956  15.490  1.00  0.00     0.078 A 
ATOM     10  C   UNL     1      11.112  35.935  14.906  1.00  0.00     0.223 A 
ENDROOT
BRANCH   1  11
ATOM     11  C   UNL     1      12.748  34.817  13.335  1.00  0.00     0.087 A 
ATOM     12  C   UNL     1      15.183  34.726  13.538  1.00  0.00     0.161 A 
ATOM     13  C   UNL     1      15.291  34.685  12.141  1.00  0.00     0.157 A 
ATOM     14  C   UNL     1      13.906  34.800  14.130  1.00  0.00     0.068 A 
ATOM     15  C   UNL     1      14.140  34.723  11.345  1.00  0.00     0.051 A 
ATOM     16  C   UNL     1      12.877  34.796  11.936  1.00  0.00     0.022 A 
BRANCH  12  17
ATOM     17  O   UNL     1      16.360  34.694  14.301  1.00  0.00    -0.493 OA
ATOM     18  C   UNL     1      16.947  33.509  14.830  1.00  0.00     0.278 C 
ENDBRANCH  12  17
BRANCH  13  19
ATOM     19  O   UNL     1      16.552  34.610  11.550  1.00  0.00    -0.504 OA
ATOM     20  H   UNL     1      16.789  35.164  10.735  1.00  0.00     0.293 HD
ENDBRANCH  13  19
ENDBRANCH   1  11
BRANCH  10  21
ATOM     21  O   UNL     1      12.043  36.927  15.216  1.00  0.00    -0.500 OA
ATOM     22  H   UNL     1      11.838  37.657  15.890  1.00  0.00     0.294 HD
ENDBRANCH  10  21
BRANCH   5  23
ATOM     23  O   UNL     1       6.190  32.002  13.907  1.00  0.00    -0.507 OA
ATOM     24  H   UNL     1       5.915  31.907  12.936  1.00  0.00     0.293 HD
ENDBRANCH   5  23
BRANCH   7  25
ATOM     25  O   UNL     1       7.120  35.860  16.636  1.00  0.00    -0.507 OA
ATOM     26  H   UNL     1       7.684  36.590  17.046  1.00  0.00     0.293 HD
ENDBRANCH   7  25
TORSDOF 6
ENDMDL
