MODEL 1
REMARK VINA RESULT:    -3.718      0.000      0.000
REMARK INTER + INTRA:          -4.699
REMARK INTER:                  -4.479
REMARK INTRA:                  -0.220
REMARK UNBOUND:                -0.220
REMARK SMILES OCC(O)CO
REMARK SMILES IDX 3 1 5 2 6 3 2 5 1 6 4 8
REMARK H PARENT 6 4 1 7 4 9
REMARK Flexibility Score: inf
ROOT
ATOM      1  C   UNL     1      29.688  49.428  -6.665  1.00  0.00     0.165 C 
ENDROOT
BRANCH   1   2
ATOM      2  C   UNL     1      29.965  49.826  -8.123  1.00  0.00     0.190 C 
BRANCH   2   3
ATOM      3  O   UNL     1      30.078  51.218  -8.236  1.00  0.00    -0.394 OA
ATOM      4  H   UNL     1      29.434  51.491  -8.939  1.00  0.00     0.210 HD
ENDBRANCH   2   3
ENDBRANCH   1   2
BRANCH   1   5
ATOM      5  C   UNL     1      30.704  50.051  -5.700  1.00  0.00     0.190 C 
BRANCH   5   6
ATOM      6  O   UNL     1      30.245  51.292  -5.240  1.00  0.00    -0.394 OA
ATOM      7  H   UNL     1      30.617  51.972  -5.860  1.00  0.00     0.210 HD
ENDBRANCH   5   6
ENDBRANCH   1   5
BRANCH   1   8
ATOM      8  O   UNL     1      28.402  49.859  -6.300  1.00  0.00    -0.388 OA
ATOM      9  H   UNL     1      27.859  49.043  -6.140  1.00  0.00     0.211 HD
ENDBRANCH   1   8
TORSDOF 5
ENDMDL
MODEL 2
REMARK VINA RESULT:    -3.662      1.441      2.900
REMARK INTER + INTRA:          -4.632
REMARK INTER:                  -4.622
REMARK INTRA:                  -0.010
REMARK UNBOUND:                -0.220
REMARK SMILES OCC(O)CO
REMARK SMILES IDX 3 1 5 2 6 3 2 5 1 6 4 8
REMARK H PARENT 6 4 1 7 4 9
REMARK Flexibility Score: inf
ROOT
ATOM      1  C   UNL     1      30.390  49.610  -6.044  1.00  0.00     0.165 C 
ENDROOT
BRANCH   1   2
ATOM      2  C   UNL     1      30.750  50.990  -5.473  1.00  0.00     0.190 C 
BRANCH   2   3
ATOM      3  O   UNL     1      31.081  50.886  -4.115  1.00  0.00    -0.394 OA
ATOM      4  H   UNL     1      30.330  50.400  -3.685  1.00  0.00     0.210 HD
ENDBRANCH   2   3
ENDBRANCH   1   2
BRANCH   1   5
ATOM      5  C   UNL     1      29.983  49.691  -7.521  1.00  0.00     0.190 C 
BRANCH   5   6
ATOM      6  O   UNL     1      30.006  51.021  -7.962  1.00  0.00    -0.394 OA
ATOM      7  H   UNL     1      30.195  51.575  -7.161  1.00  0.00     0.210 HD
ENDBRANCH   5   6
ENDBRANCH   1   5
BRANCH   1   8
ATOM      8  O   UNL     1      31.498  48.755  -5.932  1.00  0.00    -0.388 OA
ATOM      9  H   UNL     1      31.391  48.253  -5.082  1.00  0.00     0.211 HD
ENDBRANCH   1   8
TORSDOF 5
ENDMDL
MODEL 3
REMARK VINA RESULT:    -3.655      9.833     10.887
REMARK INTER + INTRA:          -4.623
REMARK INTER:                  -4.620
REMARK INTRA:                  -0.003
REMARK UNBOUND:                -0.220
REMARK SMILES OCC(O)CO
REMARK SMILES IDX 3 1 5 2 6 3 2 5 1 6 4 8
REMARK H PARENT 6 4 1 7 4 9
REMARK Flexibility Score: inf
ROOT
ATOM      1  C   UNL     1      23.410  44.129  -0.975  1.00  0.00     0.165 C 
ENDROOT
BRANCH   1   2
ATOM      2  C   UNL     1      22.853  42.945  -0.170  1.00  0.00     0.190 C 
BRANCH   2   3
ATOM      3  O   UNL     1      21.487  43.128   0.086  1.00  0.00    -0.394 OA
ATOM      4  H   UNL     1      21.370  43.001   1.063  1.00  0.00     0.210 HD
ENDBRANCH   2   3
ENDBRANCH   1   2
BRANCH   1   5
ATOM      5  C   UNL     1      24.854  44.462  -0.577  1.00  0.00     0.190 C 
BRANCH   5   6
ATOM      6  O   UNL     1      25.308  45.587  -1.277  1.00  0.00    -0.394 OA
ATOM      7  H   UNL     1      26.292  45.485  -1.355  1.00  0.00     0.210 HD
ENDBRANCH   5   6
ENDBRANCH   1   5
BRANCH   1   8
ATOM      8  O   UNL     1      23.385  43.816  -2.344  1.00  0.00    -0.388 OA
ATOM      9  H   UNL     1      22.782  43.034  -2.450  1.00  0.00     0.211 HD
ENDBRANCH   1   8
TORSDOF 5
ENDMDL
MODEL 4
REMARK VINA RESULT:    -3.577      1.541      2.765
REMARK INTER + INTRA:          -4.529
REMARK INTER:                  -4.524
REMARK INTRA:                  -0.005
REMARK UNBOUND:                -0.220
REMARK SMILES OCC(O)CO
REMARK SMILES IDX 3 1 5 2 6 3 2 5 1 6 4 8
REMARK H PARENT 6 4 1 7 4 9
REMARK Flexibility Score: inf
ROOT
ATOM      1  C   UNL     1      29.890  50.033  -6.813  1.00  0.00     0.165 C 
ENDROOT
BRANCH   1   2
ATOM      2  C   UNL     1      30.665  50.803  -5.733  1.00  0.00     0.190 C 
BRANCH   2   3
ATOM      3  O   UNL     1      31.136  49.922  -4.749  1.00  0.00    -0.394 OA
ATOM      4  H   UNL     1      31.680  50.471  -4.126  1.00  0.00     0.210 HD
ENDBRANCH   2   3
ENDBRANCH   1   2
BRANCH   1   5
ATOM      5  C   UNL     1      30.557  48.692  -7.148  1.00  0.00     0.190 C 
BRANCH   5   6
ATOM      6  O   UNL     1      30.179  48.264  -8.428  1.00  0.00    -0.394 OA
ATOM      7  H   UNL     1      29.260  47.902  -8.338  1.00  0.00     0.210 HD
ENDBRANCH   5   6
ENDBRANCH   1   5
BRANCH   1   8
ATOM      8  O   UNL     1      28.585  49.782  -6.361  1.00  0.00    -0.388 OA
ATOM      9  H   UNL     1      28.564  48.840  -6.046  1.00  0.00     0.211 HD
ENDBRANCH   1   8
TORSDOF 5
ENDMDL
MODEL 5
REMARK VINA RESULT:    -3.569      1.601      1.904
REMARK INTER + INTRA:          -4.519
REMARK INTER:                  -4.516
REMARK INTRA:                  -0.003
REMARK UNBOUND:                -0.220
REMARK SMILES OCC(O)CO
REMARK SMILES IDX 3 1 5 2 6 3 2 5 1 6 4 8
REMARK H PARENT 6 4 1 7 4 9
REMARK Flexibility Score: inf
ROOT
ATOM      1  C   UNL     1      30.024  50.106  -6.403  1.00  0.00     0.165 C 
ENDROOT
BRANCH   1   2
ATOM      2  C   UNL     1      30.830  48.822  -6.654  1.00  0.00     0.190 C 
BRANCH   2   3
ATOM      3  O   UNL     1      30.325  48.139  -7.769  1.00  0.00    -0.394 OA
ATOM      4  H   UNL     1      30.806  48.504  -8.557  1.00  0.00     0.210 HD
ENDBRANCH   2   3
ENDBRANCH   1   2
BRANCH   1   5
ATOM      5  C   UNL     1      30.831  51.141  -5.609  1.00  0.00     0.190 C 
BRANCH   5   6
ATOM      6  O   UNL     1      31.242  50.605  -4.382  1.00  0.00    -0.394 OA
ATOM      7  H   UNL     1      31.432  49.645  -4.550  1.00  0.00     0.210 HD
ENDBRANCH   5   6
ENDBRANCH   1   5
BRANCH   1   8
ATOM      8  O   UNL     1      29.657  50.674  -7.634  1.00  0.00    -0.388 OA
ATOM      9  H   UNL     1      28.891  51.280  -7.455  1.00  0.00     0.211 HD
ENDBRANCH   1   8
TORSDOF 5
ENDMDL
MODEL 6
REMARK VINA RESULT:    -3.337     11.613     12.570
REMARK INTER + INTRA:          -4.239
REMARK INTER:                  -4.237
REMARK INTRA:                  -0.002
REMARK UNBOUND:                -0.220
REMARK SMILES OCC(O)CO
REMARK SMILES IDX 3 1 5 2 6 3 2 5 1 6 4 8
REMARK H PARENT 6 4 1 7 4 9
REMARK Flexibility Score: inf
ROOT
ATOM      1  C   UNL     1      22.127  42.717  -0.298  1.00  0.00     0.165 C 
ENDROOT
BRANCH   1   2
ATOM      2  C   UNL     1      23.277  43.630  -0.751  1.00  0.00     0.190 C 
BRANCH   2   3
ATOM      3  O   UNL     1      23.312  43.713  -2.149  1.00  0.00    -0.394 OA
ATOM      4  H   UNL     1      22.416  44.033  -2.430  1.00  0.00     0.210 HD
ENDBRANCH   2   3
ENDBRANCH   1   2
BRANCH   1   5
ATOM      5  C   UNL     1      22.500  41.904   0.948  1.00  0.00     0.190 C 
BRANCH   5   6
ATOM      6  O   UNL     1      22.216  40.547   0.750  1.00  0.00    -0.394 OA
ATOM      7  H   UNL     1      22.120  40.150   1.655  1.00  0.00     0.210 HD
ENDBRANCH   5   6
ENDBRANCH   1   5
BRANCH   1   8
ATOM      8  O   UNL     1      21.000  43.500   0.000  1.00  0.00    -0.388 OA
ATOM      9  H   UNL     1      21.056  43.732   0.964  1.00  0.00     0.211 HD
ENDBRANCH   1   8
TORSDOF 5
ENDMDL
MODEL 7
REMARK VINA RESULT:    -3.305      9.986     11.002
REMARK INTER + INTRA:          -4.201
REMARK INTER:                  -4.196
REMARK INTRA:                  -0.005
REMARK UNBOUND:                -0.220
REMARK SMILES OCC(O)CO
REMARK SMILES IDX 3 1 5 2 6 3 2 5 1 6 4 8
REMARK H PARENT 6 4 1 7 4 9
REMARK Flexibility Score: inf
ROOT
ATOM      1  C   UNL     1      23.641  43.456  -0.984  1.00  0.00     0.165 C 
ENDROOT
BRANCH   1   2
ATOM      2  C   UNL     1      24.036  44.839  -0.445  1.00  0.00     0.190 C 
BRANCH   2   3
ATOM      3  O   UNL     1      25.061  45.392  -1.225  1.00  0.00    -0.394 OA
ATOM      4  H   UNL     1      24.905  45.074  -2.152  1.00  0.00     0.210 HD
ENDBRANCH   2   3
ENDBRANCH   1   2
BRANCH   1   5
ATOM      5  C   UNL     1      22.514  42.822  -0.158  1.00  0.00     0.190 C 
BRANCH   5   6
ATOM      6  O   UNL     1      21.436  43.709  -0.041  1.00  0.00    -0.394 OA
ATOM      7  H   UNL     1      21.570  44.195   0.814  1.00  0.00     0.210 HD
ENDBRANCH   5   6
ENDBRANCH   1   5
BRANCH   1   8
ATOM      8  O   UNL     1      23.206  43.580  -2.313  1.00  0.00    -0.388 OA
ATOM      9  H   UNL     1      23.577  44.433  -2.661  1.00  0.00     0.211 HD
ENDBRANCH   1   8
TORSDOF 5
ENDMDL
MODEL 8
REMARK VINA RESULT:    -3.013      2.380      2.891
REMARK INTER + INTRA:          -3.849
REMARK INTER:                  -3.847
REMARK INTRA:                  -0.003
REMARK UNBOUND:                -0.220
REMARK SMILES OCC(O)CO
REMARK SMILES IDX 3 1 5 2 6 3 2 5 1 6 4 8
REMARK H PARENT 6 4 1 7 4 9
REMARK Flexibility Score: inf
ROOT
ATOM      1  C   UNL     1      30.489  48.780  -6.334  1.00  0.00     0.165 C 
ENDROOT
BRANCH   1   2
ATOM      2  C   UNL     1      29.644  49.859  -7.027  1.00  0.00     0.190 C 
BRANCH   2   3
ATOM      3  O   UNL     1      28.369  49.928  -6.449  1.00  0.00    -0.394 OA
ATOM      4  H   UNL     1      27.783  50.361  -7.122  1.00  0.00     0.210 HD
ENDBRANCH   2   3
ENDBRANCH   1   2
BRANCH   1   5
ATOM      5  C   UNL     1      31.305  47.959  -7.340  1.00  0.00     0.190 C 
BRANCH   5   6
ATOM      6  O   UNL     1      32.331  47.264  -6.687  1.00  0.00    -0.394 OA
ATOM      7  H   UNL     1      33.144  47.384  -7.244  1.00  0.00     0.210 HD
ENDBRANCH   5   6
ENDBRANCH   1   5
BRANCH   1   8
ATOM      8  O   UNL     1      31.375  49.390  -5.431  1.00  0.00    -0.388 OA
ATOM      9  H   UNL     1      30.882  49.506  -4.577  1.00  0.00     0.211 HD
ENDBRANCH   1   8
TORSDOF 5
ENDMDL
MODEL 9
REMARK VINA RESULT:    -2.826     15.880     16.885
REMARK INTER + INTRA:          -3.625
REMARK INTER:                  -3.403
REMARK INTRA:                  -0.222
REMARK UNBOUND:                -0.220
REMARK SMILES OCC(O)CO
REMARK SMILES IDX 3 1 5 2 6 3 2 5 1 6 4 8
REMARK H PARENT 6 4 1 7 4 9
REMARK Flexibility Score: inf
ROOT
ATOM      1  C   UNL     1      23.245  38.626   2.191  1.00  0.00     0.165 C 
ENDROOT
BRANCH   1   2
ATOM      2  C   UNL     1      23.600  39.132   3.597  1.00  0.00     0.190 C 
BRANCH   2   3
ATOM      3  O   UNL     1      24.679  38.405   4.119  1.00  0.00    -0.394 OA
ATOM      4  H   UNL     1      24.466  38.242   5.074  1.00  0.00     0.210 HD
ENDBRANCH   2   3
ENDBRANCH   1   2
BRANCH   1   5
ATOM      5  C   UNL     1      22.177  37.524   2.233  1.00  0.00     0.190 C 
BRANCH   5   6
ATOM      6  O   UNL     1      22.451  36.617   3.265  1.00  0.00    -0.394 OA
ATOM      7  H   UNL     1      23.433  36.644   3.402  1.00  0.00     0.210 HD
ENDBRANCH   5   6
ENDBRANCH   1   5
BRANCH   1   8
ATOM      8  O   UNL     1      22.755  39.693   1.421  1.00  0.00    -0.388 OA
ATOM      9  H   UNL     1      23.208  40.515   1.745  1.00  0.00     0.211 HD
ENDBRANCH   1   8
TORSDOF 5
ENDMDL
