MODEL 1
REMARK VINA RESULT:    -3.444      0.000      0.000
REMARK INTER + INTRA:          -6.667
REMARK INTER:                  -5.256
REMARK INTRA:                  -1.411
REMARK UNBOUND:                -1.411
REMARK SMILES C=CCCCCCCCCCC
REMARK SMILES IDX 7 1 8 2 9 3 10 4 11 5 12 6 6 7 5 8 4 9 3 10 2 11 1 12
REMARK H PARENT
REMARK Flexibility Score: inf
ROOT
ATOM      1  C   UNL     1     136.460 139.384 128.832  1.00  0.00     0.000 C 
ENDROOT
BRANCH   1   2
ATOM      2  C   UNL     1     136.900 138.010 129.363  1.00  0.00    -0.000 C 
BRANCH   2   3
ATOM      3  C   UNL     1     138.336 138.018 129.913  1.00  0.00    -0.000 C 
BRANCH   3   4
ATOM      4  C   UNL     1     139.206 139.116 129.278  1.00  0.00    -0.000 C 
BRANCH   4   5
ATOM      5  C   UNL     1     140.506 139.360 130.060  1.00  0.00    -0.003 C 
ATOM      6  C   UNL     1     140.953 138.139 130.864  1.00  0.00     0.004 C 
ENDBRANCH   4   5
ENDBRANCH   3   4
ENDBRANCH   2   3
ENDBRANCH   1   2
BRANCH   1   7
ATOM      7  C   UNL     1     134.962 139.614 129.083  1.00  0.00     0.000 C 
BRANCH   7   8
ATOM      8  C   UNL     1     134.693 140.475 130.327  1.00  0.00     0.000 C 
BRANCH   8   9
ATOM      9  C   UNL     1     135.955 141.194 130.835  1.00  0.00     0.004 C 
BRANCH   9  10
ATOM     10  C   UNL     1     136.337 140.754 132.256  1.00  0.00     0.027 C 
BRANCH  10  11
ATOM     11  C   UNL     1     137.828 140.657 132.446  1.00  0.00    -0.035 C 
ATOM     12  C   UNL     1     138.382 139.702 133.197  1.00  0.00     0.004 C 
ENDBRANCH  10  11
ENDBRANCH   9  10
ENDBRANCH   8   9
ENDBRANCH   7   8
ENDBRANCH   1   7
TORSDOF 9
ENDMDL
MODEL 2
REMARK VINA RESULT:    -3.431      1.420      5.136
REMARK INTER + INTRA:          -6.646
REMARK INTER:                  -5.821
REMARK INTRA:                  -0.825
REMARK UNBOUND:                -1.411
REMARK SMILES C=CCCCCCCCCCC
REMARK SMILES IDX 7 1 8 2 9 3 10 4 11 5 12 6 6 7 5 8 4 9 3 10 2 11 1 12
REMARK H PARENT
REMARK Flexibility Score: inf
ROOT
ATOM      1  C   UNL     1     138.515 139.415 132.246  1.00  0.00     0.000 C 
ENDROOT
BRANCH   1   2
ATOM      2  C   UNL     1     137.829 140.758 132.542  1.00  0.00    -0.000 C 
BRANCH   2   3
ATOM      3  C   UNL     1     136.307 140.706 132.330  1.00  0.00    -0.000 C 
BRANCH   3   4
ATOM      4  C   UNL     1     135.866 141.407 131.034  1.00  0.00    -0.000 C 
BRANCH   4   5
ATOM      5  C   UNL     1     134.836 140.585 130.243  1.00  0.00    -0.003 C 
ATOM      6  C   UNL     1     134.440 139.290 130.951  1.00  0.00     0.004 C 
ENDBRANCH   4   5
ENDBRANCH   3   4
ENDBRANCH   2   3
ENDBRANCH   1   2
BRANCH   1   7
ATOM      7  C   UNL     1     138.757 139.243 130.739  1.00  0.00     0.000 C 
BRANCH   7   8
ATOM      8  C   UNL     1     140.250 139.193 130.378  1.00  0.00     0.000 C 
BRANCH   8   9
ATOM      9  C   UNL     1     140.804 137.758 130.343  1.00  0.00     0.004 C 
BRANCH   9  10
ATOM     10  C   UNL     1     141.488 137.371 131.663  1.00  0.00     0.027 C 
BRANCH  10  11
ATOM     11  C   UNL     1     140.862 136.160 132.302  1.00  0.00    -0.035 C 
ATOM     12  C   UNL     1     140.106 136.253 133.398  1.00  0.00     0.004 C 
ENDBRANCH  10  11
ENDBRANCH   9  10
ENDBRANCH   8   9
ENDBRANCH   7   8
ENDBRANCH   1   7
TORSDOF 9
ENDMDL
MODEL 3
REMARK VINA RESULT:    -3.402      3.799      6.289
REMARK INTER + INTRA:          -6.603
REMARK INTER:                  -5.684
REMARK INTRA:                  -0.920
REMARK UNBOUND:                -1.411
REMARK SMILES C=CCCCCCCCCCC
REMARK SMILES IDX 7 1 8 2 9 3 10 4 11 5 12 6 6 7 5 8 4 9 3 10 2 11 1 12
REMARK H PARENT
REMARK Flexibility Score: inf
ROOT
ATOM      1  C   UNL     1     139.111 135.158 131.899  1.00  0.00     0.000 C 
ENDROOT
BRANCH   1   2
ATOM      2  C   UNL     1     139.280 134.121 130.778  1.00  0.00    -0.000 C 
BRANCH   2   3
ATOM      3  C   UNL     1     138.191 133.036 130.802  1.00  0.00    -0.000 C 
BRANCH   3   4
ATOM      4  C   UNL     1     137.532 132.890 132.184  1.00  0.00    -0.000 C 
BRANCH   4   5
ATOM      5  C   UNL     1     136.012 133.105 132.135  1.00  0.00    -0.003 C 
ATOM      6  C   UNL     1     135.495 133.955 133.296  1.00  0.00     0.004 C 
ENDBRANCH   4   5
ENDBRANCH   3   4
ENDBRANCH   2   3
ENDBRANCH   1   2
BRANCH   1   7
ATOM      7  C   UNL     1     140.475 135.682 132.372  1.00  0.00     0.000 C 
BRANCH   7   8
ATOM      8  C   UNL     1     140.556 137.217 132.365  1.00  0.00     0.000 C 
BRANCH   8   9
ATOM      9  C   UNL     1     141.447 137.759 131.232  1.00  0.00     0.004 C 
BRANCH   9  10
ATOM     10  C   UNL     1     140.708 138.782 130.358  1.00  0.00     0.027 C 
BRANCH  10  11
ATOM     11  C   UNL     1     139.770 138.130 129.376  1.00  0.00    -0.035 C 
ATOM     12  C   UNL     1     140.158 137.117 128.598  1.00  0.00     0.004 C 
ENDBRANCH  10  11
ENDBRANCH   9  10
ENDBRANCH   8   9
ENDBRANCH   7   8
ENDBRANCH   1   7
TORSDOF 9
ENDMDL
MODEL 4
REMARK VINA RESULT:    -3.387      3.175      4.896
REMARK INTER + INTRA:          -6.580
REMARK INTER:                  -5.243
REMARK INTRA:                  -1.337
REMARK UNBOUND:                -1.411
REMARK SMILES C=CCCCCCCCCCC
REMARK SMILES IDX 7 1 8 2 9 3 10 4 11 5 12 6 6 7 5 8 4 9 3 10 2 11 1 12
REMARK H PARENT
REMARK Flexibility Score: inf
ROOT
ATOM      1  C   UNL     1     134.654 136.505 128.793  1.00  0.00     0.000 C 
ENDROOT
BRANCH   1   2
ATOM      2  C   UNL     1     135.139 137.870 129.306  1.00  0.00    -0.000 C 
BRANCH   2   3
ATOM      3  C   UNL     1     134.283 139.038 128.790  1.00  0.00    -0.000 C 
BRANCH   3   4
ATOM      4  C   UNL     1     134.555 140.350 129.545  1.00  0.00    -0.000 C 
BRANCH   4   5
ATOM      5  C   UNL     1     135.955 140.385 130.176  1.00  0.00    -0.003 C 
ATOM      6  C   UNL     1     136.067 141.392 131.321  1.00  0.00     0.004 C 
ENDBRANCH   4   5
ENDBRANCH   3   4
ENDBRANCH   2   3
ENDBRANCH   1   2
BRANCH   1   7
ATOM      7  C   UNL     1     134.723 135.446 129.904  1.00  0.00     0.000 C 
BRANCH   7   8
ATOM      8  C   UNL     1     133.351 134.838 130.231  1.00  0.00     0.000 C 
BRANCH   8   9
ATOM      9  C   UNL     1     132.413 135.833 130.937  1.00  0.00     0.004 C 
BRANCH   9  10
ATOM     10  C   UNL     1     133.000 136.336 132.264  1.00  0.00     0.027 C 
BRANCH  10  11
ATOM     11  C   UNL     1     133.050 137.840 132.337  1.00  0.00    -0.035 C 
ATOM     12  C   UNL     1     134.078 138.485 132.894  1.00  0.00     0.004 C 
ENDBRANCH  10  11
ENDBRANCH   9  10
ENDBRANCH   8   9
ENDBRANCH   7   8
ENDBRANCH   1   7
TORSDOF 9
ENDMDL
MODEL 5
REMARK VINA RESULT:    -3.363      1.748      3.749
REMARK INTER + INTRA:          -6.543
REMARK INTER:                  -5.623
REMARK INTRA:                  -0.920
REMARK UNBOUND:                -1.411
REMARK SMILES C=CCCCCCCCCCC
REMARK SMILES IDX 7 1 8 2 9 3 10 4 11 5 12 6 6 7 5 8 4 9 3 10 2 11 1 12
REMARK H PARENT
REMARK Flexibility Score: inf
ROOT
ATOM      1  C   UNL     1     139.927 139.366 130.645  1.00  0.00     0.000 C 
ENDROOT
BRANCH   1   2
ATOM      2  C   UNL     1     140.878 138.166 130.765  1.00  0.00    -0.000 C 
BRANCH   2   3
ATOM      3  C   UNL     1     140.157 136.875 131.186  1.00  0.00    -0.000 C 
BRANCH   3   4
ATOM      4  C   UNL     1     140.812 136.202 132.404  1.00  0.00    -0.000 C 
BRANCH   4   5
ATOM      5  C   UNL     1     139.969 136.350 133.681  1.00  0.00    -0.003 C 
ATOM      6  C   UNL     1     140.324 137.600 134.486  1.00  0.00     0.004 C 
ENDBRANCH   4   5
ENDBRANCH   3   4
ENDBRANCH   2   3
ENDBRANCH   1   2
BRANCH   1   7
ATOM      7  C   UNL     1     138.621 139.111 131.412  1.00  0.00     0.000 C 
BRANCH   7   8
ATOM      8  C   UNL     1     138.194 140.310 132.273  1.00  0.00     0.000 C 
BRANCH   8   9
ATOM      9  C   UNL     1     136.666 140.466 132.358  1.00  0.00     0.004 C 
BRANCH   9  10
ATOM     10  C   UNL     1     136.120 141.405 131.273  1.00  0.00     0.027 C 
BRANCH  10  11
ATOM     11  C   UNL     1     134.995 140.785 130.487  1.00  0.00    -0.035 C 
ATOM     12  C   UNL     1     134.769 139.469 130.499  1.00  0.00     0.004 C 
ENDBRANCH  10  11
ENDBRANCH   9  10
ENDBRANCH   8   9
ENDBRANCH   7   8
ENDBRANCH   1   7
TORSDOF 9
ENDMDL
MODEL 6
REMARK VINA RESULT:    -3.351      2.186      4.997
REMARK INTER + INTRA:          -6.524
REMARK INTER:                  -5.498
REMARK INTRA:                  -1.026
REMARK UNBOUND:                -1.411
REMARK SMILES C=CCCCCCCCCCC
REMARK SMILES IDX 7 1 8 2 9 3 10 4 11 5 12 6 6 7 5 8 4 9 3 10 2 11 1 12
REMARK H PARENT
REMARK Flexibility Score: inf
ROOT
ATOM      1  C   UNL     1     135.816 141.153 131.138  1.00  0.00     0.000 C 
ENDROOT
BRANCH   1   2
ATOM      2  C   UNL     1     134.758 140.199 130.562  1.00  0.00    -0.000 C 
BRANCH   2   3
ATOM      3  C   UNL     1     134.763 138.822 131.247  1.00  0.00    -0.000 C 
BRANCH   3   4
ATOM      4  C   UNL     1     133.478 138.559 132.051  1.00  0.00    -0.000 C 
BRANCH   4   5
ATOM      5  C   UNL     1     133.332 137.084 132.456  1.00  0.00    -0.003 C 
ATOM      6  C   UNL     1     132.536 136.265 131.439  1.00  0.00     0.004 C 
ENDBRANCH   4   5
ENDBRANCH   3   4
ENDBRANCH   2   3
ENDBRANCH   1   2
BRANCH   1   7
ATOM      7  C   UNL     1     136.491 140.541 132.375  1.00  0.00     0.000 C 
BRANCH   7   8
ATOM      8  C   UNL     1     138.010 140.773 132.398  1.00  0.00     0.000 C 
BRANCH   8   9
ATOM      9  C   UNL     1     138.812 139.464 132.280  1.00  0.00     0.004 C 
BRANCH   9  10
ATOM     10  C   UNL     1     139.498 139.330 130.912  1.00  0.00     0.027 C 
BRANCH  10  11
ATOM     11  C   UNL     1     138.594 138.722 129.873  1.00  0.00    -0.035 C 
ATOM     12  C   UNL     1     138.188 139.410 128.803  1.00  0.00     0.004 C 
ENDBRANCH  10  11
ENDBRANCH   9  10
ENDBRANCH   8   9
ENDBRANCH   7   8
ENDBRANCH   1   7
TORSDOF 9
ENDMDL
MODEL 7
REMARK VINA RESULT:    -3.315      3.315      5.611
REMARK INTER + INTRA:          -6.471
REMARK INTER:                  -4.844
REMARK INTRA:                  -1.627
REMARK UNBOUND:                -1.411
REMARK SMILES C=CCCCCCCCCCC
REMARK SMILES IDX 7 1 8 2 9 3 10 4 11 5 12 6 6 7 5 8 4 9 3 10 2 11 1 12
REMARK H PARENT
REMARK Flexibility Score: inf
ROOT
ATOM      1  C   UNL     1     134.668 134.715 130.716  1.00  0.00     0.000 C 
ENDROOT
BRANCH   1   2
ATOM      2  C   UNL     1     133.188 134.737 130.304  1.00  0.00    -0.000 C 
BRANCH   2   3
ATOM      3  C   UNL     1     132.408 135.895 130.948  1.00  0.00    -0.000 C 
BRANCH   3   4
ATOM      4  C   UNL     1     133.007 136.333 132.295  1.00  0.00    -0.000 C 
BRANCH   4   5
ATOM      5  C   UNL     1     133.022 137.860 132.462  1.00  0.00    -0.003 C 
ATOM      6  C   UNL     1     134.201 138.355 133.301  1.00  0.00     0.004 C 
ENDBRANCH   4   5
ENDBRANCH   3   4
ENDBRANCH   2   3
ENDBRANCH   1   2
BRANCH   1   7
ATOM      7  C   UNL     1     135.518 135.556 129.751  1.00  0.00     0.000 C 
BRANCH   7   8
ATOM      8  C   UNL     1     136.460 136.526 130.481  1.00  0.00     0.000 C 
BRANCH   8   9
ATOM      9  C   UNL     1     136.129 138.002 130.196  1.00  0.00     0.004 C 
BRANCH   9  10
ATOM     10  C   UNL     1     134.953 138.151 129.219  1.00  0.00     0.027 C 
BRANCH  10  11
ATOM     11  C   UNL     1     134.468 139.573 129.116  1.00  0.00    -0.035 C 
ATOM     12  C   UNL     1     134.619 140.443 130.117  1.00  0.00     0.004 C 
ENDBRANCH  10  11
ENDBRANCH   9  10
ENDBRANCH   8   9
ENDBRANCH   7   8
ENDBRANCH   1   7
TORSDOF 9
ENDMDL
MODEL 8
REMARK VINA RESULT:    -3.307      1.459      3.233
REMARK INTER + INTRA:          -6.458
REMARK INTER:                  -5.561
REMARK INTRA:                  -0.896
REMARK UNBOUND:                -1.411
REMARK SMILES C=CCCCCCCCCCC
REMARK SMILES IDX 7 1 8 2 9 3 10 4 11 5 12 6 6 7 5 8 4 9 3 10 2 11 1 12
REMARK H PARENT
REMARK Flexibility Score: inf
ROOT
ATOM      1  C   UNL     1     137.938 139.816 133.150  1.00  0.00     0.000 C 
ENDROOT
BRANCH   1   2
ATOM      2  C   UNL     1     138.787 140.056 131.892  1.00  0.00    -0.000 C 
BRANCH   2   3
ATOM      3  C   UNL     1     139.099 138.758 131.128  1.00  0.00    -0.000 C 
BRANCH   3   4
ATOM      4  C   UNL     1     140.500 138.767 130.495  1.00  0.00    -0.000 C 
BRANCH   4   5
ATOM      5  C   UNL     1     141.459 137.778 131.177  1.00  0.00    -0.003 C 
ATOM      6  C   UNL     1     140.732 136.742 132.034  1.00  0.00     0.004 C 
ENDBRANCH   4   5
ENDBRANCH   3   4
ENDBRANCH   2   3
ENDBRANCH   1   2
BRANCH   1   7
ATOM      7  C   UNL     1     136.528 140.401 132.979  1.00  0.00     0.000 C 
BRANCH   7   8
ATOM      8  C   UNL     1     136.350 141.143 131.644  1.00  0.00     0.000 C 
BRANCH   8   9
ATOM      9  C   UNL     1     135.143 140.631 130.838  1.00  0.00     0.004 C 
BRANCH   9  10
ATOM     10  C   UNL     1     135.359 139.201 130.322  1.00  0.00     0.027 C 
BRANCH  10  11
ATOM     11  C   UNL     1     134.442 138.206 130.984  1.00  0.00    -0.035 C 
ATOM     12  C   UNL     1     133.619 138.558 131.975  1.00  0.00     0.004 C 
ENDBRANCH  10  11
ENDBRANCH   9  10
ENDBRANCH   8   9
ENDBRANCH   7   8
ENDBRANCH   1   7
TORSDOF 9
ENDMDL
MODEL 9
REMARK VINA RESULT:    -3.300      3.367      5.445
REMARK INTER + INTRA:          -6.447
REMARK INTER:                  -5.280
REMARK INTRA:                  -1.167
REMARK UNBOUND:                -1.411
REMARK SMILES C=CCCCCCCCCCC
REMARK SMILES IDX 7 1 8 2 9 3 10 4 11 5 12 6 6 7 5 8 4 9 3 10 2 11 1 12
REMARK H PARENT
REMARK Flexibility Score: inf
ROOT
ATOM      1  C   UNL     1     133.186 136.613 132.442  1.00  0.00     0.000 C 
ENDROOT
BRANCH   1   2
ATOM      2  C   UNL     1     133.155 138.149 132.464  1.00  0.00    -0.000 C 
BRANCH   2   3
ATOM      3  C   UNL     1     134.493 138.777 132.042  1.00  0.00    -0.000 C 
BRANCH   3   4
ATOM      4  C   UNL     1     134.431 139.416 130.644  1.00  0.00    -0.000 C 
BRANCH   4   5
ATOM      5  C   UNL     1     135.229 140.726 130.561  1.00  0.00    -0.003 C 
ATOM      6  C   UNL     1     136.215 140.895 131.717  1.00  0.00     0.004 C 
ENDBRANCH   4   5
ENDBRANCH   3   4
ENDBRANCH   2   3
ENDBRANCH   1   2
BRANCH   1   7
ATOM      7  C   UNL     1     132.375 136.065 131.257  1.00  0.00     0.000 C 
BRANCH   7   8
ATOM      8  C   UNL     1     133.153 135.024 130.436  1.00  0.00     0.000 C 
BRANCH   8   9
ATOM      9  C   UNL     1     134.360 134.448 131.198  1.00  0.00     0.004 C 
BRANCH   9  10
ATOM     10  C   UNL     1     135.668 134.607 130.410  1.00  0.00     0.027 C 
BRANCH  10  11
ATOM     11  C   UNL     1     136.460 135.812 130.848  1.00  0.00    -0.035 C 
ATOM     12  C   UNL     1     136.913 136.713 129.973  1.00  0.00     0.004 C 
ENDBRANCH  10  11
ENDBRANCH   9  10
ENDBRANCH   8   9
ENDBRANCH   7   8
ENDBRANCH   1   7
TORSDOF 9
ENDMDL
