MODEL 1
REMARK VINA RESULT:     3.534      0.000      0.000
REMARK INTER + INTRA:           8.176
REMARK INTER:                   6.839
REMARK INTRA:                   1.337
REMARK UNBOUND:                 1.337
REMARK SMILES CCCCCCCCCCCCCCCCCC(=O)[O-]
REMARK SMILES IDX 10 1 11 2 12 3 13 4 14 5 15 6 16 7 17 8 18 9 19 10 20 11
REMARK SMILES IDX 9 12 8 13 7 14 6 15 5 16 4 17 3 18 2 19 1 20
REMARK H PARENT
REMARK Flexibility Score: inf
ROOT
ATOM      1  C   UNL     1      92.129  16.617 118.324  1.00  0.00     0.000 C 
ENDROOT
BRANCH   1   2
ATOM      2  C   UNL     1      92.109  18.064 118.843  1.00  0.00     0.000 C 
BRANCH   2   3
ATOM      3  C   UNL     1      92.279  18.147 120.370  1.00  0.00     0.000 C 
BRANCH   3   4
ATOM      4  C   UNL     1      90.935  18.135 121.124  1.00  0.00     0.000 C 
BRANCH   4   5
ATOM      5  C   UNL     1      89.685  18.030 120.230  1.00  0.00     0.000 C 
BRANCH   5   6
ATOM      6  C   UNL     1      88.370  18.186 121.016  1.00  0.00     0.000 C 
BRANCH   6   7
ATOM      7  C   UNL     1      87.660  19.524 120.720  1.00  0.00     0.006 C 
BRANCH   7   8
ATOM      8  C   UNL     1      86.169  19.526 121.091  1.00  0.00     0.053 C 
BRANCH   8   9
ATOM      9  C   UNL     1      85.518  18.199 120.847  1.00  0.00     0.041 C 
ATOM     10  O   UNL     1      84.299  18.137 120.535  1.00  0.00    -0.550 OA
ATOM     11  O   UNL     1      86.254  17.028 120.978  1.00  0.00    -0.550 OA
ENDBRANCH   8   9
ENDBRANCH   7   8
ENDBRANCH   6   7
ENDBRANCH   5   6
ENDBRANCH   4   5
ENDBRANCH   3   4
ENDBRANCH   2   3
ENDBRANCH   1   2
BRANCH   1  12
ATOM     12  C   UNL     1      93.505  15.946 118.491  1.00  0.00     0.000 C 
BRANCH  12  13
ATOM     13  C   UNL     1      93.530  14.944 119.656  1.00  0.00    -0.000 C 
BRANCH  13  14
ATOM     14  C   UNL     1      94.945  14.406 119.939  1.00  0.00    -0.000 C 
BRANCH  14  15
ATOM     15  C   UNL     1      95.633  15.117 121.118  1.00  0.00    -0.000 C 
BRANCH  15  16
ATOM     16  C   UNL     1      95.598  16.657 121.070  1.00  0.00    -0.000 C 
BRANCH  16  17
ATOM     17  C   UNL     1      96.999  17.289 121.124  1.00  0.00    -0.000 C 
BRANCH  17  18
ATOM     18  C   UNL     1      97.780  17.128 119.806  1.00  0.00    -0.000 C 
BRANCH  18  19
ATOM     19  C   UNL     1      97.198  17.897 118.606  1.00  0.00    -0.003 C 
ATOM     20  C   UNL     1      95.756  17.506 118.285  1.00  0.00     0.004 C 
ENDBRANCH  18  19
ENDBRANCH  17  18
ENDBRANCH  16  17
ENDBRANCH  15  16
ENDBRANCH  14  15
ENDBRANCH  13  14
ENDBRANCH  12  13
ENDBRANCH   1  12
TORSDOF 16
ENDMDL
MODEL 2
REMARK VINA RESULT:     4.807      1.670      2.876
REMARK INTER + INTRA:          10.640
REMARK INTER:                  11.657
REMARK INTRA:                  -1.017
REMARK UNBOUND:                 1.337
REMARK SMILES CCCCCCCCCCCCCCCCCC(=O)[O-]
REMARK SMILES IDX 10 1 11 2 12 3 13 4 14 5 15 6 16 7 17 8 18 9 19 10 20 11
REMARK SMILES IDX 9 12 8 13 7 14 6 15 5 16 4 17 3 18 2 19 1 20
REMARK H PARENT
REMARK Flexibility Score: inf
ROOT
ATOM      1  C   UNL     1      90.763  18.286 118.878  1.00  0.00     0.000 C 
ENDROOT
BRANCH   1   2
ATOM      2  C   UNL     1      90.687  18.455 120.404  1.00  0.00     0.000 C 
BRANCH   2   3
ATOM      3  C   UNL     1      89.395  17.871 121.001  1.00  0.00     0.000 C 
BRANCH   3   4
ATOM      4  C   UNL     1      88.135  18.654 120.585  1.00  0.00     0.000 C 
BRANCH   4   5
ATOM      5  C   UNL     1      86.806  18.087 121.121  1.00  0.00     0.000 C 
BRANCH   5   6
ATOM      6  C   UNL     1      85.623  18.322 120.163  1.00  0.00     0.000 C 
BRANCH   6   7
ATOM      7  C   UNL     1      84.494  17.288 120.355  1.00  0.00     0.006 C 
BRANCH   7   8
ATOM      8  C   UNL     1      83.085  17.904 120.341  1.00  0.00     0.053 C 
BRANCH   8   9
ATOM      9  C   UNL     1      82.350  17.615 119.068  1.00  0.00     0.041 C 
ATOM     10  O   UNL     1      82.368  16.457 118.573  1.00  0.00    -0.550 OA
ATOM     11  O   UNL     1      81.655  18.629 118.420  1.00  0.00    -0.550 OA
ENDBRANCH   8   9
ENDBRANCH   7   8
ENDBRANCH   6   7
ENDBRANCH   5   6
ENDBRANCH   4   5
ENDBRANCH   3   4
ENDBRANCH   2   3
ENDBRANCH   1   2
BRANCH   1  12
ATOM     12  C   UNL     1      92.094  17.666 118.416  1.00  0.00     0.000 C 
BRANCH  12  13
ATOM     13  C   UNL     1      92.201  16.174 118.772  1.00  0.00    -0.000 C 
BRANCH  13  14
ATOM     14  C   UNL     1      93.443  15.509 118.151  1.00  0.00    -0.000 C 
BRANCH  14  15
ATOM     15  C   UNL     1      94.381  14.890 119.204  1.00  0.00    -0.000 C 
BRANCH  15  16
ATOM     16  C   UNL     1      94.119  15.326 120.658  1.00  0.00    -0.000 C 
BRANCH  16  17
ATOM     17  C   UNL     1      95.058  16.451 121.125  1.00  0.00    -0.000 C 
BRANCH  17  18
ATOM     18  C   UNL     1      96.543  16.136 120.866  1.00  0.00    -0.000 C 
BRANCH  18  19
ATOM     19  C   UNL     1      97.397  17.338 120.424  1.00  0.00    -0.003 C 
ATOM     20  C   UNL     1      97.032  17.854 119.033  1.00  0.00     0.004 C 
ENDBRANCH  18  19
ENDBRANCH  17  18
ENDBRANCH  16  17
ENDBRANCH  15  16
ENDBRANCH  14  15
ENDBRANCH  13  14
ENDBRANCH  12  13
ENDBRANCH   1  12
TORSDOF 16
ENDMDL
MODEL 3
REMARK VINA RESULT:     5.828     13.773     14.771
REMARK INTER + INTRA:          12.615
REMARK INTER:                  13.283
REMARK INTRA:                  -0.667
REMARK UNBOUND:                 1.337
REMARK SMILES CCCCCCCCCCCCCCCCCC(=O)[O-]
REMARK SMILES IDX 10 1 11 2 12 3 13 4 14 5 15 6 16 7 17 8 18 9 19 10 20 11
REMARK SMILES IDX 9 12 8 13 7 14 6 15 5 16 4 17 3 18 2 19 1 20
REMARK H PARENT
REMARK Flexibility Score: inf
ROOT
ATOM      1  C   UNL     1      89.119  12.825 105.576  1.00  0.00     0.000 C 
ENDROOT
BRANCH   1   2
ATOM      2  C   UNL     1      88.532  13.272 106.925  1.00  0.00     0.000 C 
BRANCH   2   3
ATOM      3  C   UNL     1      87.748  14.593 106.821  1.00  0.00     0.000 C 
BRANCH   3   4
ATOM      4  C   UNL     1      86.327  14.494 107.408  1.00  0.00     0.000 C 
BRANCH   4   5
ATOM      5  C   UNL     1      85.284  15.420 106.754  1.00  0.00     0.000 C 
BRANCH   5   6
ATOM      6  C   UNL     1      83.916  15.375 107.459  1.00  0.00     0.000 C 
BRANCH   6   7
ATOM      7  C   UNL     1      83.169  14.048 107.213  1.00  0.00     0.006 C 
BRANCH   7   8
ATOM      8  C   UNL     1      83.439  12.980 108.285  1.00  0.00     0.053 C 
BRANCH   8   9
ATOM      9  C   UNL     1      83.594  13.572 109.653  1.00  0.00     0.041 C 
ATOM     10  O   UNL     1      82.586  13.992 110.281  1.00  0.00    -0.550 OA
ATOM     11  O   UNL     1      84.854  13.674 110.229  1.00  0.00    -0.550 OA
ENDBRANCH   8   9
ENDBRANCH   7   8
ENDBRANCH   6   7
ENDBRANCH   5   6
ENDBRANCH   4   5
ENDBRANCH   3   4
ENDBRANCH   2   3
ENDBRANCH   1   2
BRANCH   1  12
ATOM     12  C   UNL     1      88.964  11.312 105.334  1.00  0.00     0.000 C 
BRANCH  12  13
ATOM     13  C   UNL     1      89.432  10.476 106.536  1.00  0.00    -0.000 C 
BRANCH  13  14
ATOM     14  C   UNL     1      90.704   9.665 106.228  1.00  0.00    -0.000 C 
BRANCH  14  15
ATOM     15  C   UNL     1      90.543   8.162 106.516  1.00  0.00    -0.000 C 
BRANCH  15  16
ATOM     16  C   UNL     1      91.327   7.636 107.734  1.00  0.00    -0.000 C 
BRANCH  16  17
ATOM     17  C   UNL     1      90.441   6.875 108.734  1.00  0.00    -0.000 C 
BRANCH  17  18
ATOM     18  C   UNL     1      89.305   7.742 109.307  1.00  0.00    -0.000 C 
BRANCH  18  19
ATOM     19  C   UNL     1      88.090   6.959 109.836  1.00  0.00    -0.003 C 
ATOM     20  C   UNL     1      87.582   7.474 111.182  1.00  0.00     0.004 C 
ENDBRANCH  18  19
ENDBRANCH  17  18
ENDBRANCH  16  17
ENDBRANCH  15  16
ENDBRANCH  14  15
ENDBRANCH  13  14
ENDBRANCH  12  13
ENDBRANCH   1  12
TORSDOF 16
ENDMDL
MODEL 4
REMARK VINA RESULT:     6.083     11.346     13.944
REMARK INTER + INTRA:          13.109
REMARK INTER:                  13.905
REMARK INTRA:                  -0.795
REMARK UNBOUND:                 1.337
REMARK SMILES CCCCCCCCCCCCCCCCCC(=O)[O-]
REMARK SMILES IDX 10 1 11 2 12 3 13 4 14 5 15 6 16 7 17 8 18 9 19 10 20 11
REMARK SMILES IDX 9 12 8 13 7 14 6 15 5 16 4 17 3 18 2 19 1 20
REMARK H PARENT
REMARK Flexibility Score: inf
ROOT
ATOM      1  C   UNL     1      85.331  19.238 108.845  1.00  0.00     0.000 C 
ENDROOT
BRANCH   1   2
ATOM      2  C   UNL     1      86.764  19.789 108.779  1.00  0.00     0.000 C 
BRANCH   2   3
ATOM      3  C   UNL     1      86.938  21.086 109.589  1.00  0.00     0.000 C 
BRANCH   3   4
ATOM      4  C   UNL     1      88.295  21.161 110.315  1.00  0.00     0.000 C 
BRANCH   4   5
ATOM      5  C   UNL     1      88.238  21.720 111.750  1.00  0.00     0.000 C 
BRANCH   5   6
ATOM      6  C   UNL     1      89.085  22.993 111.932  1.00  0.00     0.000 C 
BRANCH   6   7
ATOM      7  C   UNL     1      90.574  22.680 112.187  1.00  0.00     0.006 C 
BRANCH   7   8
ATOM      8  C   UNL     1      90.803  21.594 113.251  1.00  0.00     0.053 C 
BRANCH   8   9
ATOM      9  C   UNL     1      91.193  20.279 112.648  1.00  0.00     0.041 C 
ATOM     10  O   UNL     1      90.491  19.253 112.854  1.00  0.00    -0.550 OA
ATOM     11  O   UNL     1      92.341  20.181 111.872  1.00  0.00    -0.550 OA
ENDBRANCH   8   9
ENDBRANCH   7   8
ENDBRANCH   6   7
ENDBRANCH   5   6
ENDBRANCH   4   5
ENDBRANCH   3   4
ENDBRANCH   2   3
ENDBRANCH   1   2
BRANCH   1  12
ATOM     12  C   UNL     1      85.022  18.251 107.704  1.00  0.00     0.000 C 
BRANCH  12  13
ATOM     13  C   UNL     1      84.594  16.869 108.223  1.00  0.00    -0.000 C 
BRANCH  13  14
ATOM     14  C   UNL     1      84.773  15.763 107.167  1.00  0.00    -0.000 C 
BRANCH  14  15
ATOM     15  C   UNL     1      83.437  15.260 106.592  1.00  0.00    -0.000 C 
BRANCH  15  16
ATOM     16  C   UNL     1      82.956  13.900 107.133  1.00  0.00    -0.000 C 
BRANCH  16  17
ATOM     17  C   UNL     1      84.066  13.117 107.854  1.00  0.00    -0.000 C 
BRANCH  17  18
ATOM     18  C   UNL     1      83.895  13.107 109.384  1.00  0.00    -0.000 C 
BRANCH  18  19
ATOM     19  C   UNL     1      82.753  13.991 109.919  1.00  0.00    -0.003 C 
ATOM     20  C   UNL     1      82.260  13.565 111.300  1.00  0.00     0.004 C 
ENDBRANCH  18  19
ENDBRANCH  17  18
ENDBRANCH  16  17
ENDBRANCH  15  16
ENDBRANCH  14  15
ENDBRANCH  13  14
ENDBRANCH  12  13
ENDBRANCH   1  12
TORSDOF 16
ENDMDL
MODEL 5
REMARK VINA RESULT:     6.226     10.950     12.485
REMARK INTER + INTRA:          13.387
REMARK INTER:                  13.758
REMARK INTRA:                  -0.371
REMARK UNBOUND:                 1.337
REMARK SMILES CCCCCCCCCCCCCCCCCC(=O)[O-]
REMARK SMILES IDX 10 1 11 2 12 3 13 4 14 5 15 6 16 7 17 8 18 9 19 10 20 11
REMARK SMILES IDX 9 12 8 13 7 14 6 15 5 16 4 17 3 18 2 19 1 20
REMARK H PARENT
REMARK Flexibility Score: inf
ROOT
ATOM      1  C   UNL     1      86.429  20.315 108.701  1.00  0.00     0.000 C 
ENDROOT
BRANCH   1   2
ATOM      2  C   UNL     1      86.241  18.798 108.537  1.00  0.00     0.000 C 
BRANCH   2   3
ATOM      3  C   UNL     1      84.990  18.442 107.715  1.00  0.00     0.000 C 
BRANCH   3   4
ATOM      4  C   UNL     1      84.339  17.117 108.156  1.00  0.00     0.000 C 
BRANCH   4   5
ATOM      5  C   UNL     1      84.529  15.938 107.182  1.00  0.00     0.000 C 
BRANCH   5   6
ATOM      6  C   UNL     1      83.344  14.956 107.190  1.00  0.00     0.000 C 
BRANCH   6   7
ATOM      7  C   UNL     1      83.799  13.482 107.143  1.00  0.00     0.006 C 
BRANCH   7   8
ATOM      8  C   UNL     1      83.525  12.710 108.444  1.00  0.00     0.053 C 
BRANCH   8   9
ATOM      9  C   UNL     1      83.667  13.573 109.660  1.00  0.00     0.041 C 
ATOM     10  O   UNL     1      84.805  13.959 110.035  1.00  0.00    -0.550 OA
ATOM     11  O   UNL     1      82.543  13.940 110.389  1.00  0.00    -0.550 OA
ENDBRANCH   8   9
ENDBRANCH   7   8
ENDBRANCH   6   7
ENDBRANCH   5   6
ENDBRANCH   4   5
ENDBRANCH   3   4
ENDBRANCH   2   3
ENDBRANCH   1   2
BRANCH   1  12
ATOM     12  C   UNL     1      86.751  20.719 110.152  1.00  0.00     0.000 C 
BRANCH  12  13
ATOM     13  C   UNL     1      87.955  21.669 110.242  1.00  0.00    -0.000 C 
BRANCH  13  14
ATOM     14  C   UNL     1      88.514  21.776 111.673  1.00  0.00    -0.000 C 
BRANCH  14  15
ATOM     15  C   UNL     1      89.651  22.807 111.799  1.00  0.00    -0.000 C 
BRANCH  15  16
ATOM     16  C   UNL     1      90.593  22.605 113.001  1.00  0.00    -0.000 C 
BRANCH  16  17
ATOM     17  C   UNL     1      90.451  21.216 113.646  1.00  0.00    -0.000 C 
BRANCH  17  18
ATOM     18  C   UNL     1      91.019  20.087 112.767  1.00  0.00    -0.000 C 
BRANCH  18  19
ATOM     19  C   UNL     1      92.229  20.481 111.901  1.00  0.00    -0.003 C 
ATOM     20  C   UNL     1      93.253  19.356 111.753  1.00  0.00     0.004 C 
ENDBRANCH  18  19
ENDBRANCH  17  18
ENDBRANCH  16  17
ENDBRANCH  15  16
ENDBRANCH  14  15
ENDBRANCH  13  14
ENDBRANCH  12  13
ENDBRANCH   1  12
TORSDOF 16
ENDMDL
MODEL 6
REMARK VINA RESULT:     6.475     13.740     15.701
REMARK INTER + INTRA:          13.868
REMARK INTER:                  14.457
REMARK INTRA:                  -0.589
REMARK UNBOUND:                 1.337
REMARK SMILES CCCCCCCCCCCCCCCCCC(=O)[O-]
REMARK SMILES IDX 10 1 11 2 12 3 13 4 14 5 15 6 16 7 17 8 18 9 19 10 20 11
REMARK SMILES IDX 9 12 8 13 7 14 6 15 5 16 4 17 3 18 2 19 1 20
REMARK H PARENT
REMARK Flexibility Score: inf
ROOT
ATOM      1  C   UNL     1      89.991  10.145 106.572  1.00  0.00     0.000 C 
ENDROOT
BRANCH   1   2
ATOM      2  C   UNL     1      90.261   8.660 106.280  1.00  0.00     0.000 C 
BRANCH   2   3
ATOM      3  C   UNL     1      91.342   8.063 107.199  1.00  0.00     0.000 C 
BRANCH   3   4
ATOM      4  C   UNL     1      90.791   6.981 108.147  1.00  0.00     0.000 C 
BRANCH   4   5
ATOM      5  C   UNL     1      89.326   7.177 108.583  1.00  0.00     0.000 C 
BRANCH   5   6
ATOM      6  C   UNL     1      89.176   7.403 110.099  1.00  0.00     0.000 C 
BRANCH   6   7
ATOM      7  C   UNL     1      87.752   7.850 110.491  1.00  0.00     0.006 C 
BRANCH   7   8
ATOM      8  C   UNL     1      87.040   6.875 111.443  1.00  0.00     0.053 C 
BRANCH   8   9
ATOM      9  C   UNL     1      86.845   7.455 112.811  1.00  0.00     0.041 C 
ATOM     10  O   UNL     1      87.466   6.977 113.798  1.00  0.00    -0.550 OA
ATOM     11  O   UNL     1      85.967   8.514 113.000  1.00  0.00    -0.550 OA
ENDBRANCH   8   9
ENDBRANCH   7   8
ENDBRANCH   6   7
ENDBRANCH   5   6
ENDBRANCH   4   5
ENDBRANCH   3   4
ENDBRANCH   2   3
ENDBRANCH   1   2
BRANCH   1  12
ATOM     12  C   UNL     1      89.266  10.854 105.414  1.00  0.00     0.000 C 
BRANCH  12  13
ATOM     13  C   UNL     1      89.087  12.360 105.668  1.00  0.00    -0.000 C 
BRANCH  13  14
ATOM     14  C   UNL     1      88.176  12.647 106.876  1.00  0.00    -0.000 C 
BRANCH  14  15
ATOM     15  C   UNL     1      87.415  13.979 106.750  1.00  0.00    -0.000 C 
BRANCH  15  16
ATOM     16  C   UNL     1      86.183  14.124 107.665  1.00  0.00    -0.000 C 
BRANCH  16  17
ATOM     17  C   UNL     1      85.459  15.469 107.486  1.00  0.00    -0.000 C 
BRANCH  17  18
ATOM     18  C   UNL     1      83.931  15.349 107.630  1.00  0.00    -0.000 C 
BRANCH  18  19
ATOM     19  C   UNL     1      83.406  13.919 107.848  1.00  0.00    -0.003 C 
ATOM     20  C   UNL     1      83.312  13.532 109.323  1.00  0.00     0.004 C 
ENDBRANCH  18  19
ENDBRANCH  17  18
ENDBRANCH  16  17
ENDBRANCH  15  16
ENDBRANCH  14  15
ENDBRANCH  13  14
ENDBRANCH  12  13
ENDBRANCH   1  12
TORSDOF 16
ENDMDL
