MODEL 1
REMARK VINA RESULT:    -3.743      0.000      0.000
REMARK INTER + INTRA:          -4.615
REMARK INTER:                  -4.400
REMARK INTRA:                  -0.215
REMARK UNBOUND:                -0.215
REMARK SMILES [NH3+][C@H](CO)C(=O)[O-]
REMARK SMILES IDX 3 1 2 2 1 3 5 7 6 8 7 9 4 10
REMARK H PARENT 1 4 1 5 1 6 4 11
REMARK Flexibility Score: inf
ROOT
ATOM      1  C   UNL     1     129.125 144.943 122.745  1.00  0.00     0.227 C 
ENDROOT
BRANCH   1   2
ATOM      2  C   UNL     1     130.653 144.951 122.547  1.00  0.00     0.253 C 
BRANCH   2   3
ATOM      3  N   UNL     1     131.012 145.476 121.224  1.00  0.00    -0.348 N 
ATOM      4  H   UNL     1     131.770 144.891 120.802  1.00  0.00     0.345 HD
ATOM      5  H   UNL     1     131.372 146.454 121.317  1.00  0.00     0.345 HD
ATOM      6  H   UNL     1     130.183 145.475 120.586  1.00  0.00     0.345 HD
ENDBRANCH   2   3
BRANCH   2   7
ATOM      7  C   UNL     1     131.310 145.761 123.632  1.00  0.00     0.102 C 
ATOM      8  O   UNL     1     132.485 145.498 124.003  1.00  0.00    -0.544 OA
ATOM      9  O   UNL     1     130.627 146.818 124.220  1.00  0.00    -0.544 OA
ENDBRANCH   2   7
ENDBRANCH   1   2
BRANCH   1  10
ATOM     10  O   UNL     1     128.537 146.055 122.125  1.00  0.00    -0.390 OA
ATOM     11  H   UNL     1     127.932 145.700 121.422  1.00  0.00     0.210 HD
ENDBRANCH   1  10
TORSDOF 4
ENDMDL
MODEL 2
REMARK VINA RESULT:    -3.735      0.087      1.225
REMARK INTER + INTRA:          -4.605
REMARK INTER:                  -4.389
REMARK INTRA:                  -0.216
REMARK UNBOUND:                -0.215
REMARK SMILES [NH3+][C@H](CO)C(=O)[O-]
REMARK SMILES IDX 3 1 2 2 1 3 5 7 6 8 7 9 4 10
REMARK H PARENT 1 4 1 5 1 6 4 11
REMARK Flexibility Score: inf
ROOT
ATOM      1  C   UNL     1     129.129 144.981 122.765  1.00  0.00     0.227 C 
ENDROOT
BRANCH   1   2
ATOM      2  C   UNL     1     130.662 144.987 122.612  1.00  0.00     0.253 C 
BRANCH   2   3
ATOM      3  N   UNL     1     131.059 145.469 121.284  1.00  0.00    -0.348 N 
ATOM      4  H   UNL     1     130.403 146.218 120.965  1.00  0.00     0.345 HD
ATOM      5  H   UNL     1     131.014 144.684 120.593  1.00  0.00     0.345 HD
ATOM      6  H   UNL     1     132.033 145.853 121.304  1.00  0.00     0.345 HD
ENDBRANCH   2   3
BRANCH   2   7
ATOM      7  C   UNL     1     131.285 145.834 123.689  1.00  0.00     0.102 C 
ATOM      8  O   UNL     1     130.645 146.790 124.201  1.00  0.00    -0.544 OA
ATOM      9  O   UNL     1     132.570 145.553 124.135  1.00  0.00    -0.544 OA
ENDBRANCH   2   7
ENDBRANCH   1   2
BRANCH   1  10
ATOM     10  O   UNL     1     128.558 146.078 122.103  1.00  0.00    -0.390 OA
ATOM     11  H   UNL     1     129.201 146.829 122.194  1.00  0.00     0.210 HD
ENDBRANCH   1  10
TORSDOF 4
ENDMDL
MODEL 3
REMARK VINA RESULT:    -3.602      2.353      3.614
REMARK INTER + INTRA:          -4.448
REMARK INTER:                  -4.419
REMARK INTRA:                  -0.029
REMARK UNBOUND:                -0.215
REMARK SMILES [NH3+][C@H](CO)C(=O)[O-]
REMARK SMILES IDX 3 1 2 2 1 3 5 7 6 8 7 9 4 10
REMARK H PARENT 1 4 1 5 1 6 4 11
REMARK Flexibility Score: inf
ROOT
ATOM      1  C   UNL     1     130.530 144.464 122.318  1.00  0.00     0.227 C 
ENDROOT
BRANCH   1   2
ATOM      2  C   UNL     1     129.159 144.941 122.832  1.00  0.00     0.253 C 
BRANCH   2   3
ATOM      3  N   UNL     1     128.690 146.111 122.079  1.00  0.00    -0.348 N 
ATOM      4  H   UNL     1     128.383 145.820 121.123  1.00  0.00     0.345 HD
ATOM      5  H   UNL     1     129.471 146.800 121.973  1.00  0.00     0.345 HD
ATOM      6  H   UNL     1     127.890 146.572 122.571  1.00  0.00     0.345 HD
ENDBRANCH   2   3
BRANCH   2   7
ATOM      7  C   UNL     1     128.157 143.822 122.745  1.00  0.00     0.102 C 
ATOM      8  O   UNL     1     127.215 143.741 123.579  1.00  0.00    -0.544 OA
ATOM      9  O   UNL     1     128.256 142.877 121.731  1.00  0.00    -0.544 OA
ENDBRANCH   2   7
ENDBRANCH   1   2
BRANCH   1  10
ATOM     10  O   UNL     1     130.999 145.302 121.296  1.00  0.00    -0.390 OA
ATOM     11  H   UNL     1     131.515 144.726 120.672  1.00  0.00     0.210 HD
ENDBRANCH   1  10
TORSDOF 4
ENDMDL
MODEL 4
REMARK VINA RESULT:    -3.342      2.178      3.059
REMARK INTER + INTRA:          -4.143
REMARK INTER:                  -3.918
REMARK INTRA:                  -0.225
REMARK UNBOUND:                -0.215
REMARK SMILES [NH3+][C@H](CO)C(=O)[O-]
REMARK SMILES IDX 3 1 2 2 1 3 5 7 6 8 7 9 4 10
REMARK H PARENT 1 4 1 5 1 6 4 11
REMARK Flexibility Score: inf
ROOT
ATOM      1  C   UNL     1     130.729 145.621 123.509  1.00  0.00     0.227 C 
ENDROOT
BRANCH   1   2
ATOM      2  C   UNL     1     129.354 145.048 123.120  1.00  0.00     0.253 C 
BRANCH   2   3
ATOM      3  N   UNL     1     128.668 145.923 122.162  1.00  0.00    -0.348 N 
ATOM      4  H   UNL     1     127.787 145.468 121.830  1.00  0.00     0.345 HD
ATOM      5  H   UNL     1     129.282 146.086 121.329  1.00  0.00     0.345 HD
ATOM      6  H   UNL     1     128.435 146.844 122.601  1.00  0.00     0.345 HD
ENDBRANCH   2   3
BRANCH   2   7
ATOM      7  C   UNL     1     129.513 143.664 122.550  1.00  0.00     0.102 C 
ATOM      8  O   UNL     1     130.608 143.050 122.658  1.00  0.00    -0.544 OA
ATOM      9  O   UNL     1     128.442 143.048 121.914  1.00  0.00    -0.544 OA
ENDBRANCH   2   7
ENDBRANCH   1   2
BRANCH   1  10
ATOM     10  O   UNL     1     131.496 145.895 122.368  1.00  0.00    -0.390 OA
ATOM     11  H   UNL     1     131.022 146.616 121.875  1.00  0.00     0.210 HD
ENDBRANCH   1  10
TORSDOF 4
ENDMDL
MODEL 5
REMARK VINA RESULT:    -3.240      2.229      2.477
REMARK INTER + INTRA:          -4.023
REMARK INTER:                  -4.013
REMARK INTRA:                  -0.009
REMARK UNBOUND:                -0.215
REMARK SMILES [NH3+][C@H](CO)C(=O)[O-]
REMARK SMILES IDX 3 1 2 2 1 3 5 7 6 8 7 9 4 10
REMARK H PARENT 1 4 1 5 1 6 4 11
REMARK Flexibility Score: inf
ROOT
ATOM      1  C   UNL     1     127.641 143.826 122.672  1.00  0.00     0.227 C 
ENDROOT
BRANCH   1   2
ATOM      2  C   UNL     1     128.957 144.617 122.556  1.00  0.00     0.253 C 
BRANCH   2   3
ATOM      3  N   UNL     1     128.708 145.997 122.123  1.00  0.00    -0.348 N 
ATOM      4  H   UNL     1     127.884 146.026 121.481  1.00  0.00     0.345 HD
ATOM      5  H   UNL     1     129.539 146.359 121.599  1.00  0.00     0.345 HD
ATOM      6  H   UNL     1     128.524 146.617 122.945  1.00  0.00     0.345 HD
ENDBRANCH   2   3
BRANCH   2   7
ATOM      7  C   UNL     1     129.688 144.601 123.872  1.00  0.00     0.102 C 
ATOM      8  O   UNL     1     130.364 145.599 124.240  1.00  0.00    -0.544 OA
ATOM      9  O   UNL     1     129.605 143.487 124.699  1.00  0.00    -0.544 OA
ENDBRANCH   2   7
ENDBRANCH   1   2
BRANCH   1  10
ATOM     10  O   UNL     1     127.166 143.458 121.405  1.00  0.00    -0.390 OA
ATOM     11  H   UNL     1     126.820 144.286 120.981  1.00  0.00     0.210 HD
ENDBRANCH   1  10
TORSDOF 4
ENDMDL
MODEL 6
REMARK VINA RESULT:    -3.238      1.842      1.904
REMARK INTER + INTRA:          -4.020
REMARK INTER:                  -3.622
REMARK INTRA:                  -0.399
REMARK UNBOUND:                -0.215
REMARK SMILES [NH3+][C@H](CO)C(=O)[O-]
REMARK SMILES IDX 3 1 2 2 1 3 5 7 6 8 7 9 4 10
REMARK H PARENT 1 4 1 5 1 6 4 11
REMARK Flexibility Score: inf
ROOT
ATOM      1  C   UNL     1     128.440 143.941 123.435  1.00  0.00     0.227 C 
ENDROOT
BRANCH   1   2
ATOM      2  C   UNL     1     129.370 144.831 122.590  1.00  0.00     0.253 C 
BRANCH   2   3
ATOM      3  N   UNL     1     128.662 146.019 122.098  1.00  0.00    -0.348 N 
ATOM      4  H   UNL     1     127.647 145.954 122.338  1.00  0.00     0.345 HD
ATOM      5  H   UNL     1     128.746 146.074 121.056  1.00  0.00     0.345 HD
ATOM      6  H   UNL     1     129.060 146.890 122.521  1.00  0.00     0.345 HD
ENDBRANCH   2   3
BRANCH   2   7
ATOM      7  C   UNL     1     130.576 145.232 123.397  1.00  0.00     0.102 C 
ATOM      8  O   UNL     1     131.610 144.512 123.403  1.00  0.00    -0.544 OA
ATOM      9  O   UNL     1     130.559 146.412 124.130  1.00  0.00    -0.544 OA
ENDBRANCH   2   7
ENDBRANCH   1   2
BRANCH   1  10
ATOM     10  O   UNL     1     128.927 143.810 124.744  1.00  0.00    -0.390 OA
ATOM     11  H   UNL     1     128.339 144.364 125.322  1.00  0.00     0.210 HD
ENDBRANCH   1  10
TORSDOF 4
ENDMDL
MODEL 7
REMARK VINA RESULT:    -3.216      2.757      3.874
REMARK INTER + INTRA:          -3.995
REMARK INTER:                  -3.591
REMARK INTRA:                  -0.404
REMARK UNBOUND:                -0.215
REMARK SMILES [NH3+][C@H](CO)C(=O)[O-]
REMARK SMILES IDX 3 1 2 2 1 3 5 7 6 8 7 9 4 10
REMARK H PARENT 1 4 1 5 1 6 4 11
REMARK Flexibility Score: inf
ROOT
ATOM      1  C   UNL     1     129.575 145.387 122.926  1.00  0.00     0.227 C 
ENDROOT
BRANCH   1   2
ATOM      2  C   UNL     1     129.224 143.966 123.406  1.00  0.00     0.253 C 
BRANCH   2   3
ATOM      3  N   UNL     1     129.241 143.883 124.871  1.00  0.00    -0.348 N 
ATOM      4  H   UNL     1     129.290 144.843 125.283  1.00  0.00     0.345 HD
ATOM      5  H   UNL     1     130.087 143.352 125.186  1.00  0.00     0.345 HD
ATOM      6  H   UNL     1     128.382 143.401 125.226  1.00  0.00     0.345 HD
ENDBRANCH   2   3
BRANCH   2   7
ATOM      7  C   UNL     1     127.878 143.557 122.870  1.00  0.00     0.102 C 
ATOM      8  O   UNL     1     126.842 143.693 123.575  1.00  0.00    -0.544 OA
ATOM      9  O   UNL     1     127.769 143.042 121.585  1.00  0.00    -0.544 OA
ENDBRANCH   2   7
ENDBRANCH   1   2
BRANCH   1  10
ATOM     10  O   UNL     1     128.534 145.925 122.156  1.00  0.00    -0.390 OA
ATOM     11  H   UNL     1     127.852 146.260 122.796  1.00  0.00     0.210 HD
ENDBRANCH   1  10
TORSDOF 4
ENDMDL
MODEL 8
REMARK VINA RESULT:    -3.163      2.882      3.470
REMARK INTER + INTRA:          -3.933
REMARK INTER:                  -3.917
REMARK INTRA:                  -0.015
REMARK UNBOUND:                -0.215
REMARK SMILES [NH3+][C@H](CO)C(=O)[O-]
REMARK SMILES IDX 3 1 2 2 1 3 5 7 6 8 7 9 4 10
REMARK H PARENT 1 4 1 5 1 6 4 11
REMARK Flexibility Score: inf
ROOT
ATOM      1  C   UNL     1     129.259 145.166 122.804  1.00  0.00     0.227 C 
ENDROOT
BRANCH   1   2
ATOM      2  C   UNL     1     128.362 143.915 122.869  1.00  0.00     0.253 C 
BRANCH   2   3
ATOM      3  N   UNL     1     127.425 143.877 121.741  1.00  0.00    -0.348 N 
ATOM      4  H   UNL     1     126.741 144.665 121.817  1.00  0.00     0.345 HD
ATOM      5  H   UNL     1     126.887 142.979 121.758  1.00  0.00     0.345 HD
ATOM      6  H   UNL     1     127.935 143.953 120.830  1.00  0.00     0.345 HD
ENDBRANCH   2   3
BRANCH   2   7
ATOM      7  C   UNL     1     129.210 142.672 122.893  1.00  0.00     0.102 C 
ATOM      8  O   UNL     1     130.461 142.749 122.763  1.00  0.00    -0.544 OA
ATOM      9  O   UNL     1     128.616 141.430 123.074  1.00  0.00    -0.544 OA
ENDBRANCH   2   7
ENDBRANCH   1   2
BRANCH   1  10
ATOM     10  O   UNL     1     128.658 146.170 122.031  1.00  0.00    -0.390 OA
ATOM     11  H   UNL     1     129.281 146.944 122.038  1.00  0.00     0.210 HD
ENDBRANCH   1  10
TORSDOF 4
ENDMDL
MODEL 9
REMARK VINA RESULT:    -2.993      1.947      2.071
REMARK INTER + INTRA:          -3.733
REMARK INTER:                  -3.345
REMARK INTRA:                  -0.388
REMARK UNBOUND:                -0.215
REMARK SMILES [NH3+][C@H](CO)C(=O)[O-]
REMARK SMILES IDX 3 1 2 2 1 3 5 7 6 8 7 9 4 10
REMARK H PARENT 1 4 1 5 1 6 4 11
REMARK Flexibility Score: inf
ROOT
ATOM      1  C   UNL     1     128.002 143.884 122.950  1.00  0.00     0.227 C 
ENDROOT
BRANCH   1   2
ATOM      2  C   UNL     1     129.482 143.690 123.331  1.00  0.00     0.253 C 
BRANCH   2   3
ATOM      3  N   UNL     1     130.040 142.492 122.692  1.00  0.00    -0.348 N 
ATOM      4  H   UNL     1     130.288 141.783 123.420  1.00  0.00     0.345 HD
ATOM      5  H   UNL     1     130.913 142.742 122.172  1.00  0.00     0.345 HD
ATOM      6  H   UNL     1     129.351 142.072 122.025  1.00  0.00     0.345 HD
ENDBRANCH   2   3
BRANCH   2   7
ATOM      7  C   UNL     1     130.278 144.909 122.950  1.00  0.00     0.102 C 
ATOM      8  O   UNL     1     130.969 144.918 121.896  1.00  0.00    -0.544 OA
ATOM      9  O   UNL     1     130.242 146.041 123.755  1.00  0.00    -0.544 OA
ENDBRANCH   2   7
ENDBRANCH   1   2
BRANCH   1  10
ATOM     10  O   UNL     1     127.855 144.945 122.045  1.00  0.00    -0.390 OA
ATOM     11  H   UNL     1     127.247 144.624 121.329  1.00  0.00     0.210 HD
ENDBRANCH   1  10
TORSDOF 4
ENDMDL
