MODEL 1
REMARK VINA RESULT:    -4.644      0.000      0.000
REMARK INTER + INTRA:         -13.831
REMARK INTER:                 -10.617
REMARK INTRA:                  -3.214
REMARK UNBOUND:                -3.214
REMARK SMILES CCCCCCCCCCCCCCCCCCCCCCCC(=O)[O-]
REMARK SMILES IDX 13 1 14 2 15 3 16 4 17 5 18 6 19 7 20 8 21 9 22 10 23 11
REMARK SMILES IDX 24 12 25 13 26 14 12 15 11 16 10 17 9 18 8 19 7 20 6 21 5 22
REMARK SMILES IDX 4 23 3 24 2 25 1 26
REMARK H PARENT
REMARK Flexibility Score: inf
ROOT
ATOM      1  C   UNL     1       6.117  79.727  39.042  1.00  0.00     0.000 C 
ENDROOT
BRANCH   1   2
ATOM      2  C   UNL     1       5.700  79.993  37.579  1.00  0.00     0.000 C 
BRANCH   2   3
ATOM      3  C   UNL     1       6.302  78.973  36.603  1.00  0.00     0.000 C 
BRANCH   3   4
ATOM      4  C   UNL     1       7.747  79.343  36.245  1.00  0.00     0.000 C 
BRANCH   4   5
ATOM      5  C   UNL     1       8.714  78.203  36.600  1.00  0.00     0.000 C 
BRANCH   5   6
ATOM      6  C   UNL     1       9.401  78.417  37.959  1.00  0.00     0.000 C 
BRANCH   6   7
ATOM      7  C   UNL     1       9.980  79.836  38.114  1.00  0.00     0.000 C 
BRANCH   7   8
ATOM      8  C   UNL     1       9.984  80.306  39.584  1.00  0.00     0.000 C 
BRANCH   8   9
ATOM      9  C   UNL     1      11.387  80.625  40.130  1.00  0.00     0.000 C 
BRANCH   9  10
ATOM     10  C   UNL     1      11.737  79.819  41.391  1.00  0.00     0.006 C 
BRANCH  10  11
ATOM     11  C   UNL     1      12.027  80.724  42.597  1.00  0.00     0.053 C 
BRANCH  11  12
ATOM     12  C   UNL     1      10.814  80.913  43.456  1.00  0.00     0.041 C 
ATOM     13  O   UNL     1      10.654  80.217  44.494  1.00  0.00    -0.550 OA
ATOM     14  O   UNL     1       9.843  81.840  43.095  1.00  0.00    -0.550 OA
ENDBRANCH  11  12
ENDBRANCH  10  11
ENDBRANCH   9  10
ENDBRANCH   8   9
ENDBRANCH   7   8
ENDBRANCH   6   7
ENDBRANCH   5   6
ENDBRANCH   4   5
ENDBRANCH   3   4
ENDBRANCH   2   3
ENDBRANCH   1   2
BRANCH   1  15
ATOM     15  C   UNL     1       5.156  78.791  39.797  1.00  0.00     0.000 C 
BRANCH  15  16
ATOM     16  C   UNL     1       5.569  77.306  39.792  1.00  0.00     0.000 C 
BRANCH  16  17
ATOM     17  C   UNL     1       4.662  76.381  38.955  1.00  0.00     0.000 C 
BRANCH  17  18
ATOM     18  C   UNL     1       5.375  75.585  37.843  1.00  0.00    -0.000 C 
BRANCH  18  19
ATOM     19  C   UNL     1       6.913  75.576  37.925  1.00  0.00    -0.000 C 
BRANCH  19  20
ATOM     20  C   UNL     1       7.558  74.571  36.956  1.00  0.00    -0.000 C 
BRANCH  20  21
ATOM     21  C   UNL     1       6.645  73.371  36.658  1.00  0.00    -0.000 C 
BRANCH  21  22
ATOM     22  C   UNL     1       7.351  72.020  36.865  1.00  0.00    -0.000 C 
BRANCH  22  23
ATOM     23  C   UNL     1       7.483  71.640  38.351  1.00  0.00    -0.000 C 
BRANCH  23  24
ATOM     24  C   UNL     1       6.223  71.013  38.985  1.00  0.00    -0.000 C 
BRANCH  24  25
ATOM     25  C   UNL     1       5.348  71.991  39.790  1.00  0.00    -0.003 C 
ATOM     26  C   UNL     1       6.157  73.100  40.460  1.00  0.00     0.004 C 
ENDBRANCH  24  25
ENDBRANCH  23  24
ENDBRANCH  22  23
ENDBRANCH  21  22
ENDBRANCH  20  21
ENDBRANCH  19  20
ENDBRANCH  18  19
ENDBRANCH  17  18
ENDBRANCH  16  17
ENDBRANCH  15  16
ENDBRANCH   1  15
TORSDOF 22
ENDMDL
MODEL 2
REMARK VINA RESULT:    -4.602      1.217      4.217
REMARK INTER + INTRA:         -13.734
REMARK INTER:                 -10.575
REMARK INTRA:                  -3.160
REMARK UNBOUND:                -3.214
REMARK SMILES CCCCCCCCCCCCCCCCCCCCCCCC(=O)[O-]
REMARK SMILES IDX 13 1 14 2 15 3 16 4 17 5 18 6 19 7 20 8 21 9 22 10 23 11
REMARK SMILES IDX 24 12 25 13 26 14 12 15 11 16 10 17 9 18 8 19 7 20 6 21 5 22
REMARK SMILES IDX 4 23 3 24 2 25 1 26
REMARK H PARENT
REMARK Flexibility Score: inf
ROOT
ATOM      1  C   UNL     1       8.051  74.384  36.785  1.00  0.00     0.000 C 
ENDROOT
BRANCH   1   2
ATOM      2  C   UNL     1       8.224  75.905  36.987  1.00  0.00     0.000 C 
BRANCH   2   3
ATOM      3  C   UNL     1       9.626  76.393  36.593  1.00  0.00     0.000 C 
BRANCH   3   4
ATOM      4  C   UNL     1       9.698  77.925  36.611  1.00  0.00     0.000 C 
BRANCH   4   5
ATOM      5  C   UNL     1       8.357  78.537  37.047  1.00  0.00     0.000 C 
BRANCH   5   6
ATOM      6  C   UNL     1       8.538  79.722  38.011  1.00  0.00     0.000 C 
BRANCH   6   7
ATOM      7  C   UNL     1      10.018  80.017  38.317  1.00  0.00     0.000 C 
BRANCH   7   8
ATOM      8  C   UNL     1      10.195  80.786  39.644  1.00  0.00     0.000 C 
BRANCH   8   9
ATOM      9  C   UNL     1       8.991  80.668  40.594  1.00  0.00     0.000 C 
BRANCH   9  10
ATOM     10  C   UNL     1       9.171  81.473  41.892  1.00  0.00     0.006 C 
BRANCH  10  11
ATOM     11  C   UNL     1      10.624  81.464  42.385  1.00  0.00     0.053 C 
BRANCH  11  12
ATOM     12  C   UNL     1      10.920  80.258  43.225  1.00  0.00     0.041 C 
ATOM     13  O   UNL     1      11.330  79.195  42.688  1.00  0.00    -0.550 OA
ATOM     14  O   UNL     1      10.716  80.300  44.599  1.00  0.00    -0.550 OA
ENDBRANCH  11  12
ENDBRANCH  10  11
ENDBRANCH   9  10
ENDBRANCH   8   9
ENDBRANCH   7   8
ENDBRANCH   6   7
ENDBRANCH   5   6
ENDBRANCH   4   5
ENDBRANCH   3   4
ENDBRANCH   2   3
ENDBRANCH   1   2
BRANCH   1  15
ATOM     15  C   UNL     1       6.623  73.975  36.379  1.00  0.00     0.000 C 
BRANCH  15  16
ATOM     16  C   UNL     1       6.296  72.484  36.597  1.00  0.00     0.000 C 
BRANCH  16  17
ATOM     17  C   UNL     1       7.312  71.715  37.466  1.00  0.00     0.000 C 
BRANCH  17  18
ATOM     18  C   UNL     1       6.756  71.150  38.788  1.00  0.00    -0.000 C 
BRANCH  18  19
ATOM     19  C   UNL     1       5.680  72.013  39.472  1.00  0.00    -0.000 C 
BRANCH  19  20
ATOM     20  C   UNL     1       6.270  73.035  40.458  1.00  0.00    -0.000 C 
BRANCH  20  21
ATOM     21  C   UNL     1       6.139  74.482  39.956  1.00  0.00    -0.000 C 
BRANCH  21  22
ATOM     22  C   UNL     1       4.714  74.824  39.488  1.00  0.00    -0.000 C 
BRANCH  22  23
ATOM     23  C   UNL     1       4.600  76.252  38.925  1.00  0.00    -0.000 C 
BRANCH  23  24
ATOM     24  C   UNL     1       5.646  77.255  39.456  1.00  0.00    -0.000 C 
BRANCH  24  25
ATOM     25  C   UNL     1       5.153  78.710  39.566  1.00  0.00    -0.003 C 
ATOM     26  C   UNL     1       5.512  79.361  40.901  1.00  0.00     0.004 C 
ENDBRANCH  24  25
ENDBRANCH  23  24
ENDBRANCH  22  23
ENDBRANCH  21  22
ENDBRANCH  20  21
ENDBRANCH  19  20
ENDBRANCH  18  19
ENDBRANCH  17  18
ENDBRANCH  16  17
ENDBRANCH  15  16
ENDBRANCH   1  15
TORSDOF 22
ENDMDL
MODEL 3
REMARK VINA RESULT:    -4.601      3.606      5.606
REMARK INTER + INTRA:         -13.733
REMARK INTER:                 -10.677
REMARK INTRA:                  -3.056
REMARK UNBOUND:                -3.214
REMARK SMILES CCCCCCCCCCCCCCCCCCCCCCCC(=O)[O-]
REMARK SMILES IDX 13 1 14 2 15 3 16 4 17 5 18 6 19 7 20 8 21 9 22 10 23 11
REMARK SMILES IDX 24 12 25 13 26 14 12 15 11 16 10 17 9 18 8 19 7 20 6 21 5 22
REMARK SMILES IDX 4 23 3 24 2 25 1 26
REMARK H PARENT
REMARK Flexibility Score: inf
ROOT
ATOM      1  C   UNL     1       8.107  78.656  39.626  1.00  0.00     0.000 C 
ENDROOT
BRANCH   1   2
ATOM      2  C   UNL     1       8.663  79.823  38.782  1.00  0.00     0.000 C 
BRANCH   2   3
ATOM      3  C   UNL     1       9.705  79.360  37.754  1.00  0.00     0.000 C 
BRANCH   3   4
ATOM      4  C   UNL     1       9.056  78.489  36.671  1.00  0.00     0.000 C 
BRANCH   4   5
ATOM      5  C   UNL     1      10.023  77.396  36.187  1.00  0.00     0.000 C 
BRANCH   5   6
ATOM      6  C   UNL     1       9.610  75.994  36.665  1.00  0.00     0.000 C 
BRANCH   6   7
ATOM      7  C   UNL     1       8.101  75.885  36.953  1.00  0.00     0.000 C 
BRANCH   7   8
ATOM      8  C   UNL     1       7.649  74.421  37.141  1.00  0.00     0.000 C 
BRANCH   8   9
ATOM      9  C   UNL     1       8.571  73.395  36.460  1.00  0.00     0.000 C 
BRANCH   9  10
ATOM     10  C   UNL     1       9.221  72.420  37.454  1.00  0.00     0.006 C 
BRANCH  10  11
ATOM     11  C   UNL     1      10.575  71.897  36.957  1.00  0.00     0.053 C 
BRANCH  11  12
ATOM     12  C   UNL     1      11.682  72.215  37.916  1.00  0.00     0.041 C 
ATOM     13  O   UNL     1      12.749  72.741  37.504  1.00  0.00    -0.550 OA
ATOM     14  O   UNL     1      11.545  71.904  39.264  1.00  0.00    -0.550 OA
ENDBRANCH  11  12
ENDBRANCH  10  11
ENDBRANCH   9  10
ENDBRANCH   8   9
ENDBRANCH   7   8
ENDBRANCH   6   7
ENDBRANCH   5   6
ENDBRANCH   4   5
ENDBRANCH   3   4
ENDBRANCH   2   3
ENDBRANCH   1   2
BRANCH   1  15
ATOM     15  C   UNL     1       6.587  78.733  39.860  1.00  0.00     0.000 C 
BRANCH  15  16
ATOM     16  C   UNL     1       5.749  77.820  38.942  1.00  0.00     0.000 C 
BRANCH  16  17
ATOM     17  C   UNL     1       5.451  76.420  39.516  1.00  0.00     0.000 C 
BRANCH  17  18
ATOM     18  C   UNL     1       4.191  75.731  38.955  1.00  0.00    -0.000 C 
BRANCH  18  19
ATOM     19  C   UNL     1       4.177  74.195  39.065  1.00  0.00    -0.000 C 
BRANCH  19  20
ATOM     20  C   UNL     1       5.341  73.644  39.906  1.00  0.00    -0.000 C 
BRANCH  20  21
ATOM     21  C   UNL     1       5.663  72.177  39.577  1.00  0.00    -0.000 C 
BRANCH  21  22
ATOM     22  C   UNL     1       5.239  71.779  38.153  1.00  0.00    -0.000 C 
BRANCH  22  23
ATOM     23  C   UNL     1       5.958  70.514  37.651  1.00  0.00    -0.000 C 
BRANCH  23  24
ATOM     24  C   UNL     1       6.306  69.478  38.740  1.00  0.00    -0.000 C 
BRANCH  24  25
ATOM     25  C   UNL     1       5.656  68.095  38.552  1.00  0.00    -0.003 C 
ATOM     26  C   UNL     1       5.911  67.501  37.167  1.00  0.00     0.004 C 
ENDBRANCH  24  25
ENDBRANCH  23  24
ENDBRANCH  22  23
ENDBRANCH  21  22
ENDBRANCH  20  21
ENDBRANCH  19  20
ENDBRANCH  18  19
ENDBRANCH  17  18
ENDBRANCH  16  17
ENDBRANCH  15  16
ENDBRANCH   1  15
TORSDOF 22
ENDMDL
MODEL 4
REMARK VINA RESULT:    -4.596      1.687      3.322
REMARK INTER + INTRA:         -13.720
REMARK INTER:                 -10.086
REMARK INTRA:                  -3.634
REMARK UNBOUND:                -3.214
REMARK SMILES CCCCCCCCCCCCCCCCCCCCCCCC(=O)[O-]
REMARK SMILES IDX 13 1 14 2 15 3 16 4 17 5 18 6 19 7 20 8 21 9 22 10 23 11
REMARK SMILES IDX 24 12 25 13 26 14 12 15 11 16 10 17 9 18 8 19 7 20 6 21 5 22
REMARK SMILES IDX 4 23 3 24 2 25 1 26
REMARK H PARENT
REMARK Flexibility Score: inf
ROOT
ATOM      1  C   UNL     1       6.191  78.999  40.021  1.00  0.00     0.000 C 
ENDROOT
BRANCH   1   2
ATOM      2  C   UNL     1       7.272  79.988  40.508  1.00  0.00     0.000 C 
BRANCH   2   3
ATOM      3  C   UNL     1       8.680  79.598  40.035  1.00  0.00     0.000 C 
BRANCH   3   4
ATOM      4  C   UNL     1       9.232  80.633  39.046  1.00  0.00     0.000 C 
BRANCH   4   5
ATOM      5  C   UNL     1      10.732  80.411  38.795  1.00  0.00     0.000 C 
BRANCH   5   6
ATOM      6  C   UNL     1      11.613  81.129  39.831  1.00  0.00     0.000 C 
BRANCH   6   7
ATOM      7  C   UNL     1      11.986  80.224  41.021  1.00  0.00     0.000 C 
BRANCH   7   8
ATOM      8  C   UNL     1      11.777  80.931  42.377  1.00  0.00     0.000 C 
BRANCH   8   9
ATOM      9  C   UNL     1      11.037  82.275  42.268  1.00  0.00     0.000 C 
BRANCH   9  10
ATOM     10  C   UNL     1       9.565  82.186  42.701  1.00  0.00     0.006 C 
BRANCH  10  11
ATOM     11  C   UNL     1       9.386  81.378  43.993  1.00  0.00     0.053 C 
BRANCH  11  12
ATOM     12  C   UNL     1       8.062  81.648  44.640  1.00  0.00     0.041 C 
ATOM     13  O   UNL     1       7.608  82.821  44.695  1.00  0.00    -0.550 OA
ATOM     14  O   UNL     1       7.340  80.605  45.209  1.00  0.00    -0.550 OA
ENDBRANCH  11  12
ENDBRANCH  10  11
ENDBRANCH   9  10
ENDBRANCH   8   9
ENDBRANCH   7   8
ENDBRANCH   6   7
ENDBRANCH   5   6
ENDBRANCH   4   5
ENDBRANCH   3   4
ENDBRANCH   2   3
ENDBRANCH   1   2
BRANCH   1  15
ATOM     15  C   UNL     1       5.243  79.593  38.964  1.00  0.00     0.000 C 
BRANCH  15  16
ATOM     16  C   UNL     1       5.941  80.085  37.680  1.00  0.00     0.000 C 
BRANCH  16  17
ATOM     17  C   UNL     1       6.274  78.980  36.657  1.00  0.00     0.000 C 
BRANCH  17  18
ATOM     18  C   UNL     1       7.759  78.881  36.251  1.00  0.00    -0.000 C 
BRANCH  18  19
ATOM     19  C   UNL     1       8.523  77.683  36.844  1.00  0.00    -0.000 C 
BRANCH  19  20
ATOM     20  C   UNL     1       7.628  76.757  37.684  1.00  0.00    -0.000 C 
BRANCH  20  21
ATOM     21  C   UNL     1       7.378  75.401  37.003  1.00  0.00    -0.000 C 
BRANCH  21  22
ATOM     22  C   UNL     1       5.914  74.943  37.107  1.00  0.00    -0.000 C 
BRANCH  22  23
ATOM     23  C   UNL     1       5.063  75.869  37.995  1.00  0.00    -0.000 C 
BRANCH  23  24
ATOM     24  C   UNL     1       4.612  75.260  39.339  1.00  0.00    -0.000 C 
BRANCH  24  25
ATOM     25  C   UNL     1       4.976  73.776  39.533  1.00  0.00    -0.003 C 
ATOM     26  C   UNL     1       6.128  73.570  40.515  1.00  0.00     0.004 C 
ENDBRANCH  24  25
ENDBRANCH  23  24
ENDBRANCH  22  23
ENDBRANCH  21  22
ENDBRANCH  20  21
ENDBRANCH  19  20
ENDBRANCH  18  19
ENDBRANCH  17  18
ENDBRANCH  16  17
ENDBRANCH  15  16
ENDBRANCH   1  15
TORSDOF 22
ENDMDL
MODEL 5
REMARK VINA RESULT:    -4.555      2.529      5.445
REMARK INTER + INTRA:         -13.627
REMARK INTER:                 -10.715
REMARK INTRA:                  -2.912
REMARK UNBOUND:                -3.214
REMARK SMILES CCCCCCCCCCCCCCCCCCCCCCCC(=O)[O-]
REMARK SMILES IDX 13 1 14 2 15 3 16 4 17 5 18 6 19 7 20 8 21 9 22 10 23 11
REMARK SMILES IDX 24 12 25 13 26 14 12 15 11 16 10 17 9 18 8 19 7 20 6 21 5 22
REMARK SMILES IDX 4 23 3 24 2 25 1 26
REMARK H PARENT
REMARK Flexibility Score: inf
ROOT
ATOM      1  C   UNL     1       9.033  80.391  40.115  1.00  0.00     0.000 C 
ENDROOT
BRANCH   1   2
ATOM      2  C   UNL     1      10.198  79.668  40.826  1.00  0.00     0.000 C 
BRANCH   2   3
ATOM      3  C   UNL     1      11.502  80.478  40.790  1.00  0.00     0.000 C 
BRANCH   3   4
ATOM      4  C   UNL     1      11.224  81.973  40.997  1.00  0.00     0.000 C 
BRANCH   4   5
ATOM      5  C   UNL     1      11.986  82.512  42.218  1.00  0.00     0.000 C 
BRANCH   5   6
ATOM      6  C   UNL     1      12.222  81.432  43.288  1.00  0.00     0.000 C 
BRANCH   6   7
ATOM      7  C   UNL     1      11.371  81.652  44.551  1.00  0.00     0.000 C 
BRANCH   7   8
ATOM      8  C   UNL     1      10.094  80.784  44.551  1.00  0.00     0.000 C 
BRANCH   8   9
ATOM      9  C   UNL     1       8.854  81.505  43.994  1.00  0.00     0.000 C 
BRANCH   9  10
ATOM     10  C   UNL     1       7.537  80.965  44.573  1.00  0.00     0.006 C 
BRANCH  10  11
ATOM     11  C   UNL     1       7.534  80.962  46.107  1.00  0.00     0.053 C 
BRANCH  11  12
ATOM     12  C   UNL     1       7.224  79.604  46.661  1.00  0.00     0.041 C 
ATOM     13  O   UNL     1       8.122  78.722  46.720  1.00  0.00    -0.550 OA
ATOM     14  O   UNL     1       5.936  79.302  47.086  1.00  0.00    -0.550 OA
ENDBRANCH  11  12
ENDBRANCH  10  11
ENDBRANCH   9  10
ENDBRANCH   8   9
ENDBRANCH   7   8
ENDBRANCH   6   7
ENDBRANCH   5   6
ENDBRANCH   4   5
ENDBRANCH   3   4
ENDBRANCH   2   3
ENDBRANCH   1   2
BRANCH   1  15
ATOM     15  C   UNL     1       9.189  80.455  38.585  1.00  0.00     0.000 C 
BRANCH  15  16
ATOM     16  C   UNL     1       7.976  79.929  37.793  1.00  0.00     0.000 C 
BRANCH  16  17
ATOM     17  C   UNL     1       8.299  78.823  36.767  1.00  0.00     0.000 C 
BRANCH  17  18
ATOM     18  C   UNL     1       9.432  77.858  37.170  1.00  0.00    -0.000 C 
BRANCH  18  19
ATOM     19  C   UNL     1       9.139  76.365  36.934  1.00  0.00    -0.000 C 
BRANCH  19  20
ATOM     20  C   UNL     1       7.636  76.062  36.812  1.00  0.00    -0.000 C 
BRANCH  20  21
ATOM     21  C   UNL     1       6.953  75.904  38.180  1.00  0.00    -0.000 C 
BRANCH  21  22
ATOM     22  C   UNL     1       5.435  76.140  38.119  1.00  0.00    -0.000 C 
BRANCH  22  23
ATOM     23  C   UNL     1       4.901  76.898  39.348  1.00  0.00    -0.000 C 
BRANCH  23  24
ATOM     24  C   UNL     1       5.901  77.871  40.007  1.00  0.00    -0.000 C 
BRANCH  24  25
ATOM     25  C   UNL     1       5.336  79.269  40.318  1.00  0.00    -0.003 C 
ATOM     26  C   UNL     1       5.125  79.507  41.813  1.00  0.00     0.004 C 
ENDBRANCH  24  25
ENDBRANCH  23  24
ENDBRANCH  22  23
ENDBRANCH  21  22
ENDBRANCH  20  21
ENDBRANCH  19  20
ENDBRANCH  18  19
ENDBRANCH  17  18
ENDBRANCH  16  17
ENDBRANCH  15  16
ENDBRANCH   1  15
TORSDOF 22
ENDMDL
MODEL 6
REMARK VINA RESULT:    -4.551      1.172      2.175
REMARK INTER + INTRA:         -13.618
REMARK INTER:                 -10.337
REMARK INTRA:                  -3.281
REMARK UNBOUND:                -3.214
REMARK SMILES CCCCCCCCCCCCCCCCCCCCCCCC(=O)[O-]
REMARK SMILES IDX 13 1 14 2 15 3 16 4 17 5 18 6 19 7 20 8 21 9 22 10 23 11
REMARK SMILES IDX 24 12 25 13 26 14 12 15 11 16 10 17 9 18 8 19 7 20 6 21 5 22
REMARK SMILES IDX 4 23 3 24 2 25 1 26
REMARK H PARENT
REMARK Flexibility Score: inf
ROOT
ATOM      1  C   UNL     1       5.897  77.667  39.341  1.00  0.00     0.000 C 
ENDROOT
BRANCH   1   2
ATOM      2  C   UNL     1       5.299  79.070  39.097  1.00  0.00     0.000 C 
BRANCH   2   3
ATOM      3  C   UNL     1       5.847  79.728  37.823  1.00  0.00     0.000 C 
BRANCH   3   4
ATOM      4  C   UNL     1       6.327  78.669  36.822  1.00  0.00     0.000 C 
BRANCH   4   5
ATOM      5  C   UNL     1       7.760  78.963  36.351  1.00  0.00     0.000 C 
BRANCH   5   6
ATOM      6  C   UNL     1       8.776  77.938  36.883  1.00  0.00     0.000 C 
BRANCH   6   7
ATOM      7  C   UNL     1       9.434  78.384  38.202  1.00  0.00     0.000 C 
BRANCH   7   8
ATOM      8  C   UNL     1       9.409  79.917  38.376  1.00  0.00     0.000 C 
BRANCH   8   9
ATOM      9  C   UNL     1      10.805  80.546  38.530  1.00  0.00     0.000 C 
BRANCH   9  10
ATOM     10  C   UNL     1      11.324  80.502  39.976  1.00  0.00     0.006 C 
BRANCH  10  11
ATOM     11  C   UNL     1      10.777  81.657  40.826  1.00  0.00     0.053 C 
BRANCH  11  12
ATOM     12  C   UNL     1       9.949  81.161  41.973  1.00  0.00     0.041 C 
ATOM     13  O   UNL     1       8.715  81.409  42.021  1.00  0.00    -0.550 OA
ATOM     14  O   UNL     1      10.547  80.447  43.005  1.00  0.00    -0.550 OA
ENDBRANCH  11  12
ENDBRANCH  10  11
ENDBRANCH   9  10
ENDBRANCH   8   9
ENDBRANCH   7   8
ENDBRANCH   6   7
ENDBRANCH   5   6
ENDBRANCH   4   5
ENDBRANCH   3   4
ENDBRANCH   2   3
ENDBRANCH   1   2
BRANCH   1  15
ATOM     15  C   UNL     1       4.857  76.534  39.275  1.00  0.00     0.000 C 
BRANCH  15  16
ATOM     16  C   UNL     1       5.184  75.420  38.261  1.00  0.00     0.000 C 
BRANCH  16  17
ATOM     17  C   UNL     1       6.685  75.105  38.102  1.00  0.00     0.000 C 
BRANCH  17  18
ATOM     18  C   UNL     1       7.080  74.417  36.781  1.00  0.00    -0.000 C 
BRANCH  18  19
ATOM     19  C   UNL     1       8.548  73.961  36.690  1.00  0.00    -0.000 C 
BRANCH  19  20
ATOM     20  C   UNL     1       8.703  72.431  36.710  1.00  0.00    -0.000 C 
BRANCH  20  21
ATOM     21  C   UNL     1       9.345  71.921  38.011  1.00  0.00    -0.000 C 
BRANCH  21  22
ATOM     22  C   UNL     1       8.330  71.774  39.158  1.00  0.00    -0.000 C 
BRANCH  22  23
ATOM     23  C   UNL     1       7.092  70.953  38.754  1.00  0.00    -0.000 C 
BRANCH  23  24
ATOM     24  C   UNL     1       5.733  71.624  39.047  1.00  0.00    -0.000 C 
BRANCH  24  25
ATOM     25  C   UNL     1       4.554  71.093  38.211  1.00  0.00    -0.003 C 
ATOM     26  C   UNL     1       3.922  72.165  37.325  1.00  0.00     0.004 C 
ENDBRANCH  24  25
ENDBRANCH  23  24
ENDBRANCH  22  23
ENDBRANCH  21  22
ENDBRANCH  20  21
ENDBRANCH  19  20
ENDBRANCH  18  19
ENDBRANCH  17  18
ENDBRANCH  16  17
ENDBRANCH  15  16
ENDBRANCH   1  15
TORSDOF 22
ENDMDL
MODEL 7
REMARK VINA RESULT:    -4.531      2.899      7.940
REMARK INTER + INTRA:         -13.573
REMARK INTER:                 -10.368
REMARK INTRA:                  -3.205
REMARK UNBOUND:                -3.214
REMARK SMILES CCCCCCCCCCCCCCCCCCCCCCCC(=O)[O-]
REMARK SMILES IDX 13 1 14 2 15 3 16 4 17 5 18 6 19 7 20 8 21 9 22 10 23 11
REMARK SMILES IDX 24 12 25 13 26 14 12 15 11 16 10 17 9 18 8 19 7 20 6 21 5 22
REMARK SMILES IDX 4 23 3 24 2 25 1 26
REMARK H PARENT
REMARK Flexibility Score: inf
ROOT
ATOM      1  C   UNL     1       4.984  78.440  39.798  1.00  0.00     0.000 C 
ENDROOT
BRANCH   1   2
ATOM      2  C   UNL     1       5.747  77.118  39.561  1.00  0.00     0.000 C 
BRANCH   2   3
ATOM      3  C   UNL     1       4.903  76.081  38.807  1.00  0.00     0.000 C 
BRANCH   3   4
ATOM      4  C   UNL     1       5.350  75.970  37.344  1.00  0.00     0.000 C 
BRANCH   4   5
ATOM      5  C   UNL     1       6.606  75.095  37.214  1.00  0.00     0.000 C 
BRANCH   5   6
ATOM      6  C   UNL     1       6.429  73.959  36.192  1.00  0.00     0.000 C 
BRANCH   6   7
ATOM      7  C   UNL     1       5.128  73.165  36.409  1.00  0.00     0.000 C 
BRANCH   7   8
ATOM      8  C   UNL     1       5.346  71.643  36.272  1.00  0.00     0.000 C 
BRANCH   8   9
ATOM      9  C   UNL     1       6.702  71.160  36.817  1.00  0.00     0.000 C 
BRANCH   9  10
ATOM     10  C   UNL     1       6.642  70.753  38.298  1.00  0.00     0.006 C 
BRANCH  10  11
ATOM     11  C   UNL     1       7.220  71.834  39.221  1.00  0.00     0.053 C 
BRANCH  11  12
ATOM     12  C   UNL     1       6.145  72.560  39.971  1.00  0.00     0.041 C 
ATOM     13  O   UNL     1       6.440  73.500  40.756  1.00  0.00    -0.550 OA
ATOM     14  O   UNL     1       4.816  72.179  39.825  1.00  0.00    -0.550 OA
ENDBRANCH  11  12
ENDBRANCH  10  11
ENDBRANCH   9  10
ENDBRANCH   8   9
ENDBRANCH   7   8
ENDBRANCH   6   7
ENDBRANCH   5   6
ENDBRANCH   4   5
ENDBRANCH   3   4
ENDBRANCH   2   3
ENDBRANCH   1   2
BRANCH   1  15
ATOM     15  C   UNL     1       5.633  79.657  39.116  1.00  0.00     0.000 C 
BRANCH  15  16
ATOM     16  C   UNL     1       5.634  79.606  37.575  1.00  0.00     0.000 C 
BRANCH  16  17
ATOM     17  C   UNL     1       6.998  79.894  36.915  1.00  0.00     0.000 C 
BRANCH  17  18
ATOM     18  C   UNL     1       7.770  78.653  36.425  1.00  0.00    -0.000 C 
BRANCH  18  19
ATOM     19  C   UNL     1       9.143  78.430  37.086  1.00  0.00    -0.000 C 
BRANCH  19  20
ATOM     20  C   UNL     1       9.050  78.235  38.609  1.00  0.00    -0.000 C 
BRANCH  20  21
ATOM     21  C   UNL     1       9.541  79.464  39.391  1.00  0.00    -0.000 C 
BRANCH  21  22
ATOM     22  C   UNL     1      10.606  80.270  38.628  1.00  0.00    -0.000 C 
BRANCH  22  23
ATOM     23  C   UNL     1      11.454  81.161  39.554  1.00  0.00    -0.000 C 
BRANCH  23  24
ATOM     24  C   UNL     1      10.997  81.202  41.027  1.00  0.00    -0.000 C 
BRANCH  24  25
ATOM     25  C   UNL     1      11.996  80.601  42.033  1.00  0.00    -0.003 C 
ATOM     26  C   UNL     1      12.700  81.661  42.878  1.00  0.00     0.004 C 
ENDBRANCH  24  25
ENDBRANCH  23  24
ENDBRANCH  22  23
ENDBRANCH  21  22
ENDBRANCH  20  21
ENDBRANCH  19  20
ENDBRANCH  18  19
ENDBRANCH  17  18
ENDBRANCH  16  17
ENDBRANCH  15  16
ENDBRANCH   1  15
TORSDOF 22
ENDMDL
MODEL 8
REMARK VINA RESULT:    -4.520      2.356      5.581
REMARK INTER + INTRA:         -13.546
REMARK INTER:                 -11.026
REMARK INTRA:                  -2.520
REMARK UNBOUND:                -3.214
REMARK SMILES CCCCCCCCCCCCCCCCCCCCCCCC(=O)[O-]
REMARK SMILES IDX 13 1 14 2 15 3 16 4 17 5 18 6 19 7 20 8 21 9 22 10 23 11
REMARK SMILES IDX 24 12 25 13 26 14 12 15 11 16 10 17 9 18 8 19 7 20 6 21 5 22
REMARK SMILES IDX 4 23 3 24 2 25 1 26
REMARK H PARENT
REMARK Flexibility Score: inf
ROOT
ATOM      1  C   UNL     1       9.467  79.942  39.995  1.00  0.00     0.000 C 
ENDROOT
BRANCH   1   2
ATOM      2  C   UNL     1      10.521  79.758  41.109  1.00  0.00     0.000 C 
BRANCH   2   3
ATOM      3  C   UNL     1      11.642  80.803  41.035  1.00  0.00     0.000 C 
BRANCH   3   4
ATOM      4  C   UNL     1      12.416  80.871  42.358  1.00  0.00     0.000 C 
BRANCH   4   5
ATOM      5  C   UNL     1      11.535  81.432  43.485  1.00  0.00     0.000 C 
BRANCH   5   6
ATOM      6  C   UNL     1      10.973  82.825  43.154  1.00  0.00     0.000 C 
BRANCH   6   7
ATOM      7  C   UNL     1       9.567  83.052  43.740  1.00  0.00     0.000 C 
BRANCH   7   8
ATOM      8  C   UNL     1       8.470  82.355  42.907  1.00  0.00     0.000 C 
BRANCH   8   9
ATOM      9  C   UNL     1       7.675  81.296  43.691  1.00  0.00     0.000 C 
BRANCH   9  10
ATOM     10  C   UNL     1       8.298  80.969  45.058  1.00  0.00     0.006 C 
BRANCH  10  11
ATOM     11  C   UNL     1       7.254  80.939  46.182  1.00  0.00     0.053 C 
BRANCH  11  12
ATOM     12  C   UNL     1       7.113  79.570  46.775  1.00  0.00     0.041 C 
ATOM     13  O   UNL     1       8.113  78.809  46.862  1.00  0.00    -0.550 OA
ATOM     14  O   UNL     1       5.870  79.124  47.208  1.00  0.00    -0.550 OA
ENDBRANCH  11  12
ENDBRANCH  10  11
ENDBRANCH   9  10
ENDBRANCH   8   9
ENDBRANCH   7   8
ENDBRANCH   6   7
ENDBRANCH   5   6
ENDBRANCH   4   5
ENDBRANCH   3   4
ENDBRANCH   2   3
ENDBRANCH   1   2
BRANCH   1  15
ATOM     15  C   UNL     1      10.045  79.814  38.573  1.00  0.00     0.000 C 
BRANCH  15  16
ATOM     16  C   UNL     1       9.705  78.489  37.860  1.00  0.00     0.000 C 
BRANCH  16  17
ATOM     17  C   UNL     1       8.876  78.641  36.568  1.00  0.00     0.000 C 
BRANCH  17  18
ATOM     18  C   UNL     1       7.346  78.608  36.758  1.00  0.00    -0.000 C 
BRANCH  18  19
ATOM     19  C   UNL     1       6.695  79.964  37.088  1.00  0.00    -0.000 C 
BRANCH  19  20
ATOM     20  C   UNL     1       5.625  79.862  38.188  1.00  0.00    -0.000 C 
BRANCH  20  21
ATOM     21  C   UNL     1       6.137  79.137  39.444  1.00  0.00    -0.000 C 
BRANCH  21  22
ATOM     22  C   UNL     1       5.186  78.026  39.919  1.00  0.00    -0.000 C 
BRANCH  22  23
ATOM     23  C   UNL     1       5.350  76.721  39.120  1.00  0.00    -0.000 C 
BRANCH  23  24
ATOM     24  C   UNL     1       4.058  75.898  38.930  1.00  0.00    -0.000 C 
BRANCH  24  25
ATOM     25  C   UNL     1       4.229  74.376  39.091  1.00  0.00    -0.003 C 
ATOM     26  C   UNL     1       5.354  74.002  40.055  1.00  0.00     0.004 C 
ENDBRANCH  24  25
ENDBRANCH  23  24
ENDBRANCH  22  23
ENDBRANCH  21  22
ENDBRANCH  20  21
ENDBRANCH  19  20
ENDBRANCH  18  19
ENDBRANCH  17  18
ENDBRANCH  16  17
ENDBRANCH  15  16
ENDBRANCH   1  15
TORSDOF 22
ENDMDL
MODEL 9
REMARK VINA RESULT:    -4.456      1.293      2.497
REMARK INTER + INTRA:         -13.401
REMARK INTER:                  -9.306
REMARK INTRA:                  -4.096
REMARK UNBOUND:                -3.214
REMARK SMILES CCCCCCCCCCCCCCCCCCCCCCCC(=O)[O-]
REMARK SMILES IDX 13 1 14 2 15 3 16 4 17 5 18 6 19 7 20 8 21 9 22 10 23 11
REMARK SMILES IDX 24 12 25 13 26 14 12 15 11 16 10 17 9 18 8 19 7 20 6 21 5 22
REMARK SMILES IDX 4 23 3 24 2 25 1 26
REMARK H PARENT
REMARK Flexibility Score: inf
ROOT
ATOM      1  C   UNL     1       6.224  78.181  40.164  1.00  0.00     0.000 C 
ENDROOT
BRANCH   1   2
ATOM      2  C   UNL     1       5.563  79.515  39.754  1.00  0.00     0.000 C 
BRANCH   2   3
ATOM      3  C   UNL     1       5.317  79.608  38.241  1.00  0.00     0.000 C 
BRANCH   3   4
ATOM      4  C   UNL     1       6.542  80.185  37.521  1.00  0.00     0.000 C 
BRANCH   4   5
ATOM      5  C   UNL     1       7.086  79.197  36.477  1.00  0.00     0.000 C 
BRANCH   5   6
ATOM      6  C   UNL     1       8.563  78.842  36.716  1.00  0.00     0.000 C 
BRANCH   6   7
ATOM      7  C   UNL     1       9.177  79.621  37.895  1.00  0.00     0.000 C 
BRANCH   7   8
ATOM      8  C   UNL     1       9.731  78.682  38.987  1.00  0.00     0.000 C 
BRANCH   8   9
ATOM      9  C   UNL     1       9.802  79.327  40.382  1.00  0.00     0.000 C 
BRANCH   9  10
ATOM     10  C   UNL     1       9.015  80.644  40.473  1.00  0.00     0.006 C 
BRANCH  10  11
ATOM     11  C   UNL     1       9.576  81.583  41.549  1.00  0.00     0.053 C 
BRANCH  11  12
ATOM     12  C   UNL     1       8.991  81.297  42.899  1.00  0.00     0.041 C 
ATOM     13  O   UNL     1       9.744  81.096  43.889  1.00  0.00    -0.550 OA
ATOM     14  O   UNL     1       7.612  81.223  43.059  1.00  0.00    -0.550 OA
ENDBRANCH  11  12
ENDBRANCH  10  11
ENDBRANCH   9  10
ENDBRANCH   8   9
ENDBRANCH   7   8
ENDBRANCH   6   7
ENDBRANCH   5   6
ENDBRANCH   4   5
ENDBRANCH   3   4
ENDBRANCH   2   3
ENDBRANCH   1   2
BRANCH   1  15
ATOM     15  C   UNL     1       5.797  76.988  39.290  1.00  0.00     0.000 C 
BRANCH  15  16
ATOM     16  C   UNL     1       6.965  76.150  38.731  1.00  0.00     0.000 C 
BRANCH  16  17
ATOM     17  C   UNL     1       6.666  75.425  37.402  1.00  0.00     0.000 C 
BRANCH  17  18
ATOM     18  C   UNL     1       5.184  75.078  37.157  1.00  0.00    -0.000 C 
BRANCH  18  19
ATOM     19  C   UNL     1       4.768  73.652  37.560  1.00  0.00    -0.000 C 
BRANCH  19  20
ATOM     20  C   UNL     1       4.445  73.522  39.058  1.00  0.00    -0.000 C 
BRANCH  20  21
ATOM     21  C   UNL     1       5.465  72.650  39.808  1.00  0.00    -0.000 C 
BRANCH  21  22
ATOM     22  C   UNL     1       5.467  71.189  39.327  1.00  0.00    -0.000 C 
BRANCH  22  23
ATOM     23  C   UNL     1       6.784  70.794  38.634  1.00  0.00    -0.000 C 
BRANCH  23  24
ATOM     24  C   UNL     1       8.006  71.664  38.996  1.00  0.00    -0.000 C 
BRANCH  24  25
ATOM     25  C   UNL     1       8.845  72.135  37.794  1.00  0.00    -0.003 C 
ATOM     26  C   UNL     1       8.055  72.152  36.486  1.00  0.00     0.004 C 
ENDBRANCH  24  25
ENDBRANCH  23  24
ENDBRANCH  22  23
ENDBRANCH  21  22
ENDBRANCH  20  21
ENDBRANCH  19  20
ENDBRANCH  18  19
ENDBRANCH  17  18
ENDBRANCH  16  17
ENDBRANCH  15  16
ENDBRANCH   1  15
TORSDOF 22
ENDMDL
