MODEL 1
REMARK VINA RESULT:     4.907      0.000      0.000
REMARK INTER + INTRA:           7.124
REMARK INTER:                   6.915
REMARK INTRA:                   0.208
REMARK UNBOUND:                 0.208
REMARK SMILES COc1c(O[C@H]2O[C@@H](C(=O)[O-])[C@@H](O)[C@H](O)[C@@H]2O)cc(O)c2c(=O)cc(-c3ccccc3)oc12
REMARK SMILES IDX 5 1 6 2 8 3 12 4 7 5 14 6 16 7 9 8 10 9 11 10 13 11 15 13
REMARK SMILES IDX 17 15 4 17 3 18 18 19 33 20 19 21 21 22 32 23 22 24 25 25
REMARK SMILES IDX 24 26 23 27 2 28 1 29 20 30 26 32 27 33 31 34 28 35 30 36
REMARK SMILES IDX 29 37
REMARK H PARENT 13 12 15 14 17 16 20 31
REMARK Flexibility Score: inf
ROOT
ATOM      1  O   UNL     1      -3.934 -13.280  47.872  1.00  0.00    -0.458 OA
ENDROOT
BRANCH   1   2
ATOM      2  C   UNL     1      -3.934 -13.670  46.496  1.00  0.00     0.339 C 
ATOM      3  C   UNL     1      -3.223 -11.566  45.628  1.00  0.00     0.199 C 
ATOM      4  C   UNL     1      -1.822 -12.117  45.259  1.00  0.00     0.180 C 
ATOM      5  O   UNL     1      -4.230 -12.572  45.640  1.00  0.00    -0.328 OA
ATOM      6  C   UNL     1      -1.448 -13.336  46.121  1.00  0.00     0.181 C 
ATOM      7  C   UNL     1      -2.599 -14.353  46.138  1.00  0.00     0.214 C 
BRANCH   3   8
ATOM      8  C   UNL     1      -3.272 -10.707  46.872  1.00  0.00     0.073 C 
ATOM      9  O   UNL     1      -2.234 -10.101  47.247  1.00  0.00    -0.547 OA
ATOM     10  O   UNL     1      -4.449 -10.544  47.593  1.00  0.00    -0.547 OA
ENDBRANCH   3   8
BRANCH   4  11
ATOM     11  O   UNL     1      -0.857 -11.104  45.394  1.00  0.00    -0.387 OA
ATOM     12  H   UNL     1       0.025 -11.510  45.186  1.00  0.00     0.211 HD
ENDBRANCH   4  11
BRANCH   6  13
ATOM     13  O   UNL     1      -0.291 -13.952  45.618  1.00  0.00    -0.387 OA
ATOM     14  H   UNL     1       0.470 -13.346  45.816  1.00  0.00     0.211 HD
ENDBRANCH   6  13
BRANCH   7  15
ATOM     15  O   UNL     1      -2.689 -15.049  44.918  1.00  0.00    -0.384 OA
ATOM     16  H   UNL     1      -2.106 -15.850  44.970  1.00  0.00     0.211 HD
ENDBRANCH   7  15
ENDBRANCH   1   2
BRANCH   1  17
ATOM     17  C   UNL     1      -5.059 -13.264  48.715  1.00  0.00     0.172 A 
ATOM     18  C   UNL     1      -4.881 -13.642  50.053  1.00  0.00     0.205 A 
ATOM     19  C   UNL     1      -6.327 -12.875  48.257  1.00  0.00     0.097 A 
ATOM     20  C   UNL     1      -5.987 -13.620  50.940  1.00  0.00     0.188 A 
ATOM     21  C   UNL     1      -7.425 -12.849  49.120  1.00  0.00     0.134 A 
ATOM     22  C   UNL     1      -7.264 -13.218  50.472  1.00  0.00     0.111 A 
ATOM     23  O   UNL     1      -5.832 -13.966  52.217  1.00  0.00    -0.452 OA
ATOM     24  C   UNL     1      -8.332 -13.204  51.396  1.00  0.00     0.197 A 
ATOM     25  C   UNL     1      -6.815 -13.949  53.113  1.00  0.00     0.138 A 
ATOM     26  C   UNL     1      -8.103 -13.569  52.719  1.00  0.00     0.100 A 
ATOM     27  O   UNL     1      -9.497 -12.867  51.049  1.00  0.00    -0.289 OA
BRANCH  18  28
ATOM     28  O   UNL     1      -3.579 -14.018  50.434  1.00  0.00    -0.490 OA
ATOM     29  C   UNL     1      -2.782 -15.035  49.838  1.00  0.00     0.278 C 
ENDBRANCH  18  28
BRANCH  21  30
ATOM     30  O   UNL     1      -8.670 -12.455  48.625  1.00  0.00    -0.507 OA
ATOM     31  H   UNL     1      -9.208 -11.715  49.061  1.00  0.00     0.293 HD
ENDBRANCH  21  30
BRANCH  25  32
ATOM     32  C   UNL     1      -6.520 -14.342  54.512  1.00  0.00     0.017 A 
ATOM     33  C   UNL     1      -5.202 -14.355  55.008  1.00  0.00     0.012 A 
ATOM     34  C   UNL     1      -7.568 -14.740  55.361  1.00  0.00     0.012 A 
ATOM     35  C   UNL     1      -4.945 -14.743  56.327  1.00  0.00     0.001 A 
ATOM     36  C   UNL     1      -7.307 -15.125  56.679  1.00  0.00     0.001 A 
ATOM     37  C   UNL     1      -5.997 -15.125  57.162  1.00  0.00     0.000 A 
ENDBRANCH  25  32
ENDBRANCH   1  17
TORSDOF 9
ENDMDL
