MODEL 1
REMARK VINA RESULT:    -3.954      0.000      0.000
REMARK INTER + INTRA:          -7.693
REMARK INTER:                  -6.729
REMARK INTRA:                  -0.964
REMARK UNBOUND:                -0.964
REMARK SMILES CCCCCCCCCCCCCC(=O)[O-]
REMARK SMILES IDX 8 1 9 2 10 3 11 4 12 5 13 6 14 7 15 8 16 9 7 10 6 11 5 12
REMARK SMILES IDX 4 13 3 14 2 15 1 16
REMARK H PARENT
REMARK Flexibility Score: inf
ROOT
ATOM      1  C   UNL     1      -1.634  11.748  -4.304  1.00  0.00     0.000 C 
ENDROOT
BRANCH   1   2
ATOM      2  C   UNL     1      -0.321  12.537  -4.171  1.00  0.00     0.000 C 
BRANCH   2   3
ATOM      3  C   UNL     1       0.802  11.706  -3.525  1.00  0.00     0.000 C 
BRANCH   3   4
ATOM      4  C   UNL     1       0.334  10.956  -2.266  1.00  0.00     0.000 C 
BRANCH   4   5
ATOM      5  C   UNL     1       1.440  10.077  -1.658  1.00  0.00     0.006 C 
BRANCH   5   6
ATOM      6  C   UNL     1       1.017   9.458  -0.319  1.00  0.00     0.053 C 
BRANCH   6   7
ATOM      7  C   UNL     1       1.703   8.150  -0.066  1.00  0.00     0.041 C 
ATOM      8  O   UNL     1       2.599   7.743  -0.852  1.00  0.00    -0.550 OA
ATOM      9  O   UNL     1       1.374   7.396   1.052  1.00  0.00    -0.550 OA
ENDBRANCH   6   7
ENDBRANCH   5   6
ENDBRANCH   4   5
ENDBRANCH   3   4
ENDBRANCH   2   3
ENDBRANCH   1   2
BRANCH   1  10
ATOM     10  C   UNL     1      -2.675  12.479  -5.171  1.00  0.00     0.000 C 
BRANCH  10  11
ATOM     11  C   UNL     1      -3.032  13.868  -4.619  1.00  0.00    -0.000 C 
BRANCH  11  12
ATOM     12  C   UNL     1      -2.633  15.003  -5.575  1.00  0.00    -0.000 C 
BRANCH  12  13
ATOM     13  C   UNL     1      -1.848  16.094  -4.830  1.00  0.00    -0.000 C 
BRANCH  13  14
ATOM     14  C   UNL     1      -1.748  15.827  -3.320  1.00  0.00    -0.000 C 
BRANCH  14  15
ATOM     15  C   UNL     1      -0.333  16.058  -2.772  1.00  0.00    -0.003 C 
ATOM     16  C   UNL     1      -0.290  15.849  -1.261  1.00  0.00     0.004 C 
ENDBRANCH  14  15
ENDBRANCH  13  14
ENDBRANCH  12  13
ENDBRANCH  11  12
ENDBRANCH  10  11
ENDBRANCH   1  10
TORSDOF 12
ENDMDL
MODEL 2
REMARK VINA RESULT:    -3.744      3.212      6.908
REMARK INTER + INTRA:          -7.335
REMARK INTER:                  -6.564
REMARK INTRA:                  -0.771
REMARK UNBOUND:                -0.964
REMARK SMILES CCCCCCCCCCCCCC(=O)[O-]
REMARK SMILES IDX 8 1 9 2 10 3 11 4 12 5 13 6 14 7 15 8 16 9 7 10 6 11 5 12
REMARK SMILES IDX 4 13 3 14 2 15 1 16
REMARK H PARENT
REMARK Flexibility Score: inf
ROOT
ATOM      1  C   UNL     1      -1.671  11.693  -4.257  1.00  0.00     0.000 C 
ENDROOT
BRANCH   1   2
ATOM      2  C   UNL     1      -2.607  12.434  -5.226  1.00  0.00     0.000 C 
BRANCH   2   3
ATOM      3  C   UNL     1      -3.138  13.753  -4.637  1.00  0.00     0.000 C 
BRANCH   3   4
ATOM      4  C   UNL     1      -2.848  14.963  -5.539  1.00  0.00     0.000 C 
BRANCH   4   5
ATOM      5  C   UNL     1      -1.834  15.936  -4.914  1.00  0.00     0.006 C 
BRANCH   5   6
ATOM      6  C   UNL     1      -1.803  15.835  -3.383  1.00  0.00     0.053 C 
BRANCH   6   7
ATOM      7  C   UNL     1      -0.428  16.067  -2.835  1.00  0.00     0.041 C 
ATOM      8  O   UNL     1       0.478  16.534  -3.575  1.00  0.00    -0.550 OA
ATOM      9  O   UNL     1      -0.154  15.795  -1.501  1.00  0.00    -0.550 OA
ENDBRANCH   6   7
ENDBRANCH   5   6
ENDBRANCH   4   5
ENDBRANCH   3   4
ENDBRANCH   2   3
ENDBRANCH   1   2
BRANCH   1  10
ATOM     10  C   UNL     1      -0.356  12.453  -4.011  1.00  0.00     0.000 C 
BRANCH  10  11
ATOM     11  C   UNL     1       0.762  11.542  -3.479  1.00  0.00    -0.000 C 
BRANCH  11  12
ATOM     12  C   UNL     1       0.468  11.009  -2.069  1.00  0.00    -0.000 C 
BRANCH  12  13
ATOM     13  C   UNL     1       1.528   9.984  -1.639  1.00  0.00    -0.000 C 
BRANCH  13  14
ATOM     14  C   UNL     1       1.146   9.241  -0.349  1.00  0.00    -0.000 C 
BRANCH  14  15
ATOM     15  C   UNL     1       2.327   8.475   0.263  1.00  0.00    -0.003 C 
ATOM     16  C   UNL     1       1.842   7.294   1.099  1.00  0.00     0.004 C 
ENDBRANCH  14  15
ENDBRANCH  13  14
ENDBRANCH  12  13
ENDBRANCH  11  12
ENDBRANCH  10  11
ENDBRANCH   1  10
TORSDOF 12
ENDMDL
MODEL 3
REMARK VINA RESULT:    -3.613      3.395      7.405
REMARK INTER + INTRA:          -7.112
REMARK INTER:                  -6.537
REMARK INTRA:                  -0.575
REMARK UNBOUND:                -0.964
REMARK SMILES CCCCCCCCCCCCCC(=O)[O-]
REMARK SMILES IDX 8 1 9 2 10 3 11 4 12 5 13 6 14 7 15 8 16 9 7 10 6 11 5 12
REMARK SMILES IDX 4 13 3 14 2 15 1 16
REMARK H PARENT
REMARK Flexibility Score: inf
ROOT
ATOM      1  C   UNL     1       0.561  11.492  -3.441  1.00  0.00     0.000 C 
ENDROOT
BRANCH   1   2
ATOM      2  C   UNL     1       0.613  12.834  -4.188  1.00  0.00     0.000 C 
BRANCH   2   3
ATOM      3  C   UNL     1      -0.762  13.521  -4.261  1.00  0.00     0.000 C 
BRANCH   3   4
ATOM      4  C   UNL     1      -0.725  14.838  -5.054  1.00  0.00     0.000 C 
BRANCH   4   5
ATOM      5  C   UNL     1      -1.001  16.067  -4.171  1.00  0.00     0.006 C 
BRANCH   5   6
ATOM      6  C   UNL     1      -0.018  16.169  -2.998  1.00  0.00     0.053 C 
BRANCH   6   7
ATOM      7  C   UNL     1      -0.704  15.993  -1.678  1.00  0.00     0.041 C 
ATOM      8  O   UNL     1      -0.031  15.940  -0.616  1.00  0.00    -0.550 OA
ATOM      9  O   UNL     1      -2.090  15.918  -1.618  1.00  0.00    -0.550 OA
ENDBRANCH   6   7
ENDBRANCH   5   6
ENDBRANCH   4   5
ENDBRANCH   3   4
ENDBRANCH   2   3
ENDBRANCH   1   2
BRANCH   1  10
ATOM     10  C   UNL     1       1.959  10.896  -3.201  1.00  0.00     0.000 C 
BRANCH  10  11
ATOM     11  C   UNL     1       1.983   9.900  -2.031  1.00  0.00    -0.000 C 
BRANCH  11  12
ATOM     12  C   UNL     1       0.758  10.035  -1.115  1.00  0.00    -0.000 C 
BRANCH  12  13
ATOM     13  C   UNL     1       0.956   9.241   0.185  1.00  0.00    -0.000 C 
BRANCH  13  14
ATOM     14  C   UNL     1       1.937   8.069   0.021  1.00  0.00    -0.000 C 
BRANCH  14  15
ATOM     15  C   UNL     1       1.876   7.079   1.192  1.00  0.00    -0.003 C 
ATOM     16  C   UNL     1       3.276   6.651   1.622  1.00  0.00     0.004 C 
ENDBRANCH  14  15
ENDBRANCH  13  14
ENDBRANCH  12  13
ENDBRANCH  11  12
ENDBRANCH  10  11
ENDBRANCH   1  10
TORSDOF 12
ENDMDL
MODEL 4
REMARK VINA RESULT:    -3.609      3.608      6.240
REMARK INTER + INTRA:          -7.105
REMARK INTER:                  -6.031
REMARK INTRA:                  -1.073
REMARK UNBOUND:                -0.964
REMARK SMILES CCCCCCCCCCCCCC(=O)[O-]
REMARK SMILES IDX 8 1 9 2 10 3 11 4 12 5 13 6 14 7 15 8 16 9 7 10 6 11 5 12
REMARK SMILES IDX 4 13 3 14 2 15 1 16
REMARK H PARENT
REMARK Flexibility Score: inf
ROOT
ATOM      1  C   UNL     1      -3.008  17.486  -5.923  1.00  0.00     0.000 C 
ENDROOT
BRANCH   1   2
ATOM      2  C   UNL     1      -1.976  18.621  -6.011  1.00  0.00     0.000 C 
BRANCH   2   3
ATOM      3  C   UNL     1      -0.529  18.112  -5.883  1.00  0.00     0.000 C 
BRANCH   3   4
ATOM      4  C   UNL     1      -0.014  18.150  -4.435  1.00  0.00     0.000 C 
BRANCH   4   5
ATOM      5  C   UNL     1       0.915  16.968  -4.108  1.00  0.00     0.006 C 
BRANCH   5   6
ATOM      6  C   UNL     1       0.131  15.710  -3.708  1.00  0.00     0.053 C 
BRANCH   6   7
ATOM      7  C   UNL     1      -0.620  15.905  -2.426  1.00  0.00     0.041 C 
ATOM      8  O   UNL     1      -0.007  15.908  -1.327  1.00  0.00    -0.550 OA
ATOM      9  O   UNL     1      -1.993  16.113  -2.448  1.00  0.00    -0.550 OA
ENDBRANCH   6   7
ENDBRANCH   5   6
ENDBRANCH   4   5
ENDBRANCH   3   4
ENDBRANCH   2   3
ENDBRANCH   1   2
BRANCH   1  10
ATOM     10  C   UNL     1      -2.376  16.097  -6.125  1.00  0.00     0.000 C 
BRANCH  10  11
ATOM     11  C   UNL     1      -3.398  14.958  -5.983  1.00  0.00    -0.000 C 
BRANCH  11  12
ATOM     12  C   UNL     1      -3.047  13.988  -4.844  1.00  0.00    -0.000 C 
BRANCH  12  13
ATOM     13  C   UNL     1      -2.821  12.568  -5.385  1.00  0.00    -0.000 C 
BRANCH  13  14
ATOM     14  C   UNL     1      -1.847  11.752  -4.521  1.00  0.00    -0.000 C 
BRANCH  14  15
ATOM     15  C   UNL     1      -0.525  12.489  -4.264  1.00  0.00    -0.003 C 
ATOM     16  C   UNL     1       0.384  11.681  -3.344  1.00  0.00     0.004 C 
ENDBRANCH  14  15
ENDBRANCH  13  14
ENDBRANCH  12  13
ENDBRANCH  11  12
ENDBRANCH  10  11
ENDBRANCH   1  10
TORSDOF 12
ENDMDL
MODEL 5
REMARK VINA RESULT:    -3.550      3.210      6.089
REMARK INTER + INTRA:          -7.005
REMARK INTER:                  -5.920
REMARK INTRA:                  -1.085
REMARK UNBOUND:                -0.964
REMARK SMILES CCCCCCCCCCCCCC(=O)[O-]
REMARK SMILES IDX 8 1 9 2 10 3 11 4 12 5 13 6 14 7 15 8 16 9 7 10 6 11 5 12
REMARK SMILES IDX 4 13 3 14 2 15 1 16
REMARK H PARENT
REMARK Flexibility Score: inf
ROOT
ATOM      1  C   UNL     1      -2.804  12.934  -5.843  1.00  0.00     0.000 C 
ENDROOT
BRANCH   1   2
ATOM      2  C   UNL     1      -3.439  14.307  -5.570  1.00  0.00     0.000 C 
BRANCH   2   3
ATOM      3  C   UNL     1      -2.532  15.471  -6.005  1.00  0.00     0.000 C 
BRANCH   3   4
ATOM      4  C   UNL     1      -1.229  15.542  -5.192  1.00  0.00     0.000 C 
BRANCH   4   5
ATOM      5  C   UNL     1      -1.454  16.045  -3.756  1.00  0.00     0.006 C 
BRANCH   5   6
ATOM      6  C   UNL     1      -0.206  15.871  -2.880  1.00  0.00     0.053 C 
BRANCH   6   7
ATOM      7  C   UNL     1      -0.544  15.891  -1.420  1.00  0.00     0.041 C 
ATOM      8  O   UNL     1      -1.739  16.019  -1.047  1.00  0.00    -0.550 OA
ATOM      9  O   UNL     1       0.459  15.740  -0.471  1.00  0.00    -0.550 OA
ENDBRANCH   6   7
ENDBRANCH   5   6
ENDBRANCH   4   5
ENDBRANCH   3   4
ENDBRANCH   2   3
ENDBRANCH   1   2
BRANCH   1  10
ATOM     10  C   UNL     1      -2.834  12.014  -4.609  1.00  0.00     0.000 C 
BRANCH  10  11
ATOM     11  C   UNL     1      -1.491  11.308  -4.367  1.00  0.00    -0.000 C 
BRANCH  11  12
ATOM     12  C   UNL     1      -0.440  12.235  -3.737  1.00  0.00    -0.000 C 
BRANCH  12  13
ATOM     13  C   UNL     1       0.827  11.452  -3.363  1.00  0.00    -0.000 C 
BRANCH  13  14
ATOM     14  C   UNL     1       0.665  10.649  -2.062  1.00  0.00    -0.000 C 
BRANCH  14  15
ATOM     15  C   UNL     1       1.951   9.913  -1.658  1.00  0.00    -0.003 C 
ATOM     16  C   UNL     1       2.845   9.665  -2.870  1.00  0.00     0.004 C 
ENDBRANCH  14  15
ENDBRANCH  13  14
ENDBRANCH  12  13
ENDBRANCH  11  12
ENDBRANCH  10  11
ENDBRANCH   1  10
TORSDOF 12
ENDMDL
MODEL 6
REMARK VINA RESULT:    -3.538      1.295      2.772
REMARK INTER + INTRA:          -6.984
REMARK INTER:                  -6.098
REMARK INTRA:                  -0.887
REMARK UNBOUND:                -0.964
REMARK SMILES CCCCCCCCCCCCCC(=O)[O-]
REMARK SMILES IDX 8 1 9 2 10 3 11 4 12 5 13 6 14 7 15 8 16 9 7 10 6 11 5 12
REMARK SMILES IDX 4 13 3 14 2 15 1 16
REMARK H PARENT
REMARK Flexibility Score: inf
ROOT
ATOM      1  C   UNL     1       0.021  13.252  -3.509  1.00  0.00     0.000 C 
ENDROOT
BRANCH   1   2
ATOM      2  C   UNL     1       0.254  11.780  -3.884  1.00  0.00     0.000 C 
BRANCH   2   3
ATOM      3  C   UNL     1       1.389  11.138  -3.067  1.00  0.00     0.000 C 
BRANCH   3   4
ATOM      4  C   UNL     1       0.908  10.587  -1.715  1.00  0.00     0.000 C 
BRANCH   4   5
ATOM      5  C   UNL     1       1.794   9.443  -1.194  1.00  0.00     0.006 C 
BRANCH   5   6
ATOM      6  C   UNL     1       1.127   8.670  -0.047  1.00  0.00     0.053 C 
BRANCH   6   7
ATOM      7  C   UNL     1       2.130   7.928   0.782  1.00  0.00     0.041 C 
ATOM      8  O   UNL     1       1.820   6.834   1.323  1.00  0.00    -0.550 OA
ATOM      9  O   UNL     1       3.417   8.429   0.933  1.00  0.00    -0.550 OA
ENDBRANCH   6   7
ENDBRANCH   5   6
ENDBRANCH   4   5
ENDBRANCH   3   4
ENDBRANCH   2   3
ENDBRANCH   1   2
BRANCH   1  10
ATOM     10  C   UNL     1       0.368  14.215  -4.659  1.00  0.00     0.000 C 
BRANCH  10  11
ATOM     11  C   UNL     1      -0.263  15.605  -4.476  1.00  0.00    -0.000 C 
BRANCH  11  12
ATOM     12  C   UNL     1      -1.743  15.532  -4.067  1.00  0.00    -0.000 C 
BRANCH  12  13
ATOM     13  C   UNL     1      -2.630  15.206  -5.278  1.00  0.00    -0.000 C 
BRANCH  13  14
ATOM     14  C   UNL     1      -3.577  14.025  -5.018  1.00  0.00    -0.000 C 
BRANCH  14  15
ATOM     15  C   UNL     1      -3.050  12.705  -5.600  1.00  0.00    -0.003 C 
ATOM     16  C   UNL     1      -3.066  11.597  -4.551  1.00  0.00     0.004 C 
ENDBRANCH  14  15
ENDBRANCH  13  14
ENDBRANCH  12  13
ENDBRANCH  11  12
ENDBRANCH  10  11
ENDBRANCH   1  10
TORSDOF 12
ENDMDL
MODEL 7
REMARK VINA RESULT:    -3.488      3.695      7.745
REMARK INTER + INTRA:          -6.899
REMARK INTER:                  -6.111
REMARK INTRA:                  -0.788
REMARK UNBOUND:                -0.964
REMARK SMILES CCCCCCCCCCCCCC(=O)[O-]
REMARK SMILES IDX 8 1 9 2 10 3 11 4 12 5 13 6 14 7 15 8 16 9 7 10 6 11 5 12
REMARK SMILES IDX 4 13 3 14 2 15 1 16
REMARK H PARENT
REMARK Flexibility Score: inf
ROOT
ATOM      1  C   UNL     1       0.319  11.649  -2.933  1.00  0.00     0.000 C 
ENDROOT
BRANCH   1   2
ATOM      2  C   UNL     1      -0.345  12.150  -4.226  1.00  0.00     0.000 C 
BRANCH   2   3
ATOM      3  C   UNL     1      -1.827  11.745  -4.321  1.00  0.00     0.000 C 
BRANCH   3   4
ATOM      4  C   UNL     1      -2.615  12.616  -5.313  1.00  0.00     0.000 C 
BRANCH   4   5
ATOM      5  C   UNL     1      -3.199  13.879  -4.657  1.00  0.00     0.006 C 
BRANCH   5   6
ATOM      6  C   UNL     1      -2.739  15.163  -5.360  1.00  0.00     0.053 C 
BRANCH   6   7
ATOM      7  C   UNL     1      -1.790  15.954  -4.512  1.00  0.00     0.041 C 
ATOM      8  O   UNL     1      -1.405  15.503  -3.402  1.00  0.00    -0.550 OA
ATOM      9  O   UNL     1      -1.307  17.176  -4.962  1.00  0.00    -0.550 OA
ENDBRANCH   6   7
ENDBRANCH   5   6
ENDBRANCH   4   5
ENDBRANCH   3   4
ENDBRANCH   2   3
ENDBRANCH   1   2
BRANCH   1  10
ATOM     10  C   UNL     1       1.647  10.918  -3.197  1.00  0.00     0.000 C 
BRANCH  10  11
ATOM     11  C   UNL     1       1.975   9.878  -2.114  1.00  0.00    -0.000 C 
BRANCH  11  12
ATOM     12  C   UNL     1       0.907   9.819  -1.010  1.00  0.00    -0.000 C 
BRANCH  12  13
ATOM     13  C   UNL     1       1.457   9.127   0.247  1.00  0.00    -0.000 C 
BRANCH  13  14
ATOM     14  C   UNL     1       2.977   8.906   0.185  1.00  0.00    -0.000 C 
BRANCH  14  15
ATOM     15  C   UNL     1       3.398   7.539   0.742  1.00  0.00    -0.003 C 
ATOM     16  C   UNL     1       2.212   6.815   1.374  1.00  0.00     0.004 C 
ENDBRANCH  14  15
ENDBRANCH  13  14
ENDBRANCH  12  13
ENDBRANCH  11  12
ENDBRANCH  10  11
ENDBRANCH   1  10
TORSDOF 12
ENDMDL
MODEL 8
REMARK VINA RESULT:    -3.436      1.552      2.698
REMARK INTER + INTRA:          -6.811
REMARK INTER:                  -6.191
REMARK INTRA:                  -0.620
REMARK UNBOUND:                -0.964
REMARK SMILES CCCCCCCCCCCCCC(=O)[O-]
REMARK SMILES IDX 8 1 9 2 10 3 11 4 12 5 13 6 14 7 15 8 16 9 7 10 6 11 5 12
REMARK SMILES IDX 4 13 3 14 2 15 1 16
REMARK H PARENT
REMARK Flexibility Score: inf
ROOT
ATOM      1  C   UNL     1       0.753  11.071  -2.599  1.00  0.00     0.000 C 
ENDROOT
BRANCH   1   2
ATOM      2  C   UNL     1       2.039  10.293  -2.918  1.00  0.00     0.000 C 
BRANCH   2   3
ATOM      3  C   UNL     1       2.543   9.472  -1.718  1.00  0.00     0.000 C 
BRANCH   3   4
ATOM      4  C   UNL     1       3.702   8.532  -2.088  1.00  0.00     0.000 C 
BRANCH   4   5
ATOM      5  C   UNL     1       4.002   7.502  -0.986  1.00  0.00     0.006 C 
BRANCH   5   6
ATOM      6  C   UNL     1       3.643   8.027   0.411  1.00  0.00     0.053 C 
BRANCH   6   7
ATOM      7  C   UNL     1       2.735   7.087   1.144  1.00  0.00     0.041 C 
ATOM      8  O   UNL     1       3.204   6.065   1.710  1.00  0.00    -0.550 OA
ATOM      9  O   UNL     1       1.375   7.355   1.226  1.00  0.00    -0.550 OA
ENDBRANCH   6   7
ENDBRANCH   5   6
ENDBRANCH   4   5
ENDBRANCH   3   4
ENDBRANCH   2   3
ENDBRANCH   1   2
BRANCH   1  10
ATOM     10  C   UNL     1       0.384  12.079  -3.702  1.00  0.00     0.000 C 
BRANCH  10  11
ATOM     11  C   UNL     1      -1.045  11.880  -4.230  1.00  0.00    -0.000 C 
BRANCH  11  12
ATOM     12  C   UNL     1      -1.719  13.203  -4.625  1.00  0.00    -0.000 C 
BRANCH  12  13
ATOM     13  C   UNL     1      -0.700  14.353  -4.637  1.00  0.00    -0.000 C 
BRANCH  13  14
ATOM     14  C   UNL     1      -1.247  15.637  -3.993  1.00  0.00    -0.000 C 
BRANCH  14  15
ATOM     15  C   UNL     1      -0.222  16.322  -3.078  1.00  0.00    -0.003 C 
ATOM     16  C   UNL     1      -0.417  15.904  -1.624  1.00  0.00     0.004 C 
ENDBRANCH  14  15
ENDBRANCH  13  14
ENDBRANCH  12  13
ENDBRANCH  11  12
ENDBRANCH  10  11
ENDBRANCH   1  10
TORSDOF 12
ENDMDL
MODEL 9
REMARK VINA RESULT:    -3.348      3.999      6.012
REMARK INTER + INTRA:          -6.661
REMARK INTER:                  -5.565
REMARK INTRA:                  -1.096
REMARK UNBOUND:                -0.964
REMARK SMILES CCCCCCCCCCCCCC(=O)[O-]
REMARK SMILES IDX 8 1 9 2 10 3 11 4 12 5 13 6 14 7 15 8 16 9 7 10 6 11 5 12
REMARK SMILES IDX 4 13 3 14 2 15 1 16
REMARK H PARENT
REMARK Flexibility Score: inf
ROOT
ATOM      1  C   UNL     1      -0.416  16.079  -3.141  1.00  0.00     0.000 C 
ENDROOT
BRANCH   1   2
ATOM      2  C   UNL     1      -1.853  15.761  -3.583  1.00  0.00     0.000 C 
BRANCH   2   3
ATOM      3  C   UNL     1      -2.259  16.524  -4.856  1.00  0.00     0.000 C 
BRANCH   3   4
ATOM      4  C   UNL     1      -2.935  15.618  -5.899  1.00  0.00     0.000 C 
BRANCH   4   5
ATOM      5  C   UNL     1      -3.366  14.263  -5.313  1.00  0.00     0.006 C 
BRANCH   5   6
ATOM      6  C   UNL     1      -2.532  13.100  -5.868  1.00  0.00     0.053 C 
BRANCH   6   7
ATOM      7  C   UNL     1      -2.287  12.045  -4.832  1.00  0.00     0.041 C 
ATOM      8  O   UNL     1      -1.142  11.906  -4.328  1.00  0.00    -0.550 OA
ATOM      9  O   UNL     1      -3.331  11.237  -4.402  1.00  0.00    -0.550 OA
ENDBRANCH   6   7
ENDBRANCH   5   6
ENDBRANCH   4   5
ENDBRANCH   3   4
ENDBRANCH   2   3
ENDBRANCH   1   2
BRANCH   1  10
ATOM     10  C   UNL     1       0.577  16.080  -4.317  1.00  0.00     0.000 C 
BRANCH  10  11
ATOM     11  C   UNL     1       0.662  14.716  -5.020  1.00  0.00    -0.000 C 
BRANCH  11  12
ATOM     12  C   UNL     1       2.052  14.443  -5.615  1.00  0.00    -0.000 C 
BRANCH  12  13
ATOM     13  C   UNL     1       2.693  15.743  -6.125  1.00  0.00    -0.000 C 
BRANCH  13  14
ATOM     14  C   UNL     1       4.046  16.038  -5.459  1.00  0.00    -0.000 C 
BRANCH  14  15
ATOM     15  C   UNL     1       4.100  17.433  -4.821  1.00  0.00    -0.003 C 
ATOM     16  C   UNL     1       3.524  18.488  -5.762  1.00  0.00     0.004 C 
ENDBRANCH  14  15
ENDBRANCH  13  14
ENDBRANCH  12  13
ENDBRANCH  11  12
ENDBRANCH  10  11
ENDBRANCH   1  10
TORSDOF 12
ENDMDL
