MODEL 1
REMARK VINA RESULT:    -4.338      0.000      0.000
REMARK INTER + INTRA:          -9.569
REMARK INTER:                  -7.888
REMARK INTRA:                  -1.680
REMARK UNBOUND:                -1.680
REMARK SMILES CCCCCCCCCCCCCC[C@@H](C)C(=O)[O-]
REMARK SMILES IDX 9 1 10 2 11 3 12 4 13 5 14 6 15 7 16 8 17 9 18 10 19 11 8 12
REMARK SMILES IDX 7 13 6 14 5 15 4 16 3 17 2 18 1 19
REMARK H PARENT
REMARK Flexibility Score: inf
ROOT
ATOM      1  C   UNL     1      -4.050  23.126 -12.675  1.00  0.00     0.000 C 
ENDROOT
BRANCH   1   2
ATOM      2  C   UNL     1      -4.734  23.281 -14.044  1.00  0.00     0.000 C 
BRANCH   2   3
ATOM      3  C   UNL     1      -4.823  24.754 -14.496  1.00  0.00     0.000 C 
BRANCH   3   4
ATOM      4  C   UNL     1      -4.373  25.761 -13.420  1.00  0.00     0.000 C 
BRANCH   4   5
ATOM      5  C   UNL     1      -5.415  26.830 -13.048  1.00  0.00     0.001 C 
BRANCH   5   6
ATOM      6  C   UNL     1      -6.884  26.350 -12.960  1.00  0.00     0.009 C 
BRANCH   6   7
ATOM      7  C   UNL     1      -7.419  25.933 -11.564  1.00  0.00     0.032 C 
ATOM      8  C   UNL     1      -7.745  24.435 -11.466  1.00  0.00     0.014 C 
BRANCH   7   9
ATOM      9  C   UNL     1      -6.539  26.398 -10.432  1.00  0.00     0.044 C 
ATOM     10  O   UNL     1      -5.789  25.575  -9.845  1.00  0.00    -0.550 OA
ATOM     11  O   UNL     1      -6.579  27.716  -9.993  1.00  0.00    -0.550 OA
ENDBRANCH   7   9
ENDBRANCH   6   7
ENDBRANCH   5   6
ENDBRANCH   4   5
ENDBRANCH   3   4
ENDBRANCH   2   3
ENDBRANCH   1   2
BRANCH   1  12
ATOM     12  C   UNL     1      -4.782  22.136 -11.754  1.00  0.00     0.000 C 
BRANCH  12  13
ATOM     13  C   UNL     1      -5.582  21.081 -12.533  1.00  0.00    -0.000 C 
BRANCH  13  14
ATOM     14  C   UNL     1      -6.236  20.074 -11.579  1.00  0.00    -0.000 C 
BRANCH  14  15
ATOM     15  C   UNL     1      -6.900  20.790 -10.394  1.00  0.00    -0.000 C 
BRANCH  15  16
ATOM     16  C   UNL     1      -6.361  20.315  -9.034  1.00  0.00    -0.000 C 
BRANCH  16  17
ATOM     17  C   UNL     1      -6.358  18.784  -8.902  1.00  0.00    -0.000 C 
BRANCH  17  18
ATOM     18  C   UNL     1      -6.919  18.308  -7.553  1.00  0.00    -0.003 C 
ATOM     19  C   UNL     1      -8.112  19.139  -7.080  1.00  0.00     0.004 C 
ENDBRANCH  17  18
ENDBRANCH  16  17
ENDBRANCH  15  16
ENDBRANCH  14  15
ENDBRANCH  13  14
ENDBRANCH  12  13
ENDBRANCH   1  12
TORSDOF 14
ENDMDL
MODEL 2
REMARK VINA RESULT:    -4.202      1.069      2.041
REMARK INTER + INTRA:          -9.322
REMARK INTER:                  -7.559
REMARK INTRA:                  -1.763
REMARK UNBOUND:                -1.680
REMARK SMILES CCCCCCCCCCCCCC[C@@H](C)C(=O)[O-]
REMARK SMILES IDX 9 1 10 2 11 3 12 4 13 5 14 6 15 7 16 8 17 9 18 10 19 11 8 12
REMARK SMILES IDX 7 13 6 14 5 15 4 16 3 17 2 18 1 19
REMARK H PARENT
REMARK Flexibility Score: inf
ROOT
ATOM      1  C   UNL     1      -4.851  24.382 -13.210  1.00  0.00     0.000 C 
ENDROOT
BRANCH   1   2
ATOM      2  C   UNL     1      -4.465  25.863 -13.045  1.00  0.00     0.000 C 
BRANCH   2   3
ATOM      3  C   UNL     1      -5.696  26.793 -13.015  1.00  0.00     0.000 C 
BRANCH   3   4
ATOM      4  C   UNL     1      -7.037  26.051 -13.171  1.00  0.00     0.000 C 
BRANCH   4   5
ATOM      5  C   UNL     1      -8.090  26.371 -12.097  1.00  0.00     0.001 C 
BRANCH   5   6
ATOM      6  C   UNL     1      -8.126  25.423 -10.873  1.00  0.00     0.009 C 
BRANCH   6   7
ATOM      7  C   UNL     1      -7.521  25.947  -9.543  1.00  0.00     0.032 C 
ATOM      8  C   UNL     1      -6.126  25.375  -9.249  1.00  0.00     0.014 C 
BRANCH   7   9
ATOM      9  C   UNL     1      -7.552  27.450  -9.432  1.00  0.00     0.044 C 
ATOM     10  O   UNL     1      -8.625  28.032  -9.122  1.00  0.00    -0.550 OA
ATOM     11  O   UNL     1      -6.424  28.210  -9.716  1.00  0.00    -0.550 OA
ENDBRANCH   7   9
ENDBRANCH   6   7
ENDBRANCH   5   6
ENDBRANCH   4   5
ENDBRANCH   3   4
ENDBRANCH   2   3
ENDBRANCH   1   2
BRANCH   1  12
ATOM     12  C   UNL     1      -4.472  23.531 -11.988  1.00  0.00     0.000 C 
BRANCH  12  13
ATOM     13  C   UNL     1      -5.145  22.150 -11.993  1.00  0.00    -0.000 C 
BRANCH  13  14
ATOM     14  C   UNL     1      -6.387  22.141 -11.094  1.00  0.00    -0.000 C 
BRANCH  14  15
ATOM     15  C   UNL     1      -6.717  20.716 -10.626  1.00  0.00    -0.000 C 
BRANCH  15  16
ATOM     16  C   UNL     1      -6.263  20.443  -9.183  1.00  0.00    -0.000 C 
BRANCH  16  17
ATOM     17  C   UNL     1      -6.050  18.946  -8.903  1.00  0.00    -0.000 C 
BRANCH  17  18
ATOM     18  C   UNL     1      -7.045  18.392  -7.872  1.00  0.00    -0.003 C 
ATOM     19  C   UNL     1      -7.722  19.490  -7.051  1.00  0.00     0.004 C 
ENDBRANCH  17  18
ENDBRANCH  16  17
ENDBRANCH  15  16
ENDBRANCH  14  15
ENDBRANCH  13  14
ENDBRANCH  12  13
ENDBRANCH   1  12
TORSDOF 14
ENDMDL
MODEL 3
REMARK VINA RESULT:    -4.050      7.619      9.400
REMARK INTER + INTRA:          -9.045
REMARK INTER:                  -7.352
REMARK INTRA:                  -1.693
REMARK UNBOUND:                -1.680
REMARK SMILES CCCCCCCCCCCCCC[C@@H](C)C(=O)[O-]
REMARK SMILES IDX 9 1 10 2 11 3 12 4 13 5 14 6 15 7 16 8 17 9 18 10 19 11 8 12
REMARK SMILES IDX 7 13 6 14 5 15 4 16 3 17 2 18 1 19
REMARK H PARENT
REMARK Flexibility Score: inf
ROOT
ATOM      1  C   UNL     1      -8.763  30.057  -8.382  1.00  0.00     0.000 C 
ENDROOT
BRANCH   1   2
ATOM      2  C   UNL     1      -8.011  28.764  -8.742  1.00  0.00     0.000 C 
BRANCH   2   3
ATOM      3  C   UNL     1      -6.539  29.024  -9.126  1.00  0.00     0.000 C 
BRANCH   3   4
ATOM      4  C   UNL     1      -6.153  30.516  -9.123  1.00  0.00     0.000 C 
BRANCH   4   5
ATOM      5  C   UNL     1      -4.777  30.834  -8.514  1.00  0.00     0.001 C 
BRANCH   5   6
ATOM      6  C   UNL     1      -4.736  31.017  -6.977  1.00  0.00     0.009 C 
BRANCH   6   7
ATOM      7  C   UNL     1      -5.659  32.103  -6.361  1.00  0.00     0.032 C 
ATOM      8  C   UNL     1      -6.839  31.514  -5.573  1.00  0.00     0.014 C 
BRANCH   7   9
ATOM      9  C   UNL     1      -4.903  33.135  -5.564  1.00  0.00     0.044 C 
ATOM     10  O   UNL     1      -5.013  33.161  -4.310  1.00  0.00    -0.550 OA
ATOM     11  O   UNL     1      -4.122  34.094  -6.198  1.00  0.00    -0.550 OA
ENDBRANCH   7   9
ENDBRANCH   6   7
ENDBRANCH   5   6
ENDBRANCH   4   5
ENDBRANCH   3   4
ENDBRANCH   2   3
ENDBRANCH   1   2
BRANCH   1  12
ATOM     12  C   UNL     1      -9.926  30.353  -9.343  1.00  0.00     0.000 C 
BRANCH  12  13
ATOM     13  C   UNL     1     -10.995  31.264  -8.720  1.00  0.00    -0.000 C 
BRANCH  13  14
ATOM     14  C   UNL     1     -12.378  30.605  -8.774  1.00  0.00    -0.000 C 
BRANCH  14  15
ATOM     15  C   UNL     1     -12.318  29.260  -9.514  1.00  0.00    -0.000 C 
BRANCH  15  16
ATOM     16  C   UNL     1     -12.836  28.090  -8.662  1.00  0.00    -0.000 C 
BRANCH  16  17
ATOM     17  C   UNL     1     -11.823  27.639  -7.597  1.00  0.00    -0.000 C 
BRANCH  17  18
ATOM     18  C   UNL     1     -12.465  27.462  -6.212  1.00  0.00    -0.003 C 
ATOM     19  C   UNL     1     -12.822  28.793  -5.549  1.00  0.00     0.004 C 
ENDBRANCH  17  18
ENDBRANCH  16  17
ENDBRANCH  15  16
ENDBRANCH  14  15
ENDBRANCH  13  14
ENDBRANCH  12  13
ENDBRANCH   1  12
TORSDOF 14
ENDMDL
MODEL 4
REMARK VINA RESULT:    -4.038      1.709      2.349
REMARK INTER + INTRA:          -9.023
REMARK INTER:                  -6.700
REMARK INTRA:                  -2.324
REMARK UNBOUND:                -1.680
REMARK SMILES CCCCCCCCCCCCCC[C@@H](C)C(=O)[O-]
REMARK SMILES IDX 9 1 10 2 11 3 12 4 13 5 14 6 15 7 16 8 17 9 18 10 19 11 8 12
REMARK SMILES IDX 7 13 6 14 5 15 4 16 3 17 2 18 1 19
REMARK H PARENT
REMARK Flexibility Score: inf
ROOT
ATOM      1  C   UNL     1      -4.434  23.689 -14.798  1.00  0.00     0.000 C 
ENDROOT
BRANCH   1   2
ATOM      2  C   UNL     1      -4.530  25.183 -14.442  1.00  0.00     0.000 C 
BRANCH   2   3
ATOM      3  C   UNL     1      -4.148  25.465 -12.974  1.00  0.00     0.000 C 
BRANCH   3   4
ATOM      4  C   UNL     1      -5.328  25.949 -12.108  1.00  0.00     0.000 C 
BRANCH   4   5
ATOM      5  C   UNL     1      -5.836  24.933 -11.071  1.00  0.00     0.001 C 
BRANCH   5   6
ATOM      6  C   UNL     1      -7.278  24.411 -11.278  1.00  0.00     0.009 C 
BRANCH   6   7
ATOM      7  C   UNL     1      -7.968  24.729 -12.631  1.00  0.00     0.032 C 
ATOM      8  C   UNL     1      -8.474  23.475 -13.360  1.00  0.00     0.014 C 
BRANCH   7   9
ATOM      9  C   UNL     1      -9.035  25.787 -12.515  1.00  0.00     0.044 C 
ATOM     10  O   UNL     1     -10.007  25.786 -13.316  1.00  0.00    -0.550 OA
ATOM     11  O   UNL     1      -8.939  26.797 -11.564  1.00  0.00    -0.550 OA
ENDBRANCH   7   9
ENDBRANCH   6   7
ENDBRANCH   5   6
ENDBRANCH   4   5
ENDBRANCH   3   4
ENDBRANCH   2   3
ENDBRANCH   1   2
BRANCH   1  12
ATOM     12  C   UNL     1      -4.226  22.797 -13.564  1.00  0.00     0.000 C 
BRANCH  12  13
ATOM     13  C   UNL     1      -5.286  21.693 -13.442  1.00  0.00    -0.000 C 
BRANCH  13  14
ATOM     14  C   UNL     1      -5.460  21.257 -11.982  1.00  0.00    -0.000 C 
BRANCH  14  15
ATOM     15  C   UNL     1      -6.786  20.507 -11.786  1.00  0.00    -0.000 C 
BRANCH  15  16
ATOM     16  C   UNL     1      -7.400  20.735 -10.395  1.00  0.00    -0.000 C 
BRANCH  16  17
ATOM     17  C   UNL     1      -6.481  20.258  -9.258  1.00  0.00    -0.000 C 
BRANCH  17  18
ATOM     18  C   UNL     1      -6.727  18.790  -8.879  1.00  0.00    -0.003 C 
ATOM     19  C   UNL     1      -7.285  18.628  -7.464  1.00  0.00     0.004 C 
ENDBRANCH  17  18
ENDBRANCH  16  17
ENDBRANCH  15  16
ENDBRANCH  14  15
ENDBRANCH  13  14
ENDBRANCH  12  13
ENDBRANCH   1  12
TORSDOF 14
ENDMDL
MODEL 5
REMARK VINA RESULT:    -4.013      1.752      2.233
REMARK INTER + INTRA:          -8.977
REMARK INTER:                  -7.309
REMARK INTRA:                  -1.669
REMARK UNBOUND:                -1.680
REMARK SMILES CCCCCCCCCCCCCC[C@@H](C)C(=O)[O-]
REMARK SMILES IDX 9 1 10 2 11 3 12 4 13 5 14 6 15 7 16 8 17 9 18 10 19 11 8 12
REMARK SMILES IDX 7 13 6 14 5 15 4 16 3 17 2 18 1 19
REMARK H PARENT
REMARK Flexibility Score: inf
ROOT
ATOM      1  C   UNL     1      -4.331  23.864 -12.398  1.00  0.00     0.000 C 
ENDROOT
BRANCH   1   2
ATOM      2  C   UNL     1      -4.066  25.197 -13.119  1.00  0.00     0.000 C 
BRANCH   2   3
ATOM      3  C   UNL     1      -5.021  26.319 -12.657  1.00  0.00     0.000 C 
BRANCH   3   4
ATOM      4  C   UNL     1      -6.372  26.326 -13.398  1.00  0.00     0.000 C 
BRANCH   4   5
ATOM      5  C   UNL     1      -7.590  26.690 -12.532  1.00  0.00     0.001 C 
BRANCH   5   6
ATOM      6  C   UNL     1      -8.499  25.513 -12.102  1.00  0.00     0.009 C 
BRANCH   6   7
ATOM      7  C   UNL     1      -8.598  25.202 -10.585  1.00  0.00     0.032 C 
ATOM      8  C   UNL     1      -7.259  25.360  -9.848  1.00  0.00     0.014 C 
BRANCH   7   9
ATOM      9  C   UNL     1      -9.714  25.950  -9.901  1.00  0.00     0.044 C 
ATOM     10  O   UNL     1      -9.443  26.902  -9.122  1.00  0.00    -0.550 OA
ATOM     11  O   UNL     1     -11.040  25.573 -10.080  1.00  0.00    -0.550 OA
ENDBRANCH   7   9
ENDBRANCH   6   7
ENDBRANCH   5   6
ENDBRANCH   4   5
ENDBRANCH   3   4
ENDBRANCH   2   3
ENDBRANCH   1   2
BRANCH   1  12
ATOM     12  C   UNL     1      -4.797  22.755 -13.354  1.00  0.00     0.000 C 
BRANCH  12  13
ATOM     13  C   UNL     1      -5.578  21.642 -12.639  1.00  0.00    -0.000 C 
BRANCH  13  14
ATOM     14  C   UNL     1      -6.516  22.225 -11.575  1.00  0.00    -0.000 C 
BRANCH  14  15
ATOM     15  C   UNL     1      -6.394  21.454 -10.252  1.00  0.00    -0.000 C 
BRANCH  15  16
ATOM     16  C   UNL     1      -6.294  19.933 -10.457  1.00  0.00    -0.000 C 
BRANCH  16  17
ATOM     17  C   UNL     1      -5.937  19.185  -9.162  1.00  0.00    -0.000 C 
BRANCH  17  18
ATOM     18  C   UNL     1      -7.155  18.498  -8.524  1.00  0.00    -0.003 C 
ATOM     19  C   UNL     1      -7.691  19.251  -7.307  1.00  0.00     0.004 C 
ENDBRANCH  17  18
ENDBRANCH  16  17
ENDBRANCH  15  16
ENDBRANCH  14  15
ENDBRANCH  13  14
ENDBRANCH  12  13
ENDBRANCH   1  12
TORSDOF 14
ENDMDL
MODEL 6
REMARK VINA RESULT:    -4.010      1.897      3.696
REMARK INTER + INTRA:          -8.973
REMARK INTER:                  -6.040
REMARK INTRA:                  -2.932
REMARK UNBOUND:                -1.680
REMARK SMILES CCCCCCCCCCCCCC[C@@H](C)C(=O)[O-]
REMARK SMILES IDX 9 1 10 2 11 3 12 4 13 5 14 6 15 7 16 8 17 9 18 10 19 11 8 12
REMARK SMILES IDX 7 13 6 14 5 15 4 16 3 17 2 18 1 19
REMARK H PARENT
REMARK Flexibility Score: inf
ROOT
ATOM      1  C   UNL     1      -5.733  26.499 -13.383  1.00  0.00     0.000 C 
ENDROOT
BRANCH   1   2
ATOM      2  C   UNL     1      -7.053  26.192 -14.111  1.00  0.00     0.000 C 
BRANCH   2   3
ATOM      3  C   UNL     1      -8.219  25.930 -13.134  1.00  0.00     0.000 C 
BRANCH   3   4
ATOM      4  C   UNL     1      -8.089  24.606 -12.356  1.00  0.00     0.000 C 
BRANCH   4   5
ATOM      5  C   UNL     1      -8.102  24.744 -10.825  1.00  0.00     0.001 C 
BRANCH   5   6
ATOM      6  C   UNL     1      -6.753  24.498 -10.106  1.00  0.00     0.009 C 
BRANCH   6   7
ATOM      7  C   UNL     1      -6.076  25.713  -9.418  1.00  0.00     0.032 C 
ATOM      8  C   UNL     1      -6.592  27.064  -9.936  1.00  0.00     0.014 C 
BRANCH   7   9
ATOM      9  C   UNL     1      -6.108  25.632  -7.913  1.00  0.00     0.044 C 
ATOM     10  O   UNL     1      -5.316  24.860  -7.311  1.00  0.00    -0.550 OA
ATOM     11  O   UNL     1      -7.036  26.363  -7.179  1.00  0.00    -0.550 OA
ENDBRANCH   7   9
ENDBRANCH   6   7
ENDBRANCH   5   6
ENDBRANCH   4   5
ENDBRANCH   3   4
ENDBRANCH   2   3
ENDBRANCH   1   2
BRANCH   1  12
ATOM     12  C   UNL     1      -4.632  25.472 -13.693  1.00  0.00     0.000 C 
BRANCH  12  13
ATOM     13  C   UNL     1      -3.880  25.008 -12.437  1.00  0.00    -0.000 C 
BRANCH  13  14
ATOM     14  C   UNL     1      -3.987  23.489 -12.262  1.00  0.00    -0.000 C 
BRANCH  14  15
ATOM     15  C   UNL     1      -4.939  22.881 -13.303  1.00  0.00    -0.000 C 
BRANCH  15  16
ATOM     16  C   UNL     1      -5.730  21.681 -12.757  1.00  0.00    -0.000 C 
BRANCH  16  17
ATOM     17  C   UNL     1      -5.385  21.363 -11.293  1.00  0.00    -0.000 C 
BRANCH  17  18
ATOM     18  C   UNL     1      -6.512  20.603 -10.575  1.00  0.00    -0.003 C 
ATOM     19  C   UNL     1      -7.902  20.983 -11.086  1.00  0.00     0.004 C 
ENDBRANCH  17  18
ENDBRANCH  16  17
ENDBRANCH  15  16
ENDBRANCH  14  15
ENDBRANCH  13  14
ENDBRANCH  12  13
ENDBRANCH   1  12
TORSDOF 14
ENDMDL
MODEL 7
REMARK VINA RESULT:    -3.910      1.641      2.393
REMARK INTER + INTRA:          -8.790
REMARK INTER:                  -6.936
REMARK INTRA:                  -1.854
REMARK UNBOUND:                -1.680
REMARK SMILES CCCCCCCCCCCCCC[C@@H](C)C(=O)[O-]
REMARK SMILES IDX 9 1 10 2 11 3 12 4 13 5 14 6 15 7 16 8 17 9 18 10 19 11 8 12
REMARK SMILES IDX 7 13 6 14 5 15 4 16 3 17 2 18 1 19
REMARK H PARENT
REMARK Flexibility Score: inf
ROOT
ATOM      1  C   UNL     1      -6.430  22.341 -14.510  1.00  0.00     0.000 C 
ENDROOT
BRANCH   1   2
ATOM      2  C   UNL     1      -5.099  22.323 -15.282  1.00  0.00     0.000 C 
BRANCH   2   3
ATOM      3  C   UNL     1      -4.020  23.204 -14.618  1.00  0.00     0.000 C 
BRANCH   3   4
ATOM      4  C   UNL     1      -3.975  23.076 -13.083  1.00  0.00     0.000 C 
BRANCH   4   5
ATOM      5  C   UNL     1      -4.006  24.409 -12.315  1.00  0.00     0.001 C 
BRANCH   5   6
ATOM      6  C   UNL     1      -5.286  24.691 -11.490  1.00  0.00     0.009 C 
BRANCH   6   7
ATOM      7  C   UNL     1      -6.237  25.805 -12.002  1.00  0.00     0.032 C 
ATOM      8  C   UNL     1      -5.707  26.521 -13.254  1.00  0.00     0.014 C 
BRANCH   7   9
ATOM      9  C   UNL     1      -7.658  25.335 -12.175  1.00  0.00     0.044 C 
ATOM     10  O   UNL     1      -8.542  26.144 -12.562  1.00  0.00    -0.550 OA
ATOM     11  O   UNL     1      -8.019  24.028 -11.868  1.00  0.00    -0.550 OA
ENDBRANCH   7   9
ENDBRANCH   6   7
ENDBRANCH   5   6
ENDBRANCH   4   5
ENDBRANCH   3   4
ENDBRANCH   2   3
ENDBRANCH   1   2
BRANCH   1  12
ATOM     12  C   UNL     1      -6.976  20.930 -14.238  1.00  0.00     0.000 C 
BRANCH  12  13
ATOM     13  C   UNL     1      -6.279  20.241 -13.055  1.00  0.00    -0.000 C 
BRANCH  13  14
ATOM     14  C   UNL     1      -6.905  20.669 -11.723  1.00  0.00    -0.000 C 
BRANCH  14  15
ATOM     15  C   UNL     1      -5.822  20.954 -10.672  1.00  0.00    -0.000 C 
BRANCH  15  16
ATOM     16  C   UNL     1      -6.234  20.513  -9.258  1.00  0.00    -0.000 C 
BRANCH  16  17
ATOM     17  C   UNL     1      -6.073  18.999  -9.041  1.00  0.00    -0.000 C 
BRANCH  17  18
ATOM     18  C   UNL     1      -7.231  18.394  -8.232  1.00  0.00    -0.003 C 
ATOM     19  C   UNL     1      -7.767  19.343  -7.160  1.00  0.00     0.004 C 
ENDBRANCH  17  18
ENDBRANCH  16  17
ENDBRANCH  15  16
ENDBRANCH  14  15
ENDBRANCH  13  14
ENDBRANCH  12  13
ENDBRANCH   1  12
TORSDOF 14
ENDMDL
MODEL 8
REMARK VINA RESULT:    -3.890      3.105      6.433
REMARK INTER + INTRA:          -8.754
REMARK INTER:                  -6.037
REMARK INTRA:                  -2.717
REMARK UNBOUND:                -1.680
REMARK SMILES CCCCCCCCCCCCCC[C@@H](C)C(=O)[O-]
REMARK SMILES IDX 9 1 10 2 11 3 12 4 13 5 14 6 15 7 16 8 17 9 18 10 19 11 8 12
REMARK SMILES IDX 7 13 6 14 5 15 4 16 3 17 2 18 1 19
REMARK H PARENT
REMARK Flexibility Score: inf
ROOT
ATOM      1  C   UNL     1      -6.078  26.783 -11.459  1.00  0.00     0.000 C 
ENDROOT
BRANCH   1   2
ATOM      2  C   UNL     1      -5.663  26.575 -12.926  1.00  0.00     0.000 C 
BRANCH   2   3
ATOM      3  C   UNL     1      -4.533  25.535 -13.078  1.00  0.00     0.000 C 
BRANCH   3   4
ATOM      4  C   UNL     1      -4.327  24.657 -11.829  1.00  0.00     0.000 C 
BRANCH   4   5
ATOM      5  C   UNL     1      -4.962  23.257 -11.901  1.00  0.00     0.001 C 
BRANCH   5   6
ATOM      6  C   UNL     1      -6.071  22.956 -10.864  1.00  0.00     0.009 C 
BRANCH   6   7
ATOM      7  C   UNL     1      -7.502  22.691 -11.402  1.00  0.00     0.032 C 
ATOM      8  C   UNL     1      -7.743  23.291 -12.795  1.00  0.00     0.014 C 
BRANCH   7   9
ATOM      9  C   UNL     1      -7.898  21.238 -11.334  1.00  0.00     0.044 C 
ATOM     10  O   UNL     1      -8.924  20.840 -11.946  1.00  0.00    -0.550 OA
ATOM     11  O   UNL     1      -7.172  20.336 -10.564  1.00  0.00    -0.550 OA
ENDBRANCH   7   9
ENDBRANCH   6   7
ENDBRANCH   5   6
ENDBRANCH   4   5
ENDBRANCH   3   4
ENDBRANCH   2   3
ENDBRANCH   1   2
BRANCH   1  12
ATOM     12  C   UNL     1      -7.600  26.702 -11.256  1.00  0.00     0.000 C 
BRANCH  12  13
ATOM     13  C   UNL     1      -7.987  26.176  -9.866  1.00  0.00    -0.000 C 
BRANCH  13  14
ATOM     14  C   UNL     1      -6.742  25.927  -9.007  1.00  0.00    -0.000 C 
BRANCH  14  15
ATOM     15  C   UNL     1      -6.867  26.622  -7.643  1.00  0.00    -0.000 C 
BRANCH  15  16
ATOM     16  C   UNL     1      -7.597  27.973  -7.728  1.00  0.00    -0.000 C 
BRANCH  16  17
ATOM     17  C   UNL     1      -6.631  29.155  -7.912  1.00  0.00    -0.000 C 
BRANCH  17  18
ATOM     18  C   UNL     1      -6.853  29.895  -9.240  1.00  0.00    -0.003 C 
ATOM     19  C   UNL     1      -8.329  29.984  -9.631  1.00  0.00     0.004 C 
ENDBRANCH  17  18
ENDBRANCH  16  17
ENDBRANCH  15  16
ENDBRANCH  14  15
ENDBRANCH  13  14
ENDBRANCH  12  13
ENDBRANCH   1  12
TORSDOF 14
ENDMDL
MODEL 9
REMARK VINA RESULT:    -3.869      7.283      9.743
REMARK INTER + INTRA:          -8.716
REMARK INTER:                  -6.706
REMARK INTRA:                  -2.010
REMARK UNBOUND:                -1.680
REMARK SMILES CCCCCCCCCCCCCC[C@@H](C)C(=O)[O-]
REMARK SMILES IDX 9 1 10 2 11 3 12 4 13 5 14 6 15 7 16 8 17 9 18 10 19 11 8 12
REMARK SMILES IDX 7 13 6 14 5 15 4 16 3 17 2 18 1 19
REMARK H PARENT
REMARK Flexibility Score: inf
ROOT
ATOM      1  C   UNL     1      -9.500  30.740  -7.979  1.00  0.00     0.000 C 
ENDROOT
BRANCH   1   2
ATOM      2  C   UNL     1     -10.391  30.987  -9.209  1.00  0.00     0.000 C 
BRANCH   2   3
ATOM      3  C   UNL     1     -11.852  31.306  -8.825  1.00  0.00     0.000 C 
BRANCH   3   4
ATOM      4  C   UNL     1     -12.264  30.757  -7.445  1.00  0.00     0.000 C 
BRANCH   4   5
ATOM      5  C   UNL     1     -12.674  29.275  -7.427  1.00  0.00     0.001 C 
BRANCH   5   6
ATOM      6  C   UNL     1     -13.274  28.717  -8.740  1.00  0.00     0.009 C 
BRANCH   6   7
ATOM      7  C   UNL     1     -12.417  27.706  -9.547  1.00  0.00     0.032 C 
ATOM      8  C   UNL     1     -11.520  26.831  -8.657  1.00  0.00     0.014 C 
BRANCH   7   9
ATOM      9  C   UNL     1     -13.228  26.885 -10.516  1.00  0.00     0.044 C 
ATOM     10  O   UNL     1     -14.431  27.186 -10.736  1.00  0.00    -0.550 OA
ATOM     11  O   UNL     1     -12.681  25.769 -11.138  1.00  0.00    -0.550 OA
ENDBRANCH   7   9
ENDBRANCH   6   7
ENDBRANCH   5   6
ENDBRANCH   4   5
ENDBRANCH   3   4
ENDBRANCH   2   3
ENDBRANCH   1   2
BRANCH   1  12
ATOM     12  C   UNL     1      -8.782  29.381  -8.031  1.00  0.00     0.000 C 
BRANCH  12  13
ATOM     13  C   UNL     1      -7.936  29.204  -9.300  1.00  0.00    -0.000 C 
BRANCH  13  14
ATOM     14  C   UNL     1      -6.442  29.147  -8.962  1.00  0.00    -0.000 C 
BRANCH  14  15
ATOM     15  C   UNL     1      -5.808  30.544  -9.035  1.00  0.00    -0.000 C 
BRANCH  15  16
ATOM     16  C   UNL     1      -5.013  30.904  -7.769  1.00  0.00    -0.000 C 
BRANCH  16  17
ATOM     17  C   UNL     1      -5.856  31.676  -6.741  1.00  0.00    -0.000 C 
BRANCH  17  18
ATOM     18  C   UNL     1      -6.230  30.818  -5.522  1.00  0.00    -0.003 C 
ATOM     19  C   UNL     1      -7.534  31.264  -4.860  1.00  0.00     0.004 C 
ENDBRANCH  17  18
ENDBRANCH  16  17
ENDBRANCH  15  16
ENDBRANCH  14  15
ENDBRANCH  13  14
ENDBRANCH  12  13
ENDBRANCH   1  12
TORSDOF 14
ENDMDL
