MODEL 1
REMARK VINA RESULT:    -3.551      0.000      0.000
REMARK INTER + INTRA:          -4.347
REMARK INTER:                  -4.277
REMARK INTRA:                  -0.069
REMARK UNBOUND:                -0.069
REMARK SMILES CC[C@@H](C)[C@@H]([NH3+])C(=O)[O-]
REMARK SMILES IDX 3 1 4 2 5 3 6 4 7 8 8 9 9 10 2 11 1 12
REMARK H PARENT 6 5 6 6 6 7
REMARK Flexibility Score: inf
ROOT
ATOM      1  C   UNL     1     -54.162 449.122 -10.014  1.00  0.00     0.050 C 
ATOM      2  C   UNL     1     -53.763 449.903 -11.282  1.00  0.00     0.014 C 
ENDROOT
BRANCH   1   3
ATOM      3  C   UNL     1     -53.319 447.816  -9.859  1.00  0.00     0.230 C 
BRANCH   3   4
ATOM      4  N   UNL     1     -52.846 447.630  -8.479  1.00  0.00    -0.350 N 
ATOM      5  H   UNL     1     -52.921 448.523  -7.939  1.00  0.00     0.345 HD
ATOM      6  H   UNL     1     -51.855 447.301  -8.476  1.00  0.00     0.345 HD
ATOM      7  H   UNL     1     -53.416 446.894  -8.000  1.00  0.00     0.345 HD
ENDBRANCH   3   4
BRANCH   3   8
ATOM      8  C   UNL     1     -54.128 446.611 -10.274  1.00  0.00     0.099 C 
ATOM      9  O   UNL     1     -54.089 445.555  -9.588  1.00  0.00    -0.544 OA
ATOM     10  O   UNL     1     -54.914 446.656 -11.419  1.00  0.00    -0.544 OA
ENDBRANCH   3   8
ENDBRANCH   1   3
BRANCH   1  11
ATOM     11  C   UNL     1     -54.124 450.046  -8.768  1.00  0.00     0.006 C 
ATOM     12  C   UNL     1     -53.351 451.353  -8.968  1.00  0.00     0.004 C 
ENDBRANCH   1  11
TORSDOF 4
ENDMDL
MODEL 2
REMARK VINA RESULT:    -3.419      3.866      4.528
REMARK INTER + INTRA:          -4.188
REMARK INTER:                  -4.119
REMARK INTRA:                  -0.069
REMARK UNBOUND:                -0.069
REMARK SMILES CC[C@@H](C)[C@@H]([NH3+])C(=O)[O-]
REMARK SMILES IDX 3 1 4 2 5 3 6 4 7 8 8 9 9 10 2 11 1 12
REMARK H PARENT 6 5 6 6 6 7
REMARK Flexibility Score: inf
ROOT
ATOM      1  C   UNL     1     -53.652 449.994 -10.330  1.00  0.00     0.050 C 
ATOM      2  C   UNL     1     -54.385 449.257 -11.469  1.00  0.00     0.014 C 
ENDROOT
BRANCH   1   3
ATOM      3  C   UNL     1     -53.865 451.538 -10.420  1.00  0.00     0.230 C 
BRANCH   3   4
ATOM      4  N   UNL     1     -54.829 452.017  -9.416  1.00  0.00    -0.350 N 
ATOM      5  H   UNL     1     -55.617 451.338  -9.307  1.00  0.00     0.345 HD
ATOM      6  H   UNL     1     -55.206 452.951  -9.692  1.00  0.00     0.345 HD
ATOM      7  H   UNL     1     -54.354 452.139  -8.492  1.00  0.00     0.345 HD
ENDBRANCH   3   4
BRANCH   3   8
ATOM      8  C   UNL     1     -52.555 452.266 -10.238  1.00  0.00     0.099 C 
ATOM      9  O   UNL     1     -52.112 452.494  -9.081  1.00  0.00    -0.544 OA
ATOM     10  O   UNL     1     -51.834 452.697 -11.345  1.00  0.00    -0.544 OA
ENDBRANCH   3   8
ENDBRANCH   1   3
BRANCH   1  11
ATOM     11  C   UNL     1     -54.028 449.386  -8.953  1.00  0.00     0.006 C 
ATOM     12  C   UNL     1     -53.293 448.088  -8.607  1.00  0.00     0.004 C 
ENDBRANCH   1  11
TORSDOF 4
ENDMDL
MODEL 3
REMARK VINA RESULT:    -3.401      3.857      4.623
REMARK INTER + INTRA:          -4.167
REMARK INTER:                  -4.101
REMARK INTRA:                  -0.066
REMARK UNBOUND:                -0.069
REMARK SMILES CC[C@@H](C)[C@@H]([NH3+])C(=O)[O-]
REMARK SMILES IDX 3 1 4 2 5 3 6 4 7 8 8 9 9 10 2 11 1 12
REMARK H PARENT 6 5 6 6 6 7
REMARK Flexibility Score: inf
ROOT
ATOM      1  C   UNL     1     -53.633 449.979 -10.380  1.00  0.00     0.050 C 
ATOM      2  C   UNL     1     -54.371 449.251 -11.522  1.00  0.00     0.014 C 
ENDROOT
BRANCH   1   3
ATOM      3  C   UNL     1     -53.854 451.523 -10.452  1.00  0.00     0.230 C 
BRANCH   3   4
ATOM      4  N   UNL     1     -54.929 451.965  -9.551  1.00  0.00    -0.350 N 
ATOM      5  H   UNL     1     -55.789 451.386  -9.690  1.00  0.00     0.345 HD
ATOM      6  H   UNL     1     -55.153 452.971  -9.719  1.00  0.00     0.345 HD
ATOM      7  H   UNL     1     -54.620 451.881  -8.555  1.00  0.00     0.345 HD
ENDBRANCH   3   4
BRANCH   3   8
ATOM      8  C   UNL     1     -52.582 452.257 -10.105  1.00  0.00     0.099 C 
ATOM      9  O   UNL     1     -51.872 452.761 -11.016  1.00  0.00    -0.544 OA
ATOM     10  O   UNL     1     -52.180 452.374  -8.780  1.00  0.00    -0.544 OA
ENDBRANCH   3   8
ENDBRANCH   1   3
BRANCH   1  11
ATOM     11  C   UNL     1     -53.998 449.354  -9.008  1.00  0.00     0.006 C 
ATOM     12  C   UNL     1     -53.219 448.083  -8.658  1.00  0.00     0.004 C 
ENDBRANCH   1  11
TORSDOF 4
ENDMDL
MODEL 4
REMARK VINA RESULT:    -3.274      3.123      4.308
REMARK INTER + INTRA:          -4.013
REMARK INTER:                  -3.923
REMARK INTRA:                  -0.090
REMARK UNBOUND:                -0.069
REMARK SMILES CC[C@@H](C)[C@@H]([NH3+])C(=O)[O-]
REMARK SMILES IDX 3 1 4 2 5 3 6 4 7 8 8 9 9 10 2 11 1 12
REMARK H PARENT 6 5 6 6 6 7
REMARK Flexibility Score: inf
ROOT
ATOM      1  C   UNL     1     -53.994 448.420  -9.650  1.00  0.00     0.050 C 
ATOM      2  C   UNL     1     -53.250 448.009  -8.363  1.00  0.00     0.014 C 
ENDROOT
BRANCH   1   3
ATOM      3  C   UNL     1     -53.626 449.875 -10.082  1.00  0.00     0.230 C 
BRANCH   3   4
ATOM      4  N   UNL     1     -54.361 450.290 -11.287  1.00  0.00    -0.350 N 
ATOM      5  H   UNL     1     -55.076 451.017 -11.051  1.00  0.00     0.345 HD
ATOM      6  H   UNL     1     -54.830 449.468 -11.728  1.00  0.00     0.345 HD
ATOM      7  H   UNL     1     -53.698 450.682 -11.995  1.00  0.00     0.345 HD
ENDBRANCH   3   4
BRANCH   3   8
ATOM      8  C   UNL     1     -53.912 450.848  -8.965  1.00  0.00     0.099 C 
ATOM      9  O   UNL     1     -55.094 451.026  -8.566  1.00  0.00    -0.544 OA
ATOM     10  O   UNL     1     -52.875 451.561  -8.375  1.00  0.00    -0.544 OA
ENDBRANCH   3   8
ENDBRANCH   1   3
BRANCH   1  11
ATOM     11  C   UNL     1     -53.785 447.361 -10.764  1.00  0.00     0.006 C 
ATOM     12  C   UNL     1     -54.000 445.912 -10.315  1.00  0.00     0.004 C 
ENDBRANCH   1  11
TORSDOF 4
ENDMDL
MODEL 5
REMARK VINA RESULT:    -3.217      3.240      4.323
REMARK INTER + INTRA:          -3.945
REMARK INTER:                  -3.825
REMARK INTRA:                  -0.120
REMARK UNBOUND:                -0.069
REMARK SMILES CC[C@@H](C)[C@@H]([NH3+])C(=O)[O-]
REMARK SMILES IDX 3 1 4 2 5 3 6 4 7 8 8 9 9 10 2 11 1 12
REMARK H PARENT 6 5 6 6 6 7
REMARK Flexibility Score: inf
ROOT
ATOM      1  C   UNL     1     -54.162 451.062  -9.371  1.00  0.00     0.050 C 
ATOM      2  C   UNL     1     -55.125 451.749  -8.381  1.00  0.00     0.014 C 
ENDROOT
BRANCH   1   3
ATOM      3  C   UNL     1     -53.372 452.109 -10.217  1.00  0.00     0.230 C 
BRANCH   3   4
ATOM      4  N   UNL     1     -52.184 452.604  -9.505  1.00  0.00    -0.350 N 
ATOM      5  H   UNL     1     -52.461 453.136  -8.648  1.00  0.00     0.345 HD
ATOM      6  H   UNL     1     -51.615 453.219 -10.130  1.00  0.00     0.345 HD
ATOM      7  H   UNL     1     -51.573 451.802  -9.224  1.00  0.00     0.345 HD
ENDBRANCH   3   4
BRANCH   3   8
ATOM      8  C   UNL     1     -52.947 451.512 -11.537  1.00  0.00     0.099 C 
ATOM      9  O   UNL     1     -53.594 450.554 -12.037  1.00  0.00    -0.544 OA
ATOM     10  O   UNL     1     -51.834 452.009 -12.204  1.00  0.00    -0.544 OA
ENDBRANCH   3   8
ENDBRANCH   1   3
BRANCH   1  11
ATOM     11  C   UNL     1     -53.260 450.038  -8.633  1.00  0.00     0.006 C 
ATOM     12  C   UNL     1     -53.537 448.574  -8.986  1.00  0.00     0.004 C 
ENDBRANCH   1  11
TORSDOF 4
ENDMDL
MODEL 6
REMARK VINA RESULT:    -3.196      1.984      2.495
REMARK INTER + INTRA:          -3.920
REMARK INTER:                  -3.838
REMARK INTRA:                  -0.082
REMARK UNBOUND:                -0.069
REMARK SMILES CC[C@@H](C)[C@@H]([NH3+])C(=O)[O-]
REMARK SMILES IDX 3 1 4 2 5 3 6 4 7 8 8 9 9 10 2 11 1 12
REMARK H PARENT 6 5 6 6 6 7
REMARK Flexibility Score: inf
ROOT
ATOM      1  C   UNL     1     -53.811 450.617  -9.498  1.00  0.00     0.050 C 
ATOM      2  C   UNL     1     -54.987 451.180  -8.674  1.00  0.00     0.014 C 
ENDROOT
BRANCH   1   3
ATOM      3  C   UNL     1     -54.200 449.284 -10.210  1.00  0.00     0.230 C 
BRANCH   3   4
ATOM      4  N   UNL     1     -53.832 449.296 -11.634  1.00  0.00    -0.350 N 
ATOM      5  H   UNL     1     -54.687 449.296 -12.236  1.00  0.00     0.345 HD
ATOM      6  H   UNL     1     -53.241 448.466 -11.864  1.00  0.00     0.345 HD
ATOM      7  H   UNL     1     -53.264 450.148 -11.851  1.00  0.00     0.345 HD
ENDBRANCH   3   4
BRANCH   3   8
ATOM      8  C   UNL     1     -53.535 448.109  -9.535  1.00  0.00     0.099 C 
ATOM      9  O   UNL     1     -53.150 448.199  -8.339  1.00  0.00    -0.544 OA
ATOM     10  O   UNL     1     -53.335 446.923 -10.232  1.00  0.00    -0.544 OA
ENDBRANCH   3   8
ENDBRANCH   1   3
BRANCH   1  11
ATOM     11  C   UNL     1     -53.246 451.700 -10.455  1.00  0.00     0.006 C 
ATOM     12  C   UNL     1     -52.072 452.503  -9.887  1.00  0.00     0.004 C 
ENDBRANCH   1  11
TORSDOF 4
ENDMDL
MODEL 7
REMARK VINA RESULT:    -3.196      5.196      5.899
REMARK INTER + INTRA:          -3.919
REMARK INTER:                  -3.845
REMARK INTRA:                  -0.074
REMARK UNBOUND:                -0.069
REMARK SMILES CC[C@@H](C)[C@@H]([NH3+])C(=O)[O-]
REMARK SMILES IDX 3 1 4 2 5 3 6 4 7 8 8 9 9 10 2 11 1 12
REMARK H PARENT 6 5 6 6 6 7
REMARK Flexibility Score: inf
ROOT
ATOM      1  C   UNL     1     -52.153 451.895 -11.520  1.00  0.00     0.050 C 
ATOM      2  C   UNL     1     -53.424 451.498 -12.298  1.00  0.00     0.014 C 
ENDROOT
BRANCH   1   3
ATOM      3  C   UNL     1     -51.351 453.007 -12.268  1.00  0.00     0.230 C 
BRANCH   3   4
ATOM      4  N   UNL     1     -51.000 454.123 -11.375  1.00  0.00    -0.350 N 
ATOM      5  H   UNL     1     -50.246 453.839 -10.709  1.00  0.00     0.345 HD
ATOM      6  H   UNL     1     -51.840 454.438 -10.840  1.00  0.00     0.345 HD
ATOM      7  H   UNL     1     -50.668 454.941 -11.936  1.00  0.00     0.345 HD
ENDBRANCH   3   4
BRANCH   3   8
ATOM      8  C   UNL     1     -50.090 452.438 -12.871  1.00  0.00     0.099 C 
ATOM      9  O   UNL     1     -49.020 452.426 -12.208  1.00  0.00    -0.544 OA
ATOM     10  O   UNL     1     -50.101 451.931 -14.165  1.00  0.00    -0.544 OA
ENDBRANCH   3   8
ENDBRANCH   1   3
BRANCH   1  11
ATOM     11  C   UNL     1     -52.500 452.250 -10.050  1.00  0.00     0.006 C 
ATOM     12  C   UNL     1     -53.751 451.556  -9.505  1.00  0.00     0.004 C 
ENDBRANCH   1  11
TORSDOF 4
ENDMDL
MODEL 8
REMARK VINA RESULT:    -3.188      5.572      6.584
REMARK INTER + INTRA:          -3.910
REMARK INTER:                  -3.825
REMARK INTRA:                  -0.084
REMARK UNBOUND:                -0.069
REMARK SMILES CC[C@@H](C)[C@@H]([NH3+])C(=O)[O-]
REMARK SMILES IDX 3 1 4 2 5 3 6 4 7 8 8 9 9 10 2 11 1 12
REMARK H PARENT 6 5 6 6 6 7
REMARK Flexibility Score: inf
ROOT
ATOM      1  C   UNL     1     -51.543 452.344 -12.758  1.00  0.00     0.050 C 
ATOM      2  C   UNL     1     -51.853 453.077 -14.078  1.00  0.00     0.014 C 
ENDROOT
BRANCH   1   3
ATOM      3  C   UNL     1     -50.969 453.321 -11.684  1.00  0.00     0.230 C 
BRANCH   3   4
ATOM      4  N   UNL     1     -51.575 453.099 -10.362  1.00  0.00    -0.350 N 
ATOM      5  H   UNL     1     -50.890 453.313  -9.601  1.00  0.00     0.345 HD
ATOM      6  H   UNL     1     -51.900 452.110 -10.273  1.00  0.00     0.345 HD
ATOM      7  H   UNL     1     -52.416 453.710 -10.246  1.00  0.00     0.345 HD
ENDBRANCH   3   4
BRANCH   3   8
ATOM      8  C   UNL     1     -49.471 453.169 -11.575  1.00  0.00     0.099 C 
ATOM      9  O   UNL     1     -48.796 454.000 -10.912  1.00  0.00    -0.544 OA
ATOM     10  O   UNL     1     -48.826 452.116 -12.213  1.00  0.00    -0.544 OA
ENDBRANCH   3   8
ENDBRANCH   1   3
BRANCH   1  11
ATOM     11  C   UNL     1     -52.778 451.536 -12.278  1.00  0.00     0.006 C 
ATOM     12  C   UNL     1     -53.063 450.267 -13.087  1.00  0.00     0.004 C 
ENDBRANCH   1  11
TORSDOF 4
ENDMDL
MODEL 9
REMARK VINA RESULT:    -3.111      6.000      7.012
REMARK INTER + INTRA:          -3.816
REMARK INTER:                  -3.723
REMARK INTRA:                  -0.093
REMARK UNBOUND:                -0.069
REMARK SMILES CC[C@@H](C)[C@@H]([NH3+])C(=O)[O-]
REMARK SMILES IDX 3 1 4 2 5 3 6 4 7 8 8 9 9 10 2 11 1 12
REMARK H PARENT 6 5 6 6 6 7
REMARK Flexibility Score: inf
ROOT
ATOM      1  C   UNL     1     -49.297 453.037 -11.636  1.00  0.00     0.050 C 
ATOM      2  C   UNL     1     -48.290 454.125 -11.210  1.00  0.00     0.014 C 
ENDROOT
BRANCH   1   3
ATOM      3  C   UNL     1     -50.742 453.614 -11.757  1.00  0.00     0.230 C 
BRANCH   3   4
ATOM      4  N   UNL     1     -51.076 453.970 -13.145  1.00  0.00    -0.350 N 
ATOM      5  H   UNL     1     -51.353 454.976 -13.212  1.00  0.00     0.345 HD
ATOM      6  H   UNL     1     -51.853 453.368 -13.498  1.00  0.00     0.345 HD
ATOM      7  H   UNL     1     -50.251 453.803 -13.766  1.00  0.00     0.345 HD
ENDBRANCH   3   4
BRANCH   3   8
ATOM      8  C   UNL     1     -51.755 452.620 -11.242  1.00  0.00     0.099 C 
ATOM      9  O   UNL     1     -52.282 451.788 -12.027  1.00  0.00    -0.544 OA
ATOM     10  O   UNL     1     -52.118 452.622  -9.901  1.00  0.00    -0.544 OA
ENDBRANCH   3   8
ENDBRANCH   1   3
BRANCH   1  11
ATOM     11  C   UNL     1     -48.803 452.304 -12.912  1.00  0.00     0.006 C 
ATOM     12  C   UNL     1     -47.564 452.925 -13.564  1.00  0.00     0.004 C 
ENDBRANCH   1  11
TORSDOF 4
ENDMDL
