MODEL 1
REMARK VINA RESULT:    -4.393      0.000      0.000
REMARK INTER + INTRA:          -4.854
REMARK INTER:                  -4.778
REMARK INTRA:                  -0.075
REMARK UNBOUND:                -0.075
REMARK SMILES CCc1cccc(O)c1
REMARK SMILES IDX 3 1 9 2 7 3 6 4 5 5 4 6 2 7 1 8 8 9
REMARK H PARENT 8 10
REMARK Flexibility Score: inf
ROOT
ATOM      1  C   UNL     1     -30.860 -18.959 -31.134  1.00  0.00    -0.045 A 
ATOM      2  C   UNL     1     -30.525 -19.072 -32.494  1.00  0.00     0.049 A 
ATOM      3  C   UNL     1     -29.184 -19.077 -32.894  1.00  0.00     0.115 A 
ATOM      4  C   UNL     1     -28.170 -18.978 -31.933  1.00  0.00     0.046 A 
ATOM      5  C   UNL     1     -28.496 -18.880 -30.577  1.00  0.00     0.004 A 
ATOM      6  C   UNL     1     -29.835 -18.875 -30.177  1.00  0.00     0.004 A 
ENDROOT
BRANCH   1   7
ATOM      7  C   UNL     1     -32.301 -18.987 -30.703  1.00  0.00     0.032 C 
ATOM      8  C   UNL     1     -32.411 -19.248 -29.204  1.00  0.00     0.009 C 
ENDBRANCH   1   7
BRANCH   3   9
ATOM      9  O   UNL     1     -28.871 -19.182 -34.248  1.00  0.00    -0.508 OA
ATOM     10  H   UNL     1     -28.956 -20.061 -34.745  1.00  0.00     0.293 HD
ENDBRANCH   3   9
TORSDOF 2
ENDMDL
MODEL 2
REMARK VINA RESULT:    -4.348      2.228      3.122
REMARK INTER + INTRA:          -4.805
REMARK INTER:                  -4.747
REMARK INTRA:                  -0.058
REMARK UNBOUND:                -0.075
REMARK SMILES CCc1cccc(O)c1
REMARK SMILES IDX 3 1 9 2 7 3 6 4 5 5 4 6 2 7 1 8 8 9
REMARK H PARENT 8 10
REMARK Flexibility Score: inf
ROOT
ATOM      1  C   UNL     1     -30.246 -19.745 -32.598  1.00  0.00    -0.045 A 
ATOM      2  C   UNL     1     -29.989 -19.703 -31.217  1.00  0.00     0.049 A 
ATOM      3  C   UNL     1     -28.745 -19.274 -30.742  1.00  0.00     0.115 A 
ATOM      4  C   UNL     1     -27.752 -18.875 -31.647  1.00  0.00     0.046 A 
ATOM      5  C   UNL     1     -28.006 -18.901 -33.021  1.00  0.00     0.004 A 
ATOM      6  C   UNL     1     -29.249 -19.330 -33.496  1.00  0.00     0.004 A 
ENDROOT
BRANCH   1   7
ATOM      7  C   UNL     1     -31.595 -20.175 -33.106  1.00  0.00     0.032 C 
ATOM      8  C   UNL     1     -31.487 -21.486 -33.878  1.00  0.00     0.009 C 
ENDBRANCH   1   7
BRANCH   3   9
ATOM      9  O   UNL     1     -28.506 -19.245 -29.369  1.00  0.00    -0.508 OA
ATOM     10  H   UNL     1     -27.660 -18.840 -28.987  1.00  0.00     0.293 HD
ENDBRANCH   3   9
TORSDOF 2
ENDMDL
MODEL 3
REMARK VINA RESULT:    -4.229      2.799      4.046
REMARK INTER + INTRA:          -4.675
REMARK INTER:                  -4.620
REMARK INTRA:                  -0.056
REMARK UNBOUND:                -0.075
REMARK SMILES CCc1cccc(O)c1
REMARK SMILES IDX 3 1 9 2 7 3 6 4 5 5 4 6 2 7 1 8 8 9
REMARK H PARENT 8 10
REMARK Flexibility Score: inf
ROOT
ATOM      1  C   UNL     1     -31.004 -20.549 -32.513  1.00  0.00    -0.045 A 
ATOM      2  C   UNL     1     -30.584 -21.274 -31.386  1.00  0.00     0.049 A 
ATOM      3  C   UNL     1     -30.851 -20.798 -30.098  1.00  0.00     0.115 A 
ATOM      4  C   UNL     1     -31.549 -19.596 -29.930  1.00  0.00     0.046 A 
ATOM      5  C   UNL     1     -31.982 -18.875 -31.048  1.00  0.00     0.004 A 
ATOM      6  C   UNL     1     -31.715 -19.350 -32.334  1.00  0.00     0.004 A 
ENDROOT
BRANCH   1   7
ATOM      7  C   UNL     1     -30.745 -21.078 -33.898  1.00  0.00     0.032 C 
ATOM      8  C   UNL     1     -31.963 -21.827 -34.426  1.00  0.00     0.009 C 
ENDBRANCH   1   7
BRANCH   3   9
ATOM      9  O   UNL     1     -30.420 -21.529 -28.992  1.00  0.00    -0.508 OA
ATOM     10  H   UNL     1     -31.061 -22.095 -28.449  1.00  0.00     0.293 HD
ENDBRANCH   3   9
TORSDOF 2
ENDMDL
MODEL 4
REMARK VINA RESULT:    -4.121      1.303      1.993
REMARK INTER + INTRA:          -4.558
REMARK INTER:                  -4.486
REMARK INTRA:                  -0.072
REMARK UNBOUND:                -0.075
REMARK SMILES CCc1cccc(O)c1
REMARK SMILES IDX 3 1 9 2 7 3 6 4 5 5 4 6 2 7 1 8 8 9
REMARK H PARENT 8 10
REMARK Flexibility Score: inf
ROOT
ATOM      1  C   UNL     1     -30.459 -19.461 -31.045  1.00  0.00    -0.045 A 
ATOM      2  C   UNL     1     -29.334 -18.909 -31.679  1.00  0.00     0.049 A 
ATOM      3  C   UNL     1     -28.876 -19.433 -32.893  1.00  0.00     0.115 A 
ATOM      4  C   UNL     1     -29.549 -20.510 -33.484  1.00  0.00     0.046 A 
ATOM      5  C   UNL     1     -30.679 -21.056 -32.865  1.00  0.00     0.004 A 
ATOM      6  C   UNL     1     -31.135 -20.532 -31.653  1.00  0.00     0.004 A 
ENDROOT
BRANCH   1   7
ATOM      7  C   UNL     1     -30.969 -18.875 -29.757  1.00  0.00     0.032 C 
ATOM      8  C   UNL     1     -32.494 -18.891 -29.723  1.00  0.00     0.009 C 
ENDBRANCH   1   7
BRANCH   3   9
ATOM      9  O   UNL     1     -27.754 -18.877 -33.503  1.00  0.00    -0.508 OA
ATOM     10  H   UNL     1     -27.247 -18.109 -33.079  1.00  0.00     0.293 HD
ENDBRANCH   3   9
TORSDOF 2
ENDMDL
MODEL 5
REMARK VINA RESULT:    -4.109      1.824      2.626
REMARK INTER + INTRA:          -4.545
REMARK INTER:                  -4.495
REMARK INTRA:                  -0.050
REMARK UNBOUND:                -0.075
REMARK SMILES CCc1cccc(O)c1
REMARK SMILES IDX 3 1 9 2 7 3 6 4 5 5 4 6 2 7 1 8 8 9
REMARK H PARENT 8 10
REMARK Flexibility Score: inf
ROOT
ATOM      1  C   UNL     1     -30.511 -20.740 -32.315  1.00  0.00    -0.045 A 
ATOM      2  C   UNL     1     -29.478 -20.269 -33.143  1.00  0.00     0.049 A 
ATOM      3  C   UNL     1     -28.553 -19.336 -32.660  1.00  0.00     0.115 A 
ATOM      4  C   UNL     1     -28.652 -18.875 -31.341  1.00  0.00     0.046 A 
ATOM      5  C   UNL     1     -29.669 -19.351 -30.507  1.00  0.00     0.004 A 
ATOM      6  C   UNL     1     -30.592 -20.282 -30.989  1.00  0.00     0.004 A 
ENDROOT
BRANCH   1   7
ATOM      7  C   UNL     1     -31.484 -21.767 -32.825  1.00  0.00     0.032 C 
ATOM      8  C   UNL     1     -31.584 -21.709 -34.346  1.00  0.00     0.009 C 
ENDBRANCH   1   7
BRANCH   3   9
ATOM      9  O   UNL     1     -27.540 -18.875 -33.499  1.00  0.00    -0.508 OA
ATOM     10  H   UNL     1     -26.982 -19.512 -34.054  1.00  0.00     0.293 HD
ENDBRANCH   3   9
TORSDOF 2
ENDMDL
MODEL 6
REMARK VINA RESULT:    -3.845      1.606      2.292
REMARK INTER + INTRA:          -4.258
REMARK INTER:                  -4.207
REMARK INTRA:                  -0.050
REMARK UNBOUND:                -0.075
REMARK SMILES CCc1cccc(O)c1
REMARK SMILES IDX 3 1 9 2 7 3 6 4 5 5 4 6 2 7 1 8 8 9
REMARK H PARENT 8 10
REMARK Flexibility Score: inf
ROOT
ATOM      1  C   UNL     1     -31.601 -19.158 -31.223  1.00  0.00    -0.045 A 
ATOM      2  C   UNL     1     -30.458 -19.042 -30.415  1.00  0.00     0.049 A 
ATOM      3  C   UNL     1     -29.186 -19.275 -30.949  1.00  0.00     0.115 A 
ATOM      4  C   UNL     1     -29.051 -19.617 -32.301  1.00  0.00     0.046 A 
ATOM      5  C   UNL     1     -30.183 -19.720 -33.115  1.00  0.00     0.004 A 
ATOM      6  C   UNL     1     -31.453 -19.488 -32.581  1.00  0.00     0.004 A 
ENDROOT
BRANCH   1   7
ATOM      7  C   UNL     1     -32.966 -18.875 -30.655  1.00  0.00     0.032 C 
ATOM      8  C   UNL     1     -32.935 -18.914 -29.131  1.00  0.00     0.009 C 
ENDBRANCH   1   7
BRANCH   3   9
ATOM      9  O   UNL     1     -28.065 -19.162 -30.129  1.00  0.00    -0.508 OA
ATOM     10  H   UNL     1     -28.058 -19.536 -29.188  1.00  0.00     0.293 HD
ENDBRANCH   3   9
TORSDOF 2
ENDMDL
MODEL 7
REMARK VINA RESULT:    -3.549      6.504      7.964
REMARK INTER + INTRA:          -3.936
REMARK INTER:                  -3.886
REMARK INTRA:                  -0.050
REMARK UNBOUND:                -0.075
REMARK SMILES CCc1cccc(O)c1
REMARK SMILES IDX 3 1 9 2 7 3 6 4 5 5 4 6 2 7 1 8 8 9
REMARK H PARENT 8 10
REMARK Flexibility Score: inf
ROOT
ATOM      1  C   UNL     1     -32.279 -23.114 -37.731  1.00  0.00    -0.045 A 
ATOM      2  C   UNL     1     -31.997 -23.320 -36.370  1.00  0.00     0.049 A 
ATOM      3  C   UNL     1     -32.516 -22.454 -35.400  1.00  0.00     0.115 A 
ATOM      4  C   UNL     1     -33.329 -21.381 -35.787  1.00  0.00     0.046 A 
ATOM      5  C   UNL     1     -33.625 -21.179 -37.139  1.00  0.00     0.004 A 
ATOM      6  C   UNL     1     -33.107 -22.043 -38.107  1.00  0.00     0.004 A 
ENDROOT
BRANCH   1   7
ATOM      7  C   UNL     1     -31.748 -24.064 -38.769  1.00  0.00     0.032 C 
ATOM      8  C   UNL     1     -32.095 -25.505 -38.411  1.00  0.00     0.009 C 
ENDBRANCH   1   7
BRANCH   3   9
ATOM      9  O   UNL     1     -32.219 -22.671 -34.056  1.00  0.00    -0.508 OA
ATOM     10  H   UNL     1     -31.646 -22.023 -33.529  1.00  0.00     0.293 HD
ENDBRANCH   3   9
TORSDOF 2
ENDMDL
MODEL 8
REMARK VINA RESULT:    -3.548      6.472      7.692
REMARK INTER + INTRA:          -3.934
REMARK INTER:                  -3.866
REMARK INTRA:                  -0.068
REMARK UNBOUND:                -0.075
REMARK SMILES CCc1cccc(O)c1
REMARK SMILES IDX 3 1 9 2 7 3 6 4 5 5 4 6 2 7 1 8 8 9
REMARK H PARENT 8 10
REMARK Flexibility Score: inf
ROOT
ATOM      1  C   UNL     1     -33.371 -21.568 -37.975  1.00  0.00    -0.045 A 
ATOM      2  C   UNL     1     -32.453 -22.575 -38.314  1.00  0.00     0.049 A 
ATOM      3  C   UNL     1     -31.817 -23.320 -37.314  1.00  0.00     0.115 A 
ATOM      4  C   UNL     1     -32.105 -23.066 -35.967  1.00  0.00     0.046 A 
ATOM      5  C   UNL     1     -33.028 -22.074 -35.622  1.00  0.00     0.004 A 
ATOM      6  C   UNL     1     -33.662 -21.330 -36.621  1.00  0.00     0.004 A 
ENDROOT
BRANCH   1   7
ATOM      7  C   UNL     1     -34.077 -20.790 -39.051  1.00  0.00     0.032 C 
ATOM      8  C   UNL     1     -34.125 -19.306 -38.702  1.00  0.00     0.009 C 
ENDBRANCH   1   7
BRANCH   3   9
ATOM      9  O   UNL     1     -30.904 -24.311 -37.670  1.00  0.00    -0.508 OA
ATOM     10  H   UNL     1     -30.708 -24.526 -38.641  1.00  0.00     0.293 HD
ENDBRANCH   3   9
TORSDOF 2
ENDMDL
MODEL 9
REMARK VINA RESULT:    -3.520      6.925      7.960
REMARK INTER + INTRA:          -3.904
REMARK INTER:                  -3.852
REMARK INTRA:                  -0.052
REMARK UNBOUND:                -0.075
REMARK SMILES CCc1cccc(O)c1
REMARK SMILES IDX 3 1 9 2 7 3 6 4 5 5 4 6 2 7 1 8 8 9
REMARK H PARENT 8 10
REMARK Flexibility Score: inf
ROOT
ATOM      1  C   UNL     1     -33.191 -21.672 -38.221  1.00  0.00    -0.045 A 
ATOM      2  C   UNL     1     -33.340 -21.810 -36.832  1.00  0.00     0.049 A 
ATOM      3  C   UNL     1     -32.735 -22.877 -36.157  1.00  0.00     0.115 A 
ATOM      4  C   UNL     1     -31.968 -23.807 -36.871  1.00  0.00     0.046 A 
ATOM      5  C   UNL     1     -31.804 -23.667 -38.252  1.00  0.00     0.004 A 
ATOM      6  C   UNL     1     -32.408 -22.602 -38.925  1.00  0.00     0.004 A 
ENDROOT
BRANCH   1   7
ATOM      7  C   UNL     1     -33.814 -20.506 -38.940  1.00  0.00     0.032 C 
ATOM      8  C   UNL     1     -34.125 -19.375 -37.966  1.00  0.00     0.009 C 
ENDBRANCH   1   7
BRANCH   3   9
ATOM      9  O   UNL     1     -32.901 -23.002 -34.779  1.00  0.00    -0.508 OA
ATOM     10  H   UNL     1     -32.332 -22.475 -34.127  1.00  0.00     0.293 HD
ENDBRANCH   3   9
TORSDOF 2
ENDMDL
