MODEL 1
REMARK VINA RESULT:     4.534      0.000      0.000
REMARK INTER + INTRA:           7.783
REMARK INTER:                   8.246
REMARK INTRA:                  -0.462
REMARK UNBOUND:                -0.462
REMARK SMILES CCCCCC=CCC=CCCCCCCCC(=O)[O-]
REMARK SMILES IDX 11 1 12 2 13 3 14 4 15 5 16 6 17 7 18 8 19 9 20 10 10 11
REMARK SMILES IDX 9 12 8 13 7 14 6 15 5 16 4 17 3 18 2 19 1 20
REMARK H PARENT
REMARK Flexibility Score: inf
ROOT
ATOM      1  C   UNL     1      29.695  18.634   4.698  1.00  0.00     0.027 C 
ENDROOT
BRANCH   1   2
ATOM      2  C   UNL     1      28.884  17.983   3.568  1.00  0.00     0.004 C 
BRANCH   2   3
ATOM      3  C   UNL     1      29.143  18.650   2.209  1.00  0.00     0.000 C 
BRANCH   3   4
ATOM      4  C   UNL     1      27.853  18.736   1.385  1.00  0.00     0.000 C 
BRANCH   4   5
ATOM      5  C   UNL     1      28.130  18.463  -0.101  1.00  0.00     0.000 C 
BRANCH   5   6
ATOM      6  C   UNL     1      28.265  16.965  -0.426  1.00  0.00     0.006 C 
BRANCH   6   7
ATOM      7  C   UNL     1      29.692  16.536  -0.813  1.00  0.00     0.053 C 
BRANCH   7   8
ATOM      8  C   UNL     1      29.715  15.619  -1.998  1.00  0.00     0.041 C 
ATOM      9  O   UNL     1      28.656  15.062  -2.388  1.00  0.00    -0.550 OA
ATOM     10  O   UNL     1      30.912  15.349  -2.650  1.00  0.00    -0.550 OA
ENDBRANCH   7   8
ENDBRANCH   6   7
ENDBRANCH   5   6
ENDBRANCH   4   5
ENDBRANCH   3   4
ENDBRANCH   2   3
ENDBRANCH   1   2
BRANCH   1  11
ATOM     11  C   UNL     1      30.943  17.849   5.023  1.00  0.00    -0.031 C 
ATOM     12  C   UNL     1      31.053  16.981   6.046  1.00  0.00    -0.027 C 
BRANCH  12  13
ATOM     13  C   UNL     1      29.969  16.717   7.059  1.00  0.00     0.054 C 
BRANCH  13  14
ATOM     14  C   UNL     1      29.783  15.236   7.281  1.00  0.00    -0.027 C 
ATOM     15  C   UNL     1      29.133  14.716   8.336  1.00  0.00    -0.031 C 
BRANCH  15  16
ATOM     16  C   UNL     1      28.469  15.528   9.425  1.00  0.00     0.027 C 
BRANCH  16  17
ATOM     17  C   UNL     1      29.441  16.545  10.035  1.00  0.00     0.004 C 
BRANCH  17  18
ATOM     18  C   UNL     1      28.730  17.527  10.983  1.00  0.00     0.000 C 
BRANCH  18  19
ATOM     19  C   UNL     1      27.711  18.416  10.253  1.00  0.00    -0.003 C 
ATOM     20  C   UNL     1      27.196  19.561  11.124  1.00  0.00     0.004 C 
ENDBRANCH  18  19
ENDBRANCH  17  18
ENDBRANCH  16  17
ENDBRANCH  15  16
ENDBRANCH  13  14
ENDBRANCH  12  13
ENDBRANCH   1  11
TORSDOF 14
ENDMDL
MODEL 2
REMARK VINA RESULT:     4.808      4.258      9.727
REMARK INTER + INTRA:           8.281
REMARK INTER:                   8.277
REMARK INTRA:                   0.004
REMARK UNBOUND:                -0.462
REMARK SMILES CCCCCC=CCC=CCCCCCCCC(=O)[O-]
REMARK SMILES IDX 11 1 12 2 13 3 14 4 15 5 16 6 17 7 18 8 19 9 20 10 10 11
REMARK SMILES IDX 9 12 8 13 7 14 6 15 5 16 4 17 3 18 2 19 1 20
REMARK H PARENT
REMARK Flexibility Score: inf
ROOT
ATOM      1  C   UNL     1      30.473  16.476   5.879  1.00  0.00     0.027 C 
ENDROOT
BRANCH   1   2
ATOM      2  C   UNL     1      30.005  16.230   7.321  1.00  0.00     0.004 C 
BRANCH   2   3
ATOM      3  C   UNL     1      29.111  14.986   7.436  1.00  0.00     0.000 C 
BRANCH   3   4
ATOM      4  C   UNL     1      29.061  14.479   8.883  1.00  0.00     0.000 C 
BRANCH   4   5
ATOM      5  C   UNL     1      28.388  15.507   9.804  1.00  0.00     0.000 C 
BRANCH   5   6
ATOM      6  C   UNL     1      29.278  16.727  10.098  1.00  0.00     0.006 C 
BRANCH   6   7
ATOM      7  C   UNL     1      28.669  17.715  11.110  1.00  0.00     0.053 C 
BRANCH   7   8
ATOM      8  C   UNL     1      27.669  18.639  10.482  1.00  0.00     0.041 C 
ATOM      9  O   UNL     1      27.284  19.667  11.098  1.00  0.00    -0.550 OA
ATOM     10  O   UNL     1      27.136  18.346   9.232  1.00  0.00    -0.550 OA
ENDBRANCH   7   8
ENDBRANCH   6   7
ENDBRANCH   5   6
ENDBRANCH   4   5
ENDBRANCH   3   4
ENDBRANCH   2   3
ENDBRANCH   1   2
BRANCH   1  11
ATOM     11  C   UNL     1      30.748  17.936   5.615  1.00  0.00    -0.031 C 
ATOM     12  C   UNL     1      30.180  18.651   4.626  1.00  0.00    -0.027 C 
BRANCH  12  13
ATOM     13  C   UNL     1      29.241  18.083   3.594  1.00  0.00     0.054 C 
BRANCH  13  14
ATOM     14  C   UNL     1      28.997  19.070   2.479  1.00  0.00    -0.027 C 
ATOM     15  C   UNL     1      28.693  18.712   1.219  1.00  0.00    -0.031 C 
BRANCH  15  16
ATOM     16  C   UNL     1      28.516  17.287   0.748  1.00  0.00     0.027 C 
BRANCH  16  17
ATOM     17  C   UNL     1      28.841  17.148  -0.745  1.00  0.00     0.004 C 
BRANCH  17  18
ATOM     18  C   UNL     1      28.312  15.826  -1.329  1.00  0.00     0.000 C 
BRANCH  18  19
ATOM     19  C   UNL     1      29.338  15.133  -2.239  1.00  0.00    -0.003 C 
ATOM     20  C   UNL     1      30.709  15.806  -2.203  1.00  0.00     0.004 C 
ENDBRANCH  18  19
ENDBRANCH  17  18
ENDBRANCH  16  17
ENDBRANCH  15  16
ENDBRANCH  13  14
ENDBRANCH  12  13
ENDBRANCH   1  11
TORSDOF 14
ENDMDL
MODEL 3
REMARK VINA RESULT:     5.648      4.323      9.703
REMARK INTER + INTRA:           9.809
REMARK INTER:                  10.259
REMARK INTRA:                  -0.451
REMARK UNBOUND:                -0.462
REMARK SMILES CCCCCC=CCC=CCCCCCCCC(=O)[O-]
REMARK SMILES IDX 11 1 12 2 13 3 14 4 15 5 16 6 17 7 18 8 19 9 20 10 10 11
REMARK SMILES IDX 9 12 8 13 7 14 6 15 5 16 4 17 3 18 2 19 1 20
REMARK H PARENT
REMARK Flexibility Score: inf
ROOT
ATOM      1  C   UNL     1      30.504  18.588   4.725  1.00  0.00     0.027 C 
ENDROOT
BRANCH   1   2
ATOM      2  C   UNL     1      31.244  17.726   5.758  1.00  0.00     0.004 C 
BRANCH   2   3
ATOM      3  C   UNL     1      30.528  16.393   6.022  1.00  0.00     0.000 C 
BRANCH   3   4
ATOM      4  C   UNL     1      30.035  16.312   7.471  1.00  0.00     0.000 C 
BRANCH   4   5
ATOM      5  C   UNL     1      29.678  14.867   7.851  1.00  0.00     0.000 C 
BRANCH   5   6
ATOM      6  C   UNL     1      28.996  14.755   9.226  1.00  0.00     0.006 C 
BRANCH   6   7
ATOM      7  C   UNL     1      28.116  15.966   9.588  1.00  0.00     0.053 C 
BRANCH   7   8
ATOM      8  C   UNL     1      28.844  16.976  10.423  1.00  0.00     0.041 C 
ATOM      9  O   UNL     1      28.211  17.915  10.973  1.00  0.00    -0.550 OA
ATOM     10  O   UNL     1      30.224  16.901  10.565  1.00  0.00    -0.550 OA
ENDBRANCH   7   8
ENDBRANCH   6   7
ENDBRANCH   5   6
ENDBRANCH   4   5
ENDBRANCH   3   4
ENDBRANCH   2   3
ENDBRANCH   1   2
BRANCH   1  11
ATOM     11  C   UNL     1      29.185  17.977   4.319  1.00  0.00    -0.031 C 
ATOM     12  C   UNL     1      28.684  18.008   3.070  1.00  0.00    -0.027 C 
BRANCH  12  13
ATOM     13  C   UNL     1      29.331  18.718   1.909  1.00  0.00     0.054 C 
BRANCH  13  14
ATOM     14  C   UNL     1      28.319  19.036   0.836  1.00  0.00    -0.027 C 
ATOM     15  C   UNL     1      27.971  18.177  -0.138  1.00  0.00    -0.031 C 
BRANCH  15  16
ATOM     16  C   UNL     1      28.507  16.771  -0.279  1.00  0.00     0.027 C 
BRANCH  16  17
ATOM     17  C   UNL     1      27.940  16.079  -1.525  1.00  0.00     0.004 C 
BRANCH  17  18
ATOM     18  C   UNL     1      28.944  15.089  -2.142  1.00  0.00     0.000 C 
BRANCH  18  19
ATOM     19  C   UNL     1      30.182  15.789  -2.722  1.00  0.00    -0.003 C 
ATOM     20  C   UNL     1      31.476  15.375  -2.023  1.00  0.00     0.004 C 
ENDBRANCH  18  19
ENDBRANCH  17  18
ENDBRANCH  16  17
ENDBRANCH  15  16
ENDBRANCH  13  14
ENDBRANCH  12  13
ENDBRANCH   1  11
TORSDOF 14
ENDMDL
MODEL 4
REMARK VINA RESULT:     5.839      1.608      2.586
REMARK INTER + INTRA:          10.155
REMARK INTER:                  10.964
REMARK INTRA:                  -0.809
REMARK UNBOUND:                -0.462
REMARK SMILES CCCCCC=CCC=CCCCCCCCC(=O)[O-]
REMARK SMILES IDX 11 1 12 2 13 3 14 4 15 5 16 6 17 7 18 8 19 9 20 10 10 11
REMARK SMILES IDX 9 12 8 13 7 14 6 15 5 16 4 17 3 18 2 19 1 20
REMARK H PARENT
REMARK Flexibility Score: inf
ROOT
ATOM      1  C   UNL     1      29.519  18.283   4.801  1.00  0.00     0.027 C 
ENDROOT
BRANCH   1   2
ATOM      2  C   UNL     1      29.588  18.849   3.375  1.00  0.00     0.004 C 
BRANCH   2   3
ATOM      3  C   UNL     1      28.671  18.091   2.404  1.00  0.00     0.000 C 
BRANCH   3   4
ATOM      4  C   UNL     1      28.916  18.534   0.957  1.00  0.00     0.000 C 
BRANCH   4   5
ATOM      5  C   UNL     1      27.724  18.171   0.060  1.00  0.00     0.000 C 
BRANCH   5   6
ATOM      6  C   UNL     1      28.049  17.063  -0.958  1.00  0.00     0.006 C 
BRANCH   6   7
ATOM      7  C   UNL     1      29.480  16.508  -0.842  1.00  0.00     0.053 C 
BRANCH   7   8
ATOM      8  C   UNL     1      29.834  15.589  -1.972  1.00  0.00     0.041 C 
ATOM      9  O   UNL     1      28.926  15.034  -2.644  1.00  0.00    -0.550 OA
ATOM     10  O   UNL     1      31.166  15.316  -2.260  1.00  0.00    -0.550 OA
ENDBRANCH   7   8
ENDBRANCH   6   7
ENDBRANCH   5   6
ENDBRANCH   4   5
ENDBRANCH   3   4
ENDBRANCH   2   3
ENDBRANCH   1   2
BRANCH   1  11
ATOM     11  C   UNL     1      30.880  17.886   5.319  1.00  0.00    -0.031 C 
ATOM     12  C   UNL     1      31.097  16.912   6.221  1.00  0.00    -0.027 C 
BRANCH  12  13
ATOM     13  C   UNL     1      30.010  16.119   6.899  1.00  0.00     0.054 C 
BRANCH  13  14
ATOM     14  C   UNL     1      29.814  16.575   8.324  1.00  0.00    -0.027 C 
ATOM     15  C   UNL     1      29.649  15.734   9.360  1.00  0.00    -0.031 C 
BRANCH  15  16
ATOM     16  C   UNL     1      29.671  14.226   9.257  1.00  0.00     0.027 C 
BRANCH  16  17
ATOM     17  C   UNL     1      28.314  13.620   9.636  1.00  0.00     0.004 C 
BRANCH  17  18
ATOM     18  C   UNL     1      27.154  14.276   8.867  1.00  0.00     0.000 C 
BRANCH  18  19
ATOM     19  C   UNL     1      25.844  13.482   8.988  1.00  0.00    -0.003 C 
ATOM     20  C   UNL     1      25.676  12.447   7.877  1.00  0.00     0.004 C 
ENDBRANCH  18  19
ENDBRANCH  17  18
ENDBRANCH  16  17
ENDBRANCH  15  16
ENDBRANCH  13  14
ENDBRANCH  12  13
ENDBRANCH   1  11
TORSDOF 14
ENDMDL
MODEL 5
REMARK VINA RESULT:     6.433      3.996      9.390
REMARK INTER + INTRA:          11.236
REMARK INTER:                  12.183
REMARK INTRA:                  -0.947
REMARK UNBOUND:                -0.462
REMARK SMILES CCCCCC=CCC=CCCCCCCCC(=O)[O-]
REMARK SMILES IDX 11 1 12 2 13 3 14 4 15 5 16 6 17 7 18 8 19 9 20 10 10 11
REMARK SMILES IDX 9 12 8 13 7 14 6 15 5 16 4 17 3 18 2 19 1 20
REMARK H PARENT
REMARK Flexibility Score: inf
ROOT
ATOM      1  C   UNL     1      30.736  16.801   5.601  1.00  0.00     0.027 C 
ENDROOT
BRANCH   1   2
ATOM      2  C   UNL     1      29.989  16.083   6.734  1.00  0.00     0.004 C 
BRANCH   2   3
ATOM      3  C   UNL     1      30.351  16.646   8.117  1.00  0.00     0.000 C 
BRANCH   3   4
ATOM      4  C   UNL     1      29.573  15.926   9.225  1.00  0.00     0.000 C 
BRANCH   4   5
ATOM      5  C   UNL     1      29.789  14.408   9.152  1.00  0.00     0.000 C 
BRANCH   5   6
ATOM      6  C   UNL     1      28.497  13.602   9.378  1.00  0.00     0.006 C 
BRANCH   6   7
ATOM      7  C   UNL     1      27.208  14.406   9.131  1.00  0.00     0.053 C 
BRANCH   7   8
ATOM      8  C   UNL     1      26.039  13.530   8.794  1.00  0.00     0.041 C 
ATOM      9  O   UNL     1      26.203  12.502   8.087  1.00  0.00    -0.550 OA
ATOM     10  O   UNL     1      24.764  13.868   9.230  1.00  0.00    -0.550 OA
ENDBRANCH   7   8
ENDBRANCH   6   7
ENDBRANCH   5   6
ENDBRANCH   4   5
ENDBRANCH   3   4
ENDBRANCH   2   3
ENDBRANCH   1   2
BRANCH   1  11
ATOM     11  C   UNL     1      30.384  18.267   5.531  1.00  0.00    -0.031 C 
ATOM     12  C   UNL     1      29.654  18.829   4.550  1.00  0.00    -0.027 C 
BRANCH  12  13
ATOM     13  C   UNL     1      29.140  18.091   3.341  1.00  0.00     0.054 C 
BRANCH  13  14
ATOM     14  C   UNL     1      29.200  18.961   2.109  1.00  0.00    -0.027 C 
ATOM     15  C   UNL     1      28.926  18.518   0.870  1.00  0.00    -0.031 C 
BRANCH  15  16
ATOM     16  C   UNL     1      28.486  17.111   0.536  1.00  0.00     0.027 C 
BRANCH  16  17
ATOM     17  C   UNL     1      27.938  17.021  -0.894  1.00  0.00     0.004 C 
BRANCH  17  18
ATOM     18  C   UNL     1      28.407  15.743  -1.612  1.00  0.00     0.000 C 
BRANCH  18  19
ATOM     19  C   UNL     1      29.910  15.483  -1.429  1.00  0.00    -0.003 C 
ATOM     20  C   UNL     1      30.698  15.638  -2.729  1.00  0.00     0.004 C 
ENDBRANCH  18  19
ENDBRANCH  17  18
ENDBRANCH  16  17
ENDBRANCH  15  16
ENDBRANCH  13  14
ENDBRANCH  12  13
ENDBRANCH   1  11
TORSDOF 14
ENDMDL
