MODEL 1
REMARK VINA RESULT:    -3.148      0.000      0.000
REMARK INTER + INTRA:          -4.674
REMARK INTER:                  -4.252
REMARK INTRA:                  -0.422
REMARK UNBOUND:                -0.422
REMARK SMILES CCCCCCCC(=O)[O-]
REMARK SMILES IDX 5 1 6 2 7 3 8 4 9 5 10 6 4 7 3 8 2 9 1 10
REMARK H PARENT
REMARK Flexibility Score: inf
ROOT
ATOM      1  C   UNL     1      32.581  11.673  22.143  1.00  0.00     0.000 C 
ENDROOT
BRANCH   1   2
ATOM      2  C   UNL     1      34.073  12.060  22.263  1.00  0.00     0.006 C 
BRANCH   2   3
ATOM      3  C   UNL     1      34.818  11.302  23.373  1.00  0.00     0.053 C 
BRANCH   3   4
ATOM      4  C   UNL     1      35.805  10.323  22.815  1.00  0.00     0.041 C 
ATOM      5  O   UNL     1      35.440   9.470  21.964  1.00  0.00    -0.550 OA
ATOM      6  O   UNL     1      37.125  10.339  23.250  1.00  0.00    -0.550 OA
ENDBRANCH   3   4
ENDBRANCH   2   3
ENDBRANCH   1   2
BRANCH   1   7
ATOM      7  C   UNL     1      32.048  10.875  23.348  1.00  0.00     0.000 C 
BRANCH   7   8
ATOM      8  C   UNL     1      31.288   9.585  22.987  1.00  0.00    -0.000 C 
BRANCH   8   9
ATOM      9  C   UNL     1      31.941   8.739  21.879  1.00  0.00    -0.003 C 
ATOM     10  C   UNL     1      31.143   7.481  21.540  1.00  0.00     0.004 C 
ENDBRANCH   8   9
ENDBRANCH   7   8
ENDBRANCH   1   7
TORSDOF 6
ENDMDL
MODEL 2
REMARK VINA RESULT:    -3.131      2.779      4.619
REMARK INTER + INTRA:          -4.651
REMARK INTER:                  -4.248
REMARK INTRA:                  -0.403
REMARK UNBOUND:                -0.422
REMARK SMILES CCCCCCCC(=O)[O-]
REMARK SMILES IDX 5 1 6 2 7 3 8 4 9 5 10 6 4 7 3 8 2 9 1 10
REMARK H PARENT
REMARK Flexibility Score: inf
ROOT
ATOM      1  C   UNL     1      31.902  10.304  23.276  1.00  0.00     0.000 C 
ENDROOT
BRANCH   1   2
ATOM      2  C   UNL     1      31.263   9.105  22.539  1.00  0.00     0.006 C 
BRANCH   2   3
ATOM      3  C   UNL     1      32.190   8.460  21.495  1.00  0.00     0.053 C 
BRANCH   3   4
ATOM      4  C   UNL     1      31.641   7.161  20.988  1.00  0.00     0.041 C 
ATOM      5  O   UNL     1      31.690   6.129  21.708  1.00  0.00    -0.550 OA
ATOM      6  O   UNL     1      31.095   7.085  19.713  1.00  0.00    -0.550 OA
ENDBRANCH   3   4
ENDBRANCH   2   3
ENDBRANCH   1   2
BRANCH   1   7
ATOM      7  C   UNL     1      32.318  11.457  22.343  1.00  0.00     0.000 C 
BRANCH   7   8
ATOM      8  C   UNL     1      33.703  12.063  22.637  1.00  0.00    -0.000 C 
BRANCH   8   9
ATOM      9  C   UNL     1      34.645  11.157  23.452  1.00  0.00    -0.003 C 
ATOM     10  C   UNL     1      35.650  10.404  22.581  1.00  0.00     0.004 C 
ENDBRANCH   8   9
ENDBRANCH   7   8
ENDBRANCH   1   7
TORSDOF 6
ENDMDL
MODEL 3
REMARK VINA RESULT:    -3.073      2.520      4.625
REMARK INTER + INTRA:          -4.573
REMARK INTER:                  -4.292
REMARK INTRA:                  -0.281
REMARK UNBOUND:                -0.422
REMARK SMILES CCCCCCCC(=O)[O-]
REMARK SMILES IDX 5 1 6 2 7 3 8 4 9 5 10 6 4 7 3 8 2 9 1 10
REMARK H PARENT
REMARK Flexibility Score: inf
ROOT
ATOM      1  C   UNL     1      31.232   9.486  22.893  1.00  0.00     0.000 C 
ENDROOT
BRANCH   1   2
ATOM      2  C   UNL     1      31.960   8.672  21.799  1.00  0.00     0.006 C 
BRANCH   2   3
ATOM      3  C   UNL     1      31.225   7.382  21.400  1.00  0.00     0.053 C 
BRANCH   3   4
ATOM      4  C   UNL     1      32.179   6.265  21.102  1.00  0.00     0.041 C 
ATOM      5  O   UNL     1      32.986   6.362  20.140  1.00  0.00    -0.550 OA
ATOM      6  O   UNL     1      32.161   5.109  21.873  1.00  0.00    -0.550 OA
ENDBRANCH   3   4
ENDBRANCH   2   3
ENDBRANCH   1   2
BRANCH   1   7
ATOM      7  C   UNL     1      32.049  10.676  23.429  1.00  0.00     0.000 C 
BRANCH   7   8
ATOM      8  C   UNL     1      32.608  11.620  22.348  1.00  0.00    -0.000 C 
BRANCH   8   9
ATOM      9  C   UNL     1      34.040  12.125  22.608  1.00  0.00    -0.003 C 
ATOM     10  C   UNL     1      34.933  11.074  23.266  1.00  0.00     0.004 C 
ENDBRANCH   8   9
ENDBRANCH   7   8
ENDBRANCH   1   7
TORSDOF 6
ENDMDL
MODEL 4
REMARK VINA RESULT:    -3.023      1.431      2.478
REMARK INTER + INTRA:          -4.505
REMARK INTER:                  -4.242
REMARK INTRA:                  -0.263
REMARK UNBOUND:                -0.422
REMARK SMILES CCCCCCCC(=O)[O-]
REMARK SMILES IDX 5 1 6 2 7 3 8 4 9 5 10 6 4 7 3 8 2 9 1 10
REMARK H PARENT
REMARK Flexibility Score: inf
ROOT
ATOM      1  C   UNL     1      34.815  11.156  23.351  1.00  0.00     0.000 C 
ENDROOT
BRANCH   1   2
ATOM      2  C   UNL     1      35.783  10.255  22.549  1.00  0.00     0.006 C 
BRANCH   2   3
ATOM      3  C   UNL     1      37.257  10.422  22.954  1.00  0.00     0.053 C 
BRANCH   3   4
ATOM      4  C   UNL     1      37.932   9.100  23.159  1.00  0.00     0.041 C 
ATOM      5  O   UNL     1      37.329   8.031  22.881  1.00  0.00    -0.550 OA
ATOM      6  O   UNL     1      39.221   9.049  23.677  1.00  0.00    -0.550 OA
ENDBRANCH   3   4
ENDBRANCH   2   3
ENDBRANCH   1   2
BRANCH   1   7
ATOM      7  C   UNL     1      33.931  12.057  22.468  1.00  0.00     0.000 C 
BRANCH   7   8
ATOM      8  C   UNL     1      32.437  11.684  22.450  1.00  0.00    -0.000 C 
BRANCH   8   9
ATOM      9  C   UNL     1      32.039  10.564  23.429  1.00  0.00    -0.003 C 
ATOM     10  C   UNL     1      31.315   9.404  22.746  1.00  0.00     0.004 C 
ENDBRANCH   8   9
ENDBRANCH   7   8
ENDBRANCH   1   7
TORSDOF 6
ENDMDL
MODEL 5
REMARK VINA RESULT:    -3.012      2.102      4.659
REMARK INTER + INTRA:          -4.490
REMARK INTER:                  -4.180
REMARK INTRA:                  -0.310
REMARK UNBOUND:                -0.422
REMARK SMILES CCCCCCCC(=O)[O-]
REMARK SMILES IDX 5 1 6 2 7 3 8 4 9 5 10 6 4 7 3 8 2 9 1 10
REMARK H PARENT
REMARK Flexibility Score: inf
ROOT
ATOM      1  C   UNL     1      34.643  11.782  23.340  1.00  0.00     0.000 C 
ENDROOT
BRANCH   1   2
ATOM      2  C   UNL     1      33.267  11.855  22.639  1.00  0.00     0.006 C 
BRANCH   2   3
ATOM      3  C   UNL     1      32.174  11.032  23.340  1.00  0.00     0.053 C 
BRANCH   3   4
ATOM      4  C   UNL     1      31.903   9.742  22.627  1.00  0.00     0.041 C 
ATOM      5  O   UNL     1      30.908   9.040  22.945  1.00  0.00    -0.550 OA
ATOM      6  O   UNL     1      32.762   9.305  21.626  1.00  0.00    -0.550 OA
ENDBRANCH   3   4
ENDBRANCH   2   3
ENDBRANCH   1   2
BRANCH   1   7
ATOM      7  C   UNL     1      35.790  11.340  22.411  1.00  0.00     0.000 C 
BRANCH   7   8
ATOM      8  C   UNL     1      36.233   9.875  22.580  1.00  0.00    -0.000 C 
BRANCH   8   9
ATOM      9  C   UNL     1      37.686   9.690  23.056  1.00  0.00    -0.003 C 
ATOM     10  C   UNL     1      38.570  10.900  22.758  1.00  0.00     0.004 C 
ENDBRANCH   8   9
ENDBRANCH   7   8
ENDBRANCH   1   7
TORSDOF 6
ENDMDL
MODEL 6
REMARK VINA RESULT:    -3.009      2.673      4.692
REMARK INTER + INTRA:          -4.486
REMARK INTER:                  -4.072
REMARK INTRA:                  -0.414
REMARK UNBOUND:                -0.422
REMARK SMILES CCCCCCCC(=O)[O-]
REMARK SMILES IDX 5 1 6 2 7 3 8 4 9 5 10 6 4 7 3 8 2 9 1 10
REMARK H PARENT
REMARK Flexibility Score: inf
ROOT
ATOM      1  C   UNL     1      35.003  11.449  23.253  1.00  0.00     0.000 C 
ENDROOT
BRANCH   1   2
ATOM      2  C   UNL     1      34.012  11.254  22.083  1.00  0.00     0.006 C 
BRANCH   2   3
ATOM      3  C   UNL     1      33.200   9.952  22.173  1.00  0.00     0.053 C 
BRANCH   3   4
ATOM      4  C   UNL     1      31.851  10.176  22.785  1.00  0.00     0.041 C 
ATOM      5  O   UNL     1      31.525  11.320  23.197  1.00  0.00    -0.550 OA
ATOM      6  O   UNL     1      30.962   9.117  22.920  1.00  0.00    -0.550 OA
ENDBRANCH   3   4
ENDBRANCH   2   3
ENDBRANCH   1   2
BRANCH   1   7
ATOM      7  C   UNL     1      36.339  12.090  22.835  1.00  0.00     0.000 C 
BRANCH   7   8
ATOM      8  C   UNL     1      37.512  11.104  22.682  1.00  0.00    -0.000 C 
BRANCH   8   9
ATOM      9  C   UNL     1      37.259   9.703  23.268  1.00  0.00    -0.003 C 
ATOM     10  C   UNL     1      37.208   8.610  22.201  1.00  0.00     0.004 C 
ENDBRANCH   8   9
ENDBRANCH   7   8
ENDBRANCH   1   7
TORSDOF 6
ENDMDL
MODEL 7
REMARK VINA RESULT:    -2.890      2.268      3.400
REMARK INTER + INTRA:          -4.325
REMARK INTER:                  -3.755
REMARK INTRA:                  -0.570
REMARK UNBOUND:                -0.422
REMARK SMILES CCCCCCCC(=O)[O-]
REMARK SMILES IDX 5 1 6 2 7 3 8 4 9 5 10 6 4 7 3 8 2 9 1 10
REMARK H PARENT
REMARK Flexibility Score: inf
ROOT
ATOM      1  C   UNL     1      35.156  10.550  22.569  1.00  0.00     0.000 C 
ENDROOT
BRANCH   1   2
ATOM      2  C   UNL     1      35.342   9.984  21.142  1.00  0.00     0.006 C 
BRANCH   2   3
ATOM      3  C   UNL     1      34.830   8.544  20.980  1.00  0.00     0.053 C 
BRANCH   3   4
ATOM      4  C   UNL     1      33.597   8.482  20.131  1.00  0.00     0.041 C 
ATOM      5  O   UNL     1      33.357   9.392  19.295  1.00  0.00    -0.550 OA
ATOM      6  O   UNL     1      32.701   7.429  20.278  1.00  0.00    -0.550 OA
ENDBRANCH   3   4
ENDBRANCH   2   3
ENDBRANCH   1   2
BRANCH   1   7
ATOM      7  C   UNL     1      34.210  11.764  22.638  1.00  0.00     0.000 C 
BRANCH   7   8
ATOM      8  C   UNL     1      32.734  11.454  22.328  1.00  0.00    -0.000 C 
BRANCH   8   9
ATOM      9  C   UNL     1      32.010  10.620  23.400  1.00  0.00    -0.003 C 
ATOM     10  C   UNL     1      31.301   9.394  22.825  1.00  0.00     0.004 C 
ENDBRANCH   8   9
ENDBRANCH   7   8
ENDBRANCH   1   7
TORSDOF 6
ENDMDL
MODEL 8
REMARK VINA RESULT:    -2.853      2.655      4.295
REMARK INTER + INTRA:          -4.275
REMARK INTER:                  -3.804
REMARK INTRA:                  -0.471
REMARK UNBOUND:                -0.422
REMARK SMILES CCCCCCCC(=O)[O-]
REMARK SMILES IDX 5 1 6 2 7 3 8 4 9 5 10 6 4 7 3 8 2 9 1 10
REMARK H PARENT
REMARK Flexibility Score: inf
ROOT
ATOM      1  C   UNL     1      34.937  10.024  21.185  1.00  0.00     0.000 C 
ENDROOT
BRANCH   1   2
ATOM      2  C   UNL     1      34.412   8.578  21.033  1.00  0.00     0.006 C 
BRANCH   2   3
ATOM      3  C   UNL     1      33.002   8.495  20.428  1.00  0.00     0.053 C 
BRANCH   3   4
ATOM      4  C   UNL     1      32.146   7.493  21.141  1.00  0.00     0.041 C 
ATOM      5  O   UNL     1      32.464   6.274  21.140  1.00  0.00    -0.550 OA
ATOM      6  O   UNL     1      30.986   7.901  21.788  1.00  0.00    -0.550 OA
ENDBRANCH   3   4
ENDBRANCH   2   3
ENDBRANCH   1   2
BRANCH   1   7
ATOM      7  C   UNL     1      35.484  10.342  22.589  1.00  0.00     0.000 C 
BRANCH   7   8
ATOM      8  C   UNL     1      34.562  11.215  23.462  1.00  0.00    -0.000 C 
BRANCH   8   9
ATOM      9  C   UNL     1      33.193  11.537  22.836  1.00  0.00    -0.003 C 
ATOM     10  C   UNL     1      32.044  10.768  23.485  1.00  0.00     0.004 C 
ENDBRANCH   8   9
ENDBRANCH   7   8
ENDBRANCH   1   7
TORSDOF 6
ENDMDL
MODEL 9
REMARK VINA RESULT:    -2.787      1.436      2.487
REMARK INTER + INTRA:          -4.187
REMARK INTER:                  -3.876
REMARK INTRA:                  -0.310
REMARK UNBOUND:                -0.422
REMARK SMILES CCCCCCCC(=O)[O-]
REMARK SMILES IDX 5 1 6 2 7 3 8 4 9 5 10 6 4 7 3 8 2 9 1 10
REMARK H PARENT
REMARK Flexibility Score: inf
ROOT
ATOM      1  C   UNL     1      34.922  10.138  21.939  1.00  0.00     0.000 C 
ENDROOT
BRANCH   1   2
ATOM      2  C   UNL     1      35.368  10.996  23.146  1.00  0.00     0.006 C 
BRANCH   2   3
ATOM      3  C   UNL     1      36.519  11.962  22.823  1.00  0.00     0.053 C 
BRANCH   3   4
ATOM      4  C   UNL     1      37.839  11.256  22.755  1.00  0.00     0.041 C 
ATOM      5  O   UNL     1      38.810  11.784  22.153  1.00  0.00    -0.550 OA
ATOM      6  O   UNL     1      37.990  10.005  23.340  1.00  0.00    -0.550 OA
ENDBRANCH   3   4
ENDBRANCH   2   3
ENDBRANCH   1   2
BRANCH   1   7
ATOM      7  C   UNL     1      33.500  10.458  21.442  1.00  0.00     0.000 C 
BRANCH   7   8
ATOM      8  C   UNL     1      32.729  11.483  22.294  1.00  0.00    -0.000 C 
BRANCH   8   9
ATOM      9  C   UNL     1      31.658  10.878  23.221  1.00  0.00    -0.003 C 
ATOM     10  C   UNL     1      31.274   9.450  22.836  1.00  0.00     0.004 C 
ENDBRANCH   8   9
ENDBRANCH   7   8
ENDBRANCH   1   7
TORSDOF 6
ENDMDL
