MODEL 1
REMARK VINA RESULT:    -7.288      0.000      0.000
REMARK INTER + INTRA:         -11.568
REMARK INTER:                 -10.483
REMARK INTRA:                  -1.085
REMARK UNBOUND:                -1.085
REMARK SMILES O=c1c(O[C@H]2O[C@@H](CO)[C@H](O)[C@H](O)[C@H]2O)c(-c2ccc(O)cc2)oc2cc(O)cc(O)c12
REMARK SMILES IDX 4 1 3 2 16 3 24 4 2 5 25 6 1 7 32 8 26 9 30 10 27 11 29 12
REMARK SMILES IDX 17 13 18 14 19 15 20 16 23 17 22 18 21 19 31 21 28 23 5 25
REMARK SMILES IDX 14 26 6 27 12 28 7 29 10 30 15 31 13 33 8 35 9 36 11 38
REMARK H PARENT 21 20 31 22 28 24 15 32 13 34 9 37 11 39
REMARK Flexibility Score: inf
ROOT
ATOM      1  O   UNL     1     -38.053   5.663  81.761  1.00  0.00    -0.454 OA
ENDROOT
BRANCH   1   2
ATOM      2  C   UNL     1     -38.813   5.037  80.751  1.00  0.00     0.214 A 
ATOM      3  C   UNL     1     -38.235   4.908  79.475  1.00  0.00     0.180 A 
ATOM      4  O   UNL     1     -38.933   4.384  78.475  1.00  0.00    -0.452 OA
ATOM      5  C   UNL     1     -40.132   4.567  80.938  1.00  0.00     0.239 A 
ATOM      6  C   UNL     1     -40.162   3.908  78.612  1.00  0.00     0.146 A 
ATOM      7  O   UNL     1     -40.720   4.775  82.032  1.00  0.00    -0.285 OA
ATOM      8  C   UNL     1     -40.809   3.924  79.873  1.00  0.00     0.111 A 
ATOM      9  C   UNL     1     -40.809   3.393  77.487  1.00  0.00     0.094 A 
ATOM     10  C   UNL     1     -42.106   3.341  79.979  1.00  0.00     0.134 A 
ATOM     11  C   UNL     1     -42.106   2.885  77.589  1.00  0.00     0.123 A 
ATOM     12  C   UNL     1     -42.747   2.865  78.827  1.00  0.00     0.093 A 
BRANCH   3  13
ATOM     13  C   UNL     1     -36.857   5.368  79.198  1.00  0.00     0.021 A 
ATOM     14  C   UNL     1     -35.753   4.518  79.392  1.00  0.00     0.016 A 
ATOM     15  C   UNL     1     -34.458   4.972  79.126  1.00  0.00     0.047 A 
ATOM     16  C   UNL     1     -34.252   6.271  78.650  1.00  0.00     0.115 A 
ATOM     17  C   UNL     1     -36.645   6.662  78.697  1.00  0.00     0.016 A 
ATOM     18  C   UNL     1     -35.349   7.115  78.431  1.00  0.00     0.047 A 
BRANCH  16  19
ATOM     19  O   UNL     1     -32.955   6.712  78.396  1.00  0.00    -0.508 OA
ATOM     20  H   UNL     1     -32.685   7.679  78.543  1.00  0.00     0.293 HD
ENDBRANCH  16  19
ENDBRANCH   3  13
BRANCH  10  21
ATOM     21  O   UNL     1     -42.786   3.173  81.189  1.00  0.00    -0.507 OA
ATOM     22  H   UNL     1     -43.782   3.023  81.267  1.00  0.00     0.293 HD
ENDBRANCH  10  21
BRANCH  11  23
ATOM     23  O   UNL     1     -42.765   2.388  76.465  1.00  0.00    -0.508 OA
ATOM     24  H   UNL     1     -43.512   1.707  76.546  1.00  0.00     0.293 HD
ENDBRANCH  11  23
ENDBRANCH   1   2
BRANCH   1  25
ATOM     25  C   UNL     1     -36.905   5.134  82.423  1.00  0.00     0.339 C 
ATOM     26  C   UNL     1     -37.340   4.582  83.798  1.00  0.00     0.214 C 
ATOM     27  O   UNL     1     -35.944   6.162  82.587  1.00  0.00    -0.332 OA
ATOM     28  C   UNL     1     -36.113   4.107  84.609  1.00  0.00     0.180 C 
ATOM     29  C   UNL     1     -34.743   5.638  83.128  1.00  0.00     0.179 C 
ATOM     30  C   UNL     1     -34.987   5.161  84.582  1.00  0.00     0.177 C 
BRANCH  26  31
ATOM     31  O   UNL     1     -38.087   5.529  84.524  1.00  0.00    -0.384 OA
ATOM     32  H   UNL     1     -37.599   6.393  84.506  1.00  0.00     0.211 HD
ENDBRANCH  26  31
BRANCH  28  33
ATOM     33  O   UNL     1     -35.630   2.898  84.077  1.00  0.00    -0.387 OA
ATOM     34  H   UNL     1     -36.371   2.240  84.141  1.00  0.00     0.211 HD
ENDBRANCH  28  33
BRANCH  29  35
ATOM     35  C   UNL     1     -33.671   6.736  83.076  1.00  0.00     0.191 C 
BRANCH  35  36
ATOM     36  O   UNL     1     -33.606   7.412  84.302  1.00  0.00    -0.394 OA
ATOM     37  H   UNL     1     -33.482   6.723  85.006  1.00  0.00     0.210 HD
ENDBRANCH  35  36
ENDBRANCH  29  35
BRANCH  30  38
ATOM     38  O   UNL     1     -33.819   4.598  85.125  1.00  0.00    -0.387 OA
ATOM     39  H   UNL     1     -34.099   3.837  85.697  1.00  0.00     0.211 HD
ENDBRANCH  30  38
ENDBRANCH   1  25
TORSDOF 11
ENDMDL
MODEL 2
REMARK VINA RESULT:    -6.792      2.086      2.988
REMARK INTER + INTRA:         -10.854
REMARK INTER:                  -9.359
REMARK INTRA:                  -1.495
REMARK UNBOUND:                -1.085
REMARK SMILES O=c1c(O[C@H]2O[C@@H](CO)[C@H](O)[C@H](O)[C@H]2O)c(-c2ccc(O)cc2)oc2cc(O)cc(O)c12
REMARK SMILES IDX 4 1 3 2 16 3 24 4 2 5 25 6 1 7 32 8 26 9 30 10 27 11 29 12
REMARK SMILES IDX 17 13 18 14 19 15 20 16 23 17 22 18 21 19 31 21 28 23 5 25
REMARK SMILES IDX 14 26 6 27 12 28 7 29 10 30 15 31 13 33 8 35 9 36 11 38
REMARK H PARENT 21 20 31 22 28 24 15 32 13 34 9 37 11 39
REMARK Flexibility Score: inf
ROOT
ATOM      1  O   UNL     1     -37.390   5.181  82.240  1.00  0.00    -0.454 OA
ENDROOT
BRANCH   1   2
ATOM      2  C   UNL     1     -38.228   4.727  81.201  1.00  0.00     0.214 A 
ATOM      3  C   UNL     1     -37.751   4.817  79.881  1.00  0.00     0.180 A 
ATOM      4  O   UNL     1     -38.526   4.462  78.863  1.00  0.00    -0.452 OA
ATOM      5  C   UNL     1     -39.532   4.222  81.407  1.00  0.00     0.239 A 
ATOM      6  C   UNL     1     -39.744   3.961  79.013  1.00  0.00     0.146 A 
ATOM      7  O   UNL     1     -40.033   4.241  82.562  1.00  0.00    -0.285 OA
ATOM      8  C   UNL     1     -40.292   3.762  80.304  1.00  0.00     0.111 A 
ATOM      9  C   UNL     1     -40.479   3.637  77.870  1.00  0.00     0.094 A 
ATOM     10  C   UNL     1     -41.581   3.159  80.410  1.00  0.00     0.134 A 
ATOM     11  C   UNL     1     -41.766   3.110  77.985  1.00  0.00     0.123 A 
ATOM     12  C   UNL     1     -42.310   2.878  79.248  1.00  0.00     0.093 A 
BRANCH   3  13
ATOM     13  C   UNL     1     -36.395   5.327  79.580  1.00  0.00     0.021 A 
ATOM     14  C   UNL     1     -36.203   6.621  79.063  1.00  0.00     0.016 A 
ATOM     15  C   UNL     1     -34.914   7.084  78.783  1.00  0.00     0.047 A 
ATOM     16  C   UNL     1     -33.805   6.269  79.030  1.00  0.00     0.115 A 
ATOM     17  C   UNL     1     -35.276   4.523  79.849  1.00  0.00     0.016 A 
ATOM     18  C   UNL     1     -33.988   4.988  79.568  1.00  0.00     0.047 A 
BRANCH  16  19
ATOM     19  O   UNL     1     -32.527   6.741  78.739  1.00  0.00    -0.508 OA
ATOM     20  H   UNL     1     -32.109   7.501  79.265  1.00  0.00     0.293 HD
ENDBRANCH  16  19
ENDBRANCH   3  13
BRANCH  10  21
ATOM     21  O   UNL     1     -42.167   2.787  81.624  1.00  0.00    -0.507 OA
ATOM     22  H   UNL     1     -42.411   1.838  81.871  1.00  0.00     0.293 HD
ENDBRANCH  10  21
BRANCH  11  23
ATOM     23  O   UNL     1     -42.513   2.803  76.847  1.00  0.00    -0.508 OA
ATOM     24  H   UNL     1     -42.999   3.521  76.323  1.00  0.00     0.293 HD
ENDBRANCH  11  23
ENDBRANCH   1   2
BRANCH   1  25
ATOM     25  C   UNL     1     -37.330   6.501  82.779  1.00  0.00     0.339 C 
ATOM     26  C   UNL     1     -37.548   6.421  84.305  1.00  0.00     0.214 C 
ATOM     27  O   UNL     1     -38.336   7.298  82.179  1.00  0.00    -0.332 OA
ATOM     28  C   UNL     1     -37.614   7.836  84.923  1.00  0.00     0.180 C 
ATOM     29  C   UNL     1     -38.219   8.646  82.602  1.00  0.00     0.179 C 
ATOM     30  C   UNL     1     -38.551   8.753  84.112  1.00  0.00     0.177 C 
BRANCH  26  31
ATOM     31  O   UNL     1     -38.700   5.677  84.626  1.00  0.00    -0.384 OA
ATOM     32  H   UNL     1     -38.418   4.774  84.921  1.00  0.00     0.211 HD
ENDBRANCH  26  31
BRANCH  28  33
ATOM     33  O   UNL     1     -36.327   8.400  84.958  1.00  0.00    -0.387 OA
ATOM     34  H   UNL     1     -35.725   7.775  84.476  1.00  0.00     0.211 HD
ENDBRANCH  28  33
BRANCH  29  35
ATOM     35  C   UNL     1     -39.178   9.500  81.760  1.00  0.00     0.191 C 
BRANCH  35  36
ATOM     36  O   UNL     1     -40.130  10.118  82.582  1.00  0.00    -0.394 OA
ATOM     37  H   UNL     1     -39.708  10.940  82.946  1.00  0.00     0.210 HD
ENDBRANCH  35  36
ENDBRANCH  29  35
BRANCH  30  38
ATOM     38  O   UNL     1     -38.401  10.077  84.562  1.00  0.00    -0.387 OA
ATOM     39  H   UNL     1     -37.573  10.434  84.149  1.00  0.00     0.211 HD
ENDBRANCH  30  38
ENDBRANCH   1  25
TORSDOF 11
ENDMDL
MODEL 3
REMARK VINA RESULT:    -6.791      1.956      6.471
REMARK INTER + INTRA:         -10.853
REMARK INTER:                  -9.647
REMARK INTRA:                  -1.206
REMARK UNBOUND:                -1.085
REMARK SMILES O=c1c(O[C@H]2O[C@@H](CO)[C@H](O)[C@H](O)[C@H]2O)c(-c2ccc(O)cc2)oc2cc(O)cc(O)c12
REMARK SMILES IDX 4 1 3 2 16 3 24 4 2 5 25 6 1 7 32 8 26 9 30 10 27 11 29 12
REMARK SMILES IDX 17 13 18 14 19 15 20 16 23 17 22 18 21 19 31 21 28 23 5 25
REMARK SMILES IDX 14 26 6 27 12 28 7 29 10 30 15 31 13 33 8 35 9 36 11 38
REMARK H PARENT 21 20 31 22 28 24 15 32 13 34 9 37 11 39
REMARK Flexibility Score: inf
ROOT
ATOM      1  O   UNL     1     -37.318   3.961  81.252  1.00  0.00    -0.454 OA
ENDROOT
BRANCH   1   2
ATOM      2  C   UNL     1     -36.767   4.903  80.359  1.00  0.00     0.214 A 
ATOM      3  C   UNL     1     -37.382   5.061  79.104  1.00  0.00     0.180 A 
ATOM      4  O   UNL     1     -36.865   5.888  78.204  1.00  0.00    -0.452 OA
ATOM      5  C   UNL     1     -35.613   5.669  80.639  1.00  0.00     0.239 A 
ATOM      6  C   UNL     1     -35.800   6.643  78.434  1.00  0.00     0.146 A 
ATOM      7  O   UNL     1     -34.971   5.465  81.702  1.00  0.00    -0.285 OA
ATOM      8  C   UNL     1     -35.147   6.614  79.692  1.00  0.00     0.111 A 
ATOM      9  C   UNL     1     -35.331   7.468  77.408  1.00  0.00     0.094 A 
ATOM     10  C   UNL     1     -34.046   7.494  79.907  1.00  0.00     0.134 A 
ATOM     11  C   UNL     1     -34.210   8.275  77.609  1.00  0.00     0.123 A 
ATOM     12  C   UNL     1     -33.574   8.283  78.850  1.00  0.00     0.093 A 
BRANCH   3  13
ATOM     13  C   UNL     1     -38.598   4.302  78.735  1.00  0.00     0.021 A 
ATOM     14  C   UNL     1     -38.528   2.942  78.388  1.00  0.00     0.016 A 
ATOM     15  C   UNL     1     -39.688   2.243  78.040  1.00  0.00     0.047 A 
ATOM     16  C   UNL     1     -40.929   2.888  78.052  1.00  0.00     0.115 A 
ATOM     17  C   UNL     1     -39.849   4.938  78.768  1.00  0.00     0.016 A 
ATOM     18  C   UNL     1     -41.008   4.238  78.421  1.00  0.00     0.047 A 
BRANCH  16  19
ATOM     19  O   UNL     1     -42.075   2.181  77.696  1.00  0.00    -0.508 OA
ATOM     20  H   UNL     1     -42.245   1.240  78.037  1.00  0.00     0.293 HD
ENDBRANCH  16  19
ENDBRANCH   3  13
BRANCH  10  21
ATOM     21  O   UNL     1     -33.411   7.656  81.142  1.00  0.00    -0.507 OA
ATOM     22  H   UNL     1     -32.421   7.522  81.296  1.00  0.00     0.293 HD
ENDBRANCH  10  21
BRANCH  11  23
ATOM     23  O   UNL     1     -33.724   9.085  76.582  1.00  0.00    -0.508 OA
ATOM     24  H   UNL     1     -34.228   9.193  75.709  1.00  0.00     0.293 HD
ENDBRANCH  11  23
ENDBRANCH   1   2
BRANCH   1  25
ATOM     25  C   UNL     1     -38.345   4.191  82.216  1.00  0.00     0.339 C 
ATOM     26  C   UNL     1     -37.785   3.869  83.618  1.00  0.00     0.214 C 
ATOM     27  O   UNL     1     -39.454   3.359  81.926  1.00  0.00    -0.332 OA
ATOM     28  C   UNL     1     -38.895   3.984  84.689  1.00  0.00     0.180 C 
ATOM     29  C   UNL     1     -40.537   3.656  82.790  1.00  0.00     0.179 C 
ATOM     30  C   UNL     1     -40.176   3.252  84.242  1.00  0.00     0.177 C 
BRANCH  26  31
ATOM     31  O   UNL     1     -37.180   2.598  83.656  1.00  0.00    -0.384 OA
ATOM     32  H   UNL     1     -37.639   2.054  84.346  1.00  0.00     0.211 HD
ENDBRANCH  26  31
BRANCH  28  33
ATOM     33  O   UNL     1     -39.190   5.339  84.923  1.00  0.00    -0.387 OA
ATOM     34  H   UNL     1     -39.563   5.702  84.078  1.00  0.00     0.211 HD
ENDBRANCH  28  33
BRANCH  29  35
ATOM     35  C   UNL     1     -41.774   2.894  82.293  1.00  0.00     0.191 C 
BRANCH  35  36
ATOM     36  O   UNL     1     -42.705   3.785  81.739  1.00  0.00    -0.394 OA
ATOM     37  H   UNL     1     -42.596   4.649  82.215  1.00  0.00     0.210 HD
ENDBRANCH  35  36
ENDBRANCH  29  35
BRANCH  30  38
ATOM     38  O   UNL     1     -41.221   3.576  85.125  1.00  0.00    -0.387 OA
ATOM     39  H   UNL     1     -41.468   2.743  85.604  1.00  0.00     0.211 HD
ENDBRANCH  30  38
ENDBRANCH   1  25
TORSDOF 11
ENDMDL
MODEL 4
REMARK VINA RESULT:    -6.530      1.270      2.058
REMARK INTER + INTRA:         -10.478
REMARK INTER:                  -9.243
REMARK INTRA:                  -1.235
REMARK UNBOUND:                -1.085
REMARK SMILES O=c1c(O[C@H]2O[C@@H](CO)[C@H](O)[C@H](O)[C@H]2O)c(-c2ccc(O)cc2)oc2cc(O)cc(O)c12
REMARK SMILES IDX 4 1 3 2 16 3 24 4 2 5 25 6 1 7 32 8 26 9 30 10 27 11 29 12
REMARK SMILES IDX 17 13 18 14 19 15 20 16 23 17 22 18 21 19 31 21 28 23 5 25
REMARK SMILES IDX 14 26 6 27 12 28 7 29 10 30 15 31 13 33 8 35 9 36 11 38
REMARK H PARENT 21 20 31 22 28 24 15 32 13 34 9 37 11 39
REMARK Flexibility Score: inf
ROOT
ATOM      1  O   UNL     1     -38.132   6.570  81.239  1.00  0.00    -0.454 OA
ENDROOT
BRANCH   1   2
ATOM      2  C   UNL     1     -38.867   5.723  80.384  1.00  0.00     0.214 A 
ATOM      3  C   UNL     1     -38.450   5.614  79.045  1.00  0.00     0.180 A 
ATOM      4  O   UNL     1     -39.145   4.880  78.185  1.00  0.00    -0.452 OA
ATOM      5  C   UNL     1     -40.017   5.007  80.786  1.00  0.00     0.239 A 
ATOM      6  C   UNL     1     -40.213   4.173  78.525  1.00  0.00     0.146 A 
ATOM      7  O   UNL     1     -40.484   5.176  81.942  1.00  0.00    -0.285 OA
ATOM      8  C   UNL     1     -40.675   4.156  79.865  1.00  0.00     0.111 A 
ATOM      9  C   UNL     1     -40.879   3.448  77.534  1.00  0.00     0.094 A 
ATOM     10  C   UNL     1     -41.791   3.328  80.189  1.00  0.00     0.134 A 
ATOM     11  C   UNL     1     -42.011   2.694  77.851  1.00  0.00     0.123 A 
ATOM     12  C   UNL     1     -42.461   2.640  79.169  1.00  0.00     0.093 A 
BRANCH   3  13
ATOM     13  C   UNL     1     -37.252   6.325  78.545  1.00  0.00     0.021 A 
ATOM     14  C   UNL     1     -37.314   7.678  78.169  1.00  0.00     0.016 A 
ATOM     15  C   UNL     1     -36.172   8.332  77.698  1.00  0.00     0.047 A 
ATOM     16  C   UNL     1     -34.955   7.648  77.612  1.00  0.00     0.115 A 
ATOM     17  C   UNL     1     -36.023   5.651  78.480  1.00  0.00     0.016 A 
ATOM     18  C   UNL     1     -34.881   6.306  78.009  1.00  0.00     0.047 A 
BRANCH  16  19
ATOM     19  O   UNL     1     -33.826   8.310  77.133  1.00  0.00    -0.508 OA
ATOM     20  H   UNL     1     -33.827   9.312  76.971  1.00  0.00     0.293 HD
ENDBRANCH  16  19
ENDBRANCH   3  13
BRANCH  10  21
ATOM     21  O   UNL     1     -42.251   3.121  81.493  1.00  0.00    -0.507 OA
ATOM     22  H   UNL     1     -41.684   3.234  82.322  1.00  0.00     0.293 HD
ENDBRANCH  10  21
BRANCH  11  23
ATOM     23  O   UNL     1     -42.691   1.984  76.862  1.00  0.00    -0.508 OA
ATOM     24  H   UNL     1     -42.206   1.583  76.068  1.00  0.00     0.293 HD
ENDBRANCH  11  23
ENDBRANCH   1   2
BRANCH   1  25
ATOM     25  C   UNL     1     -37.233   6.174  82.274  1.00  0.00     0.339 C 
ATOM     26  C   UNL     1     -36.641   7.443  82.925  1.00  0.00     0.214 C 
ATOM     27  O   UNL     1     -36.200   5.378  81.719  1.00  0.00    -0.332 OA
ATOM     28  C   UNL     1     -35.567   7.070  83.972  1.00  0.00     0.180 C 
ATOM     29  C   UNL     1     -35.363   4.866  82.741  1.00  0.00     0.179 C 
ATOM     30  C   UNL     1     -34.582   6.026  83.410  1.00  0.00     0.177 C 
BRANCH  26  31
ATOM     31  O   UNL     1     -36.118   8.325  81.960  1.00  0.00    -0.384 OA
ATOM     32  H   UNL     1     -35.567   9.006  82.425  1.00  0.00     0.211 HD
ENDBRANCH  26  31
BRANCH  28  33
ATOM     33  O   UNL     1     -36.186   6.552  85.124  1.00  0.00    -0.387 OA
ATOM     34  H   UNL     1     -35.762   5.673  85.308  1.00  0.00     0.211 HD
ENDBRANCH  28  33
BRANCH  29  35
ATOM     35  C   UNL     1     -34.408   3.841  82.114  1.00  0.00     0.191 C 
BRANCH  35  36
ATOM     36  O   UNL     1     -33.660   3.199  83.111  1.00  0.00    -0.394 OA
ATOM     37  H   UNL     1     -33.556   3.846  83.856  1.00  0.00     0.210 HD
ENDBRANCH  35  36
ENDBRANCH  29  35
BRANCH  30  38
ATOM     38  O   UNL     1     -33.775   5.545  84.456  1.00  0.00    -0.387 OA
ATOM     39  H   UNL     1     -33.736   4.558  84.365  1.00  0.00     0.211 HD
ENDBRANCH  30  38
ENDBRANCH   1  25
TORSDOF 11
ENDMDL
MODEL 5
REMARK VINA RESULT:    -6.506      2.967      7.743
REMARK INTER + INTRA:         -10.444
REMARK INTER:                  -9.379
REMARK INTRA:                  -1.065
REMARK UNBOUND:                -1.085
REMARK SMILES O=c1c(O[C@H]2O[C@@H](CO)[C@H](O)[C@H](O)[C@H]2O)c(-c2ccc(O)cc2)oc2cc(O)cc(O)c12
REMARK SMILES IDX 4 1 3 2 16 3 24 4 2 5 25 6 1 7 32 8 26 9 30 10 27 11 29 12
REMARK SMILES IDX 17 13 18 14 19 15 20 16 23 17 22 18 21 19 31 21 28 23 5 25
REMARK SMILES IDX 14 26 6 27 12 28 7 29 10 30 15 31 13 33 8 35 9 36 11 38
REMARK H PARENT 21 20 31 22 28 24 15 32 13 34 9 37 11 39
REMARK Flexibility Score: inf
ROOT
ATOM      1  O   UNL     1     -38.434   5.398  77.581  1.00  0.00    -0.454 OA
ENDROOT
BRANCH   1   2
ATOM      2  C   UNL     1     -37.411   6.265  78.016  1.00  0.00     0.214 A 
ATOM      3  C   UNL     1     -37.656   7.649  77.971  1.00  0.00     0.180 A 
ATOM      4  O   UNL     1     -36.703   8.510  78.309  1.00  0.00    -0.452 OA
ATOM      5  C   UNL     1     -36.142   5.825  78.457  1.00  0.00     0.239 A 
ATOM      6  C   UNL     1     -35.510   8.140  78.752  1.00  0.00     0.146 A 
ATOM      7  O   UNL     1     -35.850   4.603  78.396  1.00  0.00    -0.285 OA
ATOM      8  C   UNL     1     -35.185   6.769  78.903  1.00  0.00     0.111 A 
ATOM      9  C   UNL     1     -34.576   9.132  79.064  1.00  0.00     0.094 A 
ATOM     10  C   UNL     1     -33.910   6.428  79.445  1.00  0.00     0.134 A 
ATOM     11  C   UNL     1     -33.307   8.784  79.530  1.00  0.00     0.123 A 
ATOM     12  C   UNL     1     -32.980   7.441  79.714  1.00  0.00     0.093 A 
BRANCH   3  13
ATOM     13  C   UNL     1     -38.960   8.192  77.528  1.00  0.00     0.021 A 
ATOM     14  C   UNL     1     -40.007   8.405  78.441  1.00  0.00     0.016 A 
ATOM     15  C   UNL     1     -41.232   8.917  78.003  1.00  0.00     0.047 A 
ATOM     16  C   UNL     1     -41.419   9.235  76.654  1.00  0.00     0.115 A 
ATOM     17  C   UNL     1     -39.145   8.536  76.179  1.00  0.00     0.016 A 
ATOM     18  C   UNL     1     -40.370   9.048  75.743  1.00  0.00     0.047 A 
BRANCH  16  19
ATOM     19  O   UNL     1     -42.647   9.737  76.230  1.00  0.00    -0.508 OA
ATOM     20  H   UNL     1     -42.761  10.710  75.967  1.00  0.00     0.293 HD
ENDBRANCH  16  19
ENDBRANCH   3  13
BRANCH  10  21
ATOM     21  O   UNL     1     -33.528   5.123  79.769  1.00  0.00    -0.507 OA
ATOM     22  H   UNL     1     -32.596   4.753  79.640  1.00  0.00     0.293 HD
ENDBRANCH  10  21
BRANCH  11  23
ATOM     23  O   UNL     1     -32.363   9.768  79.823  1.00  0.00    -0.508 OA
ATOM     24  H   UNL     1     -32.043   9.930  80.771  1.00  0.00     0.293 HD
ENDBRANCH  11  23
ENDBRANCH   1   2
BRANCH   1  25
ATOM     25  C   UNL     1     -39.579   4.982  78.324  1.00  0.00     0.339 C 
ATOM     26  C   UNL     1     -39.109   4.433  79.689  1.00  0.00     0.214 C 
ATOM     27  O   UNL     1     -40.268   3.978  77.600  1.00  0.00    -0.332 OA
ATOM     28  C   UNL     1     -40.301   3.855  80.486  1.00  0.00     0.180 C 
ATOM     29  C   UNL     1     -41.478   3.635  78.254  1.00  0.00     0.179 C 
ATOM     30  C   UNL     1     -41.167   2.935  79.601  1.00  0.00     0.177 C 
BRANCH  26  31
ATOM     31  O   UNL     1     -38.092   3.471  79.538  1.00  0.00    -0.384 OA
ATOM     32  H   UNL     1     -37.779   3.203  80.440  1.00  0.00     0.211 HD
ENDBRANCH  26  31
BRANCH  28  33
ATOM     33  O   UNL     1     -41.095   4.905  80.981  1.00  0.00    -0.387 OA
ATOM     34  H   UNL     1     -41.890   4.968  80.391  1.00  0.00     0.211 HD
ENDBRANCH  28  33
BRANCH  29  35
ATOM     35  C   UNL     1     -42.286   2.719  77.325  1.00  0.00     0.191 C 
BRANCH  35  36
ATOM     36  O   UNL     1     -43.650   2.782  77.643  1.00  0.00    -0.394 OA
ATOM     37  H   UNL     1     -43.734   2.544  78.603  1.00  0.00     0.210 HD
ENDBRANCH  35  36
ENDBRANCH  29  35
BRANCH  30  38
ATOM     38  O   UNL     1     -42.354   2.624  80.287  1.00  0.00    -0.387 OA
ATOM     39  H   UNL     1     -42.107   2.440  81.230  1.00  0.00     0.211 HD
ENDBRANCH  30  38
ENDBRANCH   1  25
TORSDOF 11
ENDMDL
MODEL 6
REMARK VINA RESULT:    -6.358      2.849      7.151
REMARK INTER + INTRA:         -10.230
REMARK INTER:                  -9.031
REMARK INTRA:                  -1.199
REMARK UNBOUND:                -1.085
REMARK SMILES O=c1c(O[C@H]2O[C@@H](CO)[C@H](O)[C@H](O)[C@H]2O)c(-c2ccc(O)cc2)oc2cc(O)cc(O)c12
REMARK SMILES IDX 4 1 3 2 16 3 24 4 2 5 25 6 1 7 32 8 26 9 30 10 27 11 29 12
REMARK SMILES IDX 17 13 18 14 19 15 20 16 23 17 22 18 21 19 31 21 28 23 5 25
REMARK SMILES IDX 14 26 6 27 12 28 7 29 10 30 15 31 13 33 8 35 9 36 11 38
REMARK H PARENT 21 20 31 22 28 24 15 32 13 34 9 37 11 39
REMARK Flexibility Score: inf
ROOT
ATOM      1  O   UNL     1     -38.675   5.285  77.951  1.00  0.00    -0.454 OA
ENDROOT
BRANCH   1   2
ATOM      2  C   UNL     1     -37.572   6.074  78.339  1.00  0.00     0.214 A 
ATOM      3  C   UNL     1     -37.711   7.473  78.288  1.00  0.00     0.180 A 
ATOM      4  O   UNL     1     -36.683   8.259  78.582  1.00  0.00    -0.452 OA
ATOM      5  C   UNL     1     -36.326   5.540  78.739  1.00  0.00     0.239 A 
ATOM      6  C   UNL     1     -35.506   7.801  78.985  1.00  0.00     0.146 A 
ATOM      7  O   UNL     1     -36.132   4.298  78.681  1.00  0.00    -0.285 OA
ATOM      8  C   UNL     1     -35.283   6.410  79.140  1.00  0.00     0.111 A 
ATOM      9  C   UNL     1     -34.488   8.719  79.253  1.00  0.00     0.094 A 
ATOM     10  C   UNL     1     -34.019   5.976  79.639  1.00  0.00     0.134 A 
ATOM     11  C   UNL     1     -33.233   8.278  79.676  1.00  0.00     0.123 A 
ATOM     12  C   UNL     1     -33.004   6.915  79.864  1.00  0.00     0.093 A 
BRANCH   3  13
ATOM     13  C   UNL     1     -38.984   8.111  77.886  1.00  0.00     0.021 A 
ATOM     14  C   UNL     1     -39.830   8.709  78.837  1.00  0.00     0.016 A 
ATOM     15  C   UNL     1     -41.029   9.306  78.438  1.00  0.00     0.047 A 
ATOM     16  C   UNL     1     -41.389   9.326  77.087  1.00  0.00     0.115 A 
ATOM     17  C   UNL     1     -39.339   8.156  76.529  1.00  0.00     0.016 A 
ATOM     18  C   UNL     1     -40.539   8.754  76.131  1.00  0.00     0.047 A 
BRANCH  16  19
ATOM     19  O   UNL     1     -42.591   9.918  76.705  1.00  0.00    -0.508 OA
ATOM     20  H   UNL     1     -43.481   9.600  77.075  1.00  0.00     0.293 HD
ENDBRANCH  16  19
ENDBRANCH   3  13
BRANCH  10  21
ATOM     21  O   UNL     1     -33.728   4.647  79.963  1.00  0.00    -0.507 OA
ATOM     22  H   UNL     1     -33.260   4.357  80.811  1.00  0.00     0.293 HD
ENDBRANCH  10  21
BRANCH  11  23
ATOM     23  O   UNL     1     -32.205   9.188  79.925  1.00  0.00    -0.508 OA
ATOM     24  H   UNL     1     -32.304   9.923  80.616  1.00  0.00     0.293 HD
ENDBRANCH  11  23
ENDBRANCH   1   2
BRANCH   1  25
ATOM     25  C   UNL     1     -39.365   4.324  78.749  1.00  0.00     0.339 C 
ATOM     26  C   UNL     1     -40.878   4.447  78.469  1.00  0.00     0.214 C 
ATOM     27  O   UNL     1     -39.096   4.572  80.118  1.00  0.00    -0.332 OA
ATOM     28  C   UNL     1     -41.684   3.511  79.399  1.00  0.00     0.180 C 
ATOM     29  C   UNL     1     -39.666   3.558  80.928  1.00  0.00     0.179 C 
ATOM     30  C   UNL     1     -41.212   3.640  80.861  1.00  0.00     0.177 C 
BRANCH  26  31
ATOM     31  O   UNL     1     -41.321   5.778  78.589  1.00  0.00    -0.384 OA
ATOM     32  H   UNL     1     -40.533   6.355  78.763  1.00  0.00     0.211 HD
ENDBRANCH  26  31
BRANCH  28  33
ATOM     33  O   UNL     1     -41.534   2.178  78.978  1.00  0.00    -0.387 OA
ATOM     34  H   UNL     1     -40.875   1.756  79.588  1.00  0.00     0.211 HD
ENDBRANCH  28  33
BRANCH  29  35
ATOM     35  C   UNL     1     -39.159   3.747  82.365  1.00  0.00     0.191 C 
BRANCH  35  36
ATOM     36  O   UNL     1     -40.085   4.487  83.114  1.00  0.00    -0.394 OA
ATOM     37  H   UNL     1     -40.868   4.652  82.526  1.00  0.00     0.210 HD
ENDBRANCH  35  36
ENDBRANCH  29  35
BRANCH  30  38
ATOM     38  O   UNL     1     -41.799   2.616  81.625  1.00  0.00    -0.387 OA
ATOM     39  H   UNL     1     -42.490   2.187  81.057  1.00  0.00     0.211 HD
ENDBRANCH  30  38
ENDBRANCH   1  25
TORSDOF 11
ENDMDL
MODEL 7
REMARK VINA RESULT:    -6.233      2.376      5.761
REMARK INTER + INTRA:         -10.051
REMARK INTER:                  -9.038
REMARK INTRA:                  -1.014
REMARK UNBOUND:                -1.085
REMARK SMILES O=c1c(O[C@H]2O[C@@H](CO)[C@H](O)[C@H](O)[C@H]2O)c(-c2ccc(O)cc2)oc2cc(O)cc(O)c12
REMARK SMILES IDX 4 1 3 2 16 3 24 4 2 5 25 6 1 7 32 8 26 9 30 10 27 11 29 12
REMARK SMILES IDX 17 13 18 14 19 15 20 16 23 17 22 18 21 19 31 21 28 23 5 25
REMARK SMILES IDX 14 26 6 27 12 28 7 29 10 30 15 31 13 33 8 35 9 36 11 38
REMARK H PARENT 21 20 31 22 28 24 15 32 13 34 9 37 11 39
REMARK Flexibility Score: inf
ROOT
ATOM      1  O   UNL     1     -39.453   5.385  81.497  1.00  0.00    -0.454 OA
ENDROOT
BRANCH   1   2
ATOM      2  C   UNL     1     -38.808   6.151  80.505  1.00  0.00     0.214 A 
ATOM      3  C   UNL     1     -38.994   5.782  79.161  1.00  0.00     0.180 A 
ATOM      4  O   UNL     1     -38.358   6.432  78.193  1.00  0.00    -0.452 OA
ATOM      5  C   UNL     1     -37.957   7.245  80.786  1.00  0.00     0.239 A 
ATOM      6  C   UNL     1     -37.573   7.477  78.411  1.00  0.00     0.146 A 
ATOM      7  O   UNL     1     -37.676   7.525  81.980  1.00  0.00    -0.285 OA
ATOM      8  C   UNL     1     -37.374   7.976  79.722  1.00  0.00     0.111 A 
ATOM      9  C   UNL     1     -36.940   8.076  77.318  1.00  0.00     0.094 A 
ATOM     10  C   UNL     1     -36.571   9.142  79.892  1.00  0.00     0.134 A 
ATOM     11  C   UNL     1     -36.101   9.176  77.505  1.00  0.00     0.123 A 
ATOM     12  C   UNL     1     -35.919   9.700  78.785  1.00  0.00     0.093 A 
BRANCH   3  13
ATOM     13  C   UNL     1     -39.873   4.654  78.781  1.00  0.00     0.021 A 
ATOM     14  C   UNL     1     -41.273   4.786  78.796  1.00  0.00     0.016 A 
ATOM     15  C   UNL     1     -42.086   3.708  78.435  1.00  0.00     0.047 A 
ATOM     16  C   UNL     1     -41.514   2.494  78.043  1.00  0.00     0.115 A 
ATOM     17  C   UNL     1     -39.303   3.441  78.363  1.00  0.00     0.016 A 
ATOM     18  C   UNL     1     -40.119   2.364  78.003  1.00  0.00     0.047 A 
BRANCH  16  19
ATOM     19  O   UNL     1     -42.337   1.426  77.694  1.00  0.00    -0.508 OA
ATOM     20  H   UNL     1     -43.190   1.225  78.205  1.00  0.00     0.293 HD
ENDBRANCH  16  19
ENDBRANCH   3  13
BRANCH  10  21
ATOM     21  O   UNL     1     -36.415   9.806  81.112  1.00  0.00    -0.507 OA
ATOM     22  H   UNL     1     -35.609   9.709  81.715  1.00  0.00     0.293 HD
ENDBRANCH  10  21
BRANCH  11  23
ATOM     23  O   UNL     1     -35.450   9.766  76.421  1.00  0.00    -0.508 OA
ATOM     24  H   UNL     1     -35.966  10.133  75.629  1.00  0.00     0.293 HD
ENDBRANCH  11  23
ENDBRANCH   1   2
BRANCH   1  25
ATOM     25  C   UNL     1     -38.996   4.159  82.066  1.00  0.00     0.339 C 
ATOM     26  C   UNL     1     -40.170   3.495  82.817  1.00  0.00     0.214 C 
ATOM     27  O   UNL     1     -37.928   4.425  82.958  1.00  0.00    -0.332 OA
ATOM     28  C   UNL     1     -39.698   2.222  83.556  1.00  0.00     0.180 C 
ATOM     29  C   UNL     1     -37.371   3.215  83.442  1.00  0.00     0.179 C 
ATOM     30  C   UNL     1     -38.400   2.487  84.344  1.00  0.00     0.177 C 
BRANCH  26  31
ATOM     31  O   UNL     1     -40.788   4.394  83.708  1.00  0.00    -0.384 OA
ATOM     32  H   UNL     1     -40.289   4.377  84.565  1.00  0.00     0.211 HD
ENDBRANCH  26  31
BRANCH  28  33
ATOM     33  O   UNL     1     -39.476   1.189  82.628  1.00  0.00    -0.387 OA
ATOM     34  H   UNL     1     -39.053   0.441  83.126  1.00  0.00     0.211 HD
ENDBRANCH  28  33
BRANCH  29  35
ATOM     35  C   UNL     1     -36.089   3.550  84.218  1.00  0.00     0.191 C 
BRANCH  35  36
ATOM     36  O   UNL     1     -34.959   3.278  83.434  1.00  0.00    -0.394 OA
ATOM     37  H   UNL     1     -35.169   2.471  82.894  1.00  0.00     0.210 HD
ENDBRANCH  35  36
ENDBRANCH  29  35
BRANCH  30  38
ATOM     38  O   UNL     1     -37.883   1.262  84.802  1.00  0.00    -0.387 OA
ATOM     39  H   UNL     1     -37.146   1.473  85.433  1.00  0.00     0.211 HD
ENDBRANCH  30  38
ENDBRANCH   1  25
TORSDOF 11
ENDMDL
MODEL 8
REMARK VINA RESULT:    -6.232      1.728      7.144
REMARK INTER + INTRA:         -10.049
REMARK INTER:                  -8.774
REMARK INTRA:                  -1.275
REMARK UNBOUND:                -1.085
REMARK SMILES O=c1c(O[C@H]2O[C@@H](CO)[C@H](O)[C@H](O)[C@H]2O)c(-c2ccc(O)cc2)oc2cc(O)cc(O)c12
REMARK SMILES IDX 4 1 3 2 16 3 24 4 2 5 25 6 1 7 32 8 26 9 30 10 27 11 29 12
REMARK SMILES IDX 17 13 18 14 19 15 20 16 23 17 22 18 21 19 31 21 28 23 5 25
REMARK SMILES IDX 14 26 6 27 12 28 7 29 10 30 15 31 13 33 8 35 9 36 11 38
REMARK H PARENT 21 20 31 22 28 24 15 32 13 34 9 37 11 39
REMARK Flexibility Score: inf
ROOT
ATOM      1  O   UNL     1     -37.577   4.015  80.796  1.00  0.00    -0.454 OA
ENDROOT
BRANCH   1   2
ATOM      2  C   UNL     1     -36.575   4.877  81.290  1.00  0.00     0.214 A 
ATOM      3  C   UNL     1     -36.309   6.058  80.574  1.00  0.00     0.180 A 
ATOM      4  O   UNL     1     -35.333   6.870  80.961  1.00  0.00    -0.452 OA
ATOM      5  C   UNL     1     -35.801   4.603  82.440  1.00  0.00     0.239 A 
ATOM      6  C   UNL     1     -34.600   6.665  82.046  1.00  0.00     0.146 A 
ATOM      7  O   UNL     1     -35.931   3.501  83.032  1.00  0.00    -0.285 OA
ATOM      8  C   UNL     1     -34.835   5.542  82.878  1.00  0.00     0.111 A 
ATOM      9  C   UNL     1     -33.587   7.577  82.352  1.00  0.00     0.094 A 
ATOM     10  C   UNL     1     -34.060   5.403  84.068  1.00  0.00     0.134 A 
ATOM     11  C   UNL     1     -32.791   7.395  83.483  1.00  0.00     0.123 A 
ATOM     12  C   UNL     1     -33.027   6.312  84.330  1.00  0.00     0.093 A 
BRANCH   3  13
ATOM     13  C   UNL     1     -37.079   6.421  79.364  1.00  0.00     0.021 A 
ATOM     14  C   UNL     1     -38.275   7.156  79.456  1.00  0.00     0.016 A 
ATOM     15  C   UNL     1     -38.989   7.489  78.302  1.00  0.00     0.047 A 
ATOM     16  C   UNL     1     -38.511   7.106  77.044  1.00  0.00     0.115 A 
ATOM     17  C   UNL     1     -36.592   6.061  78.097  1.00  0.00     0.016 A 
ATOM     18  C   UNL     1     -37.308   6.394  76.944  1.00  0.00     0.047 A 
BRANCH  16  19
ATOM     19  O   UNL     1     -39.238   7.437  75.903  1.00  0.00    -0.508 OA
ATOM     20  H   UNL     1     -38.846   7.328  74.974  1.00  0.00     0.293 HD
ENDBRANCH  16  19
ENDBRANCH   3  13
BRANCH  10  21
ATOM     21  O   UNL     1     -34.290   4.419  85.034  1.00  0.00    -0.507 OA
ATOM     22  H   UNL     1     -33.785   4.348  85.907  1.00  0.00     0.293 HD
ENDBRANCH  10  21
BRANCH  11  23
ATOM     23  O   UNL     1     -31.764   8.291  83.782  1.00  0.00    -0.508 OA
ATOM     24  H   UNL     1     -31.949   9.173  84.246  1.00  0.00     0.293 HD
ENDBRANCH  11  23
ENDBRANCH   1   2
BRANCH   1  25
ATOM     25  C   UNL     1     -38.986   4.148  80.973  1.00  0.00     0.339 C 
ATOM     26  C   UNL     1     -39.441   3.159  82.068  1.00  0.00     0.214 C 
ATOM     27  O   UNL     1     -39.641   3.863  79.750  1.00  0.00    -0.332 OA
ATOM     28  C   UNL     1     -40.980   3.175  82.215  1.00  0.00     0.180 C 
ATOM     29  C   UNL     1     -41.033   4.109  79.862  1.00  0.00     0.179 C 
ATOM     30  C   UNL     1     -41.669   3.088  80.838  1.00  0.00     0.177 C 
BRANCH  26  31
ATOM     31  O   UNL     1     -38.973   1.855  81.816  1.00  0.00    -0.384 OA
ATOM     32  H   UNL     1     -39.441   1.231  82.428  1.00  0.00     0.211 HD
ENDBRANCH  26  31
BRANCH  28  33
ATOM     33  O   UNL     1     -41.384   4.355  82.864  1.00  0.00    -0.387 OA
ATOM     34  H   UNL     1     -40.649   5.012  82.749  1.00  0.00     0.211 HD
ENDBRANCH  28  33
BRANCH  29  35
ATOM     35  C   UNL     1     -41.655   4.003  78.462  1.00  0.00     0.191 C 
BRANCH  35  36
ATOM     36  O   UNL     1     -42.108   2.697  78.228  1.00  0.00    -0.394 OA
ATOM     37  H   UNL     1     -42.236   2.271  79.116  1.00  0.00     0.210 HD
ENDBRANCH  35  36
ENDBRANCH  29  35
BRANCH  30  38
ATOM     38  O   UNL     1     -43.044   3.340  80.997  1.00  0.00    -0.387 OA
ATOM     39  H   UNL     1     -43.260   4.136  80.445  1.00  0.00     0.211 HD
ENDBRANCH  30  38
ENDBRANCH   1  25
TORSDOF 11
ENDMDL
MODEL 9
REMARK VINA RESULT:    -6.204      2.368      6.816
REMARK INTER + INTRA:         -10.009
REMARK INTER:                  -8.740
REMARK INTRA:                  -1.269
REMARK UNBOUND:                -1.085
REMARK SMILES O=c1c(O[C@H]2O[C@@H](CO)[C@H](O)[C@H](O)[C@H]2O)c(-c2ccc(O)cc2)oc2cc(O)cc(O)c12
REMARK SMILES IDX 4 1 3 2 16 3 24 4 2 5 25 6 1 7 32 8 26 9 30 10 27 11 29 12
REMARK SMILES IDX 17 13 18 14 19 15 20 16 23 17 22 18 21 19 31 21 28 23 5 25
REMARK SMILES IDX 14 26 6 27 12 28 7 29 10 30 15 31 13 33 8 35 9 36 11 38
REMARK H PARENT 21 20 31 22 28 24 15 32 13 34 9 37 11 39
REMARK Flexibility Score: inf
ROOT
ATOM      1  O   UNL     1     -38.837   6.576  80.471  1.00  0.00    -0.454 OA
ENDROOT
BRANCH   1   2
ATOM      2  C   UNL     1     -37.799   7.133  79.696  1.00  0.00     0.214 A 
ATOM      3  C   UNL     1     -36.473   6.831  80.056  1.00  0.00     0.180 A 
ATOM      4  O   UNL     1     -35.459   7.380  79.398  1.00  0.00    -0.452 OA
ATOM      5  C   UNL     1     -38.013   8.005  78.605  1.00  0.00     0.239 A 
ATOM      6  C   UNL     1     -35.615   8.182  78.355  1.00  0.00     0.146 A 
ATOM      7  O   UNL     1     -39.180   8.389  78.334  1.00  0.00    -0.285 OA
ATOM      8  C   UNL     1     -36.909   8.494  77.866  1.00  0.00     0.111 A 
ATOM      9  C   UNL     1     -34.477   8.718  77.747  1.00  0.00     0.094 A 
ATOM     10  C   UNL     1     -37.017   9.309  76.701  1.00  0.00     0.134 A 
ATOM     11  C   UNL     1     -34.599   9.570  76.648  1.00  0.00     0.123 A 
ATOM     12  C   UNL     1     -35.862   9.863  76.134  1.00  0.00     0.093 A 
BRANCH   3  13
ATOM     13  C   UNL     1     -36.163   5.921  81.181  1.00  0.00     0.021 A 
ATOM     14  C   UNL     1     -35.545   4.677  80.961  1.00  0.00     0.016 A 
ATOM     15  C   UNL     1     -35.262   3.831  82.037  1.00  0.00     0.047 A 
ATOM     16  C   UNL     1     -35.576   4.223  83.342  1.00  0.00     0.115 A 
ATOM     17  C   UNL     1     -36.454   6.319  82.495  1.00  0.00     0.016 A 
ATOM     18  C   UNL     1     -36.169   5.472  83.570  1.00  0.00     0.047 A 
BRANCH  16  19
ATOM     19  O   UNL     1     -35.295   3.366  84.404  1.00  0.00    -0.508 OA
ATOM     20  H   UNL     1     -35.799   2.494  84.531  1.00  0.00     0.293 HD
ENDBRANCH  16  19
ENDBRANCH   3  13
BRANCH  10  21
ATOM     21  O   UNL     1     -38.224   9.572  76.046  1.00  0.00    -0.507 OA
ATOM     22  H   UNL     1     -38.857   8.859  75.711  1.00  0.00     0.293 HD
ENDBRANCH  10  21
BRANCH  11  23
ATOM     23  O   UNL     1     -33.467  10.125  76.050  1.00  0.00    -0.508 OA
ATOM     24  H   UNL     1     -32.832  10.721  76.568  1.00  0.00     0.293 HD
ENDBRANCH  11  23
ENDBRANCH   1   2
BRANCH   1  25
ATOM     25  C   UNL     1     -39.458   5.304  80.286  1.00  0.00     0.339 C 
ATOM     26  C   UNL     1     -40.380   5.380  79.050  1.00  0.00     0.214 C 
ATOM     27  O   UNL     1     -40.210   4.978  81.442  1.00  0.00    -0.332 OA
ATOM     28  C   UNL     1     -41.171   4.064  78.876  1.00  0.00     0.180 C 
ATOM     29  C   UNL     1     -40.734   3.665  81.338  1.00  0.00     0.179 C 
ATOM     30  C   UNL     1     -41.796   3.611  80.211  1.00  0.00     0.177 C 
BRANCH  26  31
ATOM     31  O   UNL     1     -41.250   6.485  79.120  1.00  0.00    -0.384 OA
ATOM     32  H   UNL     1     -41.934   6.390  78.407  1.00  0.00     0.211 HD
ENDBRANCH  26  31
BRANCH  28  33
ATOM     33  O   UNL     1     -40.316   3.055  78.398  1.00  0.00    -0.387 OA
ATOM     34  H   UNL     1     -39.466   3.497  78.139  1.00  0.00     0.211 HD
ENDBRANCH  28  33
BRANCH  29  35
ATOM     35  C   UNL     1     -41.343   3.281  82.695  1.00  0.00     0.191 C 
BRANCH  35  36
ATOM     36  O   UNL     1     -41.325   1.889  82.861  1.00  0.00    -0.394 OA
ATOM     37  H   UNL     1     -40.572   1.680  83.472  1.00  0.00     0.210 HD
ENDBRANCH  35  36
ENDBRANCH  29  35
BRANCH  30  38
ATOM     38  O   UNL     1     -42.301   2.307  80.063  1.00  0.00    -0.387 OA
ATOM     39  H   UNL     1     -42.234   2.075  79.101  1.00  0.00     0.211 HD
ENDBRANCH  30  38
ENDBRANCH   1  25
TORSDOF 11
ENDMDL
