MODEL 1
REMARK VINA RESULT:    -3.518      0.000      0.000
REMARK INTER + INTRA:          -4.241
REMARK INTER:                  -4.135
REMARK INTRA:                  -0.106
REMARK UNBOUND:                -0.106
REMARK SMILES CCCCC(=O)[O-]
REMARK SMILES IDX 4 1 5 2 6 3 7 4 3 5 2 6 1 7
REMARK H PARENT
REMARK Flexibility Score: inf
ROOT
ATOM      1  C   UNL     1     -43.251  28.898  26.760  1.00  0.00     0.053 C 
ENDROOT
BRANCH   1   2
ATOM      2  C   UNL     1     -43.221  27.686  25.879  1.00  0.00     0.041 C 
ATOM      3  O   UNL     1     -42.573  26.664  26.229  1.00  0.00    -0.550 OA
ATOM      4  O   UNL     1     -43.936  27.674  24.689  1.00  0.00    -0.550 OA
ENDBRANCH   1   2
BRANCH   1   5
ATOM      5  C   UNL     1     -42.814  30.164  26.008  1.00  0.00     0.006 C 
BRANCH   5   6
ATOM      6  C   UNL     1     -43.970  31.117  25.655  1.00  0.00    -0.003 C 
ATOM      7  C   UNL     1     -44.229  31.207  24.152  1.00  0.00     0.004 C 
ENDBRANCH   5   6
ENDBRANCH   1   5
TORSDOF 3
ENDMDL
MODEL 2
REMARK VINA RESULT:    -3.447      1.534      2.112
REMARK INTER + INTRA:          -4.158
REMARK INTER:                  -4.113
REMARK INTRA:                  -0.045
REMARK UNBOUND:                -0.106
REMARK SMILES CCCCC(=O)[O-]
REMARK SMILES IDX 4 1 5 2 6 3 7 4 3 5 2 6 1 7
REMARK H PARENT
REMARK Flexibility Score: inf
ROOT
ATOM      1  C   UNL     1     -42.866  29.864  25.915  1.00  0.00     0.053 C 
ENDROOT
BRANCH   1   2
ATOM      2  C   UNL     1     -43.515  28.946  26.906  1.00  0.00     0.041 C 
ATOM      3  O   UNL     1     -44.532  29.323  27.546  1.00  0.00    -0.550 OA
ATOM      4  O   UNL     1     -43.016  27.665  27.099  1.00  0.00    -0.550 OA
ENDBRANCH   1   2
BRANCH   1   5
ATOM      5  C   UNL     1     -43.775  31.046  25.547  1.00  0.00     0.006 C 
BRANCH   5   6
ATOM      6  C   UNL     1     -44.324  30.997  24.110  1.00  0.00    -0.003 C 
ATOM      7  C   UNL     1     -44.081  29.651  23.428  1.00  0.00     0.004 C 
ENDBRANCH   5   6
ENDBRANCH   1   5
TORSDOF 3
ENDMDL
MODEL 3
REMARK VINA RESULT:    -3.373      2.617      3.833
REMARK INTER + INTRA:          -4.070
REMARK INTER:                  -4.039
REMARK INTRA:                  -0.031
REMARK UNBOUND:                -0.106
REMARK SMILES CCCCC(=O)[O-]
REMARK SMILES IDX 4 1 5 2 6 3 7 4 3 5 2 6 1 7
REMARK H PARENT
REMARK Flexibility Score: inf
ROOT
ATOM      1  C   UNL     1     -43.297  29.586  25.306  1.00  0.00     0.053 C 
ENDROOT
BRANCH   1   2
ATOM      2  C   UNL     1     -43.955  30.926  25.176  1.00  0.00     0.041 C 
ATOM      3  O   UNL     1     -44.287  31.571  26.205  1.00  0.00    -0.550 OA
ATOM      4  O   UNL     1     -44.170  31.476  23.919  1.00  0.00    -0.550 OA
ENDBRANCH   1   2
BRANCH   1   5
ATOM      5  C   UNL     1     -44.024  28.508  24.487  1.00  0.00     0.006 C 
BRANCH   5   6
ATOM      6  C   UNL     1     -44.032  27.116  25.143  1.00  0.00    -0.003 C 
ATOM      7  C   UNL     1     -43.010  26.985  26.271  1.00  0.00     0.004 C 
ENDBRANCH   5   6
ENDBRANCH   1   5
TORSDOF 3
ENDMDL
MODEL 4
REMARK VINA RESULT:    -3.363      2.348      3.575
REMARK INTER + INTRA:          -4.059
REMARK INTER:                  -3.963
REMARK INTRA:                  -0.096
REMARK UNBOUND:                -0.106
REMARK SMILES CCCCC(=O)[O-]
REMARK SMILES IDX 4 1 5 2 6 3 7 4 3 5 2 6 1 7
REMARK H PARENT
REMARK Flexibility Score: inf
ROOT
ATOM      1  C   UNL     1     -42.670  29.957  26.184  1.00  0.00     0.053 C 
ENDROOT
BRANCH   1   2
ATOM      2  C   UNL     1     -43.737  30.903  25.724  1.00  0.00     0.041 C 
ATOM      3  O   UNL     1     -43.977  31.038  24.495  1.00  0.00    -0.550 OA
ATOM      4  O   UNL     1     -44.488  31.611  26.654  1.00  0.00    -0.550 OA
ENDBRANCH   1   2
BRANCH   1   5
ATOM      5  C   UNL     1     -43.262  28.657  26.750  1.00  0.00     0.006 C 
BRANCH   5   6
ATOM      6  C   UNL     1     -43.106  27.438  25.823  1.00  0.00    -0.003 C 
ATOM      7  C   UNL     1     -44.275  27.278  24.851  1.00  0.00     0.004 C 
ENDBRANCH   5   6
ENDBRANCH   1   5
TORSDOF 3
ENDMDL
MODEL 5
REMARK VINA RESULT:    -3.147      1.639      2.493
REMARK INTER + INTRA:          -3.805
REMARK INTER:                  -3.708
REMARK INTRA:                  -0.097
REMARK UNBOUND:                -0.106
REMARK SMILES CCCCC(=O)[O-]
REMARK SMILES IDX 4 1 5 2 6 3 7 4 3 5 2 6 1 7
REMARK H PARENT
REMARK Flexibility Score: inf
ROOT
ATOM      1  C   UNL     1     -43.678  29.567  23.752  1.00  0.00     0.053 C 
ENDROOT
BRANCH   1   2
ATOM      2  C   UNL     1     -44.438  28.277  23.682  1.00  0.00     0.041 C 
ATOM      3  O   UNL     1     -44.803  27.699  24.740  1.00  0.00    -0.550 OA
ATOM      4  O   UNL     1     -44.771  27.731  22.450  1.00  0.00    -0.550 OA
ENDBRANCH   1   2
BRANCH   1   5
ATOM      5  C   UNL     1     -44.446  30.644  24.533  1.00  0.00     0.006 C 
BRANCH   5   6
ATOM      6  C   UNL     1     -43.848  30.966  25.915  1.00  0.00    -0.003 C 
ATOM      7  C   UNL     1     -42.569  30.183  26.206  1.00  0.00     0.004 C 
ENDBRANCH   5   6
ENDBRANCH   1   5
TORSDOF 3
ENDMDL
MODEL 6
REMARK VINA RESULT:    -3.140      1.391      2.162
REMARK INTER + INTRA:          -3.797
REMARK INTER:                  -3.726
REMARK INTRA:                  -0.071
REMARK UNBOUND:                -0.106
REMARK SMILES CCCCC(=O)[O-]
REMARK SMILES IDX 4 1 5 2 6 3 7 4 3 5 2 6 1 7
REMARK H PARENT
REMARK Flexibility Score: inf
ROOT
ATOM      1  C   UNL     1     -44.483  28.310  25.527  1.00  0.00     0.053 C 
ENDROOT
BRANCH   1   2
ATOM      2  C   UNL     1     -44.434  27.634  24.191  1.00  0.00     0.041 C 
ATOM      3  O   UNL     1     -44.473  28.317  23.134  1.00  0.00    -0.550 OA
ATOM      4  O   UNL     1     -44.311  26.253  24.114  1.00  0.00    -0.550 OA
ENDBRANCH   1   2
BRANCH   1   5
ATOM      5  C   UNL     1     -43.080  28.652  26.050  1.00  0.00     0.006 C 
BRANCH   5   6
ATOM      6  C   UNL     1     -42.753  30.156  26.042  1.00  0.00    -0.003 C 
ATOM      7  C   UNL     1     -43.845  30.997  25.381  1.00  0.00     0.004 C 
ENDBRANCH   5   6
ENDBRANCH   1   5
TORSDOF 3
ENDMDL
MODEL 7
REMARK VINA RESULT:    -3.040     11.641     12.803
REMARK INTER + INTRA:          -3.679
REMARK INTER:                  -3.620
REMARK INTRA:                  -0.059
REMARK UNBOUND:                -0.106
REMARK SMILES CCCCC(=O)[O-]
REMARK SMILES IDX 4 1 5 2 6 3 7 4 3 5 2 6 1 7
REMARK H PARENT
REMARK Flexibility Score: inf
ROOT
ATOM      1  C   UNL     1     -33.607  25.452  30.699  1.00  0.00     0.053 C 
ENDROOT
BRANCH   1   2
ATOM      2  C   UNL     1     -34.292  24.964  31.939  1.00  0.00     0.041 C 
ATOM      3  O   UNL     1     -35.373  24.325  31.856  1.00  0.00    -0.550 OA
ATOM      4  O   UNL     1     -33.718  25.188  33.184  1.00  0.00    -0.550 OA
ENDBRANCH   1   2
BRANCH   1   5
ATOM      5  C   UNL     1     -32.092  25.199  30.743  1.00  0.00     0.006 C 
BRANCH   5   6
ATOM      6  C   UNL     1     -31.573  24.282  29.621  1.00  0.00    -0.003 C 
ATOM      7  C   UNL     1     -31.954  22.816  29.828  1.00  0.00     0.004 C 
ENDBRANCH   5   6
ENDBRANCH   1   5
TORSDOF 3
ENDMDL
MODEL 8
REMARK VINA RESULT:    -2.973     11.943     13.179
REMARK INTER + INTRA:          -3.600
REMARK INTER:                  -3.528
REMARK INTRA:                  -0.072
REMARK UNBOUND:                -0.106
REMARK SMILES CCCCC(=O)[O-]
REMARK SMILES IDX 4 1 5 2 6 3 7 4 3 5 2 6 1 7
REMARK H PARENT
REMARK Flexibility Score: inf
ROOT
ATOM      1  C   UNL     1     -32.012  25.075  30.886  1.00  0.00     0.053 C 
ENDROOT
BRANCH   1   2
ATOM      2  C   UNL     1     -33.502  25.047  31.041  1.00  0.00     0.041 C 
ATOM      3  O   UNL     1     -34.228  25.782  30.321  1.00  0.00    -0.550 OA
ATOM      4  O   UNL     1     -34.091  24.187  31.959  1.00  0.00    -0.550 OA
ENDBRANCH   1   2
BRANCH   1   5
ATOM      5  C   UNL     1     -31.557  24.381  29.593  1.00  0.00     0.006 C 
BRANCH   5   6
ATOM      6  C   UNL     1     -31.867  22.873  29.544  1.00  0.00    -0.003 C 
ATOM      7  C   UNL     1     -30.966  22.113  28.572  1.00  0.00     0.004 C 
ENDBRANCH   5   6
ENDBRANCH   1   5
TORSDOF 3
ENDMDL
MODEL 9
REMARK VINA RESULT:    -2.905      2.086      2.793
REMARK INTER + INTRA:          -3.520
REMARK INTER:                  -3.471
REMARK INTRA:                  -0.048
REMARK UNBOUND:                -0.106
REMARK SMILES CCCCC(=O)[O-]
REMARK SMILES IDX 4 1 5 2 6 3 7 4 3 5 2 6 1 7
REMARK H PARENT
REMARK Flexibility Score: inf
ROOT
ATOM      1  C   UNL     1     -44.215  26.826  24.850  1.00  0.00     0.053 C 
ENDROOT
BRANCH   1   2
ATOM      2  C   UNL     1     -44.386  26.591  23.379  1.00  0.00     0.041 C 
ATOM      3  O   UNL     1     -44.225  25.439  22.899  1.00  0.00    -0.550 OA
ATOM      4  O   UNL     1     -44.755  27.639  22.546  1.00  0.00    -0.550 OA
ENDBRANCH   1   2
BRANCH   1   5
ATOM      5  C   UNL     1     -44.358  28.311  25.214  1.00  0.00     0.006 C 
BRANCH   5   6
ATOM      6  C   UNL     1     -43.018  29.039  25.427  1.00  0.00    -0.003 C 
ATOM      7  C   UNL     1     -43.194  30.483  25.894  1.00  0.00     0.004 C 
ENDBRANCH   5   6
ENDBRANCH   1   5
TORSDOF 3
ENDMDL
