MODEL 1
REMARK VINA RESULT:    -1.434      0.000      0.000
REMARK INTER + INTRA:          -1.721
REMARK INTER:                  -1.686
REMARK INTRA:                  -0.035
REMARK UNBOUND:                -0.035
REMARK SMILES O=C([O-])CCC(=O)[O-]
REMARK SMILES IDX 4 1 2 2 1 3 3 4 5 5 6 6 7 7 8 8
REMARK H PARENT
REMARK Flexibility Score: inf
ROOT
ATOM      1  C   UNL     1      23.165   1.253 -27.535  1.00  0.00     0.059 C 
ENDROOT
BRANCH   1   2
ATOM      2  C   UNL     1      22.642   2.627 -27.824  1.00  0.00     0.042 C 
ATOM      3  O   UNL     1      21.405   2.855 -27.788  1.00  0.00    -0.550 OA
ATOM      4  O   UNL     1      23.525   3.665 -28.093  1.00  0.00    -0.550 OA
ENDBRANCH   1   2
BRANCH   1   5
ATOM      5  C   UNL     1      24.194   1.268 -26.400  1.00  0.00     0.059 C 
BRANCH   5   6
ATOM      6  C   UNL     1      23.895   0.220 -25.371  1.00  0.00     0.042 C 
ATOM      7  O   UNL     1      23.445  -0.903 -25.721  1.00  0.00    -0.550 OA
ATOM      8  O   UNL     1      24.076   0.499 -24.023  1.00  0.00    -0.550 OA
ENDBRANCH   5   6
ENDBRANCH   1   5
TORSDOF 3
ENDMDL
MODEL 2
REMARK VINA RESULT:    -1.429     16.959     17.969
REMARK INTER + INTRA:          -1.715
REMARK INTER:                  -1.605
REMARK INTRA:                  -0.110
REMARK UNBOUND:                -0.035
REMARK SMILES O=C([O-])CCC(=O)[O-]
REMARK SMILES IDX 4 1 2 2 1 3 3 4 5 5 6 6 7 7 8 8
REMARK H PARENT
REMARK Flexibility Score: inf
ROOT
ATOM      1  C   UNL     1      39.507  -3.010 -24.289  1.00  0.00     0.059 C 
ENDROOT
BRANCH   1   2
ATOM      2  C   UNL     1      39.904  -1.597 -24.592  1.00  0.00     0.042 C 
ATOM      3  O   UNL     1      41.120  -1.288 -24.688  1.00  0.00    -0.550 OA
ATOM      4  O   UNL     1      38.929  -0.632 -24.808  1.00  0.00    -0.550 OA
ENDBRANCH   1   2
BRANCH   1   5
ATOM      5  C   UNL     1      40.722  -3.875 -23.937  1.00  0.00     0.059 C 
BRANCH   5   6
ATOM      6  C   UNL     1      40.930  -4.968 -24.939  1.00  0.00     0.042 C 
ATOM      7  O   UNL     1      40.904  -4.713 -26.172  1.00  0.00    -0.550 OA
ATOM      8  O   UNL     1      41.111  -6.277 -24.512  1.00  0.00    -0.550 OA
ENDBRANCH   5   6
ENDBRANCH   1   5
TORSDOF 3
ENDMDL
MODEL 3
REMARK VINA RESULT:    -1.411     19.468     20.257
REMARK INTER + INTRA:          -1.694
REMARK INTER:                  -1.524
REMARK INTRA:                  -0.171
REMARK UNBOUND:                -0.035
REMARK SMILES O=C([O-])CCC(=O)[O-]
REMARK SMILES IDX 4 1 2 2 1 3 3 4 5 5 6 6 7 7 8 8
REMARK H PARENT
REMARK Flexibility Score: inf
ROOT
ATOM      1  C   UNL     1      34.187  -8.159 -40.002  1.00  0.00     0.059 C 
ENDROOT
BRANCH   1   2
ATOM      2  C   UNL     1      33.707  -9.508 -40.444  1.00  0.00     0.042 C 
ATOM      3  O   UNL     1      32.755 -10.071 -39.842  1.00  0.00    -0.550 OA
ATOM      4  O   UNL     1      34.284 -10.125 -41.546  1.00  0.00    -0.550 OA
ENDBRANCH   1   2
BRANCH   1   5
ATOM      5  C   UNL     1      34.134  -7.139 -41.144  1.00  0.00     0.059 C 
BRANCH   5   6
ATOM      6  C   UNL     1      32.723  -6.808 -41.522  1.00  0.00     0.042 C 
ATOM      7  O   UNL     1      32.387  -6.751 -42.734  1.00  0.00    -0.550 OA
ATOM      8  O   UNL     1      31.788  -6.522 -40.535  1.00  0.00    -0.550 OA
ENDBRANCH   5   6
ENDBRANCH   1   5
TORSDOF 3
ENDMDL
MODEL 4
REMARK VINA RESULT:    -1.405     20.017     20.869
REMARK INTER + INTRA:          -1.687
REMARK INTER:                  -1.614
REMARK INTRA:                  -0.073
REMARK UNBOUND:                -0.035
REMARK SMILES O=C([O-])CCC(=O)[O-]
REMARK SMILES IDX 4 1 2 2 1 3 3 4 5 5 6 6 7 7 8 8
REMARK H PARENT
REMARK Flexibility Score: inf
ROOT
ATOM      1  C   UNL     1      34.101  -9.537 -40.952  1.00  0.00     0.059 C 
ENDROOT
BRANCH   1   2
ATOM      2  C   UNL     1      35.189  -9.833 -39.966  1.00  0.00     0.042 C 
ATOM      3  O   UNL     1      36.346 -10.125 -40.367  1.00  0.00    -0.550 OA
ATOM      4  O   UNL     1      34.935  -9.745 -38.603  1.00  0.00    -0.550 OA
ENDBRANCH   1   2
BRANCH   1   5
ATOM      5  C   UNL     1      33.265  -8.326 -40.525  1.00  0.00     0.059 C 
BRANCH   5   6
ATOM      6  C   UNL     1      33.467  -7.164 -41.449  1.00  0.00     0.042 C 
ATOM      7  O   UNL     1      34.518  -6.473 -41.380  1.00  0.00    -0.550 OA
ATOM      8  O   UNL     1      32.476  -6.820 -42.359  1.00  0.00    -0.550 OA
ENDBRANCH   5   6
ENDBRANCH   1   5
TORSDOF 3
ENDMDL
MODEL 5
REMARK VINA RESULT:    -1.402     19.273     19.825
REMARK INTER + INTRA:          -1.683
REMARK INTER:                  -1.502
REMARK INTRA:                  -0.181
REMARK UNBOUND:                -0.035
REMARK SMILES O=C([O-])CCC(=O)[O-]
REMARK SMILES IDX 4 1 2 2 1 3 3 4 5 5 6 6 7 7 8 8
REMARK H PARENT
REMARK Flexibility Score: inf
ROOT
ATOM      1  C   UNL     1      34.089  -9.507 -41.046  1.00  0.00     0.059 C 
ENDROOT
BRANCH   1   2
ATOM      2  C   UNL     1      33.971  -8.014 -41.083  1.00  0.00     0.042 C 
ATOM      3  O   UNL     1      32.862  -7.472 -41.328  1.00  0.00    -0.550 OA
ATOM      4  O   UNL     1      35.078  -7.222 -40.806  1.00  0.00    -0.550 OA
ENDBRANCH   1   2
BRANCH   1   5
ATOM      5  C   UNL     1      33.128 -10.125 -40.024  1.00  0.00     0.059 C 
BRANCH   5   6
ATOM      6  C   UNL     1      33.459  -9.696 -38.628  1.00  0.00     0.042 C 
ATOM      7  O   UNL     1      34.580  -9.976 -38.126  1.00  0.00    -0.550 OA
ATOM      8  O   UNL     1      32.514  -9.020 -37.866  1.00  0.00    -0.550 OA
ENDBRANCH   5   6
ENDBRANCH   1   5
TORSDOF 3
ENDMDL
MODEL 6
REMARK VINA RESULT:    -1.380     16.930     17.605
REMARK INTER + INTRA:          -1.657
REMARK INTER:                  -1.615
REMARK INTRA:                  -0.042
REMARK UNBOUND:                -0.035
REMARK SMILES O=C([O-])CCC(=O)[O-]
REMARK SMILES IDX 4 1 2 2 1 3 3 4 5 5 6 6 7 7 8 8
REMARK H PARENT
REMARK Flexibility Score: inf
ROOT
ATOM      1  C   UNL     1      41.014  -1.983 -24.647  1.00  0.00     0.059 C 
ENDROOT
BRANCH   1   2
ATOM      2  C   UNL     1      40.407  -0.613 -24.625  1.00  0.00     0.042 C 
ATOM      3  O   UNL     1      40.947   0.330 -25.260  1.00  0.00    -0.550 OA
ATOM      4  O   UNL     1      39.222  -0.389 -23.935  1.00  0.00    -0.550 OA
ENDBRANCH   1   2
BRANCH   1   5
ATOM      5  C   UNL     1      40.083  -3.002 -25.312  1.00  0.00     0.059 C 
BRANCH   5   6
ATOM      6  C   UNL     1      40.047  -4.293 -24.553  1.00  0.00     0.042 C 
ATOM      7  O   UNL     1      41.119  -4.863 -24.217  1.00  0.00    -0.550 OA
ATOM      8  O   UNL     1      38.829  -4.887 -24.250  1.00  0.00    -0.550 OA
ENDBRANCH   5   6
ENDBRANCH   1   5
TORSDOF 3
ENDMDL
MODEL 7
REMARK VINA RESULT:    -1.360      0.951      3.826
REMARK INTER + INTRA:          -1.634
REMARK INTER:                  -1.501
REMARK INTRA:                  -0.134
REMARK UNBOUND:                -0.035
REMARK SMILES O=C([O-])CCC(=O)[O-]
REMARK SMILES IDX 4 1 2 2 1 3 3 4 5 5 6 6 7 7 8 8
REMARK H PARENT
REMARK Flexibility Score: inf
ROOT
ATOM      1  C   UNL     1      24.251  -0.147 -26.819  1.00  0.00     0.059 C 
ENDROOT
BRANCH   1   2
ATOM      2  C   UNL     1      23.816  -0.335 -25.398  1.00  0.00     0.042 C 
ATOM      3  O   UNL     1      23.182  -1.369 -25.061  1.00  0.00    -0.550 OA
ATOM      4  O   UNL     1      24.146   0.613 -24.438  1.00  0.00    -0.550 OA
ENDBRANCH   1   2
BRANCH   1   5
ATOM      5  C   UNL     1      23.141   0.478 -27.671  1.00  0.00     0.059 C 
BRANCH   5   6
ATOM      6  C   UNL     1      23.127   1.971 -27.551  1.00  0.00     0.042 C 
ATOM      7  O   UNL     1      22.038   2.602 -27.594  1.00  0.00    -0.550 OA
ATOM      8  O   UNL     1      24.322   2.669 -27.431  1.00  0.00    -0.550 OA
ENDBRANCH   5   6
ENDBRANCH   1   5
TORSDOF 3
ENDMDL
MODEL 8
REMARK VINA RESULT:    -1.360     16.460     17.722
REMARK INTER + INTRA:          -1.634
REMARK INTER:                  -1.552
REMARK INTRA:                  -0.081
REMARK UNBOUND:                -0.035
REMARK SMILES O=C([O-])CCC(=O)[O-]
REMARK SMILES IDX 4 1 2 2 1 3 3 4 5 5 6 6 7 7 8 8
REMARK H PARENT
REMARK Flexibility Score: inf
ROOT
ATOM      1  C   UNL     1      40.003  -4.566 -24.981  1.00  0.00     0.059 C 
ENDROOT
BRANCH   1   2
ATOM      2  C   UNL     1      38.608  -4.768 -24.475  1.00  0.00     0.042 C 
ATOM      3  O   UNL     1      37.883  -3.776 -24.201  1.00  0.00    -0.550 OA
ATOM      4  O   UNL     1      38.094  -6.052 -24.344  1.00  0.00    -0.550 OA
ENDBRANCH   1   2
BRANCH   1   5
ATOM      5  C   UNL     1      40.726  -3.452 -24.216  1.00  0.00     0.059 C 
BRANCH   5   6
ATOM      6  C   UNL     1      41.014  -2.275 -25.097  1.00  0.00     0.042 C 
ATOM      7  O   UNL     1      41.125  -1.123 -24.601  1.00  0.00    -0.550 OA
ATOM      8  O   UNL     1      41.121  -2.446 -26.471  1.00  0.00    -0.550 OA
ENDBRANCH   5   6
ENDBRANCH   1   5
TORSDOF 3
ENDMDL
MODEL 9
REMARK VINA RESULT:     0.033     16.909     18.192
REMARK INTER + INTRA:           0.003
REMARK INTER:                   0.117
REMARK INTRA:                  -0.114
REMARK UNBOUND:                -0.035
REMARK SMILES O=C([O-])CCC(=O)[O-]
REMARK SMILES IDX 4 1 2 2 1 3 3 4 5 5 6 6 7 7 8 8
REMARK H PARENT
REMARK Flexibility Score: inf
ROOT
ATOM      1  C   UNL     1      40.669  -3.832 -24.016  1.00  0.00     0.059 C 
ENDROOT
BRANCH   1   2
ATOM      2  C   UNL     1      40.738  -4.947 -25.015  1.00  0.00     0.042 C 
ATOM      3  O   UNL     1      41.125  -4.721 -26.191  1.00  0.00    -0.550 OA
ATOM      4  O   UNL     1      40.414  -6.243 -24.634  1.00  0.00    -0.550 OA
ENDBRANCH   1   2
BRANCH   1   5
ATOM      5  C   UNL     1      41.106  -2.498 -24.629  1.00  0.00     0.059 C 
BRANCH   5   6
ATOM      6  C   UNL     1      39.950  -1.557 -24.782  1.00  0.00     0.042 C 
ATOM      7  O   UNL     1      39.991  -0.410 -24.264  1.00  0.00    -0.550 OA
ATOM      8  O   UNL     1      38.811  -1.963 -25.465  1.00  0.00    -0.550 OA
ENDBRANCH   5   6
ENDBRANCH   1   5
TORSDOF 3
ENDMDL
