MODEL 1
REMARK VINA RESULT:    -5.603      0.000      0.000
REMARK INTER + INTRA:          -5.603
REMARK INTER:                  -5.603
REMARK INTRA:                   0.000
REMARK UNBOUND:                 0.000
REMARK SMILES CC1=CC(=O)[C@H]2C[C@@H]1C2(C)C
REMARK SMILES IDX 1 1 2 2 3 3 4 4 5 5 6 6 7 7 8 8 9 9 10 10 11 11
REMARK H PARENT
REMARK Flexibility Score: inf
ROOT
ATOM      1  C   UNL     1      24.897  50.759  19.572  1.00  0.00     0.040 C 
ATOM      2  C   UNL     1      24.699  52.241  19.594  1.00  0.00    -0.066 C 
ATOM      3  C   UNL     1      23.593  52.835  19.062  1.00  0.00     0.047 C 
ATOM      4  C   UNL     1      23.535  54.331  19.156  1.00  0.00     0.159 C 
ATOM      5  O   UNL     1      22.588  54.998  18.666  1.00  0.00    -0.295 OA
ATOM      6  C   UNL     1      24.706  54.986  19.890  1.00  0.00     0.067 C 
ATOM      7  C   UNL     1      24.889  54.122  21.157  1.00  0.00     0.021 C 
ATOM      8  C   UNL     1      25.726  53.166  20.278  1.00  0.00     0.022 C 
ATOM      9  C   UNL     1      26.032  54.378  19.350  1.00  0.00    -0.019 C 
ATOM     10  C   UNL     1      27.277  55.176  19.811  1.00  0.00     0.012 C 
ATOM     11  C   UNL     1      26.157  54.120  17.821  1.00  0.00     0.012 C 
ENDROOT
TORSDOF 0
ENDMDL
MODEL 2
REMARK VINA RESULT:    -5.537      9.935     11.667
REMARK INTER + INTRA:          -5.537
REMARK INTER:                  -5.537
REMARK INTRA:                   0.000
REMARK UNBOUND:                 0.000
REMARK SMILES CC1=CC(=O)[C@H]2C[C@@H]1C2(C)C
REMARK SMILES IDX 1 1 2 2 3 3 4 4 5 5 6 6 7 7 8 8 9 9 10 10 11 11
REMARK H PARENT
REMARK Flexibility Score: inf
ROOT
ATOM      1  C   UNL     1      24.863  56.405   8.122  1.00  0.00     0.040 C 
ATOM      2  C   UNL     1      24.619  54.929   8.119  1.00  0.00    -0.066 C 
ATOM      3  C   UNL     1      23.504  54.375   8.675  1.00  0.00     0.047 C 
ATOM      4  C   UNL     1      23.398  52.881   8.598  1.00  0.00     0.159 C 
ATOM      5  O   UNL     1      22.439  52.248   9.110  1.00  0.00    -0.295 OA
ATOM      6  C   UNL     1      24.536  52.182   7.853  1.00  0.00     0.067 C 
ATOM      7  C   UNL     1      24.725  53.027   6.574  1.00  0.00     0.021 C 
ATOM      8  C   UNL     1      25.605  53.966   7.429  1.00  0.00     0.022 C 
ATOM      9  C   UNL     1      25.889  52.755   8.365  1.00  0.00    -0.019 C 
ATOM     10  C   UNL     1      27.102  51.914   7.892  1.00  0.00     0.012 C 
ATOM     11  C   UNL     1      26.047  53.025   9.888  1.00  0.00     0.012 C 
ENDROOT
TORSDOF 0
ENDMDL
MODEL 3
REMARK VINA RESULT:    -5.302      8.612      9.909
REMARK INTER + INTRA:          -5.302
REMARK INTER:                  -5.302
REMARK INTRA:                   0.000
REMARK UNBOUND:                 0.000
REMARK SMILES CC1=CC(=O)[C@H]2C[C@@H]1C2(C)C
REMARK SMILES IDX 1 1 2 2 3 3 4 4 5 5 6 6 7 7 8 8 9 9 10 10 11 11
REMARK H PARENT
REMARK Flexibility Score: inf
ROOT
ATOM      1  C   UNL     1      26.750  56.469  10.198  1.00  0.00     0.040 C 
ATOM      2  C   UNL     1      28.063  56.560  10.906  1.00  0.00    -0.066 C 
ATOM      3  C   UNL     1      28.567  55.526  11.640  1.00  0.00     0.047 C 
ATOM      4  C   UNL     1      29.894  55.764  12.295  1.00  0.00     0.159 C 
ATOM      5  O   UNL     1      30.443  54.905  13.032  1.00  0.00    -0.295 OA
ATOM      6  C   UNL     1      30.533  57.123  12.005  1.00  0.00     0.067 C 
ATOM      7  C   UNL     1      30.362  57.302  10.481  1.00  0.00     0.021 C 
ATOM      8  C   UNL     1      28.940  57.822  10.790  1.00  0.00     0.022 C 
ATOM      9  C   UNL     1      29.456  58.228  12.201  1.00  0.00    -0.019 C 
ATOM     10  C   UNL     1      30.069  59.651  12.219  1.00  0.00     0.012 C 
ATOM     11  C   UNL     1      28.480  58.102  13.405  1.00  0.00     0.012 C 
ENDROOT
TORSDOF 0
ENDMDL
MODEL 4
REMARK VINA RESULT:    -5.176      9.950     11.489
REMARK INTER + INTRA:          -5.176
REMARK INTER:                  -5.176
REMARK INTRA:                   0.000
REMARK UNBOUND:                 0.000
REMARK SMILES CC1=CC(=O)[C@H]2C[C@@H]1C2(C)C
REMARK SMILES IDX 1 1 2 2 3 3 4 4 5 5 6 6 7 7 8 8 9 9 10 10 11 11
REMARK H PARENT
REMARK Flexibility Score: inf
ROOT
ATOM      1  C   UNL     1      25.627  54.521   5.656  1.00  0.00     0.040 C 
ATOM      2  C   UNL     1      25.414  54.407   7.132  1.00  0.00    -0.066 C 
ATOM      3  C   UNL     1      26.028  53.449   7.883  1.00  0.00     0.047 C 
ATOM      4  C   UNL     1      25.717  53.458   9.350  1.00  0.00     0.159 C 
ATOM      5  O   UNL     1      26.186  52.600  10.141  1.00  0.00    -0.295 OA
ATOM      6  C   UNL     1      24.791  54.582   9.816  1.00  0.00     0.067 C 
ATOM      7  C   UNL     1      25.348  55.843   9.119  1.00  0.00     0.021 C 
ATOM      8  C   UNL     1      24.524  55.417   7.883  1.00  0.00     0.022 C 
ATOM      9  C   UNL     1      23.573  54.653   8.849  1.00  0.00    -0.019 C 
ATOM     10  C   UNL     1      22.438  55.555   9.397  1.00  0.00     0.012 C 
ATOM     11  C   UNL     1      22.942  53.319   8.357  1.00  0.00     0.012 C 
ENDROOT
TORSDOF 0
ENDMDL
MODEL 5
REMARK VINA RESULT:    -5.135      9.702     11.311
REMARK INTER + INTRA:          -5.135
REMARK INTER:                  -5.135
REMARK INTRA:                   0.000
REMARK UNBOUND:                 0.000
REMARK SMILES CC1=CC(=O)[C@H]2C[C@@H]1C2(C)C
REMARK SMILES IDX 1 1 2 2 3 3 4 4 5 5 6 6 7 7 8 8 9 9 10 10 11 11
REMARK H PARENT
REMARK Flexibility Score: inf
ROOT
ATOM      1  C   UNL     1      25.386  54.507   5.733  1.00  0.00     0.040 C 
ATOM      2  C   UNL     1      25.041  53.949   7.077  1.00  0.00    -0.066 C 
ATOM      3  C   UNL     1      24.263  52.838   7.225  1.00  0.00     0.047 C 
ATOM      4  C   UNL     1      24.000  52.398   8.634  1.00  0.00     0.159 C 
ATOM      5  O   UNL     1      23.264  51.415   8.904  1.00  0.00    -0.295 OA
ATOM      6  C   UNL     1      24.689  53.228   9.719  1.00  0.00     0.067 C 
ATOM      7  C   UNL     1      26.134  53.399   9.203  1.00  0.00     0.021 C 
ATOM      8  C   UNL     1      25.602  54.584   8.365  1.00  0.00     0.022 C 
ATOM      9  C   UNL     1      24.458  54.735   9.410  1.00  0.00    -0.019 C 
ATOM     10  C   UNL     1      24.859  55.648  10.596  1.00  0.00     0.012 C 
ATOM     11  C   UNL     1      23.056  55.180   8.905  1.00  0.00     0.012 C 
ENDROOT
TORSDOF 0
ENDMDL
MODEL 6
REMARK VINA RESULT:    -5.092      1.119      2.337
REMARK INTER + INTRA:          -5.092
REMARK INTER:                  -5.092
REMARK INTRA:                   0.000
REMARK UNBOUND:                 0.000
REMARK SMILES CC1=CC(=O)[C@H]2C[C@@H]1C2(C)C
REMARK SMILES IDX 1 1 2 2 3 3 4 4 5 5 6 6 7 7 8 8 9 9 10 10 11 11
REMARK H PARENT
REMARK Flexibility Score: inf
ROOT
ATOM      1  C   UNL     1      26.665  52.726  16.820  1.00  0.00     0.040 C 
ATOM      2  C   UNL     1      25.702  53.192  17.865  1.00  0.00    -0.066 C 
ATOM      3  C   UNL     1      24.924  54.299  17.695  1.00  0.00     0.047 C 
ATOM      4  C   UNL     1      24.008  54.645  18.831  1.00  0.00     0.159 C 
ATOM      5  O   UNL     1      23.272  55.664  18.814  1.00  0.00    -0.295 OA
ATOM      6  C   UNL     1      24.031  53.671  20.010  1.00  0.00     0.067 C 
ATOM      7  C   UNL     1      23.977  52.277  19.349  1.00  0.00     0.021 C 
ATOM      8  C   UNL     1      25.508  52.398  19.172  1.00  0.00     0.022 C 
ATOM      9  C   UNL     1      25.514  53.378  20.381  1.00  0.00    -0.019 C 
ATOM     10  C   UNL     1      25.647  52.642  21.738  1.00  0.00     0.012 C 
ATOM     11  C   UNL     1      26.526  54.559  20.365  1.00  0.00     0.012 C 
ENDROOT
TORSDOF 0
ENDMDL
MODEL 7
REMARK VINA RESULT:    -5.036      9.534     11.167
REMARK INTER + INTRA:          -5.036
REMARK INTER:                  -5.036
REMARK INTRA:                   0.000
REMARK UNBOUND:                 0.000
REMARK SMILES CC1=CC(=O)[C@H]2C[C@@H]1C2(C)C
REMARK SMILES IDX 1 1 2 2 3 3 4 4 5 5 6 6 7 7 8 8 9 9 10 10 11 11
REMARK H PARENT
REMARK Flexibility Score: inf
ROOT
ATOM      1  C   UNL     1      26.358  54.630  11.033  1.00  0.00     0.040 C 
ATOM      2  C   UNL     1      25.479  54.036   9.979  1.00  0.00    -0.066 C 
ATOM      3  C   UNL     1      24.740  52.910  10.197  1.00  0.00     0.047 C 
ATOM      4  C   UNL     1      23.908  52.432   9.046  1.00  0.00     0.159 C 
ATOM      5  O   UNL     1      23.216  51.383   9.107  1.00  0.00    -0.295 OA
ATOM      6  C   UNL     1      23.958  53.307   7.793  1.00  0.00     0.067 C 
ATOM      7  C   UNL     1      23.806  54.746   8.332  1.00  0.00     0.021 C 
ATOM      8  C   UNL     1      25.327  54.713   8.602  1.00  0.00     0.022 C 
ATOM      9  C   UNL     1      25.446  53.640   7.481  1.00  0.00    -0.019 C 
ATOM     10  C   UNL     1      25.626  54.271   6.077  1.00  0.00     0.012 C 
ATOM     11  C   UNL     1      26.505  52.514   7.650  1.00  0.00     0.012 C 
ENDROOT
TORSDOF 0
ENDMDL
MODEL 8
REMARK VINA RESULT:    -5.024      1.261      2.507
REMARK INTER + INTRA:          -5.024
REMARK INTER:                  -5.024
REMARK INTRA:                   0.000
REMARK UNBOUND:                 0.000
REMARK SMILES CC1=CC(=O)[C@H]2C[C@@H]1C2(C)C
REMARK SMILES IDX 1 1 2 2 3 3 4 4 5 5 6 6 7 7 8 8 9 9 10 10 11 11
REMARK H PARENT
REMARK Flexibility Score: inf
ROOT
ATOM      1  C   UNL     1      25.625  52.733  21.876  1.00  0.00     0.040 C 
ATOM      2  C   UNL     1      25.232  53.346  20.570  1.00  0.00    -0.066 C 
ATOM      3  C   UNL     1      24.229  54.266  20.472  1.00  0.00     0.047 C 
ATOM      4  C   UNL     1      23.946  54.791  19.096  1.00  0.00     0.159 C 
ATOM      5  O   UNL     1      23.019  55.611  18.868  1.00  0.00    -0.295 OA
ATOM      6  C   UNL     1      24.862  54.263  17.992  1.00  0.00     0.067 C 
ATOM      7  C   UNL     1      26.279  54.361  18.598  1.00  0.00     0.021 C 
ATOM      8  C   UNL     1      25.990  53.001  19.273  1.00  0.00     0.022 C 
ATOM      9  C   UNL     1      24.968  52.717  18.134  1.00  0.00    -0.019 C 
ATOM     10  C   UNL     1      25.630  52.056  16.899  1.00  0.00     0.012 C 
ATOM     11  C   UNL     1      23.681  51.918  18.485  1.00  0.00     0.012 C 
ENDROOT
TORSDOF 0
ENDMDL
MODEL 9
REMARK VINA RESULT:    -5.003      5.655      6.915
REMARK INTER + INTRA:          -5.003
REMARK INTER:                  -5.003
REMARK INTRA:                   0.000
REMARK UNBOUND:                 0.000
REMARK SMILES CC1=CC(=O)[C@H]2C[C@@H]1C2(C)C
REMARK SMILES IDX 1 1 2 2 3 3 4 4 5 5 6 6 7 7 8 8 9 9 10 10 11 11
REMARK H PARENT
REMARK Flexibility Score: inf
ROOT
ATOM      1  C   UNL     1      26.442  50.640  17.620  1.00  0.00     0.040 C 
ATOM      2  C   UNL     1      27.685  50.639  16.788  1.00  0.00    -0.066 C 
ATOM      3  C   UNL     1      27.908  51.567  15.812  1.00  0.00     0.047 C 
ATOM      4  C   UNL     1      29.198  51.439  15.060  1.00  0.00     0.159 C 
ATOM      5  O   UNL     1      29.500  52.206  14.110  1.00  0.00    -0.295 OA
ATOM      6  C   UNL     1      30.120  50.312  15.528  1.00  0.00     0.067 C 
ATOM      7  C   UNL     1      30.113  50.434  17.067  1.00  0.00     0.021 C 
ATOM      8  C   UNL     1      28.806  49.611  17.040  1.00  0.00     0.022 C 
ATOM      9  C   UNL     1      29.277  49.014  15.682  1.00  0.00    -0.019 C 
ATOM     10  C   UNL     1      30.162  47.755  15.865  1.00  0.00     0.012 C 
ATOM     11  C   UNL     1      28.200  48.700  14.604  1.00  0.00     0.012 C 
ENDROOT
TORSDOF 0
ENDMDL
