MODEL 1
REMARK VINA RESULT:    -3.718      0.000      0.000
REMARK INTER + INTRA:          -7.846
REMARK INTER:                  -6.544
REMARK INTRA:                  -1.302
REMARK UNBOUND:                -1.302
REMARK SMILES CCCCCCC=CCCCCCCCC(=O)[O-]
REMARK SMILES IDX 10 1 11 2 12 3 13 4 14 5 15 6 16 7 17 8 18 9 9 10 8 11 7 12
REMARK SMILES IDX 6 13 5 14 4 15 3 16 2 17 1 18
REMARK H PARENT
REMARK Flexibility Score: inf
ROOT
ATOM      1  C   UNL     1      -1.310   5.767  -1.999  1.00  0.00     0.004 C 
ENDROOT
BRANCH   1   2
ATOM      2  C   UNL     1      -1.354   6.240  -0.538  1.00  0.00     0.000 C 
BRANCH   2   3
ATOM      3  C   UNL     1      -2.672   6.950  -0.180  1.00  0.00     0.000 C 
BRANCH   3   4
ATOM      4  C   UNL     1      -3.812   6.018   0.279  1.00  0.00     0.000 C 
BRANCH   4   5
ATOM      5  C   UNL     1      -4.873   5.702  -0.795  1.00  0.00     0.006 C 
BRANCH   5   6
ATOM      6  C   UNL     1      -6.071   6.663  -0.803  1.00  0.00     0.053 C 
BRANCH   6   7
ATOM      7  C   UNL     1      -7.224   6.126  -0.011  1.00  0.00     0.041 C 
ATOM      8  O   UNL     1      -8.360   6.661  -0.102  1.00  0.00    -0.550 OA
ATOM      9  O   UNL     1      -7.034   5.057   0.855  1.00  0.00    -0.550 OA
ENDBRANCH   6   7
ENDBRANCH   5   6
ENDBRANCH   4   5
ENDBRANCH   3   4
ENDBRANCH   2   3
ENDBRANCH   1   2
BRANCH   1  10
ATOM     10  C   UNL     1      -1.014   6.937  -2.945  1.00  0.00     0.027 C 
BRANCH  10  11
ATOM     11  C   UNL     1      -2.033   7.017  -4.048  1.00  0.00    -0.031 C 
ATOM     12  C   UNL     1      -3.333   6.778  -3.821  1.00  0.00    -0.031 C 
BRANCH  12  13
ATOM     13  C   UNL     1      -4.354   6.860  -4.924  1.00  0.00     0.027 C 
BRANCH  13  14
ATOM     14  C   UNL     1      -5.481   5.838  -4.712  1.00  0.00     0.004 C 
BRANCH  14  15
ATOM     15  C   UNL     1      -5.498   4.734  -5.784  1.00  0.00     0.000 C 
BRANCH  15  16
ATOM     16  C   UNL     1      -6.264   5.088  -7.072  1.00  0.00    -0.000 C 
BRANCH  16  17
ATOM     17  C   UNL     1      -5.932   4.151  -8.242  1.00  0.00    -0.003 C 
ATOM     18  C   UNL     1      -4.528   4.416  -8.777  1.00  0.00     0.004 C 
ENDBRANCH  16  17
ENDBRANCH  15  16
ENDBRANCH  14  15
ENDBRANCH  13  14
ENDBRANCH  12  13
ENDBRANCH  10  11
ENDBRANCH   1  10
TORSDOF 13
ENDMDL
MODEL 2
REMARK VINA RESULT:    -3.665     13.743     15.650
REMARK INTER + INTRA:          -7.752
REMARK INTER:                  -6.122
REMARK INTRA:                  -1.630
REMARK UNBOUND:                -1.302
REMARK SMILES CCCCCCC=CCCCCCCCC(=O)[O-]
REMARK SMILES IDX 10 1 11 2 12 3 13 4 14 5 15 6 16 7 17 8 18 9 9 10 8 11 7 12
REMARK SMILES IDX 6 13 5 14 4 15 3 16 2 17 1 18
REMARK H PARENT
REMARK Flexibility Score: inf
ROOT
ATOM      1  C   UNL     1       5.996   2.487   5.951  1.00  0.00     0.004 C 
ENDROOT
BRANCH   1   2
ATOM      2  C   UNL     1       6.521   3.486   6.994  1.00  0.00     0.000 C 
BRANCH   2   3
ATOM      3  C   UNL     1       6.022   3.181   8.417  1.00  0.00     0.000 C 
BRANCH   3   4
ATOM      4  C   UNL     1       4.722   3.906   8.822  1.00  0.00     0.000 C 
BRANCH   4   5
ATOM      5  C   UNL     1       3.571   2.984   9.276  1.00  0.00     0.006 C 
BRANCH   5   6
ATOM      6  C   UNL     1       3.405   1.713   8.428  1.00  0.00     0.053 C 
BRANCH   6   7
ATOM      7  C   UNL     1       1.967   1.431   8.120  1.00  0.00     0.041 C 
ATOM      8  O   UNL     1       1.092   1.539   9.020  1.00  0.00    -0.550 OA
ATOM      9  O   UNL     1       1.597   1.015   6.847  1.00  0.00    -0.550 OA
ENDBRANCH   6   7
ENDBRANCH   5   6
ENDBRANCH   4   5
ENDBRANCH   3   4
ENDBRANCH   2   3
ENDBRANCH   1   2
BRANCH   1  10
ATOM     10  C   UNL     1       6.633   2.741   4.579  1.00  0.00     0.027 C 
BRANCH  10  11
ATOM     11  C   UNL     1       7.460   1.566   4.138  1.00  0.00    -0.031 C 
ATOM     12  C   UNL     1       8.763   1.468   4.444  1.00  0.00    -0.031 C 
BRANCH  12  13
ATOM     13  C   UNL     1       9.590   0.291   4.005  1.00  0.00     0.027 C 
BRANCH  13  14
ATOM     14  C   UNL     1       8.875  -1.034   4.311  1.00  0.00     0.004 C 
BRANCH  14  15
ATOM     15  C   UNL     1       9.278  -1.631   5.671  1.00  0.00     0.000 C 
BRANCH  15  16
ATOM     16  C   UNL     1       8.147  -1.695   6.715  1.00  0.00    -0.000 C 
BRANCH  16  17
ATOM     17  C   UNL     1       8.103  -0.459   7.626  1.00  0.00    -0.003 C 
ATOM     18  C   UNL     1       6.779  -0.379   8.379  1.00  0.00     0.004 C 
ENDBRANCH  16  17
ENDBRANCH  15  16
ENDBRANCH  14  15
ENDBRANCH  13  14
ENDBRANCH  12  13
ENDBRANCH  10  11
ENDBRANCH   1  10
TORSDOF 13
ENDMDL
MODEL 3
REMARK VINA RESULT:    -3.618     12.858     14.917
REMARK INTER + INTRA:          -7.669
REMARK INTER:                  -6.765
REMARK INTRA:                  -0.904
REMARK UNBOUND:                -1.302
REMARK SMILES CCCCCCC=CCCCCCCCC(=O)[O-]
REMARK SMILES IDX 10 1 11 2 12 3 13 4 14 5 15 6 16 7 17 8 18 9 9 10 8 11 7 12
REMARK SMILES IDX 6 13 5 14 4 15 3 16 2 17 1 18
REMARK H PARENT
REMARK Flexibility Score: inf
ROOT
ATOM      1  C   UNL     1      -8.285  -5.671  -4.501  1.00  0.00     0.004 C 
ENDROOT
BRANCH   1   2
ATOM      2  C   UNL     1      -7.828  -4.489  -3.634  1.00  0.00     0.000 C 
BRANCH   2   3
ATOM      3  C   UNL     1      -8.564  -3.181  -3.971  1.00  0.00     0.000 C 
BRANCH   3   4
ATOM      4  C   UNL     1      -7.797  -2.222  -4.905  1.00  0.00     0.000 C 
BRANCH   4   5
ATOM      5  C   UNL     1      -8.499  -1.910  -6.243  1.00  0.00     0.006 C 
BRANCH   5   6
ATOM      6  C   UNL     1      -8.692  -3.130  -7.157  1.00  0.00     0.053 C 
BRANCH   6   7
ATOM      7  C   UNL     1      -7.812  -3.066  -8.368  1.00  0.00     0.041 C 
ATOM      8  O   UNL     1      -6.990  -3.990  -8.603  1.00  0.00    -0.550 OA
ATOM      9  O   UNL     1      -7.875  -1.968  -9.216  1.00  0.00    -0.550 OA
ENDBRANCH   6   7
ENDBRANCH   5   6
ENDBRANCH   4   5
ENDBRANCH   3   4
ENDBRANCH   2   3
ENDBRANCH   1   2
BRANCH   1  10
ATOM     10  C   UNL     1      -9.769  -5.980  -4.269  1.00  0.00     0.027 C 
BRANCH  10  11
ATOM     11  C   UNL     1     -10.071  -7.429  -4.530  1.00  0.00    -0.031 C 
ATOM     12  C   UNL     1      -9.181  -8.393  -4.253  1.00  0.00    -0.031 C 
BRANCH  12  13
ATOM     13  C   UNL     1      -9.484  -9.844  -4.512  1.00  0.00     0.027 C 
BRANCH  13  14
ATOM     14  C   UNL     1      -9.983 -10.542  -3.237  1.00  0.00     0.004 C 
BRANCH  14  15
ATOM     15  C   UNL     1      -9.142 -11.775  -2.860  1.00  0.00     0.000 C 
BRANCH  15  16
ATOM     16  C   UNL     1      -9.146 -12.133  -1.363  1.00  0.00    -0.000 C 
BRANCH  16  17
ATOM     17  C   UNL     1      -8.761 -10.949  -0.464  1.00  0.00    -0.003 C 
ATOM     18  C   UNL     1      -9.811 -10.716   0.618  1.00  0.00     0.004 C 
ENDBRANCH  16  17
ENDBRANCH  15  16
ENDBRANCH  14  15
ENDBRANCH  13  14
ENDBRANCH  12  13
ENDBRANCH  10  11
ENDBRANCH   1  10
TORSDOF 13
ENDMDL
MODEL 4
REMARK VINA RESULT:    -3.599     13.194     16.442
REMARK INTER + INTRA:          -7.636
REMARK INTER:                  -5.820
REMARK INTRA:                  -1.816
REMARK UNBOUND:                -1.302
REMARK SMILES CCCCCCC=CCCCCCCCC(=O)[O-]
REMARK SMILES IDX 10 1 11 2 12 3 13 4 14 5 15 6 16 7 17 8 18 9 9 10 8 11 7 12
REMARK SMILES IDX 6 13 5 14 4 15 3 16 2 17 1 18
REMARK H PARENT
REMARK Flexibility Score: inf
ROOT
ATOM      1  C   UNL     1       4.622   1.913   7.843  1.00  0.00     0.004 C 
ENDROOT
BRANCH   1   2
ATOM      2  C   UNL     1       5.183   3.289   8.231  1.00  0.00     0.000 C 
BRANCH   2   3
ATOM      3  C   UNL     1       6.337   3.743   7.321  1.00  0.00     0.000 C 
BRANCH   3   4
ATOM      4  C   UNL     1       7.249   2.609   6.808  1.00  0.00     0.000 C 
BRANCH   4   5
ATOM      5  C   UNL     1       7.714   2.753   5.344  1.00  0.00     0.006 C 
BRANCH   5   6
ATOM      6  C   UNL     1       6.967   1.850   4.350  1.00  0.00     0.053 C 
BRANCH   6   7
ATOM      7  C   UNL     1       5.837   2.571   3.681  1.00  0.00     0.041 C 
ATOM      8  O   UNL     1       5.904   3.813   3.486  1.00  0.00    -0.550 OA
ATOM      9  O   UNL     1       4.696   1.876   3.303  1.00  0.00    -0.550 OA
ENDBRANCH   6   7
ENDBRANCH   5   6
ENDBRANCH   4   5
ENDBRANCH   3   4
ENDBRANCH   2   3
ENDBRANCH   1   2
BRANCH   1  10
ATOM     10  C   UNL     1       4.014   1.205   9.061  1.00  0.00     0.027 C 
BRANCH  10  11
ATOM     11  C   UNL     1       4.960   0.181   9.623  1.00  0.00    -0.031 C 
ATOM     12  C   UNL     1       6.038  -0.232   8.939  1.00  0.00    -0.031 C 
BRANCH  12  13
ATOM     13  C   UNL     1       6.986  -1.255   9.502  1.00  0.00     0.027 C 
BRANCH  13  14
ATOM     14  C   UNL     1       7.920  -1.804   8.413  1.00  0.00     0.004 C 
BRANCH  14  15
ATOM     15  C   UNL     1       7.833  -1.013   7.095  1.00  0.00     0.000 C 
BRANCH  15  16
ATOM     16  C   UNL     1       9.189  -0.642   6.467  1.00  0.00    -0.000 C 
BRANCH  16  17
ATOM     17  C   UNL     1       9.609  -1.599   5.342  1.00  0.00    -0.003 C 
ATOM     18  C   UNL     1       9.080  -1.126   3.992  1.00  0.00     0.004 C 
ENDBRANCH  16  17
ENDBRANCH  15  16
ENDBRANCH  14  15
ENDBRANCH  13  14
ENDBRANCH  12  13
ENDBRANCH  10  11
ENDBRANCH   1  10
TORSDOF 13
ENDMDL
MODEL 5
REMARK VINA RESULT:    -3.580      4.602      8.468
REMARK INTER + INTRA:          -7.602
REMARK INTER:                  -6.685
REMARK INTRA:                  -0.917
REMARK UNBOUND:                -1.302
REMARK SMILES CCCCCCC=CCCCCCCCC(=O)[O-]
REMARK SMILES IDX 10 1 11 2 12 3 13 4 14 5 15 6 16 7 17 8 18 9 9 10 8 11 7 12
REMARK SMILES IDX 6 13 5 14 4 15 3 16 2 17 1 18
REMARK H PARENT
REMARK Flexibility Score: inf
ROOT
ATOM      1  C   UNL     1      -5.114   4.097  -7.149  1.00  0.00     0.004 C 
ENDROOT
BRANCH   1   2
ATOM      2  C   UNL     1      -5.169   4.473  -8.637  1.00  0.00     0.000 C 
BRANCH   2   3
ATOM      3  C   UNL     1      -4.098   5.504  -9.033  1.00  0.00     0.000 C 
BRANCH   3   4
ATOM      4  C   UNL     1      -2.999   4.975  -9.978  1.00  0.00     0.000 C 
BRANCH   4   5
ATOM      5  C   UNL     1      -2.192   3.776  -9.438  1.00  0.00     0.006 C 
BRANCH   5   6
ATOM      6  C   UNL     1      -0.742   3.711  -9.941  1.00  0.00     0.053 C 
BRANCH   6   7
ATOM      7  C   UNL     1       0.117   2.856  -9.060  1.00  0.00     0.041 C 
ATOM      8  O   UNL     1       0.397   3.231  -7.891  1.00  0.00    -0.550 OA
ATOM      9  O   UNL     1       0.636   1.662  -9.542  1.00  0.00    -0.550 OA
ENDBRANCH   6   7
ENDBRANCH   5   6
ENDBRANCH   4   5
ENDBRANCH   3   4
ENDBRANCH   2   3
ENDBRANCH   1   2
BRANCH   1  10
ATOM     10  C   UNL     1      -6.376   4.571  -6.417  1.00  0.00     0.027 C 
BRANCH  10  11
ATOM     11  C   UNL     1      -6.028   5.409  -5.219  1.00  0.00    -0.031 C 
ATOM     12  C   UNL     1      -4.857   6.058  -5.131  1.00  0.00    -0.031 C 
BRANCH  12  13
ATOM     13  C   UNL     1      -4.509   6.899  -3.933  1.00  0.00     0.027 C 
BRANCH  13  14
ATOM     14  C   UNL     1      -5.081   6.290  -2.644  1.00  0.00     0.004 C 
BRANCH  14  15
ATOM     15  C   UNL     1      -4.002   5.645  -1.755  1.00  0.00     0.000 C 
BRANCH  15  16
ATOM     16  C   UNL     1      -2.550   5.966  -2.157  1.00  0.00    -0.000 C 
BRANCH  16  17
ATOM     17  C   UNL     1      -1.522   5.467  -1.131  1.00  0.00    -0.003 C 
ATOM     18  C   UNL     1      -2.164   5.269   0.239  1.00  0.00     0.004 C 
ENDBRANCH  16  17
ENDBRANCH  15  16
ENDBRANCH  14  15
ENDBRANCH  13  14
ENDBRANCH  12  13
ENDBRANCH  10  11
ENDBRANCH   1  10
TORSDOF 13
ENDMDL
MODEL 6
REMARK VINA RESULT:    -3.570      3.092      4.831
REMARK INTER + INTRA:          -7.584
REMARK INTER:                  -6.434
REMARK INTRA:                  -1.150
REMARK UNBOUND:                -1.302
REMARK SMILES CCCCCCC=CCCCCCCCC(=O)[O-]
REMARK SMILES IDX 10 1 11 2 12 3 13 4 14 5 15 6 16 7 17 8 18 9 9 10 8 11 7 12
REMARK SMILES IDX 6 13 5 14 4 15 3 16 2 17 1 18
REMARK H PARENT
REMARK Flexibility Score: inf
ROOT
ATOM      1  C   UNL     1      -6.274   6.371  -3.490  1.00  0.00     0.004 C 
ENDROOT
BRANCH   1   2
ATOM      2  C   UNL     1      -6.083   6.982  -2.094  1.00  0.00     0.000 C 
BRANCH   2   3
ATOM      3  C   UNL     1      -5.486   5.987  -1.083  1.00  0.00     0.000 C 
BRANCH   3   4
ATOM      4  C   UNL     1      -4.035   6.286  -0.651  1.00  0.00     0.000 C 
BRANCH   4   5
ATOM      5  C   UNL     1      -2.979   5.285  -1.165  1.00  0.00     0.006 C 
BRANCH   5   6
ATOM      6  C   UNL     1      -1.613   5.395  -0.472  1.00  0.00     0.053 C 
BRANCH   6   7
ATOM      7  C   UNL     1      -0.686   6.316  -1.205  1.00  0.00     0.041 C 
ATOM      8  O   UNL     1      -0.923   6.634  -2.400  1.00  0.00    -0.550 OA
ATOM      9  O   UNL     1       0.457   6.795  -0.579  1.00  0.00    -0.550 OA
ENDBRANCH   6   7
ENDBRANCH   5   6
ENDBRANCH   4   5
ENDBRANCH   3   4
ENDBRANCH   2   3
ENDBRANCH   1   2
BRANCH   1  10
ATOM     10  C   UNL     1      -4.926   6.194  -4.200  1.00  0.00     0.027 C 
BRANCH  10  11
ATOM     11  C   UNL     1      -5.116   5.836  -5.648  1.00  0.00    -0.031 C 
ATOM     12  C   UNL     1      -5.615   4.647  -6.018  1.00  0.00    -0.031 C 
BRANCH  12  13
ATOM     13  C   UNL     1      -5.808   4.288  -7.467  1.00  0.00     0.027 C 
BRANCH  13  14
ATOM     14  C   UNL     1      -7.251   3.834  -7.737  1.00  0.00     0.004 C 
BRANCH  14  15
ATOM     15  C   UNL     1      -8.200   5.007  -8.043  1.00  0.00     0.000 C 
BRANCH  15  16
ATOM     16  C   UNL     1      -9.436   5.099  -7.129  1.00  0.00    -0.000 C 
BRANCH  16  17
ATOM     17  C   UNL     1      -9.075   5.362  -5.659  1.00  0.00    -0.003 C 
ATOM     18  C   UNL     1     -10.124   4.771  -4.722  1.00  0.00     0.004 C 
ENDBRANCH  16  17
ENDBRANCH  15  16
ENDBRANCH  14  15
ENDBRANCH  13  14
ENDBRANCH  12  13
ENDBRANCH  10  11
ENDBRANCH   1  10
TORSDOF 13
ENDMDL
MODEL 7
REMARK VINA RESULT:    -3.515     14.459     16.901
REMARK INTER + INTRA:          -7.488
REMARK INTER:                  -6.324
REMARK INTRA:                  -1.164
REMARK UNBOUND:                -1.302
REMARK SMILES CCCCCCC=CCCCCCCCC(=O)[O-]
REMARK SMILES IDX 10 1 11 2 12 3 13 4 14 5 15 6 16 7 17 8 18 9 9 10 8 11 7 12
REMARK SMILES IDX 6 13 5 14 4 15 3 16 2 17 1 18
REMARK H PARENT
REMARK Flexibility Score: inf
ROOT
ATOM      1  C   UNL     1      -6.830  -4.477   9.407  1.00  0.00     0.004 C 
ENDROOT
BRANCH   1   2
ATOM      2  C   UNL     1      -8.345  -4.696   9.278  1.00  0.00     0.000 C 
BRANCH   2   3
ATOM      3  C   UNL     1      -8.997  -3.763   8.243  1.00  0.00     0.000 C 
BRANCH   3   4
ATOM      4  C   UNL     1      -9.836  -2.613   8.838  1.00  0.00     0.000 C 
BRANCH   4   5
ATOM      5  C   UNL     1      -9.327  -1.194   8.512  1.00  0.00     0.006 C 
BRANCH   5   6
ATOM      6  C   UNL     1      -7.945  -0.866   9.096  1.00  0.00     0.053 C 
BRANCH   6   7
ATOM      7  C   UNL     1      -7.507   0.525   8.751  1.00  0.00     0.041 C 
ATOM      8  O   UNL     1      -7.781   1.014   7.623  1.00  0.00    -0.550 OA
ATOM      9  O   UNL     1      -6.768   1.267   9.662  1.00  0.00    -0.550 OA
ENDBRANCH   6   7
ENDBRANCH   5   6
ENDBRANCH   4   5
ENDBRANCH   3   4
ENDBRANCH   2   3
ENDBRANCH   1   2
BRANCH   1  10
ATOM     10  C   UNL     1      -6.119  -5.779   9.796  1.00  0.00     0.027 C 
BRANCH  10  11
ATOM     11  C   UNL     1      -5.487  -6.432   8.599  1.00  0.00    -0.031 C 
ATOM     12  C   UNL     1      -4.532  -7.365   8.729  1.00  0.00    -0.031 C 
BRANCH  12  13
ATOM     13  C   UNL     1      -3.901  -8.021   7.532  1.00  0.00     0.027 C 
BRANCH  13  14
ATOM     14  C   UNL     1      -4.970  -8.583   6.581  1.00  0.00     0.004 C 
BRANCH  14  15
ATOM     15  C   UNL     1      -5.521  -9.945   7.039  1.00  0.00     0.000 C 
BRANCH  15  16
ATOM     16  C   UNL     1      -7.054 -10.081   6.977  1.00  0.00    -0.000 C 
BRANCH  16  17
ATOM     17  C   UNL     1      -7.675 -10.468   8.327  1.00  0.00    -0.003 C 
ATOM     18  C   UNL     1      -7.702  -9.277   9.280  1.00  0.00     0.004 C 
ENDBRANCH  16  17
ENDBRANCH  15  16
ENDBRANCH  14  15
ENDBRANCH  13  14
ENDBRANCH  12  13
ENDBRANCH  10  11
ENDBRANCH   1  10
TORSDOF 13
ENDMDL
MODEL 8
REMARK VINA RESULT:    -3.487     13.975     16.139
REMARK INTER + INTRA:          -7.438
REMARK INTER:                  -5.290
REMARK INTRA:                  -2.148
REMARK UNBOUND:                -1.302
REMARK SMILES CCCCCCC=CCCCCCCCC(=O)[O-]
REMARK SMILES IDX 10 1 11 2 12 3 13 4 14 5 15 6 16 7 17 8 18 9 9 10 8 11 7 12
REMARK SMILES IDX 6 13 5 14 4 15 3 16 2 17 1 18
REMARK H PARENT
REMARK Flexibility Score: inf
ROOT
ATOM      1  C   UNL     1       4.985   1.721   7.905  1.00  0.00     0.004 C 
ENDROOT
BRANCH   1   2
ATOM      2  C   UNL     1       5.654   0.648   8.777  1.00  0.00     0.000 C 
BRANCH   2   3
ATOM      3  C   UNL     1       7.063   0.273   8.286  1.00  0.00     0.000 C 
BRANCH   3   4
ATOM      4  C   UNL     1       7.846   1.417   7.610  1.00  0.00     0.000 C 
BRANCH   4   5
ATOM      5  C   UNL     1       8.800   0.980   6.479  1.00  0.00     0.006 C 
BRANCH   5   6
ATOM      6  C   UNL     1       8.427  -0.355   5.816  1.00  0.00     0.053 C 
BRANCH   6   7
ATOM      7  C   UNL     1       8.733  -0.355   4.349  1.00  0.00     0.041 C 
ATOM      8  O   UNL     1       8.709  -1.432   3.697  1.00  0.00    -0.550 OA
ATOM      9  O   UNL     1       9.080   0.829   3.712  1.00  0.00    -0.550 OA
ENDBRANCH   6   7
ENDBRANCH   5   6
ENDBRANCH   4   5
ENDBRANCH   3   4
ENDBRANCH   2   3
ENDBRANCH   1   2
BRANCH   1  10
ATOM     10  C   UNL     1       4.663   2.974   8.728  1.00  0.00     0.027 C 
BRANCH  10  11
ATOM     11  C   UNL     1       5.181   4.215   8.055  1.00  0.00    -0.031 C 
ATOM     12  C   UNL     1       6.421   4.672   8.283  1.00  0.00    -0.031 C 
BRANCH  12  13
ATOM     13  C   UNL     1       6.941   5.912   7.608  1.00  0.00     0.027 C 
BRANCH  13  14
ATOM     14  C   UNL     1       7.887   5.558   6.450  1.00  0.00     0.004 C 
BRANCH  14  15
ATOM     15  C   UNL     1       7.303   5.911   5.070  1.00  0.00     0.000 C 
BRANCH  15  16
ATOM     16  C   UNL     1       6.345   4.860   4.480  1.00  0.00    -0.000 C 
BRANCH  16  17
ATOM     17  C   UNL     1       6.858   3.423   4.647  1.00  0.00    -0.003 C 
ATOM     18  C   UNL     1       5.907   2.422   3.997  1.00  0.00     0.004 C 
ENDBRANCH  16  17
ENDBRANCH  15  16
ENDBRANCH  14  15
ENDBRANCH  13  14
ENDBRANCH  12  13
ENDBRANCH  10  11
ENDBRANCH   1  10
TORSDOF 13
ENDMDL
MODEL 9
REMARK VINA RESULT:    -3.471     17.682     19.794
REMARK INTER + INTRA:          -7.411
REMARK INTER:                  -6.281
REMARK INTRA:                  -1.130
REMARK UNBOUND:                -1.302
REMARK SMILES CCCCCCC=CCCCCCCCC(=O)[O-]
REMARK SMILES IDX 10 1 11 2 12 3 13 4 14 5 15 6 16 7 17 8 18 9 9 10 8 11 7 12
REMARK SMILES IDX 6 13 5 14 4 15 3 16 2 17 1 18
REMARK H PARENT
REMARK Flexibility Score: inf
ROOT
ATOM      1  C   UNL     1      -3.372  -8.518   7.497  1.00  0.00     0.004 C 
ENDROOT
BRANCH   1   2
ATOM      2  C   UNL     1      -4.522  -7.502   7.574  1.00  0.00     0.000 C 
BRANCH   2   3
ATOM      3  C   UNL     1      -5.210  -7.483   8.950  1.00  0.00     0.000 C 
BRANCH   3   4
ATOM      4  C   UNL     1      -6.576  -8.198   9.007  1.00  0.00     0.000 C 
BRANCH   4   5
ATOM      5  C   UNL     1      -6.536  -9.711   8.711  1.00  0.00     0.006 C 
BRANCH   5   6
ATOM      6  C   UNL     1      -7.055 -10.098   7.318  1.00  0.00     0.053 C 
BRANCH   6   7
ATOM      7  C   UNL     1      -6.009 -10.801   6.508  1.00  0.00     0.041 C 
ATOM      8  O   UNL     1      -5.860 -10.524   5.288  1.00  0.00    -0.550 OA
ATOM      9  O   UNL     1      -5.223 -11.785   7.092  1.00  0.00    -0.550 OA
ENDBRANCH   6   7
ENDBRANCH   5   6
ENDBRANCH   4   5
ENDBRANCH   3   4
ENDBRANCH   2   3
ENDBRANCH   1   2
BRANCH   1  10
ATOM     10  C   UNL     1      -2.859  -8.873   8.898  1.00  0.00     0.027 C 
BRANCH  10  11
ATOM     11  C   UNL     1      -1.432  -9.344   8.851  1.00  0.00    -0.031 C 
ATOM     12  C   UNL     1      -0.431  -8.604   9.352  1.00  0.00    -0.031 C 
BRANCH  12  13
ATOM     13  C   UNL     1       0.996  -9.076   9.308  1.00  0.00     0.027 C 
BRANCH  13  14
ATOM     14  C   UNL     1       1.178 -10.198   8.274  1.00  0.00     0.004 C 
BRANCH  14  15
ATOM     15  C   UNL     1       2.112  -9.801   7.117  1.00  0.00     0.000 C 
BRANCH  15  16
ATOM     16  C   UNL     1       3.439 -10.580   7.054  1.00  0.00    -0.000 C 
BRANCH  16  17
ATOM     17  C   UNL     1       4.619  -9.800   7.652  1.00  0.00    -0.003 C 
ATOM     18  C   UNL     1       4.480  -8.305   7.385  1.00  0.00     0.004 C 
ENDBRANCH  16  17
ENDBRANCH  15  16
ENDBRANCH  14  15
ENDBRANCH  13  14
ENDBRANCH  12  13
ENDBRANCH  10  11
ENDBRANCH   1  10
TORSDOF 13
ENDMDL
