MODEL 1
REMARK VINA RESULT:    -4.011      0.000      0.000
REMARK INTER + INTRA:         -10.563
REMARK INTER:                  -7.763
REMARK INTRA:                  -2.800
REMARK UNBOUND:                -2.800
REMARK SMILES CCCCCCCCCCCCCCCCCC(=O)[O-]
REMARK SMILES IDX 10 1 11 2 12 3 13 4 14 5 15 6 16 7 17 8 18 9 19 10 20 11
REMARK SMILES IDX 9 12 8 13 7 14 6 15 5 16 4 17 3 18 2 19 1 20
REMARK H PARENT
REMARK Flexibility Score: inf
ROOT
ATOM      1  C   UNL     1     174.708 174.765 182.533  1.00  0.00     0.000 C 
ENDROOT
BRANCH   1   2
ATOM      2  C   UNL     1     173.435 175.533 182.141  1.00  0.00     0.000 C 
BRANCH   2   3
ATOM      3  C   UNL     1     173.464 177.002 182.600  1.00  0.00     0.000 C 
BRANCH   3   4
ATOM      4  C   UNL     1     172.222 177.786 182.148  1.00  0.00     0.000 C 
BRANCH   4   5
ATOM      5  C   UNL     1     170.966 177.425 182.956  1.00  0.00     0.000 C 
BRANCH   5   6
ATOM      6  C   UNL     1     169.938 176.701 182.079  1.00  0.00     0.000 C 
BRANCH   6   7
ATOM      7  C   UNL     1     169.625 175.304 182.634  1.00  0.00     0.006 C 
BRANCH   7   8
ATOM      8  C   UNL     1     170.208 175.092 184.037  1.00  0.00     0.053 C 
BRANCH   8   9
ATOM      9  C   UNL     1     170.666 173.679 184.241  1.00  0.00     0.041 C 
ATOM     10  O   UNL     1     171.883 173.429 184.442  1.00  0.00    -0.550 OA
ATOM     11  O   UNL     1     169.751 172.636 184.174  1.00  0.00    -0.550 OA
ENDBRANCH   8   9
ENDBRANCH   7   8
ENDBRANCH   6   7
ENDBRANCH   5   6
ENDBRANCH   4   5
ENDBRANCH   3   4
ENDBRANCH   2   3
ENDBRANCH   1   2
BRANCH   1  12
ATOM     12  C   UNL     1     175.730 175.650 183.267  1.00  0.00     0.000 C 
BRANCH  12  13
ATOM     13  C   UNL     1     176.978 175.940 182.416  1.00  0.00    -0.000 C 
BRANCH  13  14
ATOM     14  C   UNL     1     177.069 177.415 181.983  1.00  0.00    -0.000 C 
BRANCH  14  15
ATOM     15  C   UNL     1     176.830 177.602 180.476  1.00  0.00    -0.000 C 
BRANCH  15  16
ATOM     16  C   UNL     1     176.706 176.265 179.724  1.00  0.00    -0.000 C 
BRANCH  16  17
ATOM     17  C   UNL     1     175.510 176.240 178.760  1.00  0.00    -0.000 C 
BRANCH  17  18
ATOM     18  C   UNL     1     174.492 177.356 179.054  1.00  0.00    -0.000 C 
BRANCH  18  19
ATOM     19  C   UNL     1     173.159 177.145 178.320  1.00  0.00    -0.003 C 
ATOM     20  C   UNL     1     172.457 175.852 178.731  1.00  0.00     0.004 C 
ENDBRANCH  18  19
ENDBRANCH  17  18
ENDBRANCH  16  17
ENDBRANCH  15  16
ENDBRANCH  14  15
ENDBRANCH  13  14
ENDBRANCH  12  13
ENDBRANCH   1  12
TORSDOF 16
ENDMDL
MODEL 2
REMARK VINA RESULT:    -3.998      1.290      3.097
REMARK INTER + INTRA:         -10.538
REMARK INTER:                  -7.525
REMARK INTRA:                  -3.014
REMARK UNBOUND:                -2.800
REMARK SMILES CCCCCCCCCCCCCCCCCC(=O)[O-]
REMARK SMILES IDX 10 1 11 2 12 3 13 4 14 5 15 6 16 7 17 8 18 9 19 10 20 11
REMARK SMILES IDX 9 12 8 13 7 14 6 15 5 16 4 17 3 18 2 19 1 20
REMARK H PARENT
REMARK Flexibility Score: inf
ROOT
ATOM      1  C   UNL     1     174.433 175.833 179.331  1.00  0.00     0.000 C 
ENDROOT
BRANCH   1   2
ATOM      2  C   UNL     1     173.789 177.012 180.079  1.00  0.00     0.000 C 
BRANCH   2   3
ATOM      3  C   UNL     1     172.731 176.559 181.101  1.00  0.00     0.000 C 
BRANCH   3   4
ATOM      4  C   UNL     1     172.828 177.324 182.430  1.00  0.00     0.000 C 
BRANCH   4   5
ATOM      5  C   UNL     1     171.466 177.843 182.917  1.00  0.00     0.000 C 
BRANCH   5   6
ATOM      6  C   UNL     1     170.355 176.830 182.618  1.00  0.00     0.000 C 
BRANCH   6   7
ATOM      7  C   UNL     1     170.216 175.811 183.758  1.00  0.00     0.006 C 
BRANCH   7   8
ATOM      8  C   UNL     1     170.071 174.374 183.240  1.00  0.00     0.053 C 
BRANCH   8   9
ATOM      9  C   UNL     1     171.386 173.654 183.226  1.00  0.00     0.041 C 
ATOM     10  O   UNL     1     171.842 173.187 182.151  1.00  0.00    -0.550 OA
ATOM     11  O   UNL     1     172.090 173.471 184.410  1.00  0.00    -0.550 OA
ENDBRANCH   8   9
ENDBRANCH   7   8
ENDBRANCH   6   7
ENDBRANCH   5   6
ENDBRANCH   4   5
ENDBRANCH   3   4
ENDBRANCH   2   3
ENDBRANCH   1   2
BRANCH   1  12
ATOM     12  C   UNL     1     175.942 176.031 179.103  1.00  0.00     0.000 C 
BRANCH  12  13
ATOM     13  C   UNL     1     176.488 177.278 179.818  1.00  0.00    -0.000 C 
BRANCH  13  14
ATOM     14  C   UNL     1     177.347 176.927 181.047  1.00  0.00    -0.000 C 
BRANCH  14  15
ATOM     15  C   UNL     1     176.853 177.621 182.326  1.00  0.00    -0.000 C 
BRANCH  15  16
ATOM     16  C   UNL     1     176.207 176.641 183.322  1.00  0.00    -0.000 C 
BRANCH  16  17
ATOM     17  C   UNL     1     176.480 175.172 182.963  1.00  0.00    -0.000 C 
BRANCH  17  18
ATOM     18  C   UNL     1     175.186 174.369 182.742  1.00  0.00    -0.000 C 
BRANCH  18  19
ATOM     19  C   UNL     1     175.393 173.164 181.811  1.00  0.00    -0.003 C 
ATOM     20  C   UNL     1     176.818 173.077 181.267  1.00  0.00     0.004 C 
ENDBRANCH  18  19
ENDBRANCH  17  18
ENDBRANCH  16  17
ENDBRANCH  15  16
ENDBRANCH  14  15
ENDBRANCH  13  14
ENDBRANCH  12  13
ENDBRANCH   1  12
TORSDOF 16
ENDMDL
MODEL 3
REMARK VINA RESULT:    -3.972      1.340      2.014
REMARK INTER + INTRA:         -10.488
REMARK INTER:                  -7.586
REMARK INTRA:                  -2.902
REMARK UNBOUND:                -2.800
REMARK SMILES CCCCCCCCCCCCCCCCCC(=O)[O-]
REMARK SMILES IDX 10 1 11 2 12 3 13 4 14 5 15 6 16 7 17 8 18 9 19 10 20 11
REMARK SMILES IDX 9 12 8 13 7 14 6 15 5 16 4 17 3 18 2 19 1 20
REMARK H PARENT
REMARK Flexibility Score: inf
ROOT
ATOM      1  C   UNL     1     173.754 174.474 182.863  1.00  0.00     0.000 C 
ENDROOT
BRANCH   1   2
ATOM      2  C   UNL     1     173.542 174.816 181.378  1.00  0.00     0.000 C 
BRANCH   2   3
ATOM      3  C   UNL     1     172.723 176.103 181.177  1.00  0.00     0.000 C 
BRANCH   3   4
ATOM      4  C   UNL     1     173.132 177.220 182.151  1.00  0.00     0.000 C 
BRANCH   4   5
ATOM      5  C   UNL     1     171.928 177.863 182.856  1.00  0.00     0.000 C 
BRANCH   5   6
ATOM      6  C   UNL     1     170.609 177.339 182.277  1.00  0.00     0.000 C 
BRANCH   6   7
ATOM      7  C   UNL     1     169.749 176.683 183.367  1.00  0.00     0.006 C 
BRANCH   7   8
ATOM      8  C   UNL     1     170.244 175.276 183.730  1.00  0.00     0.053 C 
BRANCH   8   9
ATOM      9  C   UNL     1     169.670 174.234 182.819  1.00  0.00     0.041 C 
ATOM     10  O   UNL     1     168.472 174.312 182.441  1.00  0.00    -0.550 OA
ATOM     11  O   UNL     1     170.450 173.158 182.415  1.00  0.00    -0.550 OA
ENDBRANCH   8   9
ENDBRANCH   7   8
ENDBRANCH   6   7
ENDBRANCH   5   6
ENDBRANCH   4   5
ENDBRANCH   3   4
ENDBRANCH   2   3
ENDBRANCH   1   2
BRANCH   1  12
ATOM     12  C   UNL     1     175.237 174.514 183.272  1.00  0.00     0.000 C 
BRANCH  12  13
ATOM     13  C   UNL     1     176.180 174.179 182.105  1.00  0.00    -0.000 C 
BRANCH  13  14
ATOM     14  C   UNL     1     177.221 175.284 181.849  1.00  0.00    -0.000 C 
BRANCH  14  15
ATOM     15  C   UNL     1     176.733 176.669 182.305  1.00  0.00    -0.000 C 
BRANCH  15  16
ATOM     16  C   UNL     1     177.328 177.813 181.465  1.00  0.00    -0.000 C 
BRANCH  16  17
ATOM     17  C   UNL     1     177.110 177.613 179.957  1.00  0.00    -0.000 C 
BRANCH  17  18
ATOM     18  C   UNL     1     175.632 177.756 179.552  1.00  0.00    -0.000 C 
BRANCH  18  19
ATOM     19  C   UNL     1     175.195 176.690 178.536  1.00  0.00    -0.003 C 
ATOM     20  C   UNL     1     176.204 175.549 178.407  1.00  0.00     0.004 C 
ENDBRANCH  18  19
ENDBRANCH  17  18
ENDBRANCH  16  17
ENDBRANCH  15  16
ENDBRANCH  14  15
ENDBRANCH  13  14
ENDBRANCH  12  13
ENDBRANCH   1  12
TORSDOF 16
ENDMDL
MODEL 4
REMARK VINA RESULT:    -3.965      2.161      3.826
REMARK INTER + INTRA:         -10.473
REMARK INTER:                  -7.458
REMARK INTRA:                  -3.015
REMARK UNBOUND:                -2.800
REMARK SMILES CCCCCCCCCCCCCCCCCC(=O)[O-]
REMARK SMILES IDX 10 1 11 2 12 3 13 4 14 5 15 6 16 7 17 8 18 9 19 10 20 11
REMARK SMILES IDX 9 12 8 13 7 14 6 15 5 16 4 17 3 18 2 19 1 20
REMARK H PARENT
REMARK Flexibility Score: inf
ROOT
ATOM      1  C   UNL     1     175.796 176.332 178.632  1.00  0.00     0.000 C 
ENDROOT
BRANCH   1   2
ATOM      2  C   UNL     1     174.550 177.144 179.023  1.00  0.00     0.000 C 
BRANCH   2   3
ATOM      3  C   UNL     1     173.257 176.312 178.963  1.00  0.00     0.000 C 
BRANCH   3   4
ATOM      4  C   UNL     1     172.501 176.299 180.301  1.00  0.00     0.000 C 
BRANCH   4   5
ATOM      5  C   UNL     1     172.966 177.409 181.256  1.00  0.00     0.000 C 
BRANCH   5   6
ATOM      6  C   UNL     1     172.274 177.286 182.619  1.00  0.00     0.000 C 
BRANCH   6   7
ATOM      7  C   UNL     1     171.182 176.207 182.587  1.00  0.00     0.006 C 
BRANCH   7   8
ATOM      8  C   UNL     1     169.809 176.756 182.998  1.00  0.00     0.053 C 
BRANCH   8   9
ATOM      9  C   UNL     1     168.909 176.943 181.814  1.00  0.00     0.041 C 
ATOM     10  O   UNL     1     169.268 177.670 180.853  1.00  0.00    -0.550 OA
ATOM     11  O   UNL     1     167.659 176.338 181.790  1.00  0.00    -0.550 OA
ENDBRANCH   8   9
ENDBRANCH   7   8
ENDBRANCH   6   7
ENDBRANCH   5   6
ENDBRANCH   4   5
ENDBRANCH   3   4
ENDBRANCH   2   3
ENDBRANCH   1   2
BRANCH   1  12
ATOM     12  C   UNL     1     176.958 176.518 179.623  1.00  0.00     0.000 C 
BRANCH  12  13
ATOM     13  C   UNL     1     176.761 177.735 180.542  1.00  0.00    -0.000 C 
BRANCH  13  14
ATOM     14  C   UNL     1     177.178 177.452 181.997  1.00  0.00    -0.000 C 
BRANCH  14  15
ATOM     15  C   UNL     1     176.010 176.943 182.856  1.00  0.00    -0.000 C 
BRANCH  15  16
ATOM     16  C   UNL     1     176.191 175.479 183.297  1.00  0.00    -0.000 C 
BRANCH  16  17
ATOM     17  C   UNL     1     174.936 174.629 183.046  1.00  0.00    -0.000 C 
BRANCH  17  18
ATOM     18  C   UNL     1     174.898 174.038 181.626  1.00  0.00    -0.000 C 
BRANCH  18  19
ATOM     19  C   UNL     1     176.208 173.331 181.248  1.00  0.00    -0.003 C 
ATOM     20  C   UNL     1     176.123 172.610 179.903  1.00  0.00     0.004 C 
ENDBRANCH  18  19
ENDBRANCH  17  18
ENDBRANCH  16  17
ENDBRANCH  15  16
ENDBRANCH  14  15
ENDBRANCH  13  14
ENDBRANCH  12  13
ENDBRANCH   1  12
TORSDOF 16
ENDMDL
MODEL 5
REMARK VINA RESULT:    -3.945      2.341      5.432
REMARK INTER + INTRA:         -10.435
REMARK INTER:                  -7.452
REMARK INTRA:                  -2.983
REMARK UNBOUND:                -2.800
REMARK SMILES CCCCCCCCCCCCCCCCCC(=O)[O-]
REMARK SMILES IDX 10 1 11 2 12 3 13 4 14 5 15 6 16 7 17 8 18 9 19 10 20 11
REMARK SMILES IDX 9 12 8 13 7 14 6 15 5 16 4 17 3 18 2 19 1 20
REMARK H PARENT
REMARK Flexibility Score: inf
ROOT
ATOM      1  C   UNL     1     176.054 176.514 179.604  1.00  0.00     0.000 C 
ENDROOT
BRANCH   1   2
ATOM      2  C   UNL     1     177.006 176.336 180.799  1.00  0.00     0.000 C 
BRANCH   2   3
ATOM      3  C   UNL     1     176.716 177.327 181.940  1.00  0.00     0.000 C 
BRANCH   3   4
ATOM      4  C   UNL     1     176.340 176.621 183.252  1.00  0.00     0.000 C 
BRANCH   4   5
ATOM      5  C   UNL     1     176.191 175.101 183.087  1.00  0.00     0.000 C 
BRANCH   5   6
ATOM      6  C   UNL     1     174.726 174.674 183.241  1.00  0.00     0.000 C 
BRANCH   6   7
ATOM      7  C   UNL     1     174.328 173.666 182.153  1.00  0.00     0.006 C 
BRANCH   7   8
ATOM      8  C   UNL     1     175.535 172.891 181.608  1.00  0.00     0.053 C 
BRANCH   8   9
ATOM      9  C   UNL     1     175.390 172.593 180.147  1.00  0.00     0.041 C 
ATOM     10  O   UNL     1     174.678 173.330 179.417  1.00  0.00    -0.550 OA
ATOM     11  O   UNL     1     176.015 171.480 179.599  1.00  0.00    -0.550 OA
ENDBRANCH   8   9
ENDBRANCH   7   8
ENDBRANCH   6   7
ENDBRANCH   5   6
ENDBRANCH   4   5
ENDBRANCH   3   4
ENDBRANCH   2   3
ENDBRANCH   1   2
BRANCH   1  12
ATOM     12  C   UNL     1     174.809 177.345 179.960  1.00  0.00     0.000 C 
BRANCH  12  13
ATOM     13  C   UNL     1     173.498 176.636 179.580  1.00  0.00    -0.000 C 
BRANCH  13  14
ATOM     14  C   UNL     1     172.516 176.536 180.762  1.00  0.00    -0.000 C 
BRANCH  14  15
ATOM     15  C   UNL     1     172.938 177.410 181.954  1.00  0.00    -0.000 C 
BRANCH  15  16
ATOM     16  C   UNL     1     171.749 177.810 182.846  1.00  0.00    -0.000 C 
BRANCH  16  17
ATOM     17  C   UNL     1     170.464 177.046 182.492  1.00  0.00    -0.000 C 
BRANCH  17  18
ATOM     18  C   UNL     1     170.040 176.062 183.596  1.00  0.00    -0.000 C 
BRANCH  18  19
ATOM     19  C   UNL     1     170.319 174.599 183.219  1.00  0.00    -0.003 C 
ATOM     20  C   UNL     1     171.011 173.823 184.340  1.00  0.00     0.004 C 
ENDBRANCH  18  19
ENDBRANCH  17  18
ENDBRANCH  16  17
ENDBRANCH  15  16
ENDBRANCH  14  15
ENDBRANCH  13  14
ENDBRANCH  12  13
ENDBRANCH   1  12
TORSDOF 16
ENDMDL
MODEL 6
REMARK VINA RESULT:    -3.911      2.451      5.424
REMARK INTER + INTRA:         -10.369
REMARK INTER:                  -7.528
REMARK INTRA:                  -2.841
REMARK UNBOUND:                -2.800
REMARK SMILES CCCCCCCCCCCCCCCCCC(=O)[O-]
REMARK SMILES IDX 10 1 11 2 12 3 13 4 14 5 15 6 16 7 17 8 18 9 19 10 20 11
REMARK SMILES IDX 9 12 8 13 7 14 6 15 5 16 4 17 3 18 2 19 1 20
REMARK H PARENT
REMARK Flexibility Score: inf
ROOT
ATOM      1  C   UNL     1     176.708 174.111 182.074  1.00  0.00     0.000 C 
ENDROOT
BRANCH   1   2
ATOM      2  C   UNL     1     177.184 175.213 181.112  1.00  0.00     0.000 C 
BRANCH   2   3
ATOM      3  C   UNL     1     177.212 176.603 181.771  1.00  0.00     0.000 C 
BRANCH   3   4
ATOM      4  C   UNL     1     176.891 177.732 180.780  1.00  0.00     0.000 C 
BRANCH   4   5
ATOM      5  C   UNL     1     176.373 177.209 179.431  1.00  0.00     0.000 C 
BRANCH   5   6
ATOM      6  C   UNL     1     174.932 177.667 179.181  1.00  0.00     0.000 C 
BRANCH   6   7
ATOM      7  C   UNL     1     174.111 176.562 178.501  1.00  0.00     0.006 C 
BRANCH   7   8
ATOM      8  C   UNL     1     174.950 175.310 178.210  1.00  0.00     0.053 C 
BRANCH   8   9
ATOM      9  C   UNL     1     174.089 174.122 177.905  1.00  0.00     0.041 C 
ATOM     10  O   UNL     1     173.043 174.257 177.218  1.00  0.00    -0.550 OA
ATOM     11  O   UNL     1     174.425 172.872 178.409  1.00  0.00    -0.550 OA
ENDBRANCH   8   9
ENDBRANCH   7   8
ENDBRANCH   6   7
ENDBRANCH   5   6
ENDBRANCH   4   5
ENDBRANCH   3   4
ENDBRANCH   2   3
ENDBRANCH   1   2
BRANCH   1  12
ATOM     12  C   UNL     1     175.218 173.772 181.892  1.00  0.00     0.000 C 
BRANCH  12  13
ATOM     13  C   UNL     1     174.308 174.591 182.822  1.00  0.00    -0.000 C 
BRANCH  13  14
ATOM     14  C   UNL     1     173.474 175.638 182.062  1.00  0.00    -0.000 C 
BRANCH  14  15
ATOM     15  C   UNL     1     173.654 177.057 182.626  1.00  0.00    -0.000 C 
BRANCH  15  16
ATOM     16  C   UNL     1     172.353 177.878 182.594  1.00  0.00    -0.000 C 
BRANCH  16  17
ATOM     17  C   UNL     1     171.390 177.412 181.491  1.00  0.00    -0.000 C 
BRANCH  17  18
ATOM     18  C   UNL     1     169.954 177.212 182.008  1.00  0.00    -0.000 C 
BRANCH  18  19
ATOM     19  C   UNL     1     169.916 176.707 183.459  1.00  0.00    -0.003 C 
ATOM     20  C   UNL     1     170.084 175.191 183.560  1.00  0.00     0.004 C 
ENDBRANCH  18  19
ENDBRANCH  17  18
ENDBRANCH  16  17
ENDBRANCH  15  16
ENDBRANCH  14  15
ENDBRANCH  13  14
ENDBRANCH  12  13
ENDBRANCH   1  12
TORSDOF 16
ENDMDL
MODEL 7
REMARK VINA RESULT:    -3.873      2.218      3.113
REMARK INTER + INTRA:         -10.296
REMARK INTER:                  -7.767
REMARK INTRA:                  -2.530
REMARK UNBOUND:                -2.800
REMARK SMILES CCCCCCCCCCCCCCCCCC(=O)[O-]
REMARK SMILES IDX 10 1 11 2 12 3 13 4 14 5 15 6 16 7 17 8 18 9 19 10 20 11
REMARK SMILES IDX 9 12 8 13 7 14 6 15 5 16 4 17 3 18 2 19 1 20
REMARK H PARENT
REMARK Flexibility Score: inf
ROOT
ATOM      1  C   UNL     1     174.396 174.369 182.826  1.00  0.00     0.000 C 
ENDROOT
BRANCH   1   2
ATOM      2  C   UNL     1     173.288 174.502 181.768  1.00  0.00     0.000 C 
BRANCH   2   3
ATOM      3  C   UNL     1     171.974 173.827 182.198  1.00  0.00     0.000 C 
BRANCH   3   4
ATOM      4  C   UNL     1     171.795 173.805 183.724  1.00  0.00     0.000 C 
BRANCH   4   5
ATOM      5  C   UNL     1     170.439 174.373 184.171  1.00  0.00     0.000 C 
BRANCH   5   6
ATOM      6  C   UNL     1     169.816 175.238 183.069  1.00  0.00     0.000 C 
BRANCH   6   7
ATOM      7  C   UNL     1     169.972 176.732 183.387  1.00  0.00     0.006 C 
BRANCH   7   8
ATOM      8  C   UNL     1     171.033 177.407 182.507  1.00  0.00     0.053 C 
BRANCH   8   9
ATOM      9  C   UNL     1     170.616 177.449 181.068  1.00  0.00     0.041 C 
ATOM     10  O   UNL     1     169.435 177.756 180.758  1.00  0.00    -0.550 OA
ATOM     11  O   UNL     1     171.525 177.117 180.072  1.00  0.00    -0.550 OA
ENDBRANCH   8   9
ENDBRANCH   7   8
ENDBRANCH   6   7
ENDBRANCH   5   6
ENDBRANCH   4   5
ENDBRANCH   3   4
ENDBRANCH   2   3
ENDBRANCH   1   2
BRANCH   1  12
ATOM     12  C   UNL     1     175.734 173.903 182.226  1.00  0.00     0.000 C 
BRANCH  12  13
ATOM     13  C   UNL     1     176.870 174.912 182.460  1.00  0.00    -0.000 C 
BRANCH  13  14
ATOM     14  C   UNL     1     176.408 176.151 183.248  1.00  0.00    -0.000 C 
BRANCH  14  15
ATOM     15  C   UNL     1     176.603 177.456 182.460  1.00  0.00    -0.000 C 
BRANCH  15  16
ATOM     16  C   UNL     1     177.349 177.241 181.131  1.00  0.00    -0.000 C 
BRANCH  16  17
ATOM     17  C   UNL     1     176.543 177.731 179.918  1.00  0.00    -0.000 C 
BRANCH  17  18
ATOM     18  C   UNL     1     175.085 177.238 179.941  1.00  0.00    -0.000 C 
BRANCH  18  19
ATOM     19  C   UNL     1     174.706 176.463 178.669  1.00  0.00    -0.003 C 
ATOM     20  C   UNL     1     175.240 175.032 178.669  1.00  0.00     0.004 C 
ENDBRANCH  18  19
ENDBRANCH  17  18
ENDBRANCH  16  17
ENDBRANCH  15  16
ENDBRANCH  14  15
ENDBRANCH  13  14
ENDBRANCH  12  13
ENDBRANCH   1  12
TORSDOF 16
ENDMDL
MODEL 8
REMARK VINA RESULT:    -3.850      2.086      2.931
REMARK INTER + INTRA:         -10.251
REMARK INTER:                  -7.271
REMARK INTRA:                  -2.980
REMARK UNBOUND:                -2.800
REMARK SMILES CCCCCCCCCCCCCCCCCC(=O)[O-]
REMARK SMILES IDX 10 1 11 2 12 3 13 4 14 5 15 6 16 7 17 8 18 9 19 10 20 11
REMARK SMILES IDX 9 12 8 13 7 14 6 15 5 16 4 17 3 18 2 19 1 20
REMARK H PARENT
REMARK Flexibility Score: inf
ROOT
ATOM      1  C   UNL     1     173.405 173.643 182.296  1.00  0.00     0.000 C 
ENDROOT
BRANCH   1   2
ATOM      2  C   UNL     1     172.574 174.828 181.776  1.00  0.00     0.000 C 
BRANCH   2   3
ATOM      3  C   UNL     1     172.915 176.148 182.489  1.00  0.00     0.000 C 
BRANCH   3   4
ATOM      4  C   UNL     1     172.709 177.377 181.589  1.00  0.00     0.000 C 
BRANCH   4   5
ATOM      5  C   UNL     1     172.035 177.026 180.253  1.00  0.00     0.000 C 
BRANCH   5   6
ATOM      6  C   UNL     1     170.690 177.749 180.110  1.00  0.00     0.000 C 
BRANCH   6   7
ATOM      7  C   UNL     1     169.547 176.747 179.892  1.00  0.00     0.006 C 
BRANCH   7   8
ATOM      8  C   UNL     1     169.133 176.045 181.192  1.00  0.00     0.053 C 
BRANCH   8   9
ATOM      9  C   UNL     1     168.780 177.029 182.266  1.00  0.00     0.041 C 
ATOM     10  O   UNL     1     167.770 177.769 182.142  1.00  0.00    -0.550 OA
ATOM     11  O   UNL     1     169.588 177.151 183.390  1.00  0.00    -0.550 OA
ENDBRANCH   8   9
ENDBRANCH   7   8
ENDBRANCH   6   7
ENDBRANCH   5   6
ENDBRANCH   4   5
ENDBRANCH   3   4
ENDBRANCH   2   3
ENDBRANCH   1   2
BRANCH   1  12
ATOM     12  C   UNL     1     174.719 174.088 182.961  1.00  0.00     0.000 C 
BRANCH  12  13
ATOM     13  C   UNL     1     175.958 173.706 182.135  1.00  0.00    -0.000 C 
BRANCH  13  14
ATOM     14  C   UNL     1     177.081 174.754 182.233  1.00  0.00    -0.000 C 
BRANCH  14  15
ATOM     15  C   UNL     1     176.595 176.084 182.831  1.00  0.00    -0.000 C 
BRANCH  15  16
ATOM     16  C   UNL     1     176.932 177.293 181.940  1.00  0.00    -0.000 C 
BRANCH  16  17
ATOM     17  C   UNL     1     176.964 176.933 180.446  1.00  0.00    -0.000 C 
BRANCH  17  18
ATOM     18  C   UNL     1     175.870 177.657 179.642  1.00  0.00    -0.000 C 
BRANCH  18  19
ATOM     19  C   UNL     1     175.205 176.745 178.599  1.00  0.00    -0.003 C 
ATOM     20  C   UNL     1     175.232 175.271 179.002  1.00  0.00     0.004 C 
ENDBRANCH  18  19
ENDBRANCH  17  18
ENDBRANCH  16  17
ENDBRANCH  15  16
ENDBRANCH  14  15
ENDBRANCH  13  14
ENDBRANCH  12  13
ENDBRANCH   1  12
TORSDOF 16
ENDMDL
MODEL 9
REMARK VINA RESULT:    -3.805      2.383      5.688
REMARK INTER + INTRA:         -10.165
REMARK INTER:                  -7.474
REMARK INTRA:                  -2.691
REMARK UNBOUND:                -2.800
REMARK SMILES CCCCCCCCCCCCCCCCCC(=O)[O-]
REMARK SMILES IDX 10 1 11 2 12 3 13 4 14 5 15 6 16 7 17 8 18 9 19 10 20 11
REMARK SMILES IDX 9 12 8 13 7 14 6 15 5 16 4 17 3 18 2 19 1 20
REMARK H PARENT
REMARK Flexibility Score: inf
ROOT
ATOM      1  C   UNL     1     175.665 175.961 183.250  1.00  0.00     0.000 C 
ENDROOT
BRANCH   1   2
ATOM      2  C   UNL     1     176.971 176.225 182.482  1.00  0.00     0.000 C 
BRANCH   2   3
ATOM      3  C   UNL     1     177.135 177.702 182.082  1.00  0.00     0.000 C 
BRANCH   3   4
ATOM      4  C   UNL     1     177.375 177.882 180.574  1.00  0.00     0.000 C 
BRANCH   4   5
ATOM      5  C   UNL     1     176.088 177.742 179.747  1.00  0.00     0.000 C 
BRANCH   5   6
ATOM      6  C   UNL     1     176.114 176.462 178.903  1.00  0.00     0.000 C 
BRANCH   6   7
ATOM      7  C   UNL     1     174.777 176.251 178.179  1.00  0.00     0.006 C 
BRANCH   7   8
ATOM      8  C   UNL     1     173.774 177.374 178.471  1.00  0.00     0.053 C 
BRANCH   8   9
ATOM      9  C   UNL     1     172.365 176.947 178.191  1.00  0.00     0.041 C 
ATOM     10  O   UNL     1     171.606 177.677 177.501  1.00  0.00    -0.550 OA
ATOM     11  O   UNL     1     171.881 175.758 178.721  1.00  0.00    -0.550 OA
ENDBRANCH   8   9
ENDBRANCH   7   8
ENDBRANCH   6   7
ENDBRANCH   5   6
ENDBRANCH   4   5
ENDBRANCH   3   4
ENDBRANCH   2   3
ENDBRANCH   1   2
BRANCH   1  12
ATOM     12  C   UNL     1     174.712 175.022 182.491  1.00  0.00     0.000 C 
BRANCH  12  13
ATOM     13  C   UNL     1     173.533 175.771 181.849  1.00  0.00    -0.000 C 
BRANCH  13  14
ATOM     14  C   UNL     1     173.500 177.262 182.232  1.00  0.00    -0.000 C 
BRANCH  14  15
ATOM     15  C   UNL     1     172.113 177.715 182.717  1.00  0.00    -0.000 C 
BRANCH  15  16
ATOM     16  C   UNL     1     171.071 177.750 181.585  1.00  0.00    -0.000 C 
BRANCH  16  17
ATOM     17  C   UNL     1     169.935 176.737 181.800  1.00  0.00    -0.000 C 
BRANCH  17  18
ATOM     18  C   UNL     1     169.915 176.167 183.229  1.00  0.00    -0.000 C 
BRANCH  18  19
ATOM     19  C   UNL     1     169.876 174.632 183.250  1.00  0.00    -0.003 C 
ATOM     20  C   UNL     1     171.078 174.021 183.970  1.00  0.00     0.004 C 
ENDBRANCH  18  19
ENDBRANCH  17  18
ENDBRANCH  16  17
ENDBRANCH  15  16
ENDBRANCH  14  15
ENDBRANCH  13  14
ENDBRANCH  12  13
ENDBRANCH   1  12
TORSDOF 16
ENDMDL
