MODEL 1
REMARK VINA RESULT:    -3.320      0.000      0.000
REMARK INTER + INTRA:          -8.238
REMARK INTER:                  -6.037
REMARK INTRA:                  -2.201
REMARK UNBOUND:                -2.201
REMARK SMILES CCCCCCCCCCCCCC[C@@H](C)C(=O)[O-]
REMARK SMILES IDX 9 1 10 2 11 3 12 4 13 5 14 6 15 7 16 8 17 9 18 10 19 11 8 12
REMARK SMILES IDX 7 13 6 14 5 15 4 16 3 17 2 18 1 19
REMARK H PARENT
REMARK Flexibility Score: inf
ROOT
ATOM      1  C   UNL     1      -3.120   9.013   4.617  1.00  0.00     0.000 C 
ENDROOT
BRANCH   1   2
ATOM      2  C   UNL     1      -1.996  10.058   4.543  1.00  0.00     0.000 C 
BRANCH   2   3
ATOM      3  C   UNL     1      -0.643   9.435   4.908  1.00  0.00     0.000 C 
BRANCH   3   4
ATOM      4  C   UNL     1      -0.498   8.035   4.294  1.00  0.00     0.000 C 
BRANCH   4   5
ATOM      5  C   UNL     1       0.970   7.599   4.136  1.00  0.00     0.001 C 
BRANCH   5   6
ATOM      6  C   UNL     1       2.014   8.715   4.347  1.00  0.00     0.009 C 
BRANCH   6   7
ATOM      7  C   UNL     1       3.165   8.361   5.316  1.00  0.00     0.032 C 
ATOM      8  C   UNL     1       4.521   8.886   4.829  1.00  0.00     0.014 C 
BRANCH   7   9
ATOM      9  C   UNL     1       2.864   8.925   6.678  1.00  0.00     0.044 C 
ATOM     10  O   UNL     1       1.803   8.604   7.276  1.00  0.00    -0.550 OA
ATOM     11  O   UNL     1       3.746   9.815   7.281  1.00  0.00    -0.550 OA
ENDBRANCH   7   9
ENDBRANCH   6   7
ENDBRANCH   5   6
ENDBRANCH   4   5
ENDBRANCH   3   4
ENDBRANCH   2   3
ENDBRANCH   1   2
BRANCH   1  12
ATOM     12  C   UNL     1      -4.442   9.521   4.021  1.00  0.00     0.000 C 
BRANCH  12  13
ATOM     13  C   UNL     1      -5.098   8.500   3.079  1.00  0.00    -0.000 C 
BRANCH  13  14
ATOM     14  C   UNL     1      -4.284   7.202   3.022  1.00  0.00    -0.000 C 
BRANCH  14  15
ATOM     15  C   UNL     1      -3.774   6.933   1.599  1.00  0.00    -0.000 C 
BRANCH  15  16
ATOM     16  C   UNL     1      -2.466   7.677   1.288  1.00  0.00    -0.000 C 
BRANCH  16  17
ATOM     17  C   UNL     1      -2.686   8.915   0.400  1.00  0.00    -0.000 C 
BRANCH  17  18
ATOM     18  C   UNL     1      -1.844  10.118   0.850  1.00  0.00    -0.003 C 
ATOM     19  C   UNL     1      -0.389   9.746   1.137  1.00  0.00     0.004 C 
ENDBRANCH  17  18
ENDBRANCH  16  17
ENDBRANCH  15  16
ENDBRANCH  14  15
ENDBRANCH  13  14
ENDBRANCH  12  13
ENDBRANCH   1  12
TORSDOF 14
ENDMDL
MODEL 2
REMARK VINA RESULT:    -3.229      3.635      6.903
REMARK INTER + INTRA:          -8.072
REMARK INTER:                  -6.382
REMARK INTRA:                  -1.689
REMARK UNBOUND:                -2.201
REMARK SMILES CCCCCCCCCCCCCC[C@@H](C)C(=O)[O-]
REMARK SMILES IDX 9 1 10 2 11 3 12 4 13 5 14 6 15 7 16 8 17 9 18 10 19 11 8 12
REMARK SMILES IDX 7 13 6 14 5 15 4 16 3 17 2 18 1 19
REMARK H PARENT
REMARK Flexibility Score: inf
ROOT
ATOM      1  C   UNL     1      -1.997   9.168   3.209  1.00  0.00     0.000 C 
ENDROOT
BRANCH   1   2
ATOM      2  C   UNL     1      -2.873   9.280   4.466  1.00  0.00     0.000 C 
BRANCH   2   3
ATOM      3  C   UNL     1      -3.947   8.185   4.485  1.00  0.00     0.000 C 
BRANCH   3   4
ATOM      4  C   UNL     1      -4.881   8.310   3.272  1.00  0.00     0.000 C 
BRANCH   4   5
ATOM      5  C   UNL     1      -4.921   7.033   2.413  1.00  0.00     0.001 C 
BRANCH   5   6
ATOM      6  C   UNL     1      -4.321   5.775   3.076  1.00  0.00     0.009 C 
BRANCH   6   7
ATOM      7  C   UNL     1      -3.224   5.060   2.254  1.00  0.00     0.032 C 
ATOM      8  C   UNL     1      -1.812   5.517   2.643  1.00  0.00     0.014 C 
BRANCH   7   9
ATOM      9  C   UNL     1      -3.346   3.573   2.444  1.00  0.00     0.044 C 
ATOM     10  O   UNL     1      -2.627   2.788   1.773  1.00  0.00    -0.550 OA
ATOM     11  O   UNL     1      -4.262   3.053   3.352  1.00  0.00    -0.550 OA
ENDBRANCH   7   9
ENDBRANCH   6   7
ENDBRANCH   5   6
ENDBRANCH   4   5
ENDBRANCH   3   4
ENDBRANCH   2   3
ENDBRANCH   1   2
BRANCH   1  12
ATOM     12  C   UNL     1      -0.494   9.193   3.529  1.00  0.00     0.000 C 
BRANCH  12  13
ATOM     13  C   UNL     1      -0.209   9.508   5.006  1.00  0.00    -0.000 C 
BRANCH  13  14
ATOM     14  C   UNL     1       1.296   9.667   5.253  1.00  0.00    -0.000 C 
BRANCH  14  15
ATOM     15  C   UNL     1       1.612   9.656   6.755  1.00  0.00    -0.000 C 
BRANCH  15  16
ATOM     16  C   UNL     1       2.557   8.511   7.153  1.00  0.00    -0.000 C 
BRANCH  16  17
ATOM     17  C   UNL     1       3.072   7.720   5.937  1.00  0.00    -0.000 C 
BRANCH  17  18
ATOM     18  C   UNL     1       2.599   6.259   5.944  1.00  0.00    -0.003 C 
ATOM     19  C   UNL     1       1.579   5.964   4.844  1.00  0.00     0.004 C 
ENDBRANCH  17  18
ENDBRANCH  16  17
ENDBRANCH  15  16
ENDBRANCH  14  15
ENDBRANCH  13  14
ENDBRANCH  12  13
ENDBRANCH   1  12
TORSDOF 14
ENDMDL
MODEL 3
REMARK VINA RESULT:    -3.213      3.130      4.769
REMARK INTER + INTRA:          -8.043
REMARK INTER:                  -7.026
REMARK INTRA:                  -1.017
REMARK UNBOUND:                -2.201
REMARK SMILES CCCCCCCCCCCCCC[C@@H](C)C(=O)[O-]
REMARK SMILES IDX 9 1 10 2 11 3 12 4 13 5 14 6 15 7 16 8 17 9 18 10 19 11 8 12
REMARK SMILES IDX 7 13 6 14 5 15 4 16 3 17 2 18 1 19
REMARK H PARENT
REMARK Flexibility Score: inf
ROOT
ATOM      1  C   UNL     1       0.668   9.462   5.293  1.00  0.00     0.000 C 
ENDROOT
BRANCH   1   2
ATOM      2  C   UNL     1       1.808   8.749   6.036  1.00  0.00     0.000 C 
BRANCH   2   3
ATOM      3  C   UNL     1       3.019   8.546   5.116  1.00  0.00     0.000 C 
BRANCH   3   4
ATOM      4  C   UNL     1       3.285   7.052   4.879  1.00  0.00     0.000 C 
BRANCH   4   5
ATOM      5  C   UNL     1       3.019   6.190   6.126  1.00  0.00     0.001 C 
BRANCH   5   6
ATOM      6  C   UNL     1       1.957   5.085   5.947  1.00  0.00     0.009 C 
BRANCH   6   7
ATOM      7  C   UNL     1       2.509   3.641   5.925  1.00  0.00     0.032 C 
ATOM      8  C   UNL     1       4.033   3.601   5.758  1.00  0.00     0.014 C 
BRANCH   7   9
ATOM      9  C   UNL     1       2.119   2.937   7.196  1.00  0.00     0.044 C 
ATOM     10  O   UNL     1       0.914   2.646   7.415  1.00  0.00    -0.550 OA
ATOM     11  O   UNL     1       3.083   2.614   8.144  1.00  0.00    -0.550 OA
ENDBRANCH   7   9
ENDBRANCH   6   7
ENDBRANCH   5   6
ENDBRANCH   4   5
ENDBRANCH   3   4
ENDBRANCH   2   3
ENDBRANCH   1   2
BRANCH   1  12
ATOM     12  C   UNL     1      -0.167   8.503   4.429  1.00  0.00     0.000 C 
BRANCH  12  13
ATOM     13  C   UNL     1      -1.403   9.182   3.818  1.00  0.00    -0.000 C 
BRANCH  13  14
ATOM     14  C   UNL     1      -2.210   9.924   4.890  1.00  0.00    -0.000 C 
BRANCH  14  15
ATOM     15  C   UNL     1      -3.718   9.790   4.635  1.00  0.00    -0.000 C 
BRANCH  15  16
ATOM     16  C   UNL     1      -4.135   8.352   4.290  1.00  0.00    -0.000 C 
BRANCH  16  17
ATOM     17  C   UNL     1      -5.158   8.292   3.142  1.00  0.00    -0.000 C 
BRANCH  17  18
ATOM     18  C   UNL     1      -5.973   9.587   3.013  1.00  0.00    -0.003 C 
ATOM     19  C   UNL     1      -7.332   9.366   2.349  1.00  0.00     0.004 C 
ENDBRANCH  17  18
ENDBRANCH  16  17
ENDBRANCH  15  16
ENDBRANCH  14  15
ENDBRANCH  13  14
ENDBRANCH  12  13
ENDBRANCH   1  12
TORSDOF 14
ENDMDL
MODEL 4
REMARK VINA RESULT:    -3.204      3.374      7.073
REMARK INTER + INTRA:          -8.026
REMARK INTER:                  -6.462
REMARK INTRA:                  -1.565
REMARK UNBOUND:                -2.201
REMARK SMILES CCCCCCCCCCCCCC[C@@H](C)C(=O)[O-]
REMARK SMILES IDX 9 1 10 2 11 3 12 4 13 5 14 6 15 7 16 8 17 9 18 10 19 11 8 12
REMARK SMILES IDX 7 13 6 14 5 15 4 16 3 17 2 18 1 19
REMARK H PARENT
REMARK Flexibility Score: inf
ROOT
ATOM      1  C   UNL     1       0.488   9.843   5.888  1.00  0.00     0.000 C 
ENDROOT
BRANCH   1   2
ATOM      2  C   UNL     1       0.179   9.350   4.466  1.00  0.00     0.000 C 
BRANCH   2   3
ATOM      3  C   UNL     1      -1.303   8.981   4.323  1.00  0.00     0.000 C 
BRANCH   3   4
ATOM      4  C   UNL     1      -2.197  10.008   5.035  1.00  0.00     0.000 C 
BRANCH   4   5
ATOM      5  C   UNL     1      -3.686   9.854   4.680  1.00  0.00     0.001 C 
BRANCH   5   6
ATOM      6  C   UNL     1      -4.126   8.427   4.292  1.00  0.00     0.009 C 
BRANCH   6   7
ATOM      7  C   UNL     1      -5.289   8.353   3.276  1.00  0.00     0.032 C 
ATOM      8  C   UNL     1      -5.662   9.729   2.713  1.00  0.00     0.014 C 
BRANCH   7   9
ATOM      9  C   UNL     1      -4.911   7.429   2.150  1.00  0.00     0.044 C 
ATOM     10  O   UNL     1      -5.738   6.583   1.720  1.00  0.00    -0.550 OA
ATOM     11  O   UNL     1      -3.643   7.494   1.584  1.00  0.00    -0.550 OA
ENDBRANCH   7   9
ENDBRANCH   6   7
ENDBRANCH   5   6
ENDBRANCH   4   5
ENDBRANCH   3   4
ENDBRANCH   2   3
ENDBRANCH   1   2
BRANCH   1  12
ATOM     12  C   UNL     1       1.994  10.026   6.137  1.00  0.00     0.000 C 
BRANCH  12  13
ATOM     13  C   UNL     1       2.547   9.035   7.172  1.00  0.00    -0.000 C 
BRANCH  13  14
ATOM     14  C   UNL     1       2.710   7.637   6.563  1.00  0.00    -0.000 C 
BRANCH  14  15
ATOM     15  C   UNL     1       3.568   7.687   5.291  1.00  0.00    -0.000 C 
BRANCH  15  16
ATOM     16  C   UNL     1       3.325   6.484   4.365  1.00  0.00    -0.000 C 
BRANCH  16  17
ATOM     17  C   UNL     1       2.239   6.760   3.310  1.00  0.00    -0.000 C 
BRANCH  17  18
ATOM     18  C   UNL     1       1.013   5.851   3.478  1.00  0.00    -0.003 C 
ATOM     19  C   UNL     1       1.145   4.893   4.661  1.00  0.00     0.004 C 
ENDBRANCH  17  18
ENDBRANCH  16  17
ENDBRANCH  15  16
ENDBRANCH  14  15
ENDBRANCH  13  14
ENDBRANCH  12  13
ENDBRANCH   1  12
TORSDOF 14
ENDMDL
MODEL 5
REMARK VINA RESULT:    -3.180     10.233     12.584
REMARK INTER + INTRA:          -7.983
REMARK INTER:                  -6.322
REMARK INTRA:                  -1.661
REMARK UNBOUND:                -2.201
REMARK SMILES CCCCCCCCCCCCCC[C@@H](C)C(=O)[O-]
REMARK SMILES IDX 9 1 10 2 11 3 12 4 13 5 14 6 15 7 16 8 17 9 18 10 19 11 8 12
REMARK SMILES IDX 7 13 6 14 5 15 4 16 3 17 2 18 1 19
REMARK H PARENT
REMARK Flexibility Score: inf
ROOT
ATOM      1  C   UNL     1      -6.925   1.342  10.647  1.00  0.00     0.000 C 
ENDROOT
BRANCH   1   2
ATOM      2  C   UNL     1      -8.048   1.197  11.685  1.00  0.00     0.000 C 
BRANCH   2   3
ATOM      3  C   UNL     1      -9.192   0.334  11.138  1.00  0.00     0.000 C 
BRANCH   3   4
ATOM      4  C   UNL     1      -8.822  -1.156  11.174  1.00  0.00     0.000 C 
BRANCH   4   5
ATOM      5  C   UNL     1      -9.064  -1.867   9.830  1.00  0.00     0.001 C 
BRANCH   5   6
ATOM      6  C   UNL     1      -8.910  -0.978   8.579  1.00  0.00     0.009 C 
BRANCH   6   7
ATOM      7  C   UNL     1      -7.549  -1.093   7.856  1.00  0.00     0.032 C 
ATOM      8  C   UNL     1      -7.478  -2.318   6.936  1.00  0.00     0.014 C 
BRANCH   7   9
ATOM      9  C   UNL     1      -7.301   0.157   7.055  1.00  0.00     0.044 C 
ATOM     10  O   UNL     1      -6.420   0.168   6.156  1.00  0.00    -0.550 OA
ATOM     11  O   UNL     1      -8.032   1.312   7.311  1.00  0.00    -0.550 OA
ENDBRANCH   7   9
ENDBRANCH   6   7
ENDBRANCH   5   6
ENDBRANCH   4   5
ENDBRANCH   3   4
ENDBRANCH   2   3
ENDBRANCH   1   2
BRANCH   1  12
ATOM     12  C   UNL     1      -5.545   0.965  11.211  1.00  0.00     0.000 C 
BRANCH  12  13
ATOM     13  C   UNL     1      -4.981  -0.319  10.583  1.00  0.00    -0.000 C 
BRANCH  13  14
ATOM     14  C   UNL     1      -3.531  -0.116  10.128  1.00  0.00    -0.000 C 
BRANCH  14  15
ATOM     15  C   UNL     1      -3.409   1.107   9.207  1.00  0.00    -0.000 C 
BRANCH  15  16
ATOM     16  C   UNL     1      -3.355   0.724   7.719  1.00  0.00    -0.000 C 
BRANCH  16  17
ATOM     17  C   UNL     1      -2.030   1.132   7.051  1.00  0.00    -0.000 C 
BRANCH  17  18
ATOM     18  C   UNL     1      -1.011   1.686   8.059  1.00  0.00    -0.003 C 
ATOM     19  C   UNL     1       0.046   2.574   7.401  1.00  0.00     0.004 C 
ENDBRANCH  17  18
ENDBRANCH  16  17
ENDBRANCH  15  16
ENDBRANCH  14  15
ENDBRANCH  13  14
ENDBRANCH  12  13
ENDBRANCH   1  12
TORSDOF 14
ENDMDL
MODEL 6
REMARK VINA RESULT:    -3.146      2.380      4.096
REMARK INTER + INTRA:          -7.920
REMARK INTER:                  -6.633
REMARK INTRA:                  -1.288
REMARK UNBOUND:                -2.201
REMARK SMILES CCCCCCCCCCCCCC[C@@H](C)C(=O)[O-]
REMARK SMILES IDX 9 1 10 2 11 3 12 4 13 5 14 6 15 7 16 8 17 9 18 10 19 11 8 12
REMARK SMILES IDX 7 13 6 14 5 15 4 16 3 17 2 18 1 19
REMARK H PARENT
REMARK Flexibility Score: inf
ROOT
ATOM      1  C   UNL     1      -0.532   9.328   4.032  1.00  0.00     0.000 C 
ENDROOT
BRANCH   1   2
ATOM      2  C   UNL     1      -0.604   9.823   5.485  1.00  0.00     0.000 C 
BRANCH   2   3
ATOM      3  C   UNL     1       0.796  10.125   6.032  1.00  0.00     0.000 C 
BRANCH   3   4
ATOM      4  C   UNL     1       1.514   8.833   6.450  1.00  0.00     0.000 C 
BRANCH   4   5
ATOM      5  C   UNL     1       2.653   8.443   5.490  1.00  0.00     0.001 C 
BRANCH   5   6
ATOM      6  C   UNL     1       2.875   6.926   5.316  1.00  0.00     0.009 C 
BRANCH   6   7
ATOM      7  C   UNL     1       1.597   6.104   5.033  1.00  0.00     0.032 C 
ATOM      8  C   UNL     1       1.293   5.993   3.534  1.00  0.00     0.014 C 
BRANCH   7   9
ATOM      9  C   UNL     1       1.746   4.728   5.623  1.00  0.00     0.044 C 
ATOM     10  O   UNL     1       2.652   4.495   6.466  1.00  0.00    -0.550 OA
ATOM     11  O   UNL     1       0.896   3.700   5.233  1.00  0.00    -0.550 OA
ENDBRANCH   7   9
ENDBRANCH   6   7
ENDBRANCH   5   6
ENDBRANCH   4   5
ENDBRANCH   3   4
ENDBRANCH   2   3
ENDBRANCH   1   2
BRANCH   1  12
ATOM     12  C   UNL     1      -1.861   8.731   3.543  1.00  0.00     0.000 C 
BRANCH  12  13
ATOM     13  C   UNL     1      -2.938   8.708   4.637  1.00  0.00    -0.000 C 
BRANCH  13  14
ATOM     14  C   UNL     1      -4.124   7.829   4.223  1.00  0.00    -0.000 C 
BRANCH  14  15
ATOM     15  C   UNL     1      -4.711   8.292   2.882  1.00  0.00    -0.000 C 
BRANCH  15  16
ATOM     16  C   UNL     1      -5.561   9.566   3.017  1.00  0.00    -0.000 C 
BRANCH  16  17
ATOM     17  C   UNL     1      -7.029   9.343   2.611  1.00  0.00    -0.000 C 
BRANCH  17  18
ATOM     18  C   UNL     1      -7.232   8.030   1.841  1.00  0.00    -0.003 C 
ATOM     19  C   UNL     1      -8.614   7.418   2.071  1.00  0.00     0.004 C 
ENDBRANCH  17  18
ENDBRANCH  16  17
ENDBRANCH  15  16
ENDBRANCH  14  15
ENDBRANCH  13  14
ENDBRANCH  12  13
ENDBRANCH   1  12
TORSDOF 14
ENDMDL
MODEL 7
REMARK VINA RESULT:    -3.126      3.686      7.346
REMARK INTER + INTRA:          -7.886
REMARK INTER:                  -6.696
REMARK INTRA:                  -1.190
REMARK UNBOUND:                -2.201
REMARK SMILES CCCCCCCCCCCCCC[C@@H](C)C(=O)[O-]
REMARK SMILES IDX 9 1 10 2 11 3 12 4 13 5 14 6 15 7 16 8 17 9 18 10 19 11 8 12
REMARK SMILES IDX 7 13 6 14 5 15 4 16 3 17 2 18 1 19
REMARK H PARENT
REMARK Flexibility Score: inf
ROOT
ATOM      1  C   UNL     1      -0.046   8.770   4.700  1.00  0.00     0.000 C 
ENDROOT
BRANCH   1   2
ATOM      2  C   UNL     1      -1.150   9.522   3.940  1.00  0.00     0.000 C 
BRANCH   2   3
ATOM      3  C   UNL     1      -2.450   9.556   4.754  1.00  0.00     0.000 C 
BRANCH   3   4
ATOM      4  C   UNL     1      -3.637   9.981   3.877  1.00  0.00     0.000 C 
BRANCH   4   5
ATOM      5  C   UNL     1      -4.720   8.893   3.767  1.00  0.00     0.001 C 
BRANCH   5   6
ATOM      6  C   UNL     1      -4.218   7.445   3.939  1.00  0.00     0.009 C 
BRANCH   6   7
ATOM      7  C   UNL     1      -3.977   6.673   2.621  1.00  0.00     0.032 C 
ATOM      8  C   UNL     1      -2.488   6.577   2.264  1.00  0.00     0.014 C 
BRANCH   7   9
ATOM      9  C   UNL     1      -4.561   5.291   2.736  1.00  0.00     0.044 C 
ATOM     10  O   UNL     1      -3.955   4.400   3.388  1.00  0.00    -0.550 OA
ATOM     11  O   UNL     1      -5.765   4.984   2.113  1.00  0.00    -0.550 OA
ENDBRANCH   7   9
ENDBRANCH   6   7
ENDBRANCH   5   6
ENDBRANCH   4   5
ENDBRANCH   3   4
ENDBRANCH   2   3
ENDBRANCH   1   2
BRANCH   1  12
ATOM     12  C   UNL     1       0.683   9.660   5.719  1.00  0.00     0.000 C 
BRANCH  12  13
ATOM     13  C   UNL     1       2.158   9.269   5.899  1.00  0.00    -0.000 C 
BRANCH  13  14
ATOM     14  C   UNL     1       2.284   7.909   6.595  1.00  0.00    -0.000 C 
BRANCH  14  15
ATOM     15  C   UNL     1       3.236   6.982   5.825  1.00  0.00    -0.000 C 
BRANCH  15  16
ATOM     16  C   UNL     1       2.501   5.824   5.132  1.00  0.00    -0.000 C 
BRANCH  16  17
ATOM     17  C   UNL     1       2.736   4.472   5.830  1.00  0.00    -0.000 C 
BRANCH  17  18
ATOM     18  C   UNL     1       1.492   3.978   6.585  1.00  0.00    -0.003 C 
ATOM     19  C   UNL     1       1.746   2.683   7.357  1.00  0.00     0.004 C 
ENDBRANCH  17  18
ENDBRANCH  16  17
ENDBRANCH  15  16
ENDBRANCH  14  15
ENDBRANCH  13  14
ENDBRANCH  12  13
ENDBRANCH   1  12
TORSDOF 14
ENDMDL
MODEL 8
REMARK VINA RESULT:    -3.103      1.713      2.447
REMARK INTER + INTRA:          -7.843
REMARK INTER:                  -5.853
REMARK INTRA:                  -1.989
REMARK UNBOUND:                -2.201
REMARK SMILES CCCCCCCCCCCCCC[C@@H](C)C(=O)[O-]
REMARK SMILES IDX 9 1 10 2 11 3 12 4 13 5 14 6 15 7 16 8 17 9 18 10 19 11 8 12
REMARK SMILES IDX 7 13 6 14 5 15 4 16 3 17 2 18 1 19
REMARK H PARENT
REMARK Flexibility Score: inf
ROOT
ATOM      1  C   UNL     1      -2.642   9.088   4.700  1.00  0.00     0.000 C 
ENDROOT
BRANCH   1   2
ATOM      2  C   UNL     1      -1.359   9.892   4.436  1.00  0.00     0.000 C 
BRANCH   2   3
ATOM      3  C   UNL     1      -0.140   9.199   5.057  1.00  0.00     0.000 C 
BRANCH   3   4
ATOM      4  C   UNL     1       0.566  10.124   6.060  1.00  0.00     0.000 C 
BRANCH   4   5
ATOM      5  C   UNL     1       1.771   9.454   6.746  1.00  0.00     0.001 C 
BRANCH   5   6
ATOM      6  C   UNL     1       1.973   7.962   6.411  1.00  0.00     0.009 C 
BRANCH   6   7
ATOM      7  C   UNL     1       3.346   7.608   5.795  1.00  0.00     0.032 C 
ATOM      8  C   UNL     1       3.536   6.097   5.619  1.00  0.00     0.014 C 
BRANCH   7   9
ATOM      9  C   UNL     1       3.490   8.296   4.465  1.00  0.00     0.044 C 
ATOM     10  O   UNL     1       4.320   9.232   4.322  1.00  0.00    -0.550 OA
ATOM     11  O   UNL     1       2.699   7.913   3.387  1.00  0.00    -0.550 OA
ENDBRANCH   7   9
ENDBRANCH   6   7
ENDBRANCH   5   6
ENDBRANCH   4   5
ENDBRANCH   3   4
ENDBRANCH   2   3
ENDBRANCH   1   2
BRANCH   1  12
ATOM     12  C   UNL     1      -3.873   9.692   4.006  1.00  0.00     0.000 C 
BRANCH  12  13
ATOM     13  C   UNL     1      -4.839   8.621   3.477  1.00  0.00    -0.000 C 
BRANCH  13  14
ATOM     14  C   UNL     1      -4.433   7.225   3.965  1.00  0.00    -0.000 C 
BRANCH  14  15
ATOM     15  C   UNL     1      -4.388   6.225   2.801  1.00  0.00    -0.000 C 
BRANCH  15  16
ATOM     16  C   UNL     1      -3.148   6.408   1.911  1.00  0.00    -0.000 C 
BRANCH  16  17
ATOM     17  C   UNL     1      -1.842   6.023   2.630  1.00  0.00    -0.000 C 
BRANCH  17  18
ATOM     18  C   UNL     1      -0.665   6.928   2.235  1.00  0.00    -0.003 C 
ATOM     19  C   UNL     1      -1.076   8.046   1.278  1.00  0.00     0.004 C 
ENDBRANCH  17  18
ENDBRANCH  16  17
ENDBRANCH  15  16
ENDBRANCH  14  15
ENDBRANCH  13  14
ENDBRANCH  12  13
ENDBRANCH   1  12
TORSDOF 14
ENDMDL
MODEL 9
REMARK VINA RESULT:    -3.103     14.998     17.834
REMARK INTER + INTRA:          -7.842
REMARK INTER:                  -5.456
REMARK INTRA:                  -2.387
REMARK UNBOUND:                -2.201
REMARK SMILES CCCCCCCCCCCCCC[C@@H](C)C(=O)[O-]
REMARK SMILES IDX 9 1 10 2 11 3 12 4 13 5 14 6 15 7 16 8 17 9 18 10 19 11 8 12
REMARK SMILES IDX 7 13 6 14 5 15 4 16 3 17 2 18 1 19
REMARK H PARENT
REMARK Flexibility Score: inf
ROOT
ATOM      1  C   UNL     1      -9.781  -6.979  -3.155  1.00  0.00     0.000 C 
ENDROOT
BRANCH   1   2
ATOM      2  C   UNL     1      -9.804  -5.554  -2.581  1.00  0.00     0.000 C 
BRANCH   2   3
ATOM      3  C   UNL     1      -9.003  -4.593  -3.467  1.00  0.00     0.000 C 
BRANCH   3   4
ATOM      4  C   UNL     1      -7.640  -4.269  -2.837  1.00  0.00     0.000 C 
BRANCH   4   5
ATOM      5  C   UNL     1      -6.536  -4.035  -3.884  1.00  0.00     0.001 C 
BRANCH   5   6
ATOM      6  C   UNL     1      -5.535  -2.912  -3.544  1.00  0.00     0.009 C 
BRANCH   6   7
ATOM      7  C   UNL     1      -4.045  -3.284  -3.723  1.00  0.00     0.032 C 
ATOM      8  C   UNL     1      -3.825  -4.800  -3.782  1.00  0.00     0.014 C 
BRANCH   7   9
ATOM      9  C   UNL     1      -3.517  -2.646  -4.979  1.00  0.00     0.044 C 
ATOM     10  O   UNL     1      -2.327  -2.845  -5.338  1.00  0.00    -0.550 OA
ATOM     11  O   UNL     1      -4.334  -1.821  -5.744  1.00  0.00    -0.550 OA
ENDBRANCH   7   9
ENDBRANCH   6   7
ENDBRANCH   5   6
ENDBRANCH   4   5
ENDBRANCH   3   4
ENDBRANCH   2   3
ENDBRANCH   1   2
BRANCH   1  12
ATOM     12  C   UNL     1      -9.708  -6.998  -4.690  1.00  0.00     0.000 C 
BRANCH  12  13
ATOM     13  C   UNL     1      -9.033  -8.266  -5.235  1.00  0.00    -0.000 C 
BRANCH  13  14
ATOM     14  C   UNL     1      -8.280  -9.009  -4.125  1.00  0.00    -0.000 C 
BRANCH  14  15
ATOM     15  C   UNL     1      -6.763  -8.946  -4.350  1.00  0.00    -0.000 C 
BRANCH  15  16
ATOM     16  C   UNL     1      -6.134  -7.660  -3.791  1.00  0.00    -0.000 C 
BRANCH  16  17
ATOM     17  C   UNL     1      -5.559  -7.849  -2.377  1.00  0.00    -0.000 C 
BRANCH  17  18
ATOM     18  C   UNL     1      -6.427  -7.188  -1.296  1.00  0.00    -0.003 C 
ATOM     19  C   UNL     1      -7.385  -8.172  -0.624  1.00  0.00     0.004 C 
ENDBRANCH  17  18
ENDBRANCH  16  17
ENDBRANCH  15  16
ENDBRANCH  14  15
ENDBRANCH  13  14
ENDBRANCH  12  13
ENDBRANCH   1  12
TORSDOF 14
ENDMDL
