MODEL 1
REMARK VINA RESULT:    -3.931      0.000      0.000
REMARK INTER + INTRA:          -5.751
REMARK INTER:                  -5.999
REMARK INTRA:                   0.249
REMARK UNBOUND:                 0.249
REMARK SMILES CC1=CCC[C@@H](C)C(=O)C[C@H](C(C)C)C(=O)C1
REMARK SMILES IDX 8 1 9 2 6 3 7 4 5 5 4 6 3 7 2 8 1 9 10 11 11 12 15 13 16 14
REMARK SMILES IDX 17 15 12 17 13 18 14 19
REMARK H PARENT
REMARK Flexibility Score: 70.00
ROOT
ATOM      1  C   UNL     1      11.773 -10.625 -43.660  1.00  0.00     0.136 C 
ATOM      2  O   UNL     1      11.543 -10.918 -42.495  1.00  0.00    -0.299 OA
ENDROOT
BRANCH   1   3
ATOM      3  C   UNL     1      10.894  -9.576 -44.326  1.00  0.00     0.053 C 
ATOM      4  C   UNL     1      10.487  -8.491 -43.318  1.00  0.00     0.016 C 
BRANCH   3   5
ATOM      5  C   UNL     1       9.651 -10.188 -45.015  1.00  0.00     0.015 C 
BRANCH   5   6
ATOM      6  C   UNL     1       9.914 -11.435 -45.886  1.00  0.00     0.028 C 
BRANCH   6   7
ATOM      7  C   UNL     1       9.489 -12.769 -45.314  1.00  0.00    -0.028 C 
ATOM      8  C   UNL     1      10.306 -13.793 -44.971  1.00  0.00    -0.070 CG0
ATOM      9  C   UNL     1       9.691 -14.974 -44.259  1.00  0.00     0.039 C 
ATOM     10  G   UNL     1      11.779 -13.854 -45.320  1.00  0.00     0.000 G0
ENDBRANCH   6   7
ENDBRANCH   5   6
ENDBRANCH   3   5
ENDBRANCH   1   3
BRANCH   1  11
ATOM     11  C   UNL     1      12.905 -11.353 -44.370  1.00  0.00     0.087 C 
BRANCH  11  12
ATOM     12  C   UNL     1      13.397 -12.629 -43.636  1.00  0.00     0.066 C 
BRANCH  12  13
ATOM     13  C   UNL     1      12.636 -13.866 -44.080  1.00  0.00     0.140 C 
ATOM     14  O   UNL     1      12.764 -14.913 -43.464  1.00  0.00    -0.299 OA
BRANCH  13  15
ATOM     15  C   UNL     1      11.784 -13.847 -45.329  1.00  0.00     0.106 CG0
ATOM     16  G   UNL     1      10.317 -13.779 -44.954  1.00  0.00     0.000 G0
ENDBRANCH  13  15
ENDBRANCH  12  13
BRANCH  12  17
ATOM     17  C   UNL     1      14.949 -12.793 -43.682  1.00  0.00    -0.006 C 
ATOM     18  C   UNL     1      15.466 -12.729 -45.127  1.00  0.00     0.008 C 
ATOM     19  C   UNL     1      15.738 -11.801 -42.806  1.00  0.00     0.008 C 
ENDBRANCH  12  17
ENDBRANCH  11  12
ENDBRANCH   1  11
TORSDOF 1
ENDMDL
MODEL 2
REMARK VINA RESULT:    -3.888      1.560      4.142
REMARK INTER + INTRA:          -5.685
REMARK INTER:                  -5.564
REMARK INTRA:                  -0.121
REMARK UNBOUND:                 0.249
REMARK SMILES CC1=CCC[C@@H](C)C(=O)C[C@H](C(C)C)C(=O)C1
REMARK SMILES IDX 8 1 9 2 6 3 7 4 5 5 4 6 3 7 2 8 1 9 10 11 11 12 15 13 16 14
REMARK SMILES IDX 17 15 12 17 13 18 14 19
REMARK H PARENT
REMARK Flexibility Score: 70.00
ROOT
ATOM      1  C   UNL     1      14.038 -11.659 -43.886  1.00  0.00     0.136 C 
ATOM      2  O   UNL     1      14.385 -10.713 -44.581  1.00  0.00    -0.299 OA
ENDROOT
BRANCH   1   3
ATOM      3  C   UNL     1      15.044 -12.771 -43.630  1.00  0.00     0.053 C 
ATOM      4  C   UNL     1      16.291 -12.222 -42.922  1.00  0.00     0.016 C 
BRANCH   3   5
ATOM      5  C   UNL     1      15.430 -13.538 -44.918  1.00  0.00     0.015 C 
BRANCH   5   6
ATOM      6  C   UNL     1      14.262 -13.880 -45.869  1.00  0.00     0.028 C 
BRANCH   6   7
ATOM      7  C   UNL     1      13.337 -14.996 -45.439  1.00  0.00    -0.028 C 
ATOM      8  C   UNL     1      11.986 -14.998 -45.527  1.00  0.00    -0.070 CG0
ATOM      9  C   UNL     1      11.263 -16.281 -45.198  1.00  0.00     0.039 C 
ATOM     10  G   UNL     1      11.158 -13.775 -45.866  1.00  0.00     0.000 G0
ENDBRANCH   6   7
ENDBRANCH   5   6
ENDBRANCH   3   5
ENDBRANCH   1   3
BRANCH   1  11
ATOM     11  C   UNL     1      12.614 -11.669 -43.353  1.00  0.00     0.087 C 
BRANCH  11  12
ATOM     12  C   UNL     1      11.523 -11.598 -44.455  1.00  0.00     0.066 C 
BRANCH  12  13
ATOM     13  C   UNL     1      10.843 -12.939 -44.667  1.00  0.00     0.140 C 
ATOM     14  O   UNL     1      10.098 -13.386 -43.808  1.00  0.00    -0.299 OA
BRANCH  13  15
ATOM     15  C   UNL     1      11.141 -13.776 -45.890  1.00  0.00     0.106 CG0
ATOM     16  G   UNL     1      11.975 -14.981 -45.502  1.00  0.00     0.000 G0
ENDBRANCH  13  15
ENDBRANCH  12  13
BRANCH  12  17
ATOM     17  C   UNL     1      10.528 -10.413 -44.246  1.00  0.00    -0.006 C 
ATOM     18  C   UNL     1      11.257  -9.063 -44.323  1.00  0.00     0.008 C 
ATOM     19  C   UNL     1       9.315 -10.401 -45.196  1.00  0.00     0.008 C 
ENDBRANCH  12  17
ENDBRANCH  11  12
ENDBRANCH   1  11
TORSDOF 1
ENDMDL
MODEL 3
REMARK VINA RESULT:    -3.868      2.240      4.090
REMARK INTER + INTRA:          -5.655
REMARK INTER:                  -5.704
REMARK INTRA:                   0.049
REMARK UNBOUND:                 0.249
REMARK SMILES CC1=CCC[C@@H](C)C(=O)C[C@H](C(C)C)C(=O)C1
REMARK SMILES IDX 8 1 9 2 6 3 7 4 5 5 4 6 3 7 2 8 1 9 10 11 11 12 15 13 16 14
REMARK SMILES IDX 17 15 12 17 13 18 14 19
REMARK H PARENT
REMARK Flexibility Score: 70.00
ROOT
ATOM      1  C   UNL     1       8.499 -11.698 -45.819  1.00  0.00     0.136 C 
ATOM      2  O   UNL     1       7.411 -11.167 -45.648  1.00  0.00    -0.299 OA
ENDROOT
BRANCH   1   3
ATOM      3  C   UNL     1       8.533 -13.188 -46.128  1.00  0.00     0.053 C 
ATOM      4  C   UNL     1       7.849 -13.478 -47.473  1.00  0.00     0.016 C 
BRANCH   3   5
ATOM      5  C   UNL     1       7.920 -14.048 -44.997  1.00  0.00     0.015 C 
BRANCH   5   6
ATOM      6  C   UNL     1       8.790 -14.207 -43.731  1.00  0.00     0.028 C 
BRANCH   6   7
ATOM      7  C   UNL     1      10.121 -14.905 -43.902  1.00  0.00    -0.028 C 
ATOM      8  C   UNL     1      11.332 -14.427 -43.530  1.00  0.00    -0.070 CG0
ATOM      9  C   UNL     1      12.517 -15.355 -43.637  1.00  0.00     0.039 C 
ATOM     10  G   UNL     1      11.577 -12.999 -43.083  1.00  0.00     0.000 G0
ENDBRANCH   6   7
ENDBRANCH   5   6
ENDBRANCH   3   5
ENDBRANCH   1   3
BRANCH   1  11
ATOM     11  C   UNL     1       9.745 -10.836 -45.681  1.00  0.00     0.087 C 
BRANCH  11  12
ATOM     12  C   UNL     1      10.436 -10.938 -44.294  1.00  0.00     0.066 C 
BRANCH  12  13
ATOM     13  C   UNL     1      11.491 -12.030 -44.266  1.00  0.00     0.140 C 
ATOM     14  O   UNL     1      12.224 -12.193 -45.229  1.00  0.00    -0.299 OA
BRANCH  13  15
ATOM     15  C   UNL     1      11.594 -12.980 -43.094  1.00  0.00     0.106 CG0
ATOM     16  G   UNL     1      11.339 -14.400 -43.555  1.00  0.00     0.000 G0
ENDBRANCH  13  15
ENDBRANCH  12  13
BRANCH  12  17
ATOM     17  C   UNL     1      10.942  -9.557 -43.769  1.00  0.00    -0.006 C 
ATOM     18  C   UNL     1      12.092  -9.026 -44.638  1.00  0.00     0.008 C 
ATOM     19  C   UNL     1       9.857  -8.473 -43.627  1.00  0.00     0.008 C 
ENDBRANCH  12  17
ENDBRANCH  11  12
ENDBRANCH   1  11
TORSDOF 1
ENDMDL
MODEL 4
REMARK VINA RESULT:    -3.695     11.355     12.897
REMARK INTER + INTRA:          -5.391
REMARK INTER:                  -5.200
REMARK INTRA:                  -0.191
REMARK UNBOUND:                 0.249
REMARK SMILES CC1=CCC[C@@H](C)C(=O)C[C@H](C(C)C)C(=O)C1
REMARK SMILES IDX 8 1 9 2 6 3 7 4 5 5 4 6 3 7 2 8 1 9 10 11 11 12 15 13 16 14
REMARK SMILES IDX 17 15 12 17 13 18 14 19
REMARK H PARENT
REMARK Flexibility Score: 70.00
ROOT
ATOM      1  C   UNL     1      10.263 -20.703 -36.989  1.00  0.00     0.136 C 
ATOM      2  O   UNL     1      10.620 -19.659 -36.460  1.00  0.00    -0.299 OA
ENDROOT
BRANCH   1   3
ATOM      3  C   UNL     1       9.094 -21.459 -36.374  1.00  0.00     0.053 C 
ATOM      4  C   UNL     1       7.908 -20.515 -36.128  1.00  0.00     0.016 C 
BRANCH   3   5
ATOM      5  C   UNL     1       9.482 -22.212 -35.079  1.00  0.00     0.015 C 
BRANCH   5   6
ATOM      6  C   UNL     1       9.682 -23.736 -35.225  1.00  0.00     0.028 C 
BRANCH   6   7
ATOM      7  C   UNL     1       9.042 -24.396 -36.426  1.00  0.00    -0.028 C 
ATOM      8  C   UNL     1       9.688 -25.005 -37.448  1.00  0.00    -0.070 CG0
ATOM      9  C   UNL     1       8.855 -25.748 -38.463  1.00  0.00     0.039 C 
ATOM     10  G   UNL     1      11.185 -24.925 -37.669  1.00  0.00     0.000 G0
ENDBRANCH   6   7
ENDBRANCH   5   6
ENDBRANCH   3   5
ENDBRANCH   1   3
BRANCH   1  11
ATOM     11  C   UNL     1      11.035 -21.187 -38.207  1.00  0.00     0.087 C 
BRANCH  11  12
ATOM     12  C   UNL     1      11.985 -22.382 -37.923  1.00  0.00     0.066 C 
BRANCH  12  13
ATOM     13  C   UNL     1      11.471 -23.672 -38.538  1.00  0.00     0.140 C 
ATOM     14  O   UNL     1      11.212 -23.717 -39.731  1.00  0.00    -0.299 OA
BRANCH  13  15
ATOM     15  C   UNL     1      11.193 -24.886 -37.680  1.00  0.00     0.106 CG0
ATOM     16  G   UNL     1       9.702 -25.025 -37.449  1.00  0.00     0.000 G0
ENDBRANCH  13  15
ENDBRANCH  12  13
BRANCH  12  17
ATOM     17  C   UNL     1      13.474 -22.067 -38.269  1.00  0.00    -0.006 C 
ATOM     18  C   UNL     1      13.938 -20.776 -37.578  1.00  0.00     0.008 C 
ATOM     19  C   UNL     1      14.471 -23.203 -37.967  1.00  0.00     0.008 C 
ENDBRANCH  12  17
ENDBRANCH  11  12
ENDBRANCH   1  11
TORSDOF 1
ENDMDL
MODEL 5
REMARK VINA RESULT:    -3.605      1.708      4.038
REMARK INTER + INTRA:          -5.254
REMARK INTER:                  -5.468
REMARK INTRA:                   0.214
REMARK UNBOUND:                 0.249
REMARK SMILES CC1=CCC[C@@H](C)C(=O)C[C@H](C(C)C)C(=O)C1
REMARK SMILES IDX 8 1 9 2 6 3 7 4 5 5 4 6 3 7 2 8 1 9 10 11 11 12 15 13 16 14
REMARK SMILES IDX 17 15 12 17 13 18 14 19
REMARK H PARENT
REMARK Flexibility Score: 70.00
ROOT
ATOM      1  C   UNL     1      13.443 -11.744 -43.935  1.00  0.00     0.136 C 
ATOM      2  O   UNL     1      14.255 -10.832 -43.863  1.00  0.00    -0.299 OA
ENDROOT
BRANCH   1   3
ATOM      3  C   UNL     1      13.910 -13.082 -44.489  1.00  0.00     0.053 C 
ATOM      4  C   UNL     1      15.324 -12.962 -45.075  1.00  0.00     0.016 C 
BRANCH   3   5
ATOM      5  C   UNL     1      12.928 -13.676 -45.527  1.00  0.00     0.015 C 
BRANCH   5   6
ATOM      6  C   UNL     1      12.068 -14.860 -45.035  1.00  0.00     0.028 C 
BRANCH   6   7
ATOM      7  C   UNL     1      10.660 -14.954 -45.579  1.00  0.00    -0.028 C 
ATOM      8  C   UNL     1       9.661 -14.062 -45.382  1.00  0.00    -0.070 CG0
ATOM      9  C   UNL     1       8.380 -14.260 -46.155  1.00  0.00     0.039 C 
ATOM     10  G   UNL     1       9.729 -12.924 -44.384  1.00  0.00     0.000 G0
ENDBRANCH   6   7
ENDBRANCH   5   6
ENDBRANCH   3   5
ENDBRANCH   1   3
BRANCH   1  11
ATOM     11  C   UNL     1      12.013 -11.466 -43.493  1.00  0.00     0.087 C 
BRANCH  11  12
ATOM     12  C   UNL     1      11.148 -10.746 -44.563  1.00  0.00     0.066 C 
BRANCH  12  13
ATOM     13  C   UNL     1      10.007 -11.622 -45.051  1.00  0.00     0.140 C 
ATOM     14  O   UNL     1       9.289 -11.235 -45.960  1.00  0.00    -0.299 OA
BRANCH  13  15
ATOM     15  C   UNL     1       9.691 -12.935 -44.372  1.00  0.00     0.106 CG0
ATOM     16  G   UNL     1       9.674 -14.055 -45.393  1.00  0.00     0.000 G0
ENDBRANCH  13  15
ENDBRANCH  12  13
BRANCH  12  17
ATOM     17  C   UNL     1      10.701  -9.318 -44.118  1.00  0.00    -0.006 C 
ATOM     18  C   UNL     1      10.842  -9.146 -42.598  1.00  0.00     0.008 C 
ATOM     19  C   UNL     1      11.411  -8.156 -44.839  1.00  0.00     0.008 C 
ENDBRANCH  12  17
ENDBRANCH  11  12
ENDBRANCH   1  11
TORSDOF 1
ENDMDL
MODEL 6
REMARK VINA RESULT:    -3.480      1.721      4.094
REMARK INTER + INTRA:          -5.063
REMARK INTER:                  -4.846
REMARK INTRA:                  -0.217
REMARK UNBOUND:                 0.249
REMARK SMILES CC1=CCC[C@@H](C)C(=O)C[C@H](C(C)C)C(=O)C1
REMARK SMILES IDX 8 1 9 2 6 3 7 4 5 5 4 6 3 7 2 8 1 9 10 11 11 12 15 13 16 14
REMARK SMILES IDX 17 15 12 17 13 18 14 19
REMARK H PARENT
REMARK Flexibility Score: 70.00
ROOT
ATOM      1  C   UNL     1      10.316 -11.430 -44.258  1.00  0.00     0.136 C 
ATOM      2  O   UNL     1       9.477 -10.913 -44.982  1.00  0.00    -0.299 OA
ENDROOT
BRANCH   1   3
ATOM      3  C   UNL     1      11.445 -10.557 -43.728  1.00  0.00     0.053 C 
ATOM      4  C   UNL     1      11.172  -9.076 -44.027  1.00  0.00     0.016 C 
BRANCH   3   5
ATOM      5  C   UNL     1      12.834 -10.985 -44.262  1.00  0.00     0.015 C 
BRANCH   5   6
ATOM      6  C   UNL     1      13.663 -11.888 -43.323  1.00  0.00     0.028 C 
BRANCH   6   7
ATOM      7  C   UNL     1      14.383 -13.056 -43.961  1.00  0.00    -0.028 C 
ATOM      8  C   UNL     1      13.900 -14.311 -44.114  1.00  0.00    -0.070 CG0
ATOM      9  C   UNL     1      14.716 -15.284 -44.929  1.00  0.00     0.039 C 
ATOM     10  G   UNL     1      12.629 -14.814 -43.459  1.00  0.00     0.000 G0
ENDBRANCH   6   7
ENDBRANCH   5   6
ENDBRANCH   3   5
ENDBRANCH   1   3
BRANCH   1  11
ATOM     11  C   UNL     1      10.188 -12.917 -43.963  1.00  0.00     0.087 C 
BRANCH  11  12
ATOM     12  C   UNL     1      10.753 -13.835 -45.080  1.00  0.00     0.066 C 
BRANCH  12  13
ATOM     13  C   UNL     1      11.532 -15.007 -44.509  1.00  0.00     0.140 C 
ATOM     14  O   UNL     1      11.251 -16.147 -44.847  1.00  0.00    -0.299 OA
BRANCH  13  15
ATOM     15  C   UNL     1      12.600 -14.793 -43.461  1.00  0.00     0.106 CG0
ATOM     16  G   UNL     1      13.884 -14.328 -44.118  1.00  0.00     0.000 G0
ENDBRANCH  13  15
ENDBRANCH  12  13
BRANCH  12  17
ATOM     17  C   UNL     1       9.671 -14.248 -46.128  1.00  0.00    -0.006 C 
ATOM     18  C   UNL     1       8.289 -14.377 -45.470  1.00  0.00     0.008 C 
ATOM     19  C   UNL     1       9.573 -13.331 -47.363  1.00  0.00     0.008 C 
ENDBRANCH  12  17
ENDBRANCH  11  12
ENDBRANCH   1  11
TORSDOF 1
ENDMDL
MODEL 7
REMARK VINA RESULT:    -3.432      8.891     11.075
REMARK INTER + INTRA:          -4.989
REMARK INTER:                  -4.789
REMARK INTRA:                  -0.200
REMARK UNBOUND:                 0.249
REMARK SMILES CC1=CCC[C@@H](C)C(=O)C[C@H](C(C)C)C(=O)C1
REMARK SMILES IDX 8 1 9 2 6 3 7 4 5 5 4 6 3 7 2 8 1 9 10 11 11 12 15 13 16 14
REMARK SMILES IDX 17 15 12 17 13 18 14 19
REMARK H PARENT
REMARK Flexibility Score: 70.00
ROOT
ATOM      1  C   UNL     1       6.933 -19.689 -36.561  1.00  0.00     0.136 C 
ATOM      2  O   UNL     1       6.010 -20.445 -36.831  1.00  0.00    -0.299 OA
ENDROOT
BRANCH   1   3
ATOM      3  C   UNL     1       6.759 -18.206 -36.853  1.00  0.00     0.053 C 
ATOM      4  C   UNL     1       5.390 -17.714 -36.360  1.00  0.00     0.016 C 
BRANCH   3   5
ATOM      5  C   UNL     1       6.968 -17.862 -38.348  1.00  0.00     0.015 C 
BRANCH   5   6
ATOM      6  C   UNL     1       8.253 -17.074 -38.680  1.00  0.00     0.028 C 
BRANCH   6   7
ATOM      7  C   UNL     1       9.310 -17.800 -39.482  1.00  0.00    -0.028 C 
ATOM      8  C   UNL     1      10.221 -18.678 -39.001  1.00  0.00    -0.070 CG0
ATOM      9  C   UNL     1      11.078 -19.419 -39.999  1.00  0.00     0.039 C 
ATOM     10  G   UNL     1      10.479 -18.906 -37.526  1.00  0.00     0.000 G0
ENDBRANCH   6   7
ENDBRANCH   5   6
ENDBRANCH   3   5
ENDBRANCH   1   3
BRANCH   1  11
ATOM     11  C   UNL     1       8.203 -20.292 -35.979  1.00  0.00     0.087 C 
BRANCH  11  12
ATOM     12  C   UNL     1       9.068 -21.066 -37.010  1.00  0.00     0.066 C 
BRANCH  12  13
ATOM     13  C   UNL     1      10.415 -20.401 -37.231  1.00  0.00     0.140 C 
ATOM     14  O   UNL     1      11.443 -21.050 -37.104  1.00  0.00    -0.299 OA
BRANCH  13  15
ATOM     15  C   UNL     1      10.512 -18.921 -37.526  1.00  0.00     0.106 CG0
ATOM     16  G   UNL     1      10.213 -18.664 -38.989  1.00  0.00     0.000 G0
ENDBRANCH  13  15
ENDBRANCH  12  13
BRANCH  12  17
ATOM     17  C   UNL     1       9.162 -22.592 -36.695  1.00  0.00    -0.006 C 
ATOM     18  C   UNL     1       8.779 -22.878 -35.235  1.00  0.00     0.008 C 
ATOM     19  C   UNL     1       8.347 -23.505 -37.632  1.00  0.00     0.008 C 
ENDBRANCH  12  17
ENDBRANCH  11  12
ENDBRANCH   1  11
TORSDOF 1
ENDMDL
MODEL 8
REMARK VINA RESULT:    -3.331      9.796     11.797
REMARK INTER + INTRA:          -4.835
REMARK INTER:                  -4.684
REMARK INTRA:                  -0.151
REMARK UNBOUND:                 0.249
REMARK SMILES CC1=CCC[C@@H](C)C(=O)C[C@H](C(C)C)C(=O)C1
REMARK SMILES IDX 8 1 9 2 6 3 7 4 5 5 4 6 3 7 2 8 1 9 10 11 11 12 15 13 16 14
REMARK SMILES IDX 17 15 12 17 13 18 14 19
REMARK H PARENT
REMARK Flexibility Score: 70.00
ROOT
ATOM      1  C   UNL     1      10.271 -22.899 -36.727  1.00  0.00     0.136 C 
ATOM      2  O   UNL     1      11.153 -23.726 -36.913  1.00  0.00    -0.299 OA
ENDROOT
BRANCH   1   3
ATOM      3  C   UNL     1       8.847 -23.397 -36.531  1.00  0.00     0.053 C 
ATOM      4  C   UNL     1       8.258 -23.893 -37.860  1.00  0.00     0.016 C 
BRANCH   3   5
ATOM      5  C   UNL     1       7.927 -22.338 -35.878  1.00  0.00     0.015 C 
BRANCH   5   6
ATOM      6  C   UNL     1       6.965 -21.603 -36.836  1.00  0.00     0.028 C 
BRANCH   6   7
ATOM      7  C   UNL     1       6.853 -20.103 -36.673  1.00  0.00    -0.028 C 
ATOM      8  C   UNL     1       7.365 -19.164 -37.503  1.00  0.00    -0.070 CG0
ATOM      9  C   UNL     1       6.994 -17.724 -37.247  1.00  0.00     0.039 C 
ATOM     10  G   UNL     1       8.339 -19.466 -38.624  1.00  0.00     0.000 G0
ENDBRANCH   6   7
ENDBRANCH   5   6
ENDBRANCH   3   5
ENDBRANCH   1   3
BRANCH   1  11
ATOM     11  C   UNL     1      10.658 -21.428 -36.734  1.00  0.00     0.087 C 
BRANCH  11  12
ATOM     12  C   UNL     1      10.588 -20.761 -38.134  1.00  0.00     0.066 C 
BRANCH  12  13
ATOM     13  C   UNL     1       9.764 -19.485 -38.113  1.00  0.00     0.140 C 
ATOM     14  O   UNL     1      10.224 -18.472 -37.607  1.00  0.00    -0.299 OA
BRANCH  13  15
ATOM     15  C   UNL     1       8.345 -19.468 -38.633  1.00  0.00     0.106 CG0
ATOM     16  G   UNL     1       7.381 -19.185 -37.498  1.00  0.00     0.000 G0
ENDBRANCH  13  15
ENDBRANCH  12  13
BRANCH  12  17
ATOM     17  C   UNL     1      11.992 -20.594 -38.796  1.00  0.00    -0.006 C 
ATOM     18  C   UNL     1      13.076 -20.357 -37.733  1.00  0.00     0.008 C 
ATOM     19  C   UNL     1      12.420 -21.749 -39.722  1.00  0.00     0.008 C 
ENDBRANCH  12  17
ENDBRANCH  11  12
ENDBRANCH   1  11
TORSDOF 1
ENDMDL
MODEL 9
REMARK VINA RESULT:    -3.309      9.874     12.028
REMARK INTER + INTRA:          -4.802
REMARK INTER:                  -4.530
REMARK INTRA:                  -0.271
REMARK UNBOUND:                 0.249
REMARK SMILES CC1=CCC[C@@H](C)C(=O)C[C@H](C(C)C)C(=O)C1
REMARK SMILES IDX 8 1 9 2 6 3 7 4 5 5 4 6 3 7 2 8 1 9 10 11 11 12 15 13 16 14
REMARK SMILES IDX 17 15 12 17 13 18 14 19
REMARK H PARENT
REMARK Flexibility Score: 70.00
ROOT
ATOM      1  C   UNL     1      10.805 -23.347 -37.944  1.00  0.00     0.136 C 
ATOM      2  O   UNL     1      10.201 -23.700 -38.948  1.00  0.00    -0.299 OA
ENDROOT
BRANCH   1   3
ATOM      3  C   UNL     1       9.997 -22.840 -36.758  1.00  0.00     0.053 C 
ATOM      4  C   UNL     1       8.716 -23.668 -36.582  1.00  0.00     0.016 C 
BRANCH   3   5
ATOM      5  C   UNL     1       9.673 -21.330 -36.856  1.00  0.00     0.015 C 
BRANCH   5   6
ATOM      6  C   UNL     1      10.731 -20.378 -36.257  1.00  0.00     0.028 C 
BRANCH   6   7
ATOM      7  C   UNL     1      11.413 -19.426 -37.214  1.00  0.00    -0.028 C 
ATOM      8  C   UNL     1      12.624 -19.600 -37.794  1.00  0.00    -0.070 CG0
ATOM      9  C   UNL     1      13.046 -18.608 -38.849  1.00  0.00     0.039 C 
ATOM     10  G   UNL     1      13.603 -20.685 -37.396  1.00  0.00     0.000 G0
ENDBRANCH   6   7
ENDBRANCH   5   6
ENDBRANCH   3   5
ENDBRANCH   1   3
BRANCH   1  11
ATOM     11  C   UNL     1      12.325 -23.412 -37.965  1.00  0.00     0.087 C 
BRANCH  11  12
ATOM     12  C   UNL     1      12.979 -22.586 -39.105  1.00  0.00     0.066 C 
BRANCH  12  13
ATOM     13  C   UNL     1      13.965 -21.563 -38.569  1.00  0.00     0.140 C 
ATOM     14  O   UNL     1      15.085 -21.486 -39.052  1.00  0.00    -0.299 OA
BRANCH  13  15
ATOM     15  C   UNL     1      13.612 -20.690 -37.386  1.00  0.00     0.106 CG0
ATOM     16  G   UNL     1      12.636 -19.612 -37.811  1.00  0.00     0.000 G0
ENDBRANCH  13  15
ENDBRANCH  12  13
BRANCH  12  17
ATOM     17  C   UNL     1      13.558 -23.482 -40.246  1.00  0.00    -0.006 C 
ATOM     18  C   UNL     1      13.937 -24.873 -39.714  1.00  0.00     0.008 C 
ATOM     19  C   UNL     1      12.653 -23.631 -41.484  1.00  0.00     0.008 C 
ENDBRANCH  12  17
ENDBRANCH  11  12
ENDBRANCH   1  11
TORSDOF 1
ENDMDL
