MODEL 1
REMARK VINA RESULT:    -3.481      0.000      0.000
REMARK INTER + INTRA:          -4.264
REMARK INTER:                  -4.092
REMARK INTRA:                  -0.172
REMARK UNBOUND:                -0.172
REMARK SMILES O=C([O-])CCC(=O)[O-]
REMARK SMILES IDX 4 1 2 2 1 3 3 4 5 5 6 6 7 7 8 8
REMARK H PARENT
REMARK Flexibility Score: inf
ROOT
ATOM      1  C   UNL     1      -2.870  35.282  98.347  1.00  0.00     0.059 C 
ENDROOT
BRANCH   1   2
ATOM      2  C   UNL     1      -4.023  34.584  99.004  1.00  0.00     0.042 C 
ATOM      3  O   UNL     1      -4.011  34.370 100.245  1.00  0.00    -0.550 OA
ATOM      4  O   UNL     1      -5.126  34.206  98.250  1.00  0.00    -0.550 OA
ENDBRANCH   1   2
BRANCH   1   5
ATOM      5  C   UNL     1      -3.342  36.439  97.461  1.00  0.00     0.059 C 
BRANCH   5   6
ATOM      6  C   UNL     1      -3.926  37.553  98.275  1.00  0.00     0.042 C 
ATOM      7  O   UNL     1      -3.177  38.302  98.956  1.00  0.00    -0.550 OA
ATOM      8  O   UNL     1      -5.295  37.786  98.252  1.00  0.00    -0.550 OA
ENDBRANCH   5   6
ENDBRANCH   1   5
TORSDOF 3
ENDMDL
MODEL 2
REMARK VINA RESULT:    -3.439      1.940      2.485
REMARK INTER + INTRA:          -4.215
REMARK INTER:                  -4.023
REMARK INTRA:                  -0.192
REMARK UNBOUND:                -0.172
REMARK SMILES O=C([O-])CCC(=O)[O-]
REMARK SMILES IDX 4 1 2 2 1 3 3 4 5 5 6 6 7 7 8 8
REMARK H PARENT
REMARK Flexibility Score: inf
ROOT
ATOM      1  C   UNL     1      -3.422  34.819 100.157  1.00  0.00     0.059 C 
ENDROOT
BRANCH   1   2
ATOM      2  C   UNL     1      -3.480  36.096 100.941  1.00  0.00     0.042 C 
ATOM      3  O   UNL     1      -2.421  36.714 101.226  1.00  0.00    -0.550 OA
ATOM      4  O   UNL     1      -4.708  36.622 101.322  1.00  0.00    -0.550 OA
ENDBRANCH   1   2
BRANCH   1   5
ATOM      5  C   UNL     1      -2.845  35.044  98.756  1.00  0.00     0.059 C 
BRANCH   5   6
ATOM      6  C   UNL     1      -3.683  35.999  97.962  1.00  0.00     0.042 C 
ATOM      7  O   UNL     1      -3.173  37.047  97.486  1.00  0.00    -0.550 OA
ATOM      8  O   UNL     1      -5.019  35.711  97.717  1.00  0.00    -0.550 OA
ENDBRANCH   5   6
ENDBRANCH   1   5
TORSDOF 3
ENDMDL
MODEL 3
REMARK VINA RESULT:    -3.438      1.924      2.733
REMARK INTER + INTRA:          -4.213
REMARK INTER:                  -4.022
REMARK INTRA:                  -0.191
REMARK UNBOUND:                -0.172
REMARK SMILES O=C([O-])CCC(=O)[O-]
REMARK SMILES IDX 4 1 2 2 1 3 3 4 5 5 6 6 7 7 8 8
REMARK H PARENT
REMARK Flexibility Score: inf
ROOT
ATOM      1  C   UNL     1      -2.819  35.068  98.735  1.00  0.00     0.059 C 
ENDROOT
BRANCH   1   2
ATOM      2  C   UNL     1      -3.657  36.020  97.937  1.00  0.00     0.042 C 
ATOM      3  O   UNL     1      -3.147  37.070  97.465  1.00  0.00    -0.550 OA
ATOM      4  O   UNL     1      -4.990  35.728  97.683  1.00  0.00    -0.550 OA
ENDBRANCH   1   2
BRANCH   1   5
ATOM      5  C   UNL     1      -3.416  34.820 100.124  1.00  0.00     0.059 C 
BRANCH   5   6
ATOM      6  C   UNL     1      -3.528  36.090 100.910  1.00  0.00     0.042 C 
ATOM      7  O   UNL     1      -2.492  36.726 101.240  1.00  0.00    -0.550 OA
ATOM      8  O   UNL     1      -4.779  36.592 101.246  1.00  0.00    -0.550 OA
ENDBRANCH   5   6
ENDBRANCH   1   5
TORSDOF 3
ENDMDL
MODEL 4
REMARK VINA RESULT:    -3.436      0.160      3.386
REMARK INTER + INTRA:          -4.210
REMARK INTER:                  -4.034
REMARK INTRA:                  -0.176
REMARK UNBOUND:                -0.172
REMARK SMILES O=C([O-])CCC(=O)[O-]
REMARK SMILES IDX 4 1 2 2 1 3 3 4 5 5 6 6 7 7 8 8
REMARK H PARENT
REMARK Flexibility Score: inf
ROOT
ATOM      1  C   UNL     1      -3.273  36.478  97.529  1.00  0.00     0.059 C 
ENDROOT
BRANCH   1   2
ATOM      2  C   UNL     1      -3.910  37.547  98.364  1.00  0.00     0.042 C 
ATOM      3  O   UNL     1      -5.134  37.812  98.228  1.00  0.00    -0.550 OA
ATOM      4  O   UNL     1      -3.161  38.222  99.318  1.00  0.00    -0.550 OA
ENDBRANCH   1   2
BRANCH   1   5
ATOM      5  C   UNL     1      -2.851  35.276  98.379  1.00  0.00     0.059 C 
BRANCH   5   6
ATOM      6  C   UNL     1      -4.032  34.609  99.015  1.00  0.00     0.042 C 
ATOM      7  O   UNL     1      -4.087  34.473 100.266  1.00  0.00    -0.550 OA
ATOM      8  O   UNL     1      -5.090  34.173  98.228  1.00  0.00    -0.550 OA
ENDBRANCH   5   6
ENDBRANCH   1   5
TORSDOF 3
ENDMDL
MODEL 5
REMARK VINA RESULT:    -3.323      1.991      2.652
REMARK INTER + INTRA:          -4.078
REMARK INTER:                  -3.896
REMARK INTRA:                  -0.181
REMARK UNBOUND:                -0.172
REMARK SMILES O=C([O-])CCC(=O)[O-]
REMARK SMILES IDX 4 1 2 2 1 3 3 4 5 5 6 6 7 7 8 8
REMARK H PARENT
REMARK Flexibility Score: inf
ROOT
ATOM      1  C   UNL     1      -5.487  35.209  99.753  1.00  0.00     0.059 C 
ENDROOT
BRANCH   1   2
ATOM      2  C   UNL     1      -4.352  35.824 100.516  1.00  0.00     0.042 C 
ATOM      3  O   UNL     1      -4.538  36.868 101.195  1.00  0.00    -0.550 OA
ATOM      4  O   UNL     1      -3.101  35.222 100.506  1.00  0.00    -0.550 OA
ENDBRANCH   1   2
BRANCH   1   5
ATOM      5  C   UNL     1      -5.113  34.965  98.287  1.00  0.00     0.059 C 
BRANCH   5   6
ATOM      6  C   UNL     1      -4.894  36.252  97.553  1.00  0.00     0.042 C 
ATOM      7  O   UNL     1      -5.846  37.060  97.392  1.00  0.00    -0.550 OA
ATOM      8  O   UNL     1      -3.629  36.575  97.080  1.00  0.00    -0.550 OA
ENDBRANCH   5   6
ENDBRANCH   1   5
TORSDOF 3
ENDMDL
MODEL 6
REMARK VINA RESULT:    -3.321      1.953      3.222
REMARK INTER + INTRA:          -4.075
REMARK INTER:                  -3.902
REMARK INTRA:                  -0.173
REMARK UNBOUND:                -0.172
REMARK SMILES O=C([O-])CCC(=O)[O-]
REMARK SMILES IDX 4 1 2 2 1 3 3 4 5 5 6 6 7 7 8 8
REMARK H PARENT
REMARK Flexibility Score: inf
ROOT
ATOM      1  C   UNL     1      -5.114  34.956  98.202  1.00  0.00     0.059 C 
ENDROOT
BRANCH   1   2
ATOM      2  C   UNL     1      -4.866  36.282  97.547  1.00  0.00     0.042 C 
ATOM      3  O   UNL     1      -5.807  37.107  97.411  1.00  0.00    -0.550 OA
ATOM      4  O   UNL     1      -3.588  36.618  97.122  1.00  0.00    -0.550 OA
ENDBRANCH   1   2
BRANCH   1   5
ATOM      5  C   UNL     1      -5.590  35.123  99.649  1.00  0.00     0.059 C 
BRANCH   5   6
ATOM      6  C   UNL     1      -4.501  35.658 100.527  1.00  0.00     0.042 C 
ATOM      7  O   UNL     1      -3.372  35.101 100.549  1.00  0.00    -0.550 OA
ATOM      8  O   UNL     1      -4.722  36.796 101.294  1.00  0.00    -0.550 OA
ENDBRANCH   5   6
ENDBRANCH   1   5
TORSDOF 3
ENDMDL
MODEL 7
REMARK VINA RESULT:    -3.233      1.331      2.018
REMARK INTER + INTRA:          -3.972
REMARK INTER:                  -3.836
REMARK INTRA:                  -0.136
REMARK UNBOUND:                -0.172
REMARK SMILES O=C([O-])CCC(=O)[O-]
REMARK SMILES IDX 4 1 2 2 1 3 3 4 5 5 6 6 7 7 8 8
REMARK H PARENT
REMARK Flexibility Score: inf
ROOT
ATOM      1  C   UNL     1      -2.962  35.268  98.296  1.00  0.00     0.059 C 
ENDROOT
BRANCH   1   2
ATOM      2  C   UNL     1      -3.142  35.227  99.784  1.00  0.00     0.042 C 
ATOM      3  O   UNL     1      -3.861  34.338 100.311  1.00  0.00    -0.550 OA
ATOM      4  O   UNL     1      -2.485  36.148 100.589  1.00  0.00    -0.550 OA
ENDBRANCH   1   2
BRANCH   1   5
ATOM      5  C   UNL     1      -3.182  36.679  97.740  1.00  0.00     0.059 C 
BRANCH   5   6
ATOM      6  C   UNL     1      -4.640  36.995  97.604  1.00  0.00     0.042 C 
ATOM      7  O   UNL     1      -5.292  36.572  96.613  1.00  0.00    -0.550 OA
ATOM      8  O   UNL     1      -5.288  37.726  98.592  1.00  0.00    -0.550 OA
ENDBRANCH   5   6
ENDBRANCH   1   5
TORSDOF 3
ENDMDL
MODEL 8
REMARK VINA RESULT:    -3.230      1.780      3.031
REMARK INTER + INTRA:          -3.969
REMARK INTER:                  -3.781
REMARK INTRA:                  -0.188
REMARK UNBOUND:                -0.172
REMARK SMILES O=C([O-])CCC(=O)[O-]
REMARK SMILES IDX 4 1 2 2 1 3 3 4 5 5 6 6 7 7 8 8
REMARK H PARENT
REMARK Flexibility Score: inf
ROOT
ATOM      1  C   UNL     1      -3.134  35.201 100.463  1.00  0.00     0.059 C 
ENDROOT
BRANCH   1   2
ATOM      2  C   UNL     1      -3.754  36.511 100.844  1.00  0.00     0.042 C 
ATOM      3  O   UNL     1      -4.862  36.538 101.441  1.00  0.00    -0.550 OA
ATOM      4  O   UNL     1      -3.087  37.700 100.575  1.00  0.00    -0.550 OA
ENDBRANCH   1   2
BRANCH   1   5
ATOM      5  C   UNL     1      -2.949  35.085  98.947  1.00  0.00     0.059 C 
BRANCH   5   6
ATOM      6  C   UNL     1      -4.253  35.218  98.222  1.00  0.00     0.042 C 
ATOM      7  O   UNL     1      -5.155  34.352  98.374  1.00  0.00    -0.550 OA
ATOM      8  O   UNL     1      -4.486  36.319  97.407  1.00  0.00    -0.550 OA
ENDBRANCH   5   6
ENDBRANCH   1   5
TORSDOF 3
ENDMDL
MODEL 9
REMARK VINA RESULT:    -3.111      2.511      3.390
REMARK INTER + INTRA:          -3.829
REMARK INTER:                  -3.738
REMARK INTRA:                  -0.090
REMARK UNBOUND:                -0.172
REMARK SMILES O=C([O-])CCC(=O)[O-]
REMARK SMILES IDX 4 1 2 2 1 3 3 4 5 5 6 6 7 7 8 8
REMARK H PARENT
REMARK Flexibility Score: inf
ROOT
ATOM      1  C   UNL     1      -4.818  38.185  98.247  1.00  0.00     0.059 C 
ENDROOT
BRANCH   1   2
ATOM      2  C   UNL     1      -4.500  37.201  97.162  1.00  0.00     0.042 C 
ATOM      3  O   UNL     1      -5.398  36.828  96.362  1.00  0.00    -0.550 OA
ATOM      4  O   UNL     1      -3.203  36.728  97.011  1.00  0.00    -0.550 OA
ENDBRANCH   1   2
BRANCH   1   5
ATOM      5  C   UNL     1      -3.643  38.356  99.215  1.00  0.00     0.059 C 
BRANCH   5   6
ATOM      6  C   UNL     1      -3.747  37.416 100.377  1.00  0.00     0.042 C 
ATOM      7  O   UNL     1      -4.875  37.047 100.796  1.00  0.00    -0.550 OA
ATOM      8  O   UNL     1      -2.595  36.918 100.973  1.00  0.00    -0.550 OA
ENDBRANCH   5   6
ENDBRANCH   1   5
TORSDOF 3
ENDMDL
