MODEL 1
REMARK VINA RESULT:    -5.833      0.000      0.000
REMARK INTER + INTRA:          -7.355
REMARK INTER:                  -7.027
REMARK INTRA:                  -0.328
REMARK UNBOUND:                -0.328
REMARK SMILES O=c1c(O)c(-c2ccc(O)c(O)c2)oc2cc(O)cc(O)c12
REMARK SMILES IDX 5 1 3 2 2 3 1 4 22 5 20 6 19 7 17 8 16 9 15 10 14 11 6 12
REMARK SMILES IDX 7 13 8 14 9 15 13 16 11 17 10 18 12 20 4 22 21 24 18 26
REMARK H PARENT 10 19 12 21 4 23 21 25 18 27
REMARK Flexibility Score: inf
ROOT
ATOM      1  C   UNL     1     130.920 135.316 126.997  1.00  0.00     0.180 A 
ATOM      2  C   UNL     1     131.935 134.478 127.491  1.00  0.00     0.208 A 
ATOM      3  C   UNL     1     132.761 134.947 128.525  1.00  0.00     0.238 A 
ATOM      4  O   UNL     1     133.632 134.172 129.000  1.00  0.00    -0.285 OA
ATOM      5  C   UNL     1     132.571 136.251 129.042  1.00  0.00     0.111 A 
ATOM      6  C   UNL     1     133.375 136.841 130.063  1.00  0.00     0.134 A 
ATOM      7  C   UNL     1     133.016 138.090 130.589  1.00  0.00     0.093 A 
ATOM      8  C   UNL     1     131.920 138.794 130.085  1.00  0.00     0.123 A 
ATOM      9  C   UNL     1     131.165 138.252 129.048  1.00  0.00     0.094 A 
ATOM     10  C   UNL     1     131.477 136.993 128.528  1.00  0.00     0.146 A 
ATOM     11  O   UNL     1     130.726 136.508 127.547  1.00  0.00    -0.452 OA
ENDROOT
BRANCH   1  12
ATOM     12  C   UNL     1     130.027 134.903 125.891  1.00  0.00     0.025 A 
ATOM     13  C   UNL     1     128.753 134.393 126.186  1.00  0.00     0.016 A 
ATOM     14  C   UNL     1     127.885 134.016 125.157  1.00  0.00     0.051 A 
ATOM     15  C   UNL     1     128.270 134.158 123.821  1.00  0.00     0.157 A 
ATOM     16  C   UNL     1     130.403 135.064 124.545  1.00  0.00     0.062 A 
ATOM     17  C   UNL     1     129.533 134.689 123.512  1.00  0.00     0.158 A 
BRANCH  15  18
ATOM     18  O   UNL     1     127.385 133.772 122.816  1.00  0.00    -0.504 OA
ATOM     19  H   UNL     1     126.921 132.871 122.822  1.00  0.00     0.293 HD
ENDBRANCH  15  18
BRANCH  17  20
ATOM     20  O   UNL     1     129.918 134.846 122.180  1.00  0.00    -0.504 OA
ATOM     21  H   UNL     1     129.270 134.685 121.418  1.00  0.00     0.293 HD
ENDBRANCH  17  20
ENDBRANCH   1  12
BRANCH   2  22
ATOM     22  O   UNL     1     132.090 133.187 126.981  1.00  0.00    -0.502 OA
ATOM     23  H   UNL     1     132.883 132.601 127.214  1.00  0.00     0.293 HD
ENDBRANCH   2  22
BRANCH   6  24
ATOM     24  O   UNL     1     134.543 136.263 130.572  1.00  0.00    -0.507 OA
ATOM     25  H   UNL     1     134.760 136.176 131.553  1.00  0.00     0.293 HD
ENDBRANCH   6  24
BRANCH   8  26
ATOM     26  O   UNL     1     131.579 140.042 130.604  1.00  0.00    -0.508 OA
ATOM     27  H   UNL     1     130.615 140.295 130.788  1.00  0.00     0.293 HD
ENDBRANCH   8  26
TORSDOF 6
ENDMDL
MODEL 2
REMARK VINA RESULT:    -5.754      3.150      7.835
REMARK INTER + INTRA:          -7.259
REMARK INTER:                  -6.981
REMARK INTRA:                  -0.278
REMARK UNBOUND:                -0.328
REMARK SMILES O=c1c(O)c(-c2ccc(O)c(O)c2)oc2cc(O)cc(O)c12
REMARK SMILES IDX 5 1 3 2 2 3 1 4 22 5 20 6 19 7 17 8 16 9 15 10 14 11 6 12
REMARK SMILES IDX 7 13 8 14 9 15 13 16 11 17 10 18 12 20 4 22 21 24 18 26
REMARK H PARENT 10 19 12 21 4 23 21 25 18 27
REMARK Flexibility Score: inf
ROOT
ATOM      1  C   UNL     1     133.797 135.169 130.615  1.00  0.00     0.180 A 
ATOM      2  C   UNL     1     133.289 136.449 130.896  1.00  0.00     0.208 A 
ATOM      3  C   UNL     1     132.409 137.049 129.981  1.00  0.00     0.238 A 
ATOM      4  O   UNL     1     131.916 138.172 130.264  1.00  0.00    -0.285 OA
ATOM      5  C   UNL     1     132.060 136.368 128.790  1.00  0.00     0.111 A 
ATOM      6  C   UNL     1     131.209 136.898 127.775  1.00  0.00     0.134 A 
ATOM      7  C   UNL     1     130.827 136.085 126.699  1.00  0.00     0.093 A 
ATOM      8  C   UNL     1     131.319 134.784 126.572  1.00  0.00     0.123 A 
ATOM      9  C   UNL     1     132.198 134.279 127.527  1.00  0.00     0.094 A 
ATOM     10  C   UNL     1     132.567 135.053 128.629  1.00  0.00     0.146 A 
ATOM     11  O   UNL     1     133.399 134.530 129.522  1.00  0.00    -0.452 OA
ENDROOT
BRANCH   1  12
ATOM     12  C   UNL     1     134.748 134.483 131.519  1.00  0.00     0.025 A 
ATOM     13  C   UNL     1     136.091 134.888 131.544  1.00  0.00     0.016 A 
ATOM     14  C   UNL     1     137.003 134.269 132.403  1.00  0.00     0.051 A 
ATOM     15  C   UNL     1     136.583 133.248 133.261  1.00  0.00     0.157 A 
ATOM     16  C   UNL     1     134.324 133.470 132.397  1.00  0.00     0.062 A 
ATOM     17  C   UNL     1     135.236 132.848 133.262  1.00  0.00     0.158 A 
BRANCH  15  18
ATOM     18  O   UNL     1     137.514 132.646 134.106  1.00  0.00    -0.504 OA
ATOM     19  H   UNL     1     138.396 133.087 134.337  1.00  0.00     0.293 HD
ENDBRANCH  15  18
BRANCH  17  20
ATOM     20  O   UNL     1     134.808 131.840 134.125  1.00  0.00    -0.504 OA
ATOM     21  H   UNL     1     135.001 130.863 133.937  1.00  0.00     0.293 HD
ENDBRANCH  17  20
ENDBRANCH   1  12
BRANCH   2  22
ATOM     22  O   UNL     1     133.630 137.094 132.088  1.00  0.00    -0.502 OA
ATOM     23  H   UNL     1     133.330 136.757 132.995  1.00  0.00     0.293 HD
ENDBRANCH   2  22
BRANCH   6  24
ATOM     24  O   UNL     1     130.736 138.215 127.759  1.00  0.00    -0.507 OA
ATOM     25  H   UNL     1     131.321 139.035 127.800  1.00  0.00     0.293 HD
ENDBRANCH   6  24
BRANCH   8  26
ATOM     26  O   UNL     1     130.947 133.986 125.491  1.00  0.00    -0.508 OA
ATOM     27  H   UNL     1     130.024 133.570 125.431  1.00  0.00     0.293 HD
ENDBRANCH   8  26
TORSDOF 6
ENDMDL
MODEL 3
REMARK VINA RESULT:    -5.716      1.534      3.111
REMARK INTER + INTRA:          -7.214
REMARK INTER:                  -6.900
REMARK INTRA:                  -0.314
REMARK UNBOUND:                -0.328
REMARK SMILES O=c1c(O)c(-c2ccc(O)c(O)c2)oc2cc(O)cc(O)c12
REMARK SMILES IDX 5 1 3 2 2 3 1 4 22 5 20 6 19 7 17 8 16 9 15 10 14 11 6 12
REMARK SMILES IDX 7 13 8 14 9 15 13 16 11 17 10 18 12 20 4 22 21 24 18 26
REMARK H PARENT 10 19 12 21 4 23 21 25 18 27
REMARK Flexibility Score: inf
ROOT
ATOM      1  C   UNL     1     131.416 135.692 127.624  1.00  0.00     0.180 A 
ATOM      2  C   UNL     1     131.382 137.005 128.124  1.00  0.00     0.208 A 
ATOM      3  C   UNL     1     132.117 137.312 129.281  1.00  0.00     0.238 A 
ATOM      4  O   UNL     1     132.126 138.501 129.692  1.00  0.00    -0.285 OA
ATOM      5  C   UNL     1     132.864 136.300 129.930  1.00  0.00     0.111 A 
ATOM      6  C   UNL     1     133.613 136.491 131.130  1.00  0.00     0.134 A 
ATOM      7  C   UNL     1     134.420 135.452 131.613  1.00  0.00     0.093 A 
ATOM      8  C   UNL     1     134.452 134.210 130.974  1.00  0.00     0.123 A 
ATOM      9  C   UNL     1     133.678 133.996 129.836  1.00  0.00     0.094 A 
ATOM     10  C   UNL     1     132.892 135.024 129.310  1.00  0.00     0.146 A 
ATOM     11  O   UNL     1     132.178 134.781 128.218  1.00  0.00    -0.452 OA
ENDROOT
BRANCH   1  12
ATOM     12  C   UNL     1     130.648 135.285 126.425  1.00  0.00     0.025 A 
ATOM     13  C   UNL     1     129.360 134.749 126.579  1.00  0.00     0.016 A 
ATOM     14  C   UNL     1     128.609 134.378 125.461  1.00  0.00     0.051 A 
ATOM     15  C   UNL     1     129.125 134.551 124.173  1.00  0.00     0.157 A 
ATOM     16  C   UNL     1     131.157 135.478 125.128  1.00  0.00     0.062 A 
ATOM     17  C   UNL     1     130.404 135.107 124.005  1.00  0.00     0.158 A 
BRANCH  15  18
ATOM     18  O   UNL     1     128.355 134.169 123.076  1.00  0.00    -0.504 OA
ATOM     19  H   UNL     1     127.879 133.276 123.036  1.00  0.00     0.293 HD
ENDBRANCH  15  18
BRANCH  17  20
ATOM     20  O   UNL     1     130.920 135.295 122.722  1.00  0.00    -0.504 OA
ATOM     21  H   UNL     1     130.697 136.119 122.176  1.00  0.00     0.293 HD
ENDBRANCH  17  20
ENDBRANCH   1  12
BRANCH   2  22
ATOM     22  O   UNL     1     130.655 137.993 127.455  1.00  0.00    -0.502 OA
ATOM     23  H   UNL     1     130.552 138.005 126.447  1.00  0.00     0.293 HD
ENDBRANCH   2  22
BRANCH   6  24
ATOM     24  O   UNL     1     133.579 137.661 131.895  1.00  0.00    -0.507 OA
ATOM     25  H   UNL     1     132.756 138.224 132.046  1.00  0.00     0.293 HD
ENDBRANCH   6  24
BRANCH   8  26
ATOM     26  O   UNL     1     135.246 133.177 131.470  1.00  0.00    -0.508 OA
ATOM     27  H   UNL     1     136.057 133.362 132.049  1.00  0.00     0.293 HD
ENDBRANCH   8  26
TORSDOF 6
ENDMDL
MODEL 4
REMARK VINA RESULT:    -5.620      2.487      5.011
REMARK INTER + INTRA:          -7.098
REMARK INTER:                  -7.049
REMARK INTRA:                  -0.049
REMARK UNBOUND:                -0.328
REMARK SMILES O=c1c(O)c(-c2ccc(O)c(O)c2)oc2cc(O)cc(O)c12
REMARK SMILES IDX 5 1 3 2 2 3 1 4 22 5 20 6 19 7 17 8 16 9 15 10 14 11 6 12
REMARK SMILES IDX 7 13 8 14 9 15 13 16 11 17 10 18 12 20 4 22 21 24 18 26
REMARK H PARENT 10 19 12 21 4 23 21 25 18 27
REMARK Flexibility Score: inf
ROOT
ATOM      1  C   UNL     1     132.896 137.873 129.171  1.00  0.00     0.180 A 
ATOM      2  C   UNL     1     132.173 138.827 129.907  1.00  0.00     0.208 A 
ATOM      3  C   UNL     1     132.877 139.788 130.653  1.00  0.00     0.238 A 
ATOM      4  O   UNL     1     132.225 140.672 131.266  1.00  0.00    -0.285 OA
ATOM      5  C   UNL     1     134.292 139.772 130.664  1.00  0.00     0.111 A 
ATOM      6  C   UNL     1     135.106 140.673 131.415  1.00  0.00     0.134 A 
ATOM      7  C   UNL     1     136.497 140.649 131.250  1.00  0.00     0.093 A 
ATOM      8  C   UNL     1     137.105 139.713 130.409  1.00  0.00     0.123 A 
ATOM      9  C   UNL     1     136.323 138.792 129.718  1.00  0.00     0.094 A 
ATOM     10  C   UNL     1     134.931 138.815 129.834  1.00  0.00     0.146 A 
ATOM     11  O   UNL     1     134.222 137.925 129.150  1.00  0.00    -0.452 OA
ENDROOT
BRANCH   1  12
ATOM     12  C   UNL     1     132.226 136.815 128.382  1.00  0.00     0.025 A 
ATOM     13  C   UNL     1     131.316 137.174 127.376  1.00  0.00     0.016 A 
ATOM     14  C   UNL     1     130.688 136.193 126.605  1.00  0.00     0.051 A 
ATOM     15  C   UNL     1     130.970 134.840 126.817  1.00  0.00     0.157 A 
ATOM     16  C   UNL     1     132.524 135.454 128.579  1.00  0.00     0.062 A 
ATOM     17  C   UNL     1     131.895 134.468 127.805  1.00  0.00     0.158 A 
BRANCH  15  18
ATOM     18  O   UNL     1     130.326 133.882 126.035  1.00  0.00    -0.504 OA
ATOM     19  H   UNL     1     129.369 133.599 126.208  1.00  0.00     0.293 HD
ENDBRANCH  15  18
BRANCH  17  20
ATOM     20  O   UNL     1     132.192 133.120 128.013  1.00  0.00    -0.504 OA
ATOM     21  H   UNL     1     132.689 132.807 128.838  1.00  0.00     0.293 HD
ENDBRANCH  17  20
ENDBRANCH   1  12
BRANCH   2  22
ATOM     22  O   UNL     1     130.777 138.838 129.865  1.00  0.00    -0.502 OA
ATOM     23  H   UNL     1     130.213 139.237 130.605  1.00  0.00     0.293 HD
ENDBRANCH   2  22
BRANCH   6  24
ATOM     24  O   UNL     1     134.605 141.583 132.351  1.00  0.00    -0.507 OA
ATOM     25  H   UNL     1     134.133 141.328 133.205  1.00  0.00     0.293 HD
ENDBRANCH   6  24
BRANCH   8  26
ATOM     26  O   UNL     1     138.491 139.687 130.262  1.00  0.00    -0.508 OA
ATOM     27  H   UNL     1     139.109 139.638 131.064  1.00  0.00     0.293 HD
ENDBRANCH   8  26
TORSDOF 6
ENDMDL
MODEL 5
REMARK VINA RESULT:    -5.539      3.453      5.885
REMARK INTER + INTRA:          -7.000
REMARK INTER:                  -6.678
REMARK INTRA:                  -0.322
REMARK UNBOUND:                -0.328
REMARK SMILES O=c1c(O)c(-c2ccc(O)c(O)c2)oc2cc(O)cc(O)c12
REMARK SMILES IDX 5 1 3 2 2 3 1 4 22 5 20 6 19 7 17 8 16 9 15 10 14 11 6 12
REMARK SMILES IDX 7 13 8 14 9 15 13 16 11 17 10 18 12 20 4 22 21 24 18 26
REMARK H PARENT 10 19 12 21 4 23 21 25 18 27
REMARK Flexibility Score: inf
ROOT
ATOM      1  C   UNL     1     134.532 136.868 130.394  1.00  0.00     0.180 A 
ATOM      2  C   UNL     1     134.435 136.454 131.733  1.00  0.00     0.208 A 
ATOM      3  C   UNL     1     135.544 136.620 132.579  1.00  0.00     0.238 A 
ATOM      4  O   UNL     1     135.433 136.298 133.791  1.00  0.00    -0.285 OA
ATOM      5  C   UNL     1     136.740 137.183 132.071  1.00  0.00     0.111 A 
ATOM      6  C   UNL     1     137.936 137.361 132.829  1.00  0.00     0.134 A 
ATOM      7  C   UNL     1     139.017 138.048 132.261  1.00  0.00     0.093 A 
ATOM      8  C   UNL     1     138.966 138.505 130.942  1.00  0.00     0.123 A 
ATOM      9  C   UNL     1     137.824 138.283 130.176  1.00  0.00     0.094 A 
ATOM     10  C   UNL     1     136.717 137.634 130.726  1.00  0.00     0.146 A 
ATOM     11  O   UNL     1     135.645 137.452 129.965  1.00  0.00    -0.452 OA
ENDROOT
BRANCH   1  12
ATOM     12  C   UNL     1     133.416 136.703 129.436  1.00  0.00     0.025 A 
ATOM     13  C   UNL     1     133.310 135.515 128.697  1.00  0.00     0.016 A 
ATOM     14  C   UNL     1     132.253 135.328 127.802  1.00  0.00     0.051 A 
ATOM     15  C   UNL     1     131.279 136.318 127.644  1.00  0.00     0.157 A 
ATOM     16  C   UNL     1     132.423 137.689 129.290  1.00  0.00     0.062 A 
ATOM     17  C   UNL     1     131.361 137.503 128.394  1.00  0.00     0.158 A 
BRANCH  15  18
ATOM     18  O   UNL     1     130.237 136.106 126.742  1.00  0.00    -0.504 OA
ATOM     19  H   UNL     1     130.135 135.238 126.230  1.00  0.00     0.293 HD
ENDBRANCH  15  18
BRANCH  17  20
ATOM     20  O   UNL     1     130.384 138.489 128.251  1.00  0.00    -0.504 OA
ATOM     21  H   UNL     1     129.451 138.369 128.625  1.00  0.00     0.293 HD
ENDBRANCH  17  20
ENDBRANCH   1  12
BRANCH   2  22
ATOM     22  O   UNL     1     133.239 135.921 132.220  1.00  0.00    -0.502 OA
ATOM     23  H   UNL     1     132.346 136.087 131.770  1.00  0.00     0.293 HD
ENDBRANCH   2  22
BRANCH   6  24
ATOM     24  O   UNL     1     138.124 136.863 134.122  1.00  0.00    -0.507 OA
ATOM     25  H   UNL     1     137.460 136.955 134.875  1.00  0.00     0.293 HD
ENDBRANCH   6  24
BRANCH   8  26
ATOM     26  O   UNL     1     140.052 139.174 130.379  1.00  0.00    -0.508 OA
ATOM     27  H   UNL     1     140.768 138.680 129.858  1.00  0.00     0.293 HD
ENDBRANCH   8  26
TORSDOF 6
ENDMDL
MODEL 6
REMARK VINA RESULT:    -5.510      1.681      6.927
REMARK INTER + INTRA:          -6.965
REMARK INTER:                  -6.631
REMARK INTRA:                  -0.334
REMARK UNBOUND:                -0.328
REMARK SMILES O=c1c(O)c(-c2ccc(O)c(O)c2)oc2cc(O)cc(O)c12
REMARK SMILES IDX 5 1 3 2 2 3 1 4 22 5 20 6 19 7 17 8 16 9 15 10 14 11 6 12
REMARK SMILES IDX 7 13 8 14 9 15 13 16 11 17 10 18 12 20 4 22 21 24 18 26
REMARK H PARENT 10 19 12 21 4 23 21 25 18 27
REMARK Flexibility Score: inf
ROOT
ATOM      1  C   UNL     1     131.942 135.788 127.471  1.00  0.00     0.180 A 
ATOM      2  C   UNL     1     132.697 136.087 126.324  1.00  0.00     0.208 A 
ATOM      3  C   UNL     1     132.163 135.787 125.060  1.00  0.00     0.238 A 
ATOM      4  O   UNL     1     132.820 136.107 124.035  1.00  0.00    -0.285 OA
ATOM      5  C   UNL     1     130.888 135.179 124.960  1.00  0.00     0.111 A 
ATOM      6  C   UNL     1     130.268 134.797 123.733  1.00  0.00     0.134 A 
ATOM      7  C   UNL     1     128.949 134.322 123.744  1.00  0.00     0.093 A 
ATOM      8  C   UNL     1     128.255 134.156 124.945  1.00  0.00     0.123 A 
ATOM      9  C   UNL     1     128.873 134.472 126.152  1.00  0.00     0.094 A 
ATOM     10  C   UNL     1     130.174 134.982 126.170  1.00  0.00     0.146 A 
ATOM     11  O   UNL     1     130.723 135.279 127.342  1.00  0.00    -0.452 OA
ENDROOT
BRANCH   1  12
ATOM     12  C   UNL     1     132.447 136.051 128.837  1.00  0.00     0.025 A 
ATOM     13  C   UNL     1     132.127 137.261 129.472  1.00  0.00     0.016 A 
ATOM     14  C   UNL     1     132.576 137.521 130.769  1.00  0.00     0.051 A 
ATOM     15  C   UNL     1     133.338 136.572 131.457  1.00  0.00     0.157 A 
ATOM     16  C   UNL     1     133.197 135.089 129.539  1.00  0.00     0.062 A 
ATOM     17  C   UNL     1     133.648 135.349 130.841  1.00  0.00     0.158 A 
BRANCH  15  18
ATOM     18  O   UNL     1     133.775 136.860 132.749  1.00  0.00    -0.504 OA
ATOM     19  H   UNL     1     134.408 136.251 133.252  1.00  0.00     0.293 HD
ENDBRANCH  15  18
BRANCH  17  20
ATOM     20  O   UNL     1     134.396 134.391 131.526  1.00  0.00    -0.504 OA
ATOM     21  H   UNL     1     135.404 134.341 131.436  1.00  0.00     0.293 HD
ENDBRANCH  17  20
ENDBRANCH   1  12
BRANCH   2  22
ATOM     22  O   UNL     1     133.943 136.707 126.444  1.00  0.00    -0.502 OA
ATOM     23  H   UNL     1     134.812 136.186 126.454  1.00  0.00     0.293 HD
ENDBRANCH   2  22
BRANCH   6  24
ATOM     24  O   UNL     1     130.906 134.835 122.489  1.00  0.00    -0.507 OA
ATOM     25  H   UNL     1     130.898 135.627 121.864  1.00  0.00     0.293 HD
ENDBRANCH   6  24
BRANCH   8  26
ATOM     26  O   UNL     1     126.949 133.669 124.948  1.00  0.00    -0.508 OA
ATOM     27  H   UNL     1     126.282 133.942 125.662  1.00  0.00     0.293 HD
ENDBRANCH   8  26
TORSDOF 6
ENDMDL
MODEL 7
REMARK VINA RESULT:    -5.487      3.263      8.639
REMARK INTER + INTRA:          -6.938
REMARK INTER:                  -6.660
REMARK INTRA:                  -0.278
REMARK UNBOUND:                -0.328
REMARK SMILES O=c1c(O)c(-c2ccc(O)c(O)c2)oc2cc(O)cc(O)c12
REMARK SMILES IDX 5 1 3 2 2 3 1 4 22 5 20 6 19 7 17 8 16 9 15 10 14 11 6 12
REMARK SMILES IDX 7 13 8 14 9 15 13 16 11 17 10 18 12 20 4 22 21 24 18 26
REMARK H PARENT 10 19 12 21 4 23 21 25 18 27
REMARK Flexibility Score: inf
ROOT
ATOM      1  C   UNL     1     134.933 137.437 130.770  1.00  0.00     0.180 A 
ATOM      2  C   UNL     1     134.058 138.536 130.733  1.00  0.00     0.208 A 
ATOM      3  C   UNL     1     132.900 138.459 129.942  1.00  0.00     0.238 A 
ATOM      4  O   UNL     1     132.093 139.425 129.956  1.00  0.00    -0.285 OA
ATOM      5  C   UNL     1     132.641 137.291 129.186  1.00  0.00     0.111 A 
ATOM      6  C   UNL     1     131.519 137.120 128.320  1.00  0.00     0.134 A 
ATOM      7  C   UNL     1     131.293 135.873 127.721  1.00  0.00     0.093 A 
ATOM      8  C   UNL     1     132.184 134.813 127.908  1.00  0.00     0.123 A 
ATOM      9  C   UNL     1     133.312 134.989 128.704  1.00  0.00     0.094 A 
ATOM     10  C   UNL     1     133.545 136.209 129.343  1.00  0.00     0.146 A 
ATOM     11  O   UNL     1     134.628 136.331 130.102  1.00  0.00    -0.452 OA
ENDROOT
BRANCH   1  12
ATOM     12  C   UNL     1     136.185 137.453 131.560  1.00  0.00     0.025 A 
ATOM     13  C   UNL     1     136.274 136.683 132.729  1.00  0.00     0.016 A 
ATOM     14  C   UNL     1     137.452 136.666 133.479  1.00  0.00     0.051 A 
ATOM     15  C   UNL     1     138.564 137.406 133.065  1.00  0.00     0.157 A 
ATOM     16  C   UNL     1     137.311 138.181 131.134  1.00  0.00     0.062 A 
ATOM     17  C   UNL     1     138.495 138.164 131.885  1.00  0.00     0.158 A 
BRANCH  15  18
ATOM     18  O   UNL     1     139.726 137.373 133.834  1.00  0.00    -0.504 OA
ATOM     19  H   UNL     1     139.908 138.050 134.566  1.00  0.00     0.293 HD
ENDBRANCH  15  18
BRANCH  17  20
ATOM     20  O   UNL     1     139.605 138.894 131.458  1.00  0.00    -0.504 OA
ATOM     21  H   UNL     1     140.330 139.183 132.103  1.00  0.00     0.293 HD
ENDBRANCH  17  20
ENDBRANCH   1  12
BRANCH   2  22
ATOM     22  O   UNL     1     134.322 139.671 131.505  1.00  0.00    -0.502 OA
ATOM     23  H   UNL     1     133.586 140.242 131.903  1.00  0.00     0.293 HD
ENDBRANCH   2  22
BRANCH   6  24
ATOM     24  O   UNL     1     130.620 138.140 127.993  1.00  0.00    -0.507 OA
ATOM     25  H   UNL     1     129.951 138.541 128.632  1.00  0.00     0.293 HD
ENDBRANCH   6  24
BRANCH   8  26
ATOM     26  O   UNL     1     131.959 133.581 127.296  1.00  0.00    -0.508 OA
ATOM     27  H   UNL     1     131.038 133.157 127.279  1.00  0.00     0.293 HD
ENDBRANCH   8  26
TORSDOF 6
ENDMDL
MODEL 8
REMARK VINA RESULT:    -5.476      3.950      6.687
REMARK INTER + INTRA:          -6.925
REMARK INTER:                  -6.603
REMARK INTRA:                  -0.322
REMARK UNBOUND:                -0.328
REMARK SMILES O=c1c(O)c(-c2ccc(O)c(O)c2)oc2cc(O)cc(O)c12
REMARK SMILES IDX 5 1 3 2 2 3 1 4 22 5 20 6 19 7 17 8 16 9 15 10 14 11 6 12
REMARK SMILES IDX 7 13 8 14 9 15 13 16 11 17 10 18 12 20 4 22 21 24 18 26
REMARK H PARENT 10 19 12 21 4 23 21 25 18 27
REMARK Flexibility Score: inf
ROOT
ATOM      1  C   UNL     1     134.191 135.165 131.121  1.00  0.00     0.180 A 
ATOM      2  C   UNL     1     133.712 134.227 132.052  1.00  0.00     0.208 A 
ATOM      3  C   UNL     1     134.634 133.484 132.807  1.00  0.00     0.238 A 
ATOM      4  O   UNL     1     134.198 132.685 133.676  1.00  0.00    -0.285 OA
ATOM      5  C   UNL     1     136.022 133.677 132.610  1.00  0.00     0.111 A 
ATOM      6  C   UNL     1     137.045 132.951 133.292  1.00  0.00     0.134 A 
ATOM      7  C   UNL     1     138.386 133.316 133.114  1.00  0.00     0.093 A 
ATOM      8  C   UNL     1     138.743 134.337 132.231  1.00  0.00     0.123 A 
ATOM      9  C   UNL     1     137.756 135.012 131.517  1.00  0.00     0.094 A 
ATOM     10  C   UNL     1     136.408 134.695 131.700  1.00  0.00     0.146 A 
ATOM     11  O   UNL     1     135.498 135.369 131.007  1.00  0.00    -0.452 OA
ENDROOT
BRANCH   1  12
ATOM     12  C   UNL     1     133.282 135.966 130.272  1.00  0.00     0.025 A 
ATOM     13  C   UNL     1     132.879 135.464 129.025  1.00  0.00     0.016 A 
ATOM     14  C   UNL     1     132.005 136.194 128.215  1.00  0.00     0.051 A 
ATOM     15  C   UNL     1     131.509 137.428 128.645  1.00  0.00     0.157 A 
ATOM     16  C   UNL     1     132.764 137.199 130.711  1.00  0.00     0.062 A 
ATOM     17  C   UNL     1     131.886 137.932 129.900  1.00  0.00     0.158 A 
BRANCH  15  18
ATOM     18  O   UNL     1     130.640 138.136 127.815  1.00  0.00    -0.504 OA
ATOM     19  H   UNL     1     130.931 138.966 127.312  1.00  0.00     0.293 HD
ENDBRANCH  15  18
BRANCH  17  20
ATOM     20  O   UNL     1     131.384 139.157 130.342  1.00  0.00    -0.504 OA
ATOM     21  H   UNL     1     131.159 139.902 129.694  1.00  0.00     0.293 HD
ENDBRANCH  17  20
ENDBRANCH   1  12
BRANCH   2  22
ATOM     22  O   UNL     1     132.337 134.068 132.245  1.00  0.00    -0.502 OA
ATOM     23  H   UNL     1     131.903 134.144 133.157  1.00  0.00     0.293 HD
ENDBRANCH   2  22
BRANCH   6  24
ATOM     24  O   UNL     1     136.802 131.854 134.125  1.00  0.00    -0.507 OA
ATOM     25  H   UNL     1     136.974 131.839 135.119  1.00  0.00     0.293 HD
ENDBRANCH   6  24
BRANCH   8  26
ATOM     26  O   UNL     1     140.081 134.683 132.049  1.00  0.00    -0.508 OA
ATOM     27  H   UNL     1     140.392 135.647 132.104  1.00  0.00     0.293 HD
ENDBRANCH   8  26
TORSDOF 6
ENDMDL
MODEL 9
REMARK VINA RESULT:    -5.444      2.785      7.258
REMARK INTER + INTRA:          -6.886
REMARK INTER:                  -7.040
REMARK INTRA:                   0.154
REMARK UNBOUND:                -0.328
REMARK SMILES O=c1c(O)c(-c2ccc(O)c(O)c2)oc2cc(O)cc(O)c12
REMARK SMILES IDX 5 1 3 2 2 3 1 4 22 5 20 6 19 7 17 8 16 9 15 10 14 11 6 12
REMARK SMILES IDX 7 13 8 14 9 15 13 16 11 17 10 18 12 20 4 22 21 24 18 26
REMARK H PARENT 10 19 12 21 4 23 21 25 18 27
REMARK Flexibility Score: inf
ROOT
ATOM      1  C   UNL     1     132.629 137.418 129.060  1.00  0.00     0.180 A 
ATOM      2  C   UNL     1     131.573 137.295 128.142  1.00  0.00     0.208 A 
ATOM      3  C   UNL     1     131.401 136.078 127.461  1.00  0.00     0.238 A 
ATOM      4  O   UNL     1     130.420 135.956 126.682  1.00  0.00    -0.285 OA
ATOM      5  C   UNL     1     132.296 135.007 127.696  1.00  0.00     0.111 A 
ATOM      6  C   UNL     1     132.239 133.744 127.033  1.00  0.00     0.134 A 
ATOM      7  C   UNL     1     133.096 132.713 127.438  1.00  0.00     0.093 A 
ATOM      8  C   UNL     1     134.050 132.920 128.437  1.00  0.00     0.123 A 
ATOM      9  C   UNL     1     134.152 134.167 129.048  1.00  0.00     0.094 A 
ATOM     10  C   UNL     1     133.287 135.204 128.691  1.00  0.00     0.146 A 
ATOM     11  O   UNL     1     133.412 136.374 129.306  1.00  0.00    -0.452 OA
ENDROOT
BRANCH   1  12
ATOM     12  C   UNL     1     132.890 138.676 129.796  1.00  0.00     0.025 A 
ATOM     13  C   UNL     1     131.815 139.385 130.355  1.00  0.00     0.016 A 
ATOM     14  C   UNL     1     132.040 140.563 131.072  1.00  0.00     0.051 A 
ATOM     15  C   UNL     1     133.340 141.042 131.254  1.00  0.00     0.157 A 
ATOM     16  C   UNL     1     134.199 139.149 129.999  1.00  0.00     0.062 A 
ATOM     17  C   UNL     1     134.427 140.330 130.719  1.00  0.00     0.158 A 
BRANCH  15  18
ATOM     18  O   UNL     1     133.534 142.221 131.972  1.00  0.00    -0.504 OA
ATOM     19  H   UNL     1     134.457 142.596 132.154  1.00  0.00     0.293 HD
ENDBRANCH  15  18
BRANCH  17  20
ATOM     20  O   UNL     1     135.728 140.795 130.909  1.00  0.00    -0.504 OA
ATOM     21  H   UNL     1     136.533 140.242 130.643  1.00  0.00     0.293 HD
ENDBRANCH  17  20
ENDBRANCH   1  12
BRANCH   2  22
ATOM     22  O   UNL     1     130.687 138.357 127.942  1.00  0.00    -0.502 OA
ATOM     23  H   UNL     1     130.635 138.865 127.067  1.00  0.00     0.293 HD
ENDBRANCH   2  22
BRANCH   6  24
ATOM     24  O   UNL     1     131.387 133.462 125.961  1.00  0.00    -0.507 OA
ATOM     25  H   UNL     1     131.021 134.151 125.322  1.00  0.00     0.293 HD
ENDBRANCH   6  24
BRANCH   8  26
ATOM     26  O   UNL     1     134.909 131.893 128.823  1.00  0.00    -0.508 OA
ATOM     27  H   UNL     1     135.445 131.943 129.682  1.00  0.00     0.293 HD
ENDBRANCH   8  26
TORSDOF 6
ENDMDL
