MODEL 1
REMARK VINA RESULT:    -6.153      0.000      0.000
REMARK INTER + INTRA:          -6.333
REMARK INTER:                  -6.333
REMARK INTRA:                   0.000
REMARK UNBOUND:                 0.000
REMARK SMILES O=c1ccc2cc(O)ccc2o1
REMARK SMILES IDX 9 1 10 2 11 3 5 4 4 5 3 6 2 7 1 8 12 9 6 10 7 11 8 12
REMARK H PARENT 8 13
REMARK Flexibility Score: inf
ROOT
ATOM      1  C   UNL     1     -30.277  -2.475 -19.828  1.00  0.00     0.050 A 
ATOM      2  C   UNL     1     -30.656  -2.981 -18.581  1.00  0.00     0.052 A 
ATOM      3  C   UNL     1     -32.009  -3.187 -18.288  1.00  0.00     0.138 A 
ATOM      4  C   UNL     1     -32.989  -2.880 -19.258  1.00  0.00     0.021 A 
ATOM      5  C   UNL     1     -34.334  -3.096 -18.937  1.00  0.00     0.019 A 
ATOM      6  C   UNL     1     -34.665  -3.603 -17.680  1.00  0.00     0.094 A 
ATOM      7  C   UNL     1     -33.639  -3.882 -16.771  1.00  0.00     0.336 A 
ATOM      8  O   UNL     1     -33.918  -4.340 -15.632  1.00  0.00    -0.246 OA
ATOM      9  O   UNL     1     -32.368  -3.668 -17.100  1.00  0.00    -0.423 OA
ATOM     10  C   UNL     1     -32.605  -2.374 -20.507  1.00  0.00     0.058 A 
ATOM     11  C   UNL     1     -31.246  -2.170 -20.792  1.00  0.00     0.116 A 
ENDROOT
BRANCH  11  12
ATOM     12  O   UNL     1     -30.849  -1.667 -22.029  1.00  0.00    -0.508 OA
ATOM     13  H   UNL     1     -30.016  -2.007 -22.496  1.00  0.00     0.293 HD
ENDBRANCH  11  12
TORSDOF 1
ENDMDL
MODEL 2
REMARK VINA RESULT:    -5.828      6.840      8.790
REMARK INTER + INTRA:          -5.999
REMARK INTER:                  -5.999
REMARK INTRA:                   0.000
REMARK UNBOUND:                 0.000
REMARK SMILES O=c1ccc2cc(O)ccc2o1
REMARK SMILES IDX 9 1 10 2 11 3 5 4 4 5 3 6 2 7 1 8 12 9 6 10 7 11 8 12
REMARK H PARENT 8 13
REMARK Flexibility Score: inf
ROOT
ATOM      1  C   UNL     1     -37.280  -4.255 -13.440  1.00  0.00     0.050 A 
ATOM      2  C   UNL     1     -38.496  -4.941 -13.362  1.00  0.00     0.052 A 
ATOM      3  C   UNL     1     -38.522  -6.337 -13.450  1.00  0.00     0.138 A 
ATOM      4  C   UNL     1     -37.314  -7.050 -13.618  1.00  0.00     0.021 A 
ATOM      5  C   UNL     1     -37.370  -8.446 -13.703  1.00  0.00     0.019 A 
ATOM      6  C   UNL     1     -38.606  -9.087 -13.620  1.00  0.00     0.094 A 
ATOM      7  C   UNL     1     -39.760  -8.314 -13.454  1.00  0.00     0.336 A 
ATOM      8  O   UNL     1     -40.885  -8.876 -13.376  1.00  0.00    -0.246 OA
ATOM      9  O   UNL     1     -39.680  -6.989 -13.376  1.00  0.00    -0.423 OA
ATOM     10  C   UNL     1     -36.097  -6.358 -13.695  1.00  0.00     0.058 A 
ATOM     11  C   UNL     1     -36.081  -4.958 -13.607  1.00  0.00     0.116 A 
ENDROOT
BRANCH  11  12
ATOM     12  O   UNL     1     -34.880  -4.257 -13.682  1.00  0.00    -0.508 OA
ATOM     13  H   UNL     1     -34.826  -3.272 -13.450  1.00  0.00     0.293 HD
ENDBRANCH  11  12
TORSDOF 1
ENDMDL
MODEL 3
REMARK VINA RESULT:    -5.777      7.126      9.840
REMARK INTER + INTRA:          -5.946
REMARK INTER:                  -5.946
REMARK INTRA:                   0.000
REMARK UNBOUND:                 0.000
REMARK SMILES O=c1ccc2cc(O)ccc2o1
REMARK SMILES IDX 9 1 10 2 11 3 5 4 4 5 3 6 2 7 1 8 12 9 6 10 7 11 8 12
REMARK H PARENT 8 13
REMARK Flexibility Score: inf
ROOT
ATOM      1  C   UNL     1     -40.968  -6.780 -12.966  1.00  0.00     0.050 A 
ATOM      2  C   UNL     1     -40.047  -5.729 -12.986  1.00  0.00     0.052 A 
ATOM      3  C   UNL     1     -38.711  -5.972 -13.321  1.00  0.00     0.138 A 
ATOM      4  C   UNL     1     -38.296  -7.284 -13.637  1.00  0.00     0.021 A 
ATOM      5  C   UNL     1     -36.954  -7.498 -13.968  1.00  0.00     0.019 A 
ATOM      6  C   UNL     1     -36.071  -6.417 -13.976  1.00  0.00     0.094 A 
ATOM      7  C   UNL     1     -36.554  -5.146 -13.650  1.00  0.00     0.336 A 
ATOM      8  O   UNL     1     -35.772  -4.158 -13.652  1.00  0.00    -0.246 OA
ATOM      9  O   UNL     1     -37.835  -4.970 -13.339  1.00  0.00    -0.423 OA
ATOM     10  C   UNL     1     -39.223  -8.336 -13.616  1.00  0.00     0.058 A 
ATOM     11  C   UNL     1     -40.561  -8.083 -13.279  1.00  0.00     0.116 A 
ENDROOT
BRANCH  11  12
ATOM     12  O   UNL     1     -41.494  -9.118 -13.253  1.00  0.00    -0.508 OA
ATOM     13  H   UNL     1     -41.583  -9.730 -12.451  1.00  0.00     0.293 HD
ENDBRANCH  11  12
TORSDOF 1
ENDMDL
MODEL 4
REMARK VINA RESULT:    -5.744      1.081      2.132
REMARK INTER + INTRA:          -5.912
REMARK INTER:                  -5.912
REMARK INTRA:                   0.000
REMARK UNBOUND:                 0.000
REMARK SMILES O=c1ccc2cc(O)ccc2o1
REMARK SMILES IDX 9 1 10 2 11 3 5 4 4 5 3 6 2 7 1 8 12 9 6 10 7 11 8 12
REMARK H PARENT 8 13
REMARK Flexibility Score: inf
ROOT
ATOM      1  C   UNL     1     -31.708  -2.042 -20.924  1.00  0.00     0.050 A 
ATOM      2  C   UNL     1     -32.746  -2.479 -20.096  1.00  0.00     0.052 A 
ATOM      3  C   UNL     1     -32.458  -3.065 -18.859  1.00  0.00     0.138 A 
ATOM      4  C   UNL     1     -31.114  -3.214 -18.451  1.00  0.00     0.021 A 
ATOM      5  C   UNL     1     -30.856  -3.805 -17.210  1.00  0.00     0.019 A 
ATOM      6  C   UNL     1     -31.924  -4.225 -16.417  1.00  0.00     0.094 A 
ATOM      7  C   UNL     1     -33.229  -4.046 -16.888  1.00  0.00     0.336 A 
ATOM      8  O   UNL     1     -34.206  -4.419 -16.186  1.00  0.00    -0.246 OA
ATOM      9  O   UNL     1     -33.448  -3.482 -18.072  1.00  0.00    -0.423 OA
ATOM     10  C   UNL     1     -30.076  -2.774 -19.285  1.00  0.00     0.058 A 
ATOM     11  C   UNL     1     -30.374  -2.187 -20.524  1.00  0.00     0.116 A 
ENDROOT
BRANCH  11  12
ATOM     12  O   UNL     1     -29.354  -1.745 -21.363  1.00  0.00    -0.508 OA
ATOM     13  H   UNL     1     -29.013  -2.315 -22.128  1.00  0.00     0.293 HD
ENDBRANCH  11  12
TORSDOF 1
ENDMDL
MODEL 5
REMARK VINA RESULT:    -5.637      7.205      8.871
REMARK INTER + INTRA:          -5.802
REMARK INTER:                  -5.802
REMARK INTRA:                   0.000
REMARK UNBOUND:                 0.000
REMARK SMILES O=c1ccc2cc(O)ccc2o1
REMARK SMILES IDX 9 1 10 2 11 3 5 4 4 5 3 6 2 7 1 8 12 9 6 10 7 11 8 12
REMARK H PARENT 8 13
REMARK Flexibility Score: inf
ROOT
ATOM      1  C   UNL     1     -36.285  -6.795 -15.047  1.00  0.00     0.050 A 
ATOM      2  C   UNL     1     -36.946  -5.854 -14.252  1.00  0.00     0.052 A 
ATOM      3  C   UNL     1     -38.207  -6.144 -13.720  1.00  0.00     0.138 A 
ATOM      4  C   UNL     1     -38.810  -7.392 -13.990  1.00  0.00     0.021 A 
ATOM      5  C   UNL     1     -40.071  -7.656 -13.445  1.00  0.00     0.019 A 
ATOM      6  C   UNL     1     -40.692  -6.686 -12.657  1.00  0.00     0.094 A 
ATOM      7  C   UNL     1     -40.034  -5.472 -12.434  1.00  0.00     0.336 A 
ATOM      8  O   UNL     1     -40.578  -4.584 -11.725  1.00  0.00    -0.246 OA
ATOM      9  O   UNL     1     -38.835  -5.246 -12.964  1.00  0.00    -0.423 OA
ATOM     10  C   UNL     1     -38.143  -8.334 -14.787  1.00  0.00     0.058 A 
ATOM     11  C   UNL     1     -36.880  -8.034 -15.317  1.00  0.00     0.116 A 
ENDROOT
BRANCH  11  12
ATOM     12  O   UNL     1     -36.205  -8.959 -16.111  1.00  0.00    -0.508 OA
ATOM     13  H   UNL     1     -36.656  -9.408 -16.899  1.00  0.00     0.293 HD
ENDBRANCH  11  12
TORSDOF 1
ENDMDL
MODEL 6
REMARK VINA RESULT:    -5.599      2.433      3.597
REMARK INTER + INTRA:          -5.763
REMARK INTER:                  -5.763
REMARK INTRA:                   0.000
REMARK UNBOUND:                 0.000
REMARK SMILES O=c1ccc2cc(O)ccc2o1
REMARK SMILES IDX 9 1 10 2 11 3 5 4 4 5 3 6 2 7 1 8 12 9 6 10 7 11 8 12
REMARK H PARENT 8 13
REMARK Flexibility Score: inf
ROOT
ATOM      1  C   UNL     1     -30.812  -3.750 -17.506  1.00  0.00     0.050 A 
ATOM      2  C   UNL     1     -31.868  -3.009 -18.046  1.00  0.00     0.052 A 
ATOM      3  C   UNL     1     -33.172  -3.514 -18.008  1.00  0.00     0.138 A 
ATOM      4  C   UNL     1     -33.417  -4.776 -17.423  1.00  0.00     0.021 A 
ATOM      5  C   UNL     1     -34.731  -5.256 -17.399  1.00  0.00     0.019 A 
ATOM      6  C   UNL     1     -35.752  -4.481 -17.949  1.00  0.00     0.094 A 
ATOM      7  C   UNL     1     -35.433  -3.241 -18.512  1.00  0.00     0.336 A 
ATOM      8  O   UNL     1     -36.342  -2.527 -19.013  1.00  0.00    -0.246 OA
ATOM      9  O   UNL     1     -34.176  -2.808 -18.522  1.00  0.00    -0.423 OA
ATOM     10  C   UNL     1     -32.355  -5.515 -16.882  1.00  0.00     0.058 A 
ATOM     11  C   UNL     1     -31.051  -5.002 -16.925  1.00  0.00     0.116 A 
ENDROOT
BRANCH  11  12
ATOM     12  O   UNL     1     -29.986  -5.725 -16.393  1.00  0.00    -0.508 OA
ATOM     13  H   UNL     1     -29.056  -5.328 -16.328  1.00  0.00     0.293 HD
ENDBRANCH  11  12
TORSDOF 1
ENDMDL
MODEL 7
REMARK VINA RESULT:    -5.561      6.994      9.666
REMARK INTER + INTRA:          -5.724
REMARK INTER:                  -5.724
REMARK INTRA:                   0.000
REMARK UNBOUND:                 0.000
REMARK SMILES O=c1ccc2cc(O)ccc2o1
REMARK SMILES IDX 9 1 10 2 11 3 5 4 4 5 3 6 2 7 1 8 12 9 6 10 7 11 8 12
REMARK H PARENT 8 13
REMARK Flexibility Score: inf
ROOT
ATOM      1  C   UNL     1     -39.273  -9.125 -13.729  1.00  0.00     0.050 A 
ATOM      2  C   UNL     1     -38.017  -8.539 -13.916  1.00  0.00     0.052 A 
ATOM      3  C   UNL     1     -37.853  -7.161 -13.748  1.00  0.00     0.138 A 
ATOM      4  C   UNL     1     -38.962  -6.362 -13.390  1.00  0.00     0.021 A 
ATOM      5  C   UNL     1     -38.768  -4.986 -13.229  1.00  0.00     0.019 A 
ATOM      6  C   UNL     1     -37.497  -4.447 -13.425  1.00  0.00     0.094 A 
ATOM      7  C   UNL     1     -36.447  -5.299 -13.779  1.00  0.00     0.336 A 
ATOM      8  O   UNL     1     -35.292  -4.831 -13.960  1.00  0.00    -0.246 OA
ATOM      9  O   UNL     1     -36.657  -6.605 -13.926  1.00  0.00    -0.423 OA
ATOM     10  C   UNL     1     -40.220  -6.954 -13.203  1.00  0.00     0.058 A 
ATOM     11  C   UNL     1     -40.375  -8.337 -13.374  1.00  0.00     0.116 A 
ENDROOT
BRANCH  11  12
ATOM     12  O   UNL     1     -41.618  -8.939 -13.193  1.00  0.00    -0.508 OA
ATOM     13  H   UNL     1     -41.948  -9.669 -13.813  1.00  0.00     0.293 HD
ENDBRANCH  11  12
TORSDOF 1
ENDMDL
MODEL 8
REMARK VINA RESULT:    -5.554      0.971      4.768
REMARK INTER + INTRA:          -5.716
REMARK INTER:                  -5.716
REMARK INTRA:                   0.000
REMARK UNBOUND:                 0.000
REMARK SMILES O=c1ccc2cc(O)ccc2o1
REMARK SMILES IDX 9 1 10 2 11 3 5 4 4 5 3 6 2 7 1 8 12 9 6 10 7 11 8 12
REMARK H PARENT 8 13
REMARK Flexibility Score: inf
ROOT
ATOM      1  C   UNL     1     -34.700  -3.676 -17.792  1.00  0.00     0.050 A 
ATOM      2  C   UNL     1     -34.171  -3.129 -18.964  1.00  0.00     0.052 A 
ATOM      3  C   UNL     1     -32.788  -2.975 -19.105  1.00  0.00     0.138 A 
ATOM      4  C   UNL     1     -31.928  -3.373 -18.058  1.00  0.00     0.021 A 
ATOM      5  C   UNL     1     -30.550  -3.207 -18.226  1.00  0.00     0.019 A 
ATOM      6  C   UNL     1     -30.067  -2.657 -19.414  1.00  0.00     0.094 A 
ATOM      7  C   UNL     1     -30.979  -2.284 -20.408  1.00  0.00     0.336 A 
ATOM      8  O   UNL     1     -30.562  -1.786 -21.487  1.00  0.00    -0.246 OA
ATOM      9  O   UNL     1     -32.285  -2.453 -20.222  1.00  0.00    -0.423 OA
ATOM     10  C   UNL     1     -32.463  -3.922 -16.883  1.00  0.00     0.058 A 
ATOM     11  C   UNL     1     -33.852  -4.073 -16.751  1.00  0.00     0.116 A 
ENDROOT
BRANCH  11  12
ATOM     12  O   UNL     1     -34.398  -4.616 -15.590  1.00  0.00    -0.508 OA
ATOM     13  H   UNL     1     -34.426  -5.617 -15.436  1.00  0.00     0.293 HD
ENDBRANCH  11  12
TORSDOF 1
ENDMDL
MODEL 9
REMARK VINA RESULT:    -5.544      1.329      4.360
REMARK INTER + INTRA:          -5.706
REMARK INTER:                  -5.706
REMARK INTRA:                   0.000
REMARK UNBOUND:                 0.000
REMARK SMILES O=c1ccc2cc(O)ccc2o1
REMARK SMILES IDX 9 1 10 2 11 3 5 4 4 5 3 6 2 7 1 8 12 9 6 10 7 11 8 12
REMARK H PARENT 8 13
REMARK Flexibility Score: inf
ROOT
ATOM      1  C   UNL     1     -32.242  -4.250 -16.346  1.00  0.00     0.050 A 
ATOM      2  C   UNL     1     -31.122  -3.880 -17.097  1.00  0.00     0.052 A 
ATOM      3  C   UNL     1     -31.283  -3.286 -18.353  1.00  0.00     0.138 A 
ATOM      4  C   UNL     1     -32.583  -3.062 -18.860  1.00  0.00     0.021 A 
ATOM      5  C   UNL     1     -32.714  -2.466 -20.119  1.00  0.00     0.019 A 
ATOM      6  C   UNL     1     -31.567  -2.114 -20.832  1.00  0.00     0.094 A 
ATOM      7  C   UNL     1     -30.314  -2.367 -20.266  1.00  0.00     0.336 A 
ATOM      8  O   UNL     1     -29.267  -2.056 -20.895  1.00  0.00    -0.246 OA
ATOM      9  O   UNL     1     -30.216  -2.935 -19.067  1.00  0.00    -0.423 OA
ATOM     10  C   UNL     1     -33.703  -3.433 -18.103  1.00  0.00     0.058 A 
ATOM     11  C   UNL     1     -33.532  -4.029 -16.845  1.00  0.00     0.116 A 
ENDROOT
BRANCH  11  12
ATOM     12  O   UNL     1     -34.635  -4.404 -16.082  1.00  0.00    -0.508 OA
ATOM     13  H   UNL     1     -35.326  -5.057 -16.434  1.00  0.00     0.293 HD
ENDBRANCH  11  12
TORSDOF 1
ENDMDL
