MODEL 1
REMARK VINA RESULT:    -4.336      0.000      0.000
REMARK INTER + INTRA:         -10.179
REMARK INTER:                  -7.884
REMARK INTRA:                  -2.295
REMARK UNBOUND:                -2.295
REMARK SMILES CCCCCCCCCCCCCCCC(=O)[O-]
REMARK SMILES IDX 9 1 10 2 11 3 12 4 13 5 14 6 15 7 16 8 17 9 18 10 8 11 7 12
REMARK SMILES IDX 6 13 5 14 4 15 3 16 2 17 1 18
REMARK H PARENT
REMARK Flexibility Score: inf
ROOT
ATOM      1  C   UNL     1      58.859  14.072  91.643  1.00  0.00     0.000 C 
ENDROOT
BRANCH   1   2
ATOM      2  C   UNL     1      57.614  13.460  92.310  1.00  0.00     0.000 C 
BRANCH   2   3
ATOM      3  C   UNL     1      57.277  14.015  93.707  1.00  0.00     0.000 C 
BRANCH   3   4
ATOM      4  C   UNL     1      55.882  14.660  93.775  1.00  0.00     0.000 C 
BRANCH   4   5
ATOM      5  C   UNL     1      54.936  14.137  92.681  1.00  0.00     0.000 C 
BRANCH   5   6
ATOM      6  C   UNL     1      54.140  12.900  93.124  1.00  0.00     0.006 C 
BRANCH   6   7
ATOM      7  C   UNL     1      54.462  11.696  92.232  1.00  0.00     0.053 C 
BRANCH   7   8
ATOM      8  C   UNL     1      54.839  10.511  93.066  1.00  0.00     0.041 C 
ATOM      9  O   UNL     1      55.645  10.643  94.025  1.00  0.00    -0.550 OA
ATOM     10  O   UNL     1      54.269   9.272  92.809  1.00  0.00    -0.550 OA
ENDBRANCH   7   8
ENDBRANCH   6   7
ENDBRANCH   5   6
ENDBRANCH   4   5
ENDBRANCH   3   4
ENDBRANCH   2   3
ENDBRANCH   1   2
BRANCH   1  11
ATOM     11  C   UNL     1      58.583  14.608  90.230  1.00  0.00     0.000 C 
BRANCH  11  12
ATOM     12  C   UNL     1      57.100  14.963  90.055  1.00  0.00    -0.000 C 
BRANCH  12  13
ATOM     13  C   UNL     1      56.462  14.269  88.842  1.00  0.00    -0.000 C 
BRANCH  13  14
ATOM     14  C   UNL     1      55.953  12.853  89.164  1.00  0.00    -0.000 C 
BRANCH  14  15
ATOM     15  C   UNL     1      56.782  11.760  88.459  1.00  0.00    -0.000 C 
BRANCH  15  16
ATOM     16  C   UNL     1      57.746  11.012  89.401  1.00  0.00    -0.000 C 
BRANCH  16  17
ATOM     17  C   UNL     1      59.237  11.243  89.105  1.00  0.00    -0.003 C 
ATOM     18  C   UNL     1      60.150  10.693  90.201  1.00  0.00     0.004 C 
ENDBRANCH  16  17
ENDBRANCH  15  16
ENDBRANCH  14  15
ENDBRANCH  13  14
ENDBRANCH  12  13
ENDBRANCH  11  12
ENDBRANCH   1  11
TORSDOF 14
ENDMDL
MODEL 2
REMARK VINA RESULT:    -4.312      2.928      5.616
REMARK INTER + INTRA:         -10.137
REMARK INTER:                  -7.935
REMARK INTRA:                  -2.202
REMARK UNBOUND:                -2.295
REMARK SMILES CCCCCCCCCCCCCCCC(=O)[O-]
REMARK SMILES IDX 9 1 10 2 11 3 12 4 13 5 14 6 15 7 16 8 17 9 18 10 8 11 7 12
REMARK SMILES IDX 6 13 5 14 4 15 3 16 2 17 1 18
REMARK H PARENT
REMARK Flexibility Score: inf
ROOT
ATOM      1  C   UNL     1      58.815  11.248  88.733  1.00  0.00     0.000 C 
ENDROOT
BRANCH   1   2
ATOM      2  C   UNL     1      57.322  10.881  88.819  1.00  0.00     0.000 C 
BRANCH   2   3
ATOM      3  C   UNL     1      56.354  11.932  88.244  1.00  0.00     0.000 C 
BRANCH   3   4
ATOM      4  C   UNL     1      55.886  12.954  89.294  1.00  0.00     0.000 C 
BRANCH   4   5
ATOM      5  C   UNL     1      56.279  14.396  88.930  1.00  0.00     0.000 C 
BRANCH   5   6
ATOM      6  C   UNL     1      57.157  15.061  90.000  1.00  0.00     0.006 C 
BRANCH   6   7
ATOM      7  C   UNL     1      58.532  15.425  89.429  1.00  0.00     0.053 C 
BRANCH   7   8
ATOM      8  C   UNL     1      59.341  16.174  90.442  1.00  0.00     0.041 C 
ATOM      9  O   UNL     1      59.647  15.630  91.536  1.00  0.00    -0.550 OA
ATOM     10  O   UNL     1      59.791  17.456  90.159  1.00  0.00    -0.550 OA
ENDBRANCH   7   8
ENDBRANCH   6   7
ENDBRANCH   5   6
ENDBRANCH   4   5
ENDBRANCH   3   4
ENDBRANCH   2   3
ENDBRANCH   1   2
BRANCH   1  11
ATOM     11  C   UNL     1      59.349  11.907  90.014  1.00  0.00     0.000 C 
BRANCH  11  12
ATOM     12  C   UNL     1      58.668  11.321  91.259  1.00  0.00    -0.000 C 
BRANCH  12  13
ATOM     13  C   UNL     1      58.233  12.403  92.261  1.00  0.00    -0.000 C 
BRANCH  13  14
ATOM     14  C   UNL     1      56.836  12.141  92.852  1.00  0.00    -0.000 C 
BRANCH  14  15
ATOM     15  C   UNL     1      56.180  10.875  92.261  1.00  0.00    -0.000 C 
BRANCH  15  16
ATOM     16  C   UNL     1      54.655  10.811  92.477  1.00  0.00    -0.000 C 
BRANCH  16  17
ATOM     17  C   UNL     1      54.067   9.391  92.470  1.00  0.00    -0.003 C 
ATOM     18  C   UNL     1      54.303   8.646  93.784  1.00  0.00     0.004 C 
ENDBRANCH  16  17
ENDBRANCH  15  16
ENDBRANCH  14  15
ENDBRANCH  13  14
ENDBRANCH  12  13
ENDBRANCH  11  12
ENDBRANCH   1  11
TORSDOF 14
ENDMDL
MODEL 3
REMARK VINA RESULT:    -4.298      2.774      3.541
REMARK INTER + INTRA:         -10.110
REMARK INTER:                  -7.778
REMARK INTRA:                  -2.332
REMARK UNBOUND:                -2.295
REMARK SMILES CCCCCCCCCCCCCCCC(=O)[O-]
REMARK SMILES IDX 9 1 10 2 11 3 12 4 13 5 14 6 15 7 16 8 17 9 18 10 8 11 7 12
REMARK SMILES IDX 6 13 5 14 4 15 3 16 2 17 1 18
REMARK H PARENT
REMARK Flexibility Score: inf
ROOT
ATOM      1  C   UNL     1      58.014  13.945  91.789  1.00  0.00     0.000 C 
ENDROOT
BRANCH   1   2
ATOM      2  C   UNL     1      58.089  12.651  92.620  1.00  0.00     0.000 C 
BRANCH   2   3
ATOM      3  C   UNL     1      56.730  12.020  92.977  1.00  0.00     0.000 C 
BRANCH   3   4
ATOM      4  C   UNL     1      56.470  11.975  94.493  1.00  0.00     0.000 C 
BRANCH   4   5
ATOM      5  C   UNL     1      55.727  13.222  95.001  1.00  0.00     0.000 C 
BRANCH   5   6
ATOM      6  C   UNL     1      56.679  14.326  95.486  1.00  0.00     0.006 C 
BRANCH   6   7
ATOM      7  C   UNL     1      57.875  13.726  96.233  1.00  0.00     0.053 C 
BRANCH   7   8
ATOM      8  C   UNL     1      59.137  14.441  95.865  1.00  0.00     0.041 C 
ATOM      9  O   UNL     1      60.220  14.151  96.439  1.00  0.00    -0.550 OA
ATOM     10  O   UNL     1      59.124  15.398  94.860  1.00  0.00    -0.550 OA
ENDBRANCH   7   8
ENDBRANCH   6   7
ENDBRANCH   5   6
ENDBRANCH   4   5
ENDBRANCH   3   4
ENDBRANCH   2   3
ENDBRANCH   1   2
BRANCH   1  11
ATOM     11  C   UNL     1      56.584  14.488  91.648  1.00  0.00     0.000 C 
BRANCH  11  12
ATOM     12  C   UNL     1      56.212  14.684  90.171  1.00  0.00    -0.000 C 
BRANCH  12  13
ATOM     13  C   UNL     1      56.995  13.751  89.233  1.00  0.00    -0.000 C 
BRANCH  13  14
ATOM     14  C   UNL     1      56.184  12.512  88.812  1.00  0.00    -0.000 C 
BRANCH  14  15
ATOM     15  C   UNL     1      57.088  11.298  88.510  1.00  0.00    -0.000 C 
BRANCH  15  16
ATOM     16  C   UNL     1      57.300  10.370  89.722  1.00  0.00    -0.000 C 
BRANCH  16  17
ATOM     17  C   UNL     1      58.772  10.149  90.109  1.00  0.00    -0.003 C 
ATOM     18  C   UNL     1      59.716  11.152  89.445  1.00  0.00     0.004 C 
ENDBRANCH  16  17
ENDBRANCH  15  16
ENDBRANCH  14  15
ENDBRANCH  13  14
ENDBRANCH  12  13
ENDBRANCH  11  12
ENDBRANCH   1  11
TORSDOF 14
ENDMDL
MODEL 4
REMARK VINA RESULT:    -4.216      2.955      5.714
REMARK INTER + INTRA:          -9.961
REMARK INTER:                  -7.885
REMARK INTRA:                  -2.076
REMARK UNBOUND:                -2.295
REMARK SMILES CCCCCCCCCCCCCCCC(=O)[O-]
REMARK SMILES IDX 9 1 10 2 11 3 12 4 13 5 14 6 15 7 16 8 17 9 18 10 8 11 7 12
REMARK SMILES IDX 6 13 5 14 4 15 3 16 2 17 1 18
REMARK H PARENT
REMARK Flexibility Score: inf
ROOT
ATOM      1  C   UNL     1      59.238  16.649  92.067  1.00  0.00     0.000 C 
ENDROOT
BRANCH   1   2
ATOM      2  C   UNL     1      59.023  16.748  90.546  1.00  0.00     0.000 C 
BRANCH   2   3
ATOM      3  C   UNL     1      58.973  15.402  89.800  1.00  0.00     0.000 C 
BRANCH   3   4
ATOM      4  C   UNL     1      57.537  14.920  89.529  1.00  0.00     0.000 C 
BRANCH   4   5
ATOM      5  C   UNL     1      57.408  13.389  89.583  1.00  0.00     0.000 C 
BRANCH   5   6
ATOM      6  C   UNL     1      58.751  12.687  89.835  1.00  0.00     0.006 C 
BRANCH   6   7
ATOM      7  C   UNL     1      58.622  11.648  90.955  1.00  0.00     0.053 C 
BRANCH   7   8
ATOM      8  C   UNL     1      59.125  10.316  90.496  1.00  0.00     0.041 C 
ATOM      9  O   UNL     1      60.363  10.103  90.406  1.00  0.00    -0.550 OA
ATOM     10  O   UNL     1      58.227   9.296  90.209  1.00  0.00    -0.550 OA
ENDBRANCH   7   8
ENDBRANCH   6   7
ENDBRANCH   5   6
ENDBRANCH   4   5
ENDBRANCH   3   4
ENDBRANCH   2   3
ENDBRANCH   1   2
BRANCH   1  11
ATOM     11  C   UNL     1      59.855  15.311  92.502  1.00  0.00     0.000 C 
BRANCH  11  12
ATOM     12  C   UNL     1      58.839  14.463  93.281  1.00  0.00    -0.000 C 
BRANCH  12  13
ATOM     13  C   UNL     1      57.576  15.252  93.663  1.00  0.00    -0.000 C 
BRANCH  13  14
ATOM     14  C   UNL     1      57.192  15.081  95.143  1.00  0.00    -0.000 C 
BRANCH  14  15
ATOM     15  C   UNL     1      58.242  14.269  95.930  1.00  0.00    -0.000 C 
BRANCH  15  16
ATOM     16  C   UNL     1      58.989  15.095  96.996  1.00  0.00    -0.000 C 
BRANCH  16  17
ATOM     17  C   UNL     1      60.459  15.395  96.659  1.00  0.00    -0.003 C 
ATOM     18  C   UNL     1      60.636  16.713  95.903  1.00  0.00     0.004 C 
ENDBRANCH  16  17
ENDBRANCH  15  16
ENDBRANCH  14  15
ENDBRANCH  13  14
ENDBRANCH  12  13
ENDBRANCH  11  12
ENDBRANCH   1  11
TORSDOF 14
ENDMDL
MODEL 5
REMARK VINA RESULT:    -4.194      2.169      5.038
REMARK INTER + INTRA:          -9.921
REMARK INTER:                  -7.584
REMARK INTRA:                  -2.337
REMARK UNBOUND:                -2.295
REMARK SMILES CCCCCCCCCCCCCCCC(=O)[O-]
REMARK SMILES IDX 9 1 10 2 11 3 12 4 13 5 14 6 15 7 16 8 17 9 18 10 8 11 7 12
REMARK SMILES IDX 6 13 5 14 4 15 3 16 2 17 1 18
REMARK H PARENT
REMARK Flexibility Score: inf
ROOT
ATOM      1  C   UNL     1      58.246  14.393  92.532  1.00  0.00     0.000 C 
ENDROOT
BRANCH   1   2
ATOM      2  C   UNL     1      56.993  15.169  92.084  1.00  0.00     0.000 C 
BRANCH   2   3
ATOM      3  C   UNL     1      56.576  14.953  90.618  1.00  0.00     0.000 C 
BRANCH   3   4
ATOM      4  C   UNL     1      57.395  13.854  89.918  1.00  0.00     0.000 C 
BRANCH   4   5
ATOM      5  C   UNL     1      56.524  12.933  89.047  1.00  0.00     0.000 C 
BRANCH   5   6
ATOM      6  C   UNL     1      57.148  11.546  88.839  1.00  0.00     0.006 C 
BRANCH   6   7
ATOM      7  C   UNL     1      58.608  11.529  89.305  1.00  0.00     0.053 C 
BRANCH   7   8
ATOM      8  C   UNL     1      58.880  10.315  90.137  1.00  0.00     0.041 C 
ATOM      9  O   UNL     1      57.977   9.454  90.316  1.00  0.00    -0.550 OA
ATOM     10  O   UNL     1      60.142  10.113  90.679  1.00  0.00    -0.550 OA
ENDBRANCH   7   8
ENDBRANCH   6   7
ENDBRANCH   5   6
ENDBRANCH   4   5
ENDBRANCH   3   4
ENDBRANCH   2   3
ENDBRANCH   1   2
BRANCH   1  11
ATOM     11  C   UNL     1      58.537  14.533  94.033  1.00  0.00     0.000 C 
BRANCH  11  12
ATOM     12  C   UNL     1      57.258  14.873  94.813  1.00  0.00    -0.000 C 
BRANCH  12  13
ATOM     13  C   UNL     1      57.016  13.925  95.998  1.00  0.00    -0.000 C 
BRANCH  13  14
ATOM     14  C   UNL     1      56.887  12.453  95.567  1.00  0.00    -0.000 C 
BRANCH  14  15
ATOM     15  C   UNL     1      55.643  12.209  94.687  1.00  0.00    -0.000 C 
BRANCH  15  16
ATOM     16  C   UNL     1      55.957  11.498  93.357  1.00  0.00    -0.000 C 
BRANCH  16  17
ATOM     17  C   UNL     1      55.045  11.899  92.185  1.00  0.00    -0.003 C 
ATOM     18  C   UNL     1      54.028  12.974  92.568  1.00  0.00     0.004 C 
ENDBRANCH  16  17
ENDBRANCH  15  16
ENDBRANCH  14  15
ENDBRANCH  13  14
ENDBRANCH  12  13
ENDBRANCH  11  12
ENDBRANCH   1  11
TORSDOF 14
ENDMDL
MODEL 6
REMARK VINA RESULT:    -4.175      1.787      2.855
REMARK INTER + INTRA:          -9.888
REMARK INTER:                  -7.818
REMARK INTRA:                  -2.070
REMARK UNBOUND:                -2.295
REMARK SMILES CCCCCCCCCCCCCCCC(=O)[O-]
REMARK SMILES IDX 9 1 10 2 11 3 12 4 13 5 14 6 15 7 16 8 17 9 18 10 8 11 7 12
REMARK SMILES IDX 6 13 5 14 4 15 3 16 2 17 1 18
REMARK H PARENT
REMARK Flexibility Score: inf
ROOT
ATOM      1  C   UNL     1      58.661  15.738  89.784  1.00  0.00     0.000 C 
ENDROOT
BRANCH   1   2
ATOM      2  C   UNL     1      58.509  16.233  91.234  1.00  0.00     0.000 C 
BRANCH   2   3
ATOM      3  C   UNL     1      59.822  16.343  92.031  1.00  0.00     0.000 C 
BRANCH   3   4
ATOM      4  C   UNL     1      60.108  15.098  92.889  1.00  0.00     0.000 C 
BRANCH   4   5
ATOM      5  C   UNL     1      58.838  14.523  93.537  1.00  0.00     0.000 C 
BRANCH   5   6
ATOM      6  C   UNL     1      58.573  13.065  93.136  1.00  0.00     0.006 C 
BRANCH   6   7
ATOM      7  C   UNL     1      57.081  12.834  92.870  1.00  0.00     0.053 C 
BRANCH   7   8
ATOM      8  C   UNL     1      56.360  12.535  94.147  1.00  0.00     0.041 C 
ATOM      9  O   UNL     1      56.260  11.347  94.556  1.00  0.00    -0.550 OA
ATOM     10  O   UNL     1      55.835  13.572  94.907  1.00  0.00    -0.550 OA
ENDBRANCH   7   8
ENDBRANCH   6   7
ENDBRANCH   5   6
ENDBRANCH   4   5
ENDBRANCH   3   4
ENDBRANCH   2   3
ENDBRANCH   1   2
BRANCH   1  11
ATOM     11  C   UNL     1      58.245  14.271  89.601  1.00  0.00     0.000 C 
BRANCH  11  12
ATOM     12  C   UNL     1      56.749  14.159  89.276  1.00  0.00    -0.000 C 
BRANCH  12  13
ATOM     13  C   UNL     1      56.262  12.702  89.220  1.00  0.00    -0.000 C 
BRANCH  13  14
ATOM     14  C   UNL     1      57.408  11.697  89.012  1.00  0.00    -0.000 C 
BRANCH  14  15
ATOM     15  C   UNL     1      57.330  10.510  89.995  1.00  0.00    -0.000 C 
BRANCH  15  16
ATOM     16  C   UNL     1      58.679   9.798  90.213  1.00  0.00    -0.000 C 
BRANCH  16  17
ATOM     17  C   UNL     1      59.909  10.716  90.122  1.00  0.00    -0.003 C 
ATOM     18  C   UNL     1      60.858  10.556  91.310  1.00  0.00     0.004 C 
ENDBRANCH  16  17
ENDBRANCH  15  16
ENDBRANCH  14  15
ENDBRANCH  13  14
ENDBRANCH  12  13
ENDBRANCH  11  12
ENDBRANCH   1  11
TORSDOF 14
ENDMDL
MODEL 7
REMARK VINA RESULT:    -4.171      2.558      4.672
REMARK INTER + INTRA:          -9.880
REMARK INTER:                  -7.898
REMARK INTRA:                  -1.982
REMARK UNBOUND:                -2.295
REMARK SMILES CCCCCCCCCCCCCCCC(=O)[O-]
REMARK SMILES IDX 9 1 10 2 11 3 12 4 13 5 14 6 15 7 16 8 17 9 18 10 8 11 7 12
REMARK SMILES IDX 6 13 5 14 4 15 3 16 2 17 1 18
REMARK H PARENT
REMARK Flexibility Score: inf
ROOT
ATOM      1  C   UNL     1      56.176  11.132  92.076  1.00  0.00     0.000 C 
ENDROOT
BRANCH   1   2
ATOM      2  C   UNL     1      54.906  11.906  91.680  1.00  0.00     0.000 C 
BRANCH   2   3
ATOM      3  C   UNL     1      54.723  13.268  92.375  1.00  0.00     0.000 C 
BRANCH   3   4
ATOM      4  C   UNL     1      55.813  13.558  93.421  1.00  0.00     0.000 C 
BRANCH   4   5
ATOM      5  C   UNL     1      56.456  14.942  93.237  1.00  0.00     0.000 C 
BRANCH   5   6
ATOM      6  C   UNL     1      57.788  15.085  93.988  1.00  0.00     0.006 C 
BRANCH   6   7
ATOM      7  C   UNL     1      57.566  15.049  95.504  1.00  0.00     0.053 C 
BRANCH   7   8
ATOM      8  C   UNL     1      58.869  14.879  96.222  1.00  0.00     0.041 C 
ATOM      9  O   UNL     1      59.113  15.551  97.260  1.00  0.00    -0.550 OA
ATOM     10  O   UNL     1      59.794  13.948  95.770  1.00  0.00    -0.550 OA
ENDBRANCH   7   8
ENDBRANCH   6   7
ENDBRANCH   5   6
ENDBRANCH   4   5
ENDBRANCH   3   4
ENDBRANCH   2   3
ENDBRANCH   1   2
BRANCH   1  11
ATOM     11  C   UNL     1      56.302   9.776  91.366  1.00  0.00     0.000 C 
BRANCH  11  12
ATOM     12  C   UNL     1      57.082   9.913  90.050  1.00  0.00    -0.000 C 
BRANCH  12  13
ATOM     13  C   UNL     1      58.602   9.806  90.247  1.00  0.00    -0.000 C 
BRANCH  13  14
ATOM     14  C   UNL     1      59.363  11.020  89.685  1.00  0.00    -0.000 C 
BRANCH  14  15
ATOM     15  C   UNL     1      58.412  12.151  89.240  1.00  0.00    -0.000 C 
BRANCH  15  16
ATOM     16  C   UNL     1      58.403  13.361  90.194  1.00  0.00    -0.000 C 
BRANCH  16  17
ATOM     17  C   UNL     1      57.624  14.580  89.673  1.00  0.00    -0.003 C 
ATOM     18  C   UNL     1      56.252  14.209  89.109  1.00  0.00     0.004 C 
ENDBRANCH  16  17
ENDBRANCH  15  16
ENDBRANCH  14  15
ENDBRANCH  13  14
ENDBRANCH  12  13
ENDBRANCH  11  12
ENDBRANCH   1  11
TORSDOF 14
ENDMDL
MODEL 8
REMARK VINA RESULT:    -4.163      1.589      2.193
REMARK INTER + INTRA:          -9.865
REMARK INTER:                  -7.545
REMARK INTRA:                  -2.320
REMARK UNBOUND:                -2.295
REMARK SMILES CCCCCCCCCCCCCCCC(=O)[O-]
REMARK SMILES IDX 9 1 10 2 11 3 12 4 13 5 14 6 15 7 16 8 17 9 18 10 8 11 7 12
REMARK SMILES IDX 6 13 5 14 4 15 3 16 2 17 1 18
REMARK H PARENT
REMARK Flexibility Score: inf
ROOT
ATOM      1  C   UNL     1      60.113  14.389  93.789  1.00  0.00     0.000 C 
ENDROOT
BRANCH   1   2
ATOM      2  C   UNL     1      59.117  15.357  94.455  1.00  0.00     0.000 C 
BRANCH   2   3
ATOM      3  C   UNL     1      58.442  14.827  95.734  1.00  0.00     0.000 C 
BRANCH   3   4
ATOM      4  C   UNL     1      57.045  14.238  95.473  1.00  0.00     0.000 C 
BRANCH   4   5
ATOM      5  C   UNL     1      56.282  14.992  94.371  1.00  0.00     0.000 C 
BRANCH   5   6
ATOM      6  C   UNL     1      55.698  14.055  93.303  1.00  0.00     0.006 C 
BRANCH   6   7
ATOM      7  C   UNL     1      56.201  12.620  93.503  1.00  0.00     0.053 C 
BRANCH   7   8
ATOM      8  C   UNL     1      55.468  11.677  92.601  1.00  0.00     0.041 C 
ATOM      9  O   UNL     1      54.252  11.871  92.335  1.00  0.00    -0.550 OA
ATOM     10  O   UNL     1      56.139  10.609  92.022  1.00  0.00    -0.550 OA
ENDBRANCH   7   8
ENDBRANCH   6   7
ENDBRANCH   5   6
ENDBRANCH   4   5
ENDBRANCH   3   4
ENDBRANCH   2   3
ENDBRANCH   1   2
BRANCH   1  11
ATOM     11  C   UNL     1      59.566  13.750  92.505  1.00  0.00     0.000 C 
BRANCH  11  12
ATOM     12  C   UNL     1      58.904  14.802  91.604  1.00  0.00    -0.000 C 
BRANCH  12  13
ATOM     13  C   UNL     1      58.674  14.297  90.171  1.00  0.00    -0.000 C 
BRANCH  13  14
ATOM     14  C   UNL     1      57.454  13.367  90.055  1.00  0.00    -0.000 C 
BRANCH  14  15
ATOM     15  C   UNL     1      57.766  12.094  89.239  1.00  0.00    -0.000 C 
BRANCH  15  16
ATOM     16  C   UNL     1      59.213  11.592  89.407  1.00  0.00    -0.000 C 
BRANCH  16  17
ATOM     17  C   UNL     1      59.401  10.543  90.515  1.00  0.00    -0.003 C 
ATOM     18  C   UNL     1      60.835  10.490  91.044  1.00  0.00     0.004 C 
ENDBRANCH  16  17
ENDBRANCH  15  16
ENDBRANCH  14  15
ENDBRANCH  13  14
ENDBRANCH  12  13
ENDBRANCH  11  12
ENDBRANCH   1  11
TORSDOF 14
ENDMDL
MODEL 9
REMARK VINA RESULT:    -4.109      1.673      3.627
REMARK INTER + INTRA:          -9.767
REMARK INTER:                  -7.385
REMARK INTRA:                  -2.382
REMARK UNBOUND:                -2.295
REMARK SMILES CCCCCCCCCCCCCCCC(=O)[O-]
REMARK SMILES IDX 9 1 10 2 11 3 12 4 13 5 14 6 15 7 16 8 17 9 18 10 8 11 7 12
REMARK SMILES IDX 6 13 5 14 4 15 3 16 2 17 1 18
REMARK H PARENT
REMARK Flexibility Score: inf
ROOT
ATOM      1  C   UNL     1      55.948  14.966  93.785  1.00  0.00     0.000 C 
ENDROOT
BRANCH   1   2
ATOM      2  C   UNL     1      54.586  14.543  93.207  1.00  0.00     0.000 C 
BRANCH   2   3
ATOM      3  C   UNL     1      54.209  13.066  93.427  1.00  0.00     0.000 C 
BRANCH   3   4
ATOM      4  C   UNL     1      54.444  12.196  92.180  1.00  0.00     0.000 C 
BRANCH   4   5
ATOM      5  C   UNL     1      55.343  10.982  92.469  1.00  0.00     0.000 C 
BRANCH   5   6
ATOM      6  C   UNL     1      55.254  10.508  93.927  1.00  0.00     0.006 C 
BRANCH   6   7
ATOM      7  C   UNL     1      54.496   9.180  94.023  1.00  0.00     0.053 C 
BRANCH   7   8
ATOM      8  C   UNL     1      54.471   8.691  95.438  1.00  0.00     0.041 C 
ATOM      9  O   UNL     1      54.814   7.509  95.706  1.00  0.00    -0.550 OA
ATOM     10  O   UNL     1      54.109   9.554  96.464  1.00  0.00    -0.550 OA
ENDBRANCH   7   8
ENDBRANCH   6   7
ENDBRANCH   5   6
ENDBRANCH   4   5
ENDBRANCH   3   4
ENDBRANCH   2   3
ENDBRANCH   1   2
BRANCH   1  11
ATOM     11  C   UNL     1      56.518  13.952  94.788  1.00  0.00     0.000 C 
BRANCH  11  12
ATOM     12  C   UNL     1      57.869  13.401  94.307  1.00  0.00    -0.000 C 
BRANCH  12  13
ATOM     13  C   UNL     1      58.289  13.969  92.942  1.00  0.00    -0.000 C 
BRANCH  13  14
ATOM     14  C   UNL     1      58.454  12.880  91.868  1.00  0.00    -0.000 C 
BRANCH  14  15
ATOM     15  C   UNL     1      58.287  13.439  90.439  1.00  0.00    -0.000 C 
BRANCH  15  16
ATOM     16  C   UNL     1      56.857  13.923  90.129  1.00  0.00    -0.000 C 
BRANCH  16  17
ATOM     17  C   UNL     1      56.182  13.209  88.946  1.00  0.00    -0.003 C 
ATOM     18  C   UNL     1      56.755  11.815  88.691  1.00  0.00     0.004 C 
ENDBRANCH  16  17
ENDBRANCH  15  16
ENDBRANCH  14  15
ENDBRANCH  13  14
ENDBRANCH  12  13
ENDBRANCH  11  12
ENDBRANCH   1  11
TORSDOF 14
ENDMDL
