MODEL 1
REMARK VINA RESULT:    -3.179      0.000      0.000
REMARK INTER + INTRA:          -3.585
REMARK INTER:                  -3.551
REMARK INTRA:                  -0.034
REMARK UNBOUND:                -0.034
REMARK SMILES CCCC(=O)[O-]
REMARK SMILES IDX 3 1 4 2 5 3 6 4 2 5 1 6
REMARK H PARENT
REMARK Flexibility Score: inf
ROOT
ATOM      1  C   UNL     1     250.114 262.287 246.757  1.00  0.00     0.052 C 
ENDROOT
BRANCH   1   2
ATOM      2  C   UNL     1     249.395 260.982 246.615  1.00  0.00     0.041 C 
ATOM      3  O   UNL     1     248.548 260.821 245.698  1.00  0.00    -0.550 OA
ATOM      4  O   UNL     1     249.626 259.958 247.525  1.00  0.00    -0.550 OA
ENDBRANCH   1   2
BRANCH   1   5
ATOM      5  C   UNL     1     249.314 263.412 246.095  1.00  0.00     0.003 C 
ATOM      6  C   UNL     1     250.173 264.186 245.100  1.00  0.00     0.004 C 
ENDBRANCH   1   5
TORSDOF 2
ENDMDL
MODEL 2
REMARK VINA RESULT:    -2.955      8.305      9.101
REMARK INTER + INTRA:          -3.335
REMARK INTER:                  -3.299
REMARK INTRA:                  -0.037
REMARK UNBOUND:                -0.034
REMARK SMILES CCCC(=O)[O-]
REMARK SMILES IDX 3 1 4 2 5 3 6 4 2 5 1 6
REMARK H PARENT
REMARK Flexibility Score: inf
ROOT
ATOM      1  C   UNL     1     254.826 261.970 254.121  1.00  0.00     0.052 C 
ENDROOT
BRANCH   1   2
ATOM      2  C   UNL     1     254.147 260.742 254.638  1.00  0.00     0.041 C 
ATOM      3  O   UNL     1     253.161 260.255 254.024  1.00  0.00    -0.550 OA
ATOM      4  O   UNL     1     254.573 260.160 255.826  1.00  0.00    -0.550 OA
ENDBRANCH   1   2
BRANCH   1   5
ATOM      5  C   UNL     1     254.433 262.225 252.663  1.00  0.00     0.003 C 
ATOM      6  C   UNL     1     255.586 261.903 251.718  1.00  0.00     0.004 C 
ENDBRANCH   1   5
TORSDOF 2
ENDMDL
MODEL 3
REMARK VINA RESULT:    -2.945      2.783      3.423
REMARK INTER + INTRA:          -3.323
REMARK INTER:                  -3.313
REMARK INTRA:                  -0.010
REMARK UNBOUND:                -0.034
REMARK SMILES CCCC(=O)[O-]
REMARK SMILES IDX 3 1 4 2 5 3 6 4 2 5 1 6
REMARK H PARENT
REMARK Flexibility Score: inf
ROOT
ATOM      1  C   UNL     1     251.860 259.711 247.067  1.00  0.00     0.052 C 
ENDROOT
BRANCH   1   2
ATOM      2  C   UNL     1     250.369 259.843 247.085  1.00  0.00     0.041 C 
ATOM      3  O   UNL     1     249.651 258.865 247.421  1.00  0.00    -0.550 OA
ATOM      4  O   UNL     1     249.771 261.031 246.684  1.00  0.00    -0.550 OA
ENDBRANCH   1   2
BRANCH   1   5
ATOM      5  C   UNL     1     252.520 261.090 247.155  1.00  0.00     0.003 C 
ATOM      6  C   UNL     1     253.822 261.027 247.946  1.00  0.00     0.004 C 
ENDBRANCH   1   5
TORSDOF 2
ENDMDL
MODEL 4
REMARK VINA RESULT:    -2.942      8.236      9.122
REMARK INTER + INTRA:          -3.320
REMARK INTER:                  -3.280
REMARK INTRA:                  -0.040
REMARK UNBOUND:                -0.034
REMARK SMILES CCCC(=O)[O-]
REMARK SMILES IDX 3 1 4 2 5 3 6 4 2 5 1 6
REMARK H PARENT
REMARK Flexibility Score: inf
ROOT
ATOM      1  C   UNL     1     254.840 262.010 254.108  1.00  0.00     0.052 C 
ENDROOT
BRANCH   1   2
ATOM      2  C   UNL     1     254.164 260.771 254.603  1.00  0.00     0.041 C 
ATOM      3  O   UNL     1     254.640 260.136 255.581  1.00  0.00    -0.550 OA
ATOM      4  O   UNL     1     253.033 260.290 253.956  1.00  0.00    -0.550 OA
ENDBRANCH   1   2
BRANCH   1   5
ATOM      5  C   UNL     1     254.433 262.301 252.661  1.00  0.00     0.003 C 
ATOM      6  C   UNL     1     255.514 261.848 251.684  1.00  0.00     0.004 C 
ENDBRANCH   1   5
TORSDOF 2
ENDMDL
MODEL 5
REMARK VINA RESULT:    -2.897      4.636      5.211
REMARK INTER + INTRA:          -3.270
REMARK INTER:                  -3.202
REMARK INTRA:                  -0.068
REMARK UNBOUND:                -0.034
REMARK SMILES CCCC(=O)[O-]
REMARK SMILES IDX 3 1 4 2 5 3 6 4 2 5 1 6
REMARK H PARENT
REMARK Flexibility Score: inf
ROOT
ATOM      1  C   UNL     1     252.612 259.638 246.905  1.00  0.00     0.052 C 
ENDROOT
BRANCH   1   2
ATOM      2  C   UNL     1     253.669 258.861 246.186  1.00  0.00     0.041 C 
ATOM      3  O   UNL     1     253.947 257.686 246.545  1.00  0.00    -0.550 OA
ATOM      4  O   UNL     1     254.380 259.449 245.148  1.00  0.00    -0.550 OA
ENDBRANCH   1   2
BRANCH   1   5
ATOM      5  C   UNL     1     253.126 261.037 247.259  1.00  0.00     0.003 C 
ATOM      6  C   UNL     1     254.172 260.974 248.369  1.00  0.00     0.004 C 
ENDBRANCH   1   5
TORSDOF 2
ENDMDL
MODEL 6
REMARK VINA RESULT:    -2.866      3.125      4.694
REMARK INTER + INTRA:          -3.235
REMARK INTER:                  -3.202
REMARK INTRA:                  -0.033
REMARK UNBOUND:                -0.034
REMARK SMILES CCCC(=O)[O-]
REMARK SMILES IDX 3 1 4 2 5 3 6 4 2 5 1 6
REMARK H PARENT
REMARK Flexibility Score: inf
ROOT
ATOM      1  C   UNL     1     247.366 259.364 245.054  1.00  0.00     0.052 C 
ENDROOT
BRANCH   1   2
ATOM      2  C   UNL     1     248.486 259.808 245.942  1.00  0.00     0.041 C 
ATOM      3  O   UNL     1     249.133 258.964 246.616  1.00  0.00    -0.550 OA
ATOM      4  O   UNL     1     248.784 261.159 246.062  1.00  0.00    -0.550 OA
ENDBRANCH   1   2
BRANCH   1   5
ATOM      5  C   UNL     1     247.459 257.859 244.788  1.00  0.00     0.003 C 
ATOM      6  C   UNL     1     246.134 257.164 245.089  1.00  0.00     0.004 C 
ENDBRANCH   1   5
TORSDOF 2
ENDMDL
MODEL 7
REMARK VINA RESULT:    -2.816      6.019      6.568
REMARK INTER + INTRA:          -3.180
REMARK INTER:                  -3.165
REMARK INTRA:                  -0.014
REMARK UNBOUND:                -0.034
REMARK SMILES CCCC(=O)[O-]
REMARK SMILES IDX 3 1 4 2 5 3 6 4 2 5 1 6
REMARK H PARENT
REMARK Flexibility Score: inf
ROOT
ATOM      1  C   UNL     1     254.862 260.841 245.737  1.00  0.00     0.052 C 
ENDROOT
BRANCH   1   2
ATOM      2  C   UNL     1     256.336 261.090 245.694  1.00  0.00     0.041 C 
ATOM      3  O   UNL     1     256.969 260.968 244.612  1.00  0.00    -0.550 OA
ATOM      4  O   UNL     1     257.022 261.411 246.859  1.00  0.00    -0.550 OA
ENDBRANCH   1   2
BRANCH   1   5
ATOM      5  C   UNL     1     254.370 260.794 247.186  1.00  0.00     0.003 C 
ATOM      6  C   UNL     1     252.898 261.186 247.281  1.00  0.00     0.004 C 
ENDBRANCH   1   5
TORSDOF 2
ENDMDL
MODEL 8
REMARK VINA RESULT:    -2.813     10.849     11.579
REMARK INTER + INTRA:          -3.177
REMARK INTER:                  -3.172
REMARK INTRA:                  -0.005
REMARK UNBOUND:                -0.034
REMARK SMILES CCCC(=O)[O-]
REMARK SMILES IDX 3 1 4 2 5 3 6 4 2 5 1 6
REMARK H PARENT
REMARK Flexibility Score: inf
ROOT
ATOM      1  C   UNL     1     243.512 256.634 254.861  1.00  0.00     0.052 C 
ENDROOT
BRANCH   1   2
ATOM      2  C   UNL     1     244.364 255.806 253.952  1.00  0.00     0.041 C 
ATOM      3  O   UNL     1     244.679 254.631 254.275  1.00  0.00    -0.550 OA
ATOM      4  O   UNL     1     244.852 256.349 252.770  1.00  0.00    -0.550 OA
ENDBRANCH   1   2
BRANCH   1   5
ATOM      5  C   UNL     1     244.385 257.526 255.749  1.00  0.00     0.003 C 
ATOM      6  C   UNL     1     243.540 258.283 256.768  1.00  0.00     0.004 C 
ENDBRANCH   1   5
TORSDOF 2
ENDMDL
MODEL 9
REMARK VINA RESULT:    -2.737     11.036     11.612
REMARK INTER + INTRA:          -3.091
REMARK INTER:                  -3.055
REMARK INTRA:                  -0.036
REMARK UNBOUND:                -0.034
REMARK SMILES CCCC(=O)[O-]
REMARK SMILES IDX 3 1 4 2 5 3 6 4 2 5 1 6
REMARK H PARENT
REMARK Flexibility Score: inf
ROOT
ATOM      1  C   UNL     1     260.542 259.248 247.146  1.00  0.00     0.052 C 
ENDROOT
BRANCH   1   2
ATOM      2  C   UNL     1     259.990 260.636 247.223  1.00  0.00     0.041 C 
ATOM      3  O   UNL     1     258.861 260.842 247.741  1.00  0.00    -0.550 OA
ATOM      4  O   UNL     1     260.701 261.699 246.679  1.00  0.00    -0.550 OA
ENDBRANCH   1   2
BRANCH   1   5
ATOM      5  C   UNL     1     261.023 258.942 245.724  1.00  0.00     0.003 C 
ATOM      6  C   UNL     1     262.498 258.553 245.714  1.00  0.00     0.004 C 
ENDBRANCH   1   5
TORSDOF 2
ENDMDL
