MODEL 1
REMARK VINA RESULT:    -3.681      0.000      0.000
REMARK INTER + INTRA:         -12.026
REMARK INTER:                  -8.414
REMARK INTRA:                  -3.612
REMARK UNBOUND:                -3.612
REMARK SMILES CCCCCCCCCCCCCCCCCCCCCCCC(=O)[O-]
REMARK SMILES IDX 13 1 14 2 15 3 16 4 17 5 18 6 19 7 20 8 21 9 22 10 23 11
REMARK SMILES IDX 24 12 25 13 26 14 12 15 11 16 10 17 9 18 8 19 7 20 6 21 5 22
REMARK SMILES IDX 4 23 3 24 2 25 1 26
REMARK H PARENT
REMARK Flexibility Score: inf
ROOT
ATOM      1  C   UNL     1      84.966 123.407 126.804  1.00  0.00     0.000 C 
ENDROOT
BRANCH   1   2
ATOM      2  C   UNL     1      84.706 124.830 127.336  1.00  0.00     0.000 C 
BRANCH   2   3
ATOM      3  C   UNL     1      83.705 124.848 128.506  1.00  0.00     0.000 C 
BRANCH   3   4
ATOM      4  C   UNL     1      82.613 123.775 128.368  1.00  0.00     0.000 C 
BRANCH   4   5
ATOM      5  C   UNL     1      82.433 122.947 129.648  1.00  0.00     0.000 C 
BRANCH   5   6
ATOM      6  C   UNL     1      83.452 123.365 130.720  1.00  0.00     0.000 C 
BRANCH   6   7
ATOM      7  C   UNL     1      82.807 124.142 131.879  1.00  0.00     0.000 C 
BRANCH   7   8
ATOM      8  C   UNL     1      83.834 124.931 132.710  1.00  0.00     0.000 C 
BRANCH   8   9
ATOM      9  C   UNL     1      83.538 126.445 132.713  1.00  0.00     0.000 C 
BRANCH   9  10
ATOM     10  C   UNL     1      82.825 126.937 131.440  1.00  0.00     0.006 C 
BRANCH  10  11
ATOM     11  C   UNL     1      83.663 127.937 130.634  1.00  0.00     0.053 C 
BRANCH  11  12
ATOM     12  C   UNL     1      83.295 129.341 130.998  1.00  0.00     0.041 C 
ATOM     13  O   UNL     1      82.224 129.846 130.567  1.00  0.00    -0.550 OA
ATOM     14  O   UNL     1      84.158 130.109 131.768  1.00  0.00    -0.550 OA
ENDBRANCH  11  12
ENDBRANCH  10  11
ENDBRANCH   9  10
ENDBRANCH   8   9
ENDBRANCH   7   8
ENDBRANCH   6   7
ENDBRANCH   5   6
ENDBRANCH   4   5
ENDBRANCH   3   4
ENDBRANCH   2   3
ENDBRANCH   1   2
BRANCH   1  15
ATOM     15  C   UNL     1      84.514 123.184 125.347  1.00  0.00     0.000 C 
BRANCH  15  16
ATOM     16  C   UNL     1      84.258 121.707 124.986  1.00  0.00     0.000 C 
BRANCH  16  17
ATOM     17  C   UNL     1      82.881 121.217 125.468  1.00  0.00     0.000 C 
BRANCH  17  18
ATOM     18  C   UNL     1      82.981 120.080 126.501  1.00  0.00    -0.000 C 
BRANCH  18  19
ATOM     19  C   UNL     1      84.375 119.899 127.131  1.00  0.00    -0.000 C 
BRANCH  19  20
ATOM     20  C   UNL     1      84.421 120.040 128.665  1.00  0.00    -0.000 C 
BRANCH  20  21
ATOM     21  C   UNL     1      85.770 119.671 129.312  1.00  0.00    -0.000 C 
BRANCH  21  22
ATOM     22  C   UNL     1      86.595 120.869 129.823  1.00  0.00    -0.000 C 
BRANCH  22  23
ATOM     23  C   UNL     1      86.638 121.026 131.357  1.00  0.00    -0.000 C 
BRANCH  23  24
ATOM     24  C   UNL     1      85.826 119.979 132.141  1.00  0.00    -0.000 C 
BRANCH  24  25
ATOM     25  C   UNL     1      84.623 120.588 132.876  1.00  0.00    -0.003 C 
ATOM     26  C   UNL     1      83.313 119.981 132.380  1.00  0.00     0.004 C 
ENDBRANCH  24  25
ENDBRANCH  23  24
ENDBRANCH  22  23
ENDBRANCH  21  22
ENDBRANCH  20  21
ENDBRANCH  19  20
ENDBRANCH  18  19
ENDBRANCH  17  18
ENDBRANCH  16  17
ENDBRANCH  15  16
ENDBRANCH   1  15
TORSDOF 22
ENDMDL
MODEL 2
REMARK VINA RESULT:    -3.490      1.211      1.894
REMARK INTER + INTRA:         -11.590
REMARK INTER:                  -8.595
REMARK INTRA:                  -2.995
REMARK UNBOUND:                -3.612
REMARK SMILES CCCCCCCCCCCCCCCCCCCCCCCC(=O)[O-]
REMARK SMILES IDX 13 1 14 2 15 3 16 4 17 5 18 6 19 7 20 8 21 9 22 10 23 11
REMARK SMILES IDX 24 12 25 13 26 14 12 15 11 16 10 17 9 18 8 19 7 20 6 21 5 22
REMARK SMILES IDX 4 23 3 24 2 25 1 26
REMARK H PARENT
REMARK Flexibility Score: inf
ROOT
ATOM      1  C   UNL     1      84.890 123.191 126.729  1.00  0.00     0.000 C 
ENDROOT
BRANCH   1   2
ATOM      2  C   UNL     1      84.604 124.475 127.531  1.00  0.00     0.000 C 
BRANCH   2   3
ATOM      3  C   UNL     1      83.188 124.488 128.136  1.00  0.00     0.000 C 
BRANCH   3   4
ATOM      4  C   UNL     1      82.654 123.076 128.426  1.00  0.00     0.000 C 
BRANCH   4   5
ATOM      5  C   UNL     1      82.769 122.695 129.910  1.00  0.00     0.000 C 
BRANCH   5   6
ATOM      6  C   UNL     1      83.357 123.854 130.730  1.00  0.00     0.000 C 
BRANCH   6   7
ATOM      7  C   UNL     1      82.312 124.532 131.630  1.00  0.00     0.000 C 
BRANCH   7   8
ATOM      8  C   UNL     1      82.136 126.028 131.313  1.00  0.00     0.000 C 
BRANCH   8   9
ATOM      9  C   UNL     1      82.652 126.928 132.456  1.00  0.00     0.000 C 
BRANCH   9  10
ATOM     10  C   UNL     1      84.141 127.296 132.327  1.00  0.00     0.006 C 
BRANCH  10  11
ATOM     11  C   UNL     1      84.386 128.810 132.358  1.00  0.00     0.053 C 
BRANCH  11  12
ATOM     12  C   UNL     1      83.874 129.449 131.106  1.00  0.00     0.041 C 
ATOM     13  O   UNL     1      83.177 130.496 131.170  1.00  0.00    -0.550 OA
ATOM     14  O   UNL     1      84.121 128.859 129.874  1.00  0.00    -0.550 OA
ENDBRANCH  11  12
ENDBRANCH  10  11
ENDBRANCH   9  10
ENDBRANCH   8   9
ENDBRANCH   7   8
ENDBRANCH   6   7
ENDBRANCH   5   6
ENDBRANCH   4   5
ENDBRANCH   3   4
ENDBRANCH   2   3
ENDBRANCH   1   2
BRANCH   1  15
ATOM     15  C   UNL     1      84.493 123.273 125.241  1.00  0.00     0.000 C 
BRANCH  15  16
ATOM     16  C   UNL     1      84.165 121.910 124.600  1.00  0.00     0.000 C 
BRANCH  16  17
ATOM     17  C   UNL     1      82.665 121.749 124.299  1.00  0.00     0.000 C 
BRANCH  17  18
ATOM     18  C   UNL     1      81.953 120.821 125.300  1.00  0.00    -0.000 C 
BRANCH  18  19
ATOM     19  C   UNL     1      82.888 119.905 126.112  1.00  0.00    -0.000 C 
BRANCH  19  20
ATOM     20  C   UNL     1      82.381 119.539 127.520  1.00  0.00    -0.000 C 
BRANCH  20  21
ATOM     21  C   UNL     1      83.485 119.310 128.570  1.00  0.00    -0.000 C 
BRANCH  21  22
ATOM     22  C   UNL     1      84.864 119.892 128.201  1.00  0.00    -0.000 C 
BRANCH  22  23
ATOM     23  C   UNL     1      86.032 119.417 129.090  1.00  0.00    -0.000 C 
BRANCH  23  24
ATOM     24  C   UNL     1      85.831 119.634 130.600  1.00  0.00    -0.000 C 
BRANCH  24  25
ATOM     25  C   UNL     1      86.601 120.851 131.134  1.00  0.00    -0.003 C 
ATOM     26  C   UNL     1      87.687 121.287 130.155  1.00  0.00     0.004 C 
ENDBRANCH  24  25
ENDBRANCH  23  24
ENDBRANCH  22  23
ENDBRANCH  21  22
ENDBRANCH  20  21
ENDBRANCH  19  20
ENDBRANCH  18  19
ENDBRANCH  17  18
ENDBRANCH  16  17
ENDBRANCH  15  16
ENDBRANCH   1  15
TORSDOF 22
ENDMDL
MODEL 3
REMARK VINA RESULT:    -2.549      1.894      4.938
REMARK INTER + INTRA:          -9.439
REMARK INTER:                  -5.961
REMARK INTRA:                  -3.477
REMARK UNBOUND:                -3.612
REMARK SMILES CCCCCCCCCCCCCCCCCCCCCCCC(=O)[O-]
REMARK SMILES IDX 13 1 14 2 15 3 16 4 17 5 18 6 19 7 20 8 21 9 22 10 23 11
REMARK SMILES IDX 24 12 25 13 26 14 12 15 11 16 10 17 9 18 8 19 7 20 6 21 5 22
REMARK SMILES IDX 4 23 3 24 2 25 1 26
REMARK H PARENT
REMARK Flexibility Score: inf
ROOT
ATOM      1  C   UNL     1      85.946 123.594 127.554  1.00  0.00     0.000 C 
ENDROOT
BRANCH   1   2
ATOM      2  C   UNL     1      85.864 122.980 128.965  1.00  0.00     0.000 C 
BRANCH   2   3
ATOM      3  C   UNL     1      86.179 121.473 128.971  1.00  0.00     0.000 C 
BRANCH   3   4
ATOM      4  C   UNL     1      87.131 121.069 130.108  1.00  0.00     0.000 C 
BRANCH   4   5
ATOM      5  C   UNL     1      86.387 120.735 131.410  1.00  0.00     0.000 C 
BRANCH   5   6
ATOM      6  C   UNL     1      85.358 119.617 131.182  1.00  0.00     0.000 C 
BRANCH   6   7
ATOM      7  C   UNL     1      84.193 119.671 132.183  1.00  0.00     0.000 C 
BRANCH   7   8
ATOM      8  C   UNL     1      83.961 121.084 132.748  1.00  0.00     0.000 C 
BRANCH   8   9
ATOM      9  C   UNL     1      82.505 121.556 132.547  1.00  0.00     0.000 C 
BRANCH   9  10
ATOM     10  C   UNL     1      82.318 123.073 132.728  1.00  0.00     0.006 C 
BRANCH  10  11
ATOM     11  C   UNL     1      82.641 123.870 131.459  1.00  0.00     0.053 C 
BRANCH  11  12
ATOM     12  C   UNL     1      83.383 125.123 131.802  1.00  0.00     0.041 C 
ATOM     13  O   UNL     1      83.403 126.089 130.993  1.00  0.00    -0.550 OA
ATOM     14  O   UNL     1      84.097 125.205 132.990  1.00  0.00    -0.550 OA
ENDBRANCH  11  12
ENDBRANCH  10  11
ENDBRANCH   9  10
ENDBRANCH   8   9
ENDBRANCH   7   8
ENDBRANCH   6   7
ENDBRANCH   5   6
ENDBRANCH   4   5
ENDBRANCH   3   4
ENDBRANCH   2   3
ENDBRANCH   1   2
BRANCH   1  15
ATOM     15  C   UNL     1      84.576 123.827 126.886  1.00  0.00     0.000 C 
BRANCH  15  16
ATOM     16  C   UNL     1      83.454 124.219 127.868  1.00  0.00     0.000 C 
BRANCH  16  17
ATOM     17  C   UNL     1      82.070 123.736 127.401  1.00  0.00     0.000 C 
BRANCH  17  18
ATOM     18  C   UNL     1      81.875 122.220 127.584  1.00  0.00    -0.000 C 
BRANCH  18  19
ATOM     19  C   UNL     1      82.662 121.602 128.755  1.00  0.00    -0.000 C 
BRANCH  19  20
ATOM     20  C   UNL     1      82.504 120.078 128.916  1.00  0.00    -0.000 C 
BRANCH  20  21
ATOM     21  C   UNL     1      82.384 119.294 127.595  1.00  0.00    -0.000 C 
BRANCH  21  22
ATOM     22  C   UNL     1      83.589 119.435 126.642  1.00  0.00    -0.000 C 
BRANCH  22  23
ATOM     23  C   UNL     1      83.239 119.892 125.211  1.00  0.00    -0.000 C 
BRANCH  23  24
ATOM     24  C   UNL     1      83.781 121.277 124.819  1.00  0.00    -0.000 C 
BRANCH  24  25
ATOM     25  C   UNL     1      82.889 121.999 123.799  1.00  0.00    -0.003 C 
ATOM     26  C   UNL     1      82.561 121.091 122.616  1.00  0.00     0.004 C 
ENDBRANCH  24  25
ENDBRANCH  23  24
ENDBRANCH  22  23
ENDBRANCH  21  22
ENDBRANCH  20  21
ENDBRANCH  19  20
ENDBRANCH  18  19
ENDBRANCH  17  18
ENDBRANCH  16  17
ENDBRANCH  15  16
ENDBRANCH   1  15
TORSDOF 22
ENDMDL
MODEL 4
REMARK VINA RESULT:    -2.237      2.408      5.894
REMARK INTER + INTRA:          -8.726
REMARK INTER:                  -6.333
REMARK INTRA:                  -2.393
REMARK UNBOUND:                -3.612
REMARK SMILES CCCCCCCCCCCCCCCCCCCCCCCC(=O)[O-]
REMARK SMILES IDX 13 1 14 2 15 3 16 4 17 5 18 6 19 7 20 8 21 9 22 10 23 11
REMARK SMILES IDX 24 12 25 13 26 14 12 15 11 16 10 17 9 18 8 19 7 20 6 21 5 22
REMARK SMILES IDX 4 23 3 24 2 25 1 26
REMARK H PARENT
REMARK Flexibility Score: inf
ROOT
ATOM      1  C   UNL     1      86.548 122.521 128.625  1.00  0.00     0.000 C 
ENDROOT
BRANCH   1   2
ATOM      2  C   UNL     1      85.831 121.512 129.543  1.00  0.00     0.000 C 
BRANCH   2   3
ATOM      3  C   UNL     1      85.844 120.083 128.970  1.00  0.00     0.000 C 
BRANCH   3   4
ATOM      4  C   UNL     1      85.566 119.013 130.038  1.00  0.00     0.000 C 
BRANCH   4   5
ATOM      5  C   UNL     1      84.439 119.417 131.000  1.00  0.00     0.000 C 
BRANCH   5   6
ATOM      6  C   UNL     1      83.074 119.373 130.295  1.00  0.00     0.000 C 
BRANCH   6   7
ATOM      7  C   UNL     1      81.897 119.387 131.283  1.00  0.00     0.000 C 
BRANCH   7   8
ATOM      8  C   UNL     1      82.309 119.848 132.693  1.00  0.00     0.000 C 
BRANCH   8   9
ATOM      9  C   UNL     1      81.980 121.336 132.934  1.00  0.00     0.000 C 
BRANCH   9  10
ATOM     10  C   UNL     1      83.226 122.221 133.124  1.00  0.00     0.006 C 
BRANCH  10  11
ATOM     11  C   UNL     1      83.508 123.123 131.916  1.00  0.00     0.053 C 
BRANCH  11  12
ATOM     12  C   UNL     1      82.928 124.484 132.132  1.00  0.00     0.041 C 
ATOM     13  O   UNL     1      82.101 124.679 133.063  1.00  0.00    -0.550 OA
ATOM     14  O   UNL     1      83.257 125.525 131.274  1.00  0.00    -0.550 OA
ENDBRANCH  11  12
ENDBRANCH  10  11
ENDBRANCH   9  10
ENDBRANCH   8   9
ENDBRANCH   7   8
ENDBRANCH   6   7
ENDBRANCH   5   6
ENDBRANCH   4   5
ENDBRANCH   3   4
ENDBRANCH   2   3
ENDBRANCH   1   2
BRANCH   1  15
ATOM     15  C   UNL     1      85.599 123.478 127.874  1.00  0.00     0.000 C 
BRANCH  15  16
ATOM     16  C   UNL     1      84.184 123.565 128.480  1.00  0.00     0.000 C 
BRANCH  16  17
ATOM     17  C   UNL     1      83.253 124.478 127.662  1.00  0.00     0.000 C 
BRANCH  17  18
ATOM     18  C   UNL     1      82.806 123.838 126.336  1.00  0.00    -0.000 C 
BRANCH  18  19
ATOM     19  C   UNL     1      81.943 122.570 126.485  1.00  0.00    -0.000 C 
BRANCH  19  20
ATOM     20  C   UNL     1      82.640 121.385 127.180  1.00  0.00    -0.000 C 
BRANCH  20  21
ATOM     21  C   UNL     1      83.086 120.249 126.238  1.00  0.00    -0.000 C 
BRANCH  21  22
ATOM     22  C   UNL     1      83.548 120.707 124.840  1.00  0.00    -0.000 C 
BRANCH  22  23
ATOM     23  C   UNL     1      82.576 120.371 123.690  1.00  0.00    -0.000 C 
BRANCH  23  24
ATOM     24  C   UNL     1      82.410 121.479 122.635  1.00  0.00    -0.000 C 
BRANCH  24  25
ATOM     25  C   UNL     1      82.549 120.958 121.197  1.00  0.00    -0.003 C 
ATOM     26  C   UNL     1      82.524 119.432 121.161  1.00  0.00     0.004 C 
ENDBRANCH  24  25
ENDBRANCH  23  24
ENDBRANCH  22  23
ENDBRANCH  21  22
ENDBRANCH  20  21
ENDBRANCH  19  20
ENDBRANCH  18  19
ENDBRANCH  17  18
ENDBRANCH  16  17
ENDBRANCH  15  16
ENDBRANCH   1  15
TORSDOF 22
ENDMDL
MODEL 5
REMARK VINA RESULT:    -1.769      1.651      2.610
REMARK INTER + INTRA:          -7.657
REMARK INTER:                  -6.424
REMARK INTRA:                  -1.233
REMARK UNBOUND:                -3.612
REMARK SMILES CCCCCCCCCCCCCCCCCCCCCCCC(=O)[O-]
REMARK SMILES IDX 13 1 14 2 15 3 16 4 17 5 18 6 19 7 20 8 21 9 22 10 23 11
REMARK SMILES IDX 24 12 25 13 26 14 12 15 11 16 10 17 9 18 8 19 7 20 6 21 5 22
REMARK SMILES IDX 4 23 3 24 2 25 1 26
REMARK H PARENT
REMARK Flexibility Score: inf
ROOT
ATOM      1  C   UNL     1      83.707 122.650 127.575  1.00  0.00     0.000 C 
ENDROOT
BRANCH   1   2
ATOM      2  C   UNL     1      84.256 124.040 127.950  1.00  0.00     0.000 C 
BRANCH   2   3
ATOM      3  C   UNL     1      83.434 124.718 129.061  1.00  0.00     0.000 C 
BRANCH   3   4
ATOM      4  C   UNL     1      83.448 123.924 130.377  1.00  0.00     0.000 C 
BRANCH   4   5
ATOM      5  C   UNL     1      82.520 124.528 131.441  1.00  0.00     0.000 C 
BRANCH   5   6
ATOM      6  C   UNL     1      83.320 125.343 132.469  1.00  0.00     0.000 C 
BRANCH   6   7
ATOM      7  C   UNL     1      82.590 126.623 132.908  1.00  0.00     0.000 C 
BRANCH   7   8
ATOM      8  C   UNL     1      83.547 127.808 133.125  1.00  0.00     0.000 C 
BRANCH   8   9
ATOM      9  C   UNL     1      83.159 129.031 132.267  1.00  0.00     0.000 C 
BRANCH   9  10
ATOM     10  C   UNL     1      83.360 130.378 132.985  1.00  0.00     0.006 C 
BRANCH  10  11
ATOM     11  C   UNL     1      83.855 131.486 132.049  1.00  0.00     0.053 C 
BRANCH  11  12
ATOM     12  C   UNL     1      82.699 132.247 131.481  1.00  0.00     0.041 C 
ATOM     13  O   UNL     1      82.390 133.374 131.952  1.00  0.00    -0.550 OA
ATOM     14  O   UNL     1      81.929 131.689 130.468  1.00  0.00    -0.550 OA
ENDBRANCH  11  12
ENDBRANCH  10  11
ENDBRANCH   9  10
ENDBRANCH   8   9
ENDBRANCH   7   8
ENDBRANCH   6   7
ENDBRANCH   5   6
ENDBRANCH   4   5
ENDBRANCH   3   4
ENDBRANCH   2   3
ENDBRANCH   1   2
BRANCH   1  15
ATOM     15  C   UNL     1      82.628 122.672 126.473  1.00  0.00     0.000 C 
BRANCH  15  16
ATOM     16  C   UNL     1      83.171 122.993 125.066  1.00  0.00     0.000 C 
BRANCH  16  17
ATOM     17  C   UNL     1      82.808 121.909 124.036  1.00  0.00     0.000 C 
BRANCH  17  18
ATOM     18  C   UNL     1      82.344 120.596 124.693  1.00  0.00    -0.000 C 
BRANCH  18  19
ATOM     19  C   UNL     1      83.446 119.816 125.434  1.00  0.00    -0.000 C 
BRANCH  19  20
ATOM     20  C   UNL     1      82.944 118.876 126.547  1.00  0.00    -0.000 C 
BRANCH  20  21
ATOM     21  C   UNL     1      83.645 119.047 127.909  1.00  0.00    -0.000 C 
BRANCH  21  22
ATOM     22  C   UNL     1      82.902 119.947 128.916  1.00  0.00    -0.000 C 
BRANCH  22  23
ATOM     23  C   UNL     1      83.372 119.816 130.379  1.00  0.00    -0.000 C 
BRANCH  23  24
ATOM     24  C   UNL     1      84.798 119.267 130.557  1.00  0.00    -0.000 C 
BRANCH  24  25
ATOM     25  C   UNL     1      85.606 120.037 131.612  1.00  0.00    -0.003 C 
ATOM     26  C   UNL     1      84.692 120.613 132.690  1.00  0.00     0.004 C 
ENDBRANCH  24  25
ENDBRANCH  23  24
ENDBRANCH  22  23
ENDBRANCH  21  22
ENDBRANCH  20  21
ENDBRANCH  19  20
ENDBRANCH  18  19
ENDBRANCH  17  18
ENDBRANCH  16  17
ENDBRANCH  15  16
ENDBRANCH   1  15
TORSDOF 22
ENDMDL
MODEL 6
REMARK VINA RESULT:    -1.605      1.824      3.450
REMARK INTER + INTRA:          -7.280
REMARK INTER:                  -5.315
REMARK INTRA:                  -1.965
REMARK UNBOUND:                -3.612
REMARK SMILES CCCCCCCCCCCCCCCCCCCCCCCC(=O)[O-]
REMARK SMILES IDX 13 1 14 2 15 3 16 4 17 5 18 6 19 7 20 8 21 9 22 10 23 11
REMARK SMILES IDX 24 12 25 13 26 14 12 15 11 16 10 17 9 18 8 19 7 20 6 21 5 22
REMARK SMILES IDX 4 23 3 24 2 25 1 26
REMARK H PARENT
REMARK Flexibility Score: inf
ROOT
ATOM      1  C   UNL     1      83.400 123.242 128.984  1.00  0.00     0.000 C 
ENDROOT
BRANCH   1   2
ATOM      2  C   UNL     1      82.760 122.974 130.360  1.00  0.00     0.000 C 
BRANCH   2   3
ATOM      3  C   UNL     1      82.257 124.263 131.037  1.00  0.00     0.000 C 
BRANCH   3   4
ATOM      4  C   UNL     1      83.072 124.634 132.286  1.00  0.00     0.000 C 
BRANCH   4   5
ATOM      5  C   UNL     1      83.285 126.148 132.424  1.00  0.00     0.000 C 
BRANCH   5   6
ATOM      6  C   UNL     1      83.802 126.751 131.108  1.00  0.00     0.000 C 
BRANCH   6   7
ATOM      7  C   UNL     1      84.078 128.259 131.216  1.00  0.00     0.000 C 
BRANCH   7   8
ATOM      8  C   UNL     1      84.772 128.643 132.535  1.00  0.00     0.000 C 
BRANCH   8   9
ATOM      9  C   UNL     1      84.211 129.955 133.124  1.00  0.00     0.000 C 
BRANCH   9  10
ATOM     10  C   UNL     1      83.930 131.037 132.065  1.00  0.00     0.006 C 
BRANCH  10  11
ATOM     11  C   UNL     1      82.542 131.671 132.213  1.00  0.00     0.053 C 
BRANCH  11  12
ATOM     12  C   UNL     1      82.499 133.001 131.531  1.00  0.00     0.041 C 
ATOM     13  O   UNL     1      82.142 134.028 132.168  1.00  0.00    -0.550 OA
ATOM     14  O   UNL     1      82.799 133.099 130.179  1.00  0.00    -0.550 OA
ENDBRANCH  11  12
ENDBRANCH  10  11
ENDBRANCH   9  10
ENDBRANCH   8   9
ENDBRANCH   7   8
ENDBRANCH   6   7
ENDBRANCH   5   6
ENDBRANCH   4   5
ENDBRANCH   3   4
ENDBRANCH   2   3
ENDBRANCH   1   2
BRANCH   1  15
ATOM     15  C   UNL     1      82.729 124.378 128.185  1.00  0.00     0.000 C 
BRANCH  15  16
ATOM     16  C   UNL     1      83.242 124.518 126.738  1.00  0.00     0.000 C 
BRANCH  16  17
ATOM     17  C   UNL     1      82.569 123.520 125.779  1.00  0.00     0.000 C 
BRANCH  17  18
ATOM     18  C   UNL     1      83.571 122.836 124.832  1.00  0.00    -0.000 C 
BRANCH  18  19
ATOM     19  C   UNL     1      84.432 121.737 125.484  1.00  0.00    -0.000 C 
BRANCH  19  20
ATOM     20  C   UNL     1      83.639 120.596 126.150  1.00  0.00    -0.000 C 
BRANCH  20  21
ATOM     21  C   UNL     1      83.974 120.350 127.634  1.00  0.00    -0.000 C 
BRANCH  21  22
ATOM     22  C   UNL     1      85.004 119.231 127.892  1.00  0.00    -0.000 C 
BRANCH  22  23
ATOM     23  C   UNL     1      85.877 119.425 129.148  1.00  0.00    -0.000 C 
BRANCH  23  24
ATOM     24  C   UNL     1      86.265 120.883 129.452  1.00  0.00    -0.000 C 
BRANCH  24  25
ATOM     25  C   UNL     1      85.669 121.395 130.771  1.00  0.00    -0.003 C 
ATOM     26  C   UNL     1      86.011 120.460 131.928  1.00  0.00     0.004 C 
ENDBRANCH  24  25
ENDBRANCH  23  24
ENDBRANCH  22  23
ENDBRANCH  21  22
ENDBRANCH  20  21
ENDBRANCH  19  20
ENDBRANCH  18  19
ENDBRANCH  17  18
ENDBRANCH  16  17
ENDBRANCH  15  16
ENDBRANCH   1  15
TORSDOF 22
ENDMDL
MODEL 7
REMARK VINA RESULT:    -1.431     12.613     15.541
REMARK INTER + INTRA:          -6.884
REMARK INTER:                  -5.689
REMARK INTRA:                  -1.194
REMARK UNBOUND:                -3.612
REMARK SMILES CCCCCCCCCCCCCCCCCCCCCCCC(=O)[O-]
REMARK SMILES IDX 13 1 14 2 15 3 16 4 17 5 18 6 19 7 20 8 21 9 22 10 23 11
REMARK SMILES IDX 24 12 25 13 26 14 12 15 11 16 10 17 9 18 8 19 7 20 6 21 5 22
REMARK SMILES IDX 4 23 3 24 2 25 1 26
REMARK H PARENT
REMARK Flexibility Score: inf
ROOT
ATOM      1  C   UNL     1      93.510 122.763 125.148  1.00  0.00     0.000 C 
ENDROOT
BRANCH   1   2
ATOM      2  C   UNL     1      92.837 123.360 123.898  1.00  0.00     0.000 C 
BRANCH   2   3
ATOM      3  C   UNL     1      92.670 122.326 122.769  1.00  0.00     0.000 C 
BRANCH   3   4
ATOM      4  C   UNL     1      92.601 122.973 121.377  1.00  0.00     0.000 C 
BRANCH   4   5
ATOM      5  C   UNL     1      92.560 121.936 120.245  1.00  0.00     0.000 C 
BRANCH   5   6
ATOM      6  C   UNL     1      93.981 121.542 119.810  1.00  0.00     0.000 C 
BRANCH   6   7
ATOM      7  C   UNL     1      93.999 120.313 118.888  1.00  0.00     0.000 C 
BRANCH   7   8
ATOM      8  C   UNL     1      94.456 120.650 117.458  1.00  0.00     0.000 C 
BRANCH   8   9
ATOM      9  C   UNL     1      93.380 120.302 116.408  1.00  0.00     0.000 C 
BRANCH   9  10
ATOM     10  C   UNL     1      91.982 120.844 116.755  1.00  0.00     0.006 C 
BRANCH  10  11
ATOM     11  C   UNL     1      91.574 122.042 115.889  1.00  0.00     0.053 C 
BRANCH  11  12
ATOM     12  C   UNL     1      91.765 123.321 116.642  1.00  0.00     0.041 C 
ATOM     13  O   UNL     1      91.712 123.328 117.901  1.00  0.00    -0.550 OA
ATOM     14  O   UNL     1      91.949 124.513 115.953  1.00  0.00    -0.550 OA
ENDBRANCH  11  12
ENDBRANCH  10  11
ENDBRANCH   9  10
ENDBRANCH   8   9
ENDBRANCH   7   8
ENDBRANCH   6   7
ENDBRANCH   5   6
ENDBRANCH   4   5
ENDBRANCH   3   4
ENDBRANCH   2   3
ENDBRANCH   1   2
BRANCH   1  15
ATOM     15  C   UNL     1      95.027 123.029 125.238  1.00  0.00     0.000 C 
BRANCH  15  16
ATOM     16  C   UNL     1      95.553 124.031 124.191  1.00  0.00     0.000 C 
BRANCH  16  17
ATOM     17  C   UNL     1      96.726 124.874 124.725  1.00  0.00     0.000 C 
BRANCH  17  18
ATOM     18  C   UNL     1      96.953 124.688 126.236  1.00  0.00    -0.000 C 
BRANCH  18  19
ATOM     19  C   UNL     1      98.396 124.944 126.710  1.00  0.00    -0.000 C 
BRANCH  19  20
ATOM     20  C   UNL     1      99.311 123.705 126.717  1.00  0.00    -0.000 C 
BRANCH  20  21
ATOM     21  C   UNL     1      98.589 122.362 126.491  1.00  0.00    -0.000 C 
BRANCH  21  22
ATOM     22  C   UNL     1      99.457 121.109 126.724  1.00  0.00    -0.000 C 
BRANCH  22  23
ATOM     23  C   UNL     1     100.922 121.234 126.257  1.00  0.00    -0.000 C 
BRANCH  23  24
ATOM     24  C   UNL     1     101.802 120.003 126.538  1.00  0.00    -0.000 C 
BRANCH  24  25
ATOM     25  C   UNL     1     102.102 119.184 125.274  1.00  0.00    -0.003 C 
ATOM     26  C   UNL     1     101.271 119.675 124.092  1.00  0.00     0.004 C 
ENDBRANCH  24  25
ENDBRANCH  23  24
ENDBRANCH  22  23
ENDBRANCH  21  22
ENDBRANCH  20  21
ENDBRANCH  19  20
ENDBRANCH  18  19
ENDBRANCH  17  18
ENDBRANCH  16  17
ENDBRANCH  15  16
ENDBRANCH   1  15
TORSDOF 22
ENDMDL
MODEL 8
REMARK VINA RESULT:    -1.099      2.059      5.543
REMARK INTER + INTRA:          -6.124
REMARK INTER:                  -3.995
REMARK INTRA:                  -2.129
REMARK UNBOUND:                -3.612
REMARK SMILES CCCCCCCCCCCCCCCCCCCCCCCC(=O)[O-]
REMARK SMILES IDX 13 1 14 2 15 3 16 4 17 5 18 6 19 7 20 8 21 9 22 10 23 11
REMARK SMILES IDX 24 12 25 13 26 14 12 15 11 16 10 17 9 18 8 19 7 20 6 21 5 22
REMARK SMILES IDX 4 23 3 24 2 25 1 26
REMARK H PARENT
REMARK Flexibility Score: inf
ROOT
ATOM      1  C   UNL     1      87.866 123.461 128.602  1.00  0.00     0.000 C 
ENDROOT
BRANCH   1   2
ATOM      2  C   UNL     1      87.180 122.738 129.777  1.00  0.00     0.000 C 
BRANCH   2   3
ATOM      3  C   UNL     1      87.658 121.283 129.933  1.00  0.00     0.000 C 
BRANCH   3   4
ATOM      4  C   UNL     1      87.344 120.701 131.321  1.00  0.00     0.000 C 
BRANCH   4   5
ATOM      5  C   UNL     1      85.880 120.915 131.734  1.00  0.00     0.000 C 
BRANCH   5   6
ATOM      6  C   UNL     1      84.942 120.017 130.912  1.00  0.00     0.000 C 
BRANCH   6   7
ATOM      7  C   UNL     1      83.457 120.290 131.203  1.00  0.00     0.000 C 
BRANCH   7   8
ATOM      8  C   UNL     1      83.177 121.769 131.525  1.00  0.00     0.000 C 
BRANCH   8   9
ATOM      9  C   UNL     1      82.964 122.610 130.249  1.00  0.00     0.000 C 
BRANCH   9  10
ATOM     10  C   UNL     1      82.353 123.997 130.518  1.00  0.00     0.006 C 
BRANCH  10  11
ATOM     11  C   UNL     1      83.201 125.143 129.954  1.00  0.00     0.053 C 
BRANCH  11  12
ATOM     12  C   UNL     1      82.919 126.415 130.688  1.00  0.00     0.041 C 
ATOM     13  O   UNL     1      81.933 127.129 130.361  1.00  0.00    -0.550 OA
ATOM     14  O   UNL     1      83.772 126.840 131.698  1.00  0.00    -0.550 OA
ENDBRANCH  11  12
ENDBRANCH  10  11
ENDBRANCH   9  10
ENDBRANCH   8   9
ENDBRANCH   7   8
ENDBRANCH   6   7
ENDBRANCH   5   6
ENDBRANCH   4   5
ENDBRANCH   3   4
ENDBRANCH   2   3
ENDBRANCH   1   2
BRANCH   1  15
ATOM     15  C   UNL     1      86.904 123.896 127.478  1.00  0.00     0.000 C 
BRANCH  15  16
ATOM     16  C   UNL     1      85.412 123.795 127.852  1.00  0.00     0.000 C 
BRANCH  16  17
ATOM     17  C   UNL     1      84.500 124.465 126.809  1.00  0.00     0.000 C 
BRANCH  17  18
ATOM     18  C   UNL     1      84.037 123.492 125.710  1.00  0.00    -0.000 C 
BRANCH  18  19
ATOM     19  C   UNL     1      82.513 123.285 125.626  1.00  0.00    -0.000 C 
BRANCH  19  20
ATOM     20  C   UNL     1      81.936 122.272 126.633  1.00  0.00    -0.000 C 
BRANCH  20  21
ATOM     21  C   UNL     1      81.897 120.813 126.138  1.00  0.00    -0.000 C 
BRANCH  21  22
ATOM     22  C   UNL     1      83.060 120.410 125.210  1.00  0.00    -0.000 C 
BRANCH  22  23
ATOM     23  C   UNL     1      82.694 119.395 124.108  1.00  0.00    -0.000 C 
BRANCH  23  24
ATOM     24  C   UNL     1      81.875 119.971 122.939  1.00  0.00    -0.000 C 
BRANCH  24  25
ATOM     25  C   UNL     1      82.601 121.109 122.207  1.00  0.00    -0.003 C 
ATOM     26  C   UNL     1      82.749 120.798 120.720  1.00  0.00     0.004 C 
ENDBRANCH  24  25
ENDBRANCH  23  24
ENDBRANCH  22  23
ENDBRANCH  21  22
ENDBRANCH  20  21
ENDBRANCH  19  20
ENDBRANCH  18  19
ENDBRANCH  17  18
ENDBRANCH  16  17
ENDBRANCH  15  16
ENDBRANCH   1  15
TORSDOF 22
ENDMDL
MODEL 9
REMARK VINA RESULT:    -1.048     12.937     15.936
REMARK INTER + INTRA:          -6.007
REMARK INTER:                  -4.313
REMARK INTRA:                  -1.694
REMARK UNBOUND:                -3.612
REMARK SMILES CCCCCCCCCCCCCCCCCCCCCCCC(=O)[O-]
REMARK SMILES IDX 13 1 14 2 15 3 16 4 17 5 18 6 19 7 20 8 21 9 22 10 23 11
REMARK SMILES IDX 24 12 25 13 26 14 12 15 11 16 10 17 9 18 8 19 7 20 6 21 5 22
REMARK SMILES IDX 4 23 3 24 2 25 1 26
REMARK H PARENT
REMARK Flexibility Score: inf
ROOT
ATOM      1  C   UNL     1      93.751 122.417 124.925  1.00  0.00     0.000 C 
ENDROOT
BRANCH   1   2
ATOM      2  C   UNL     1      94.999 123.081 125.539  1.00  0.00     0.000 C 
BRANCH   2   3
ATOM      3  C   UNL     1      95.719 124.012 124.546  1.00  0.00     0.000 C 
BRANCH   3   4
ATOM      4  C   UNL     1      96.988 124.643 125.138  1.00  0.00     0.000 C 
BRANCH   4   5
ATOM      5  C   UNL     1      97.379 124.026 126.490  1.00  0.00     0.000 C 
BRANCH   5   6
ATOM      6  C   UNL     1      98.878 124.221 126.769  1.00  0.00     0.000 C 
BRANCH   6   7
ATOM      7  C   UNL     1      99.719 122.998 126.370  1.00  0.00     0.000 C 
BRANCH   7   8
ATOM      8  C   UNL     1     101.141 123.376 125.918  1.00  0.00     0.000 C 
BRANCH   8   9
ATOM      9  C   UNL     1     102.061 122.142 125.810  1.00  0.00     0.000 C 
BRANCH   9  10
ATOM     10  C   UNL     1     101.508 120.895 126.522  1.00  0.00     0.006 C 
BRANCH  10  11
ATOM     11  C   UNL     1     101.566 119.635 125.650  1.00  0.00     0.053 C 
BRANCH  11  12
ATOM     12  C   UNL     1     100.500 119.674 124.601  1.00  0.00     0.041 C 
ATOM     13  O   UNL     1      99.315 119.965 124.914  1.00  0.00    -0.550 OA
ATOM     14  O   UNL     1     100.804 119.338 123.289  1.00  0.00    -0.550 OA
ENDBRANCH  11  12
ENDBRANCH  10  11
ENDBRANCH   9  10
ENDBRANCH   8   9
ENDBRANCH   7   8
ENDBRANCH   6   7
ENDBRANCH   5   6
ENDBRANCH   4   5
ENDBRANCH   3   4
ENDBRANCH   2   3
ENDBRANCH   1   2
BRANCH   1  15
ATOM     15  C   UNL     1      92.743 123.410 124.313  1.00  0.00     0.000 C 
BRANCH  15  16
ATOM     16  C   UNL     1      92.827 123.527 122.778  1.00  0.00     0.000 C 
BRANCH  16  17
ATOM     17  C   UNL     1      92.605 122.177 122.074  1.00  0.00     0.000 C 
BRANCH  17  18
ATOM     18  C   UNL     1      92.184 122.335 120.602  1.00  0.00    -0.000 C 
BRANCH  18  19
ATOM     19  C   UNL     1      93.351 122.433 119.601  1.00  0.00    -0.000 C 
BRANCH  19  20
ATOM     20  C   UNL     1      94.402 121.311 119.712  1.00  0.00    -0.000 C 
BRANCH  20  21
ATOM     21  C   UNL     1      94.303 120.217 118.631  1.00  0.00    -0.000 C 
BRANCH  21  22
ATOM     22  C   UNL     1      93.954 120.728 117.218  1.00  0.00    -0.000 C 
BRANCH  22  23
ATOM     23  C   UNL     1      92.537 120.370 116.726  1.00  0.00    -0.000 C 
BRANCH  23  24
ATOM     24  C   UNL     1      91.879 121.424 115.818  1.00  0.00    -0.000 C 
BRANCH  24  25
ATOM     25  C   UNL     1      91.321 122.621 116.601  1.00  0.00    -0.003 C 
ATOM     26  C   UNL     1      92.173 123.867 116.380  1.00  0.00     0.004 C 
ENDBRANCH  24  25
ENDBRANCH  23  24
ENDBRANCH  22  23
ENDBRANCH  21  22
ENDBRANCH  20  21
ENDBRANCH  19  20
ENDBRANCH  18  19
ENDBRANCH  17  18
ENDBRANCH  16  17
ENDBRANCH  15  16
ENDBRANCH   1  15
TORSDOF 22
ENDMDL
