MODEL 1
REMARK VINA RESULT:    -3.251      0.000      0.000
REMARK INTER + INTRA:          -5.200
REMARK INTER:                  -4.391
REMARK INTRA:                  -0.808
REMARK UNBOUND:                -0.808
REMARK SMILES CCCCCCC=CC(=O)[O-]
REMARK SMILES IDX 5 1 6 2 7 3 8 4 9 5 10 6 11 7 4 8 3 9 2 10 1 11
REMARK H PARENT
REMARK Flexibility Score: inf
ROOT
ATOM      1  C   UNL     1      13.356  44.125  67.712  1.00  0.00     0.004 C 
ENDROOT
BRANCH   1   2
ATOM      2  C   UNL     1      13.835  44.809  66.418  1.00  0.00     0.027 C 
BRANCH   2   3
ATOM      3  C   UNL     1      15.326  44.698  66.224  1.00  0.00    -0.025 C 
ATOM      4  C   UNL     1      15.974  44.731  65.048  1.00  0.00     0.020 C 
BRANCH   4   5
ATOM      5  C   UNL     1      15.374  44.938  63.714  1.00  0.00     0.064 C 
ATOM      6  O   UNL     1      15.189  43.989  62.909  1.00  0.00    -0.545 OA
ATOM      7  O   UNL     1      14.971  46.216  63.351  1.00  0.00    -0.545 OA
ENDBRANCH   4   5
ENDBRANCH   2   3
ENDBRANCH   1   2
BRANCH   1   8
ATOM      8  C   UNL     1      14.171  42.879  68.113  1.00  0.00     0.000 C 
BRANCH   8   9
ATOM      9  C   UNL     1      13.691  41.553  67.491  1.00  0.00    -0.000 C 
BRANCH   9  10
ATOM     10  C   UNL     1      14.537  41.046  66.311  1.00  0.00    -0.003 C 
ATOM     11  C   UNL     1      13.902  41.343  64.953  1.00  0.00     0.004 C 
ENDBRANCH   9  10
ENDBRANCH   8   9
ENDBRANCH   1   8
TORSDOF 6
ENDMDL
MODEL 2
REMARK VINA RESULT:    -3.229      1.265      2.608
REMARK INTER + INTRA:          -5.170
REMARK INTER:                  -4.712
REMARK INTRA:                  -0.457
REMARK UNBOUND:                -0.808
REMARK SMILES CCCCCCC=CC(=O)[O-]
REMARK SMILES IDX 5 1 6 2 7 3 8 4 9 5 10 6 11 7 4 8 3 9 2 10 1 11
REMARK H PARENT
REMARK Flexibility Score: inf
ROOT
ATOM      1  C   UNL     1      14.318  43.029  66.751  1.00  0.00     0.004 C 
ENDROOT
BRANCH   1   2
ATOM      2  C   UNL     1      14.472  44.553  66.596  1.00  0.00     0.027 C 
BRANCH   2   3
ATOM      3  C   UNL     1      15.826  44.946  66.063  1.00  0.00    -0.025 C 
ATOM      4  C   UNL     1      16.170  45.034  64.768  1.00  0.00     0.020 C 
BRANCH   4   5
ATOM      5  C   UNL     1      15.286  44.821  63.603  1.00  0.00     0.064 C 
ATOM      6  O   UNL     1      14.644  45.763  63.070  1.00  0.00    -0.545 OA
ATOM      7  O   UNL     1      15.187  43.547  63.061  1.00  0.00    -0.545 OA
ENDBRANCH   4   5
ENDBRANCH   2   3
ENDBRANCH   1   2
BRANCH   1   8
ATOM      8  C   UNL     1      14.349  42.531  68.210  1.00  0.00     0.000 C 
BRANCH   8   9
ATOM      9  C   UNL     1      12.969  42.238  68.833  1.00  0.00    -0.000 C 
BRANCH   9  10
ATOM     10  C   UNL     1      12.601  43.121  70.038  1.00  0.00    -0.003 C 
ATOM     11  C   UNL     1      12.176  44.532  69.634  1.00  0.00     0.004 C 
ENDBRANCH   9  10
ENDBRANCH   8   9
ENDBRANCH   1   8
TORSDOF 6
ENDMDL
MODEL 3
REMARK VINA RESULT:    -3.204      1.473      2.695
REMARK INTER + INTRA:          -5.136
REMARK INTER:                  -4.389
REMARK INTRA:                  -0.747
REMARK UNBOUND:                -0.808
REMARK SMILES CCCCCCC=CC(=O)[O-]
REMARK SMILES IDX 5 1 6 2 7 3 8 4 9 5 10 6 11 7 4 8 3 9 2 10 1 11
REMARK H PARENT
REMARK Flexibility Score: inf
ROOT
ATOM      1  C   UNL     1      14.726  42.250  64.429  1.00  0.00     0.004 C 
ENDROOT
BRANCH   1   2
ATOM      2  C   UNL     1      15.136  43.673  64.007  1.00  0.00     0.027 C 
BRANCH   2   3
ATOM      3  C   UNL     1      16.016  44.348  65.028  1.00  0.00    -0.025 C 
ATOM      4  C   UNL     1      15.972  45.643  65.377  1.00  0.00     0.020 C 
BRANCH   4   5
ATOM      5  C   UNL     1      15.021  46.659  64.881  1.00  0.00     0.064 C 
ATOM      6  O   UNL     1      15.279  47.389  63.888  1.00  0.00    -0.545 OA
ATOM      7  O   UNL     1      13.791  46.791  65.510  1.00  0.00    -0.545 OA
ENDBRANCH   4   5
ENDBRANCH   2   3
ENDBRANCH   1   2
BRANCH   1   8
ATOM      8  C   UNL     1      13.759  42.197  65.629  1.00  0.00     0.000 C 
BRANCH   8   9
ATOM      9  C   UNL     1      14.380  41.703  66.950  1.00  0.00    -0.000 C 
BRANCH   9  10
ATOM     10  C   UNL     1      14.310  42.705  68.115  1.00  0.00    -0.003 C 
ATOM     11  C   UNL     1      13.494  43.952  67.778  1.00  0.00     0.004 C 
ENDBRANCH   9  10
ENDBRANCH   8   9
ENDBRANCH   1   8
TORSDOF 6
ENDMDL
MODEL 4
REMARK VINA RESULT:    -3.188     16.109     17.868
REMARK INTER + INTRA:          -5.115
REMARK INTER:                  -4.346
REMARK INTRA:                  -0.769
REMARK UNBOUND:                -0.808
REMARK SMILES CCCCCCC=CC(=O)[O-]
REMARK SMILES IDX 5 1 6 2 7 3 8 4 9 5 10 6 11 7 4 8 3 9 2 10 1 11
REMARK H PARENT
REMARK Flexibility Score: inf
ROOT
ATOM      1  C   UNL     1       4.696  32.886  55.254  1.00  0.00     0.004 C 
ENDROOT
BRANCH   1   2
ATOM      2  C   UNL     1       4.118  32.536  56.637  1.00  0.00     0.027 C 
BRANCH   2   3
ATOM      3  C   UNL     1       4.131  31.054  56.912  1.00  0.00    -0.025 C 
ATOM      4  C   UNL     1       4.173  30.475  58.122  1.00  0.00     0.020 C 
BRANCH   4   5
ATOM      5  C   UNL     1       4.157  31.161  59.430  1.00  0.00     0.064 C 
ATOM      6  O   UNL     1       3.119  31.709  59.885  1.00  0.00    -0.545 OA
ATOM      7  O   UNL     1       5.315  31.174  60.195  1.00  0.00    -0.545 OA
ENDBRANCH   4   5
ENDBRANCH   2   3
ENDBRANCH   1   2
BRANCH   1   8
ATOM      8  C   UNL     1       5.822  31.944  54.778  1.00  0.00     0.000 C 
BRANCH   8   9
ATOM      9  C   UNL     1       7.252  32.408  55.117  1.00  0.00    -0.000 C 
BRANCH   9  10
ATOM     10  C   UNL     1       7.950  31.602  56.226  1.00  0.00    -0.003 C 
ATOM     11  C   UNL     1       7.663  32.142  57.626  1.00  0.00     0.004 C 
ENDBRANCH   9  10
ENDBRANCH   8   9
ENDBRANCH   1   8
TORSDOF 6
ENDMDL
MODEL 5
REMARK VINA RESULT:    -2.975      2.786      4.604
REMARK INTER + INTRA:          -4.827
REMARK INTER:                  -4.246
REMARK INTRA:                  -0.581
REMARK UNBOUND:                -0.808
REMARK SMILES CCCCCCC=CC(=O)[O-]
REMARK SMILES IDX 5 1 6 2 7 3 8 4 9 5 10 6 11 7 4 8 3 9 2 10 1 11
REMARK H PARENT
REMARK Flexibility Score: inf
ROOT
ATOM      1  C   UNL     1      14.321  42.031  66.957  1.00  0.00     0.004 C 
ENDROOT
BRANCH   1   2
ATOM      2  C   UNL     1      14.312  42.540  68.410  1.00  0.00     0.027 C 
BRANCH   2   3
ATOM      3  C   UNL     1      12.972  42.360  69.078  1.00  0.00    -0.025 C 
ATOM      4  C   UNL     1      11.977  43.261  69.107  1.00  0.00     0.020 C 
BRANCH   4   5
ATOM      5  C   UNL     1      11.963  44.583  68.449  1.00  0.00     0.064 C 
ATOM      6  O   UNL     1      11.643  44.726  67.240  1.00  0.00    -0.545 OA
ATOM      7  O   UNL     1      12.283  45.708  69.196  1.00  0.00    -0.545 OA
ENDBRANCH   4   5
ENDBRANCH   2   3
ENDBRANCH   1   2
BRANCH   1   8
ATOM      8  C   UNL     1      14.637  43.115  65.906  1.00  0.00     0.000 C 
BRANCH   8   9
ATOM      9  C   UNL     1      15.108  44.467  66.479  1.00  0.00    -0.000 C 
BRANCH   9  10
ATOM     10  C   UNL     1      16.129  45.220  65.608  1.00  0.00    -0.003 C 
ATOM     11  C   UNL     1      15.735  45.262  64.132  1.00  0.00     0.004 C 
ENDBRANCH   9  10
ENDBRANCH   8   9
ENDBRANCH   1   8
TORSDOF 6
ENDMDL
MODEL 6
REMARK VINA RESULT:    -2.972     17.100     18.138
REMARK INTER + INTRA:          -4.822
REMARK INTER:                  -4.399
REMARK INTRA:                  -0.423
REMARK UNBOUND:                -0.808
REMARK SMILES CCCCCCC=CC(=O)[O-]
REMARK SMILES IDX 5 1 6 2 7 3 8 4 9 5 10 6 11 7 4 8 3 9 2 10 1 11
REMARK H PARENT
REMARK Flexibility Score: inf
ROOT
ATOM      1  C   UNL     1       6.507  31.640  57.048  1.00  0.00     0.004 C 
ENDROOT
BRANCH   1   2
ATOM      2  C   UNL     1       5.021  32.028  56.949  1.00  0.00     0.027 C 
BRANCH   2   3
ATOM      3  C   UNL     1       4.101  30.873  57.249  1.00  0.00    -0.025 C 
ATOM      4  C   UNL     1       3.581  30.567  58.449  1.00  0.00     0.020 C 
BRANCH   4   5
ATOM      5  C   UNL     1       3.755  31.324  59.705  1.00  0.00     0.064 C 
ATOM      6  O   UNL     1       2.857  32.079  60.161  1.00  0.00    -0.545 OA
ATOM      7  O   UNL     1       4.934  31.173  60.422  1.00  0.00    -0.545 OA
ENDBRANCH   4   5
ENDBRANCH   2   3
ENDBRANCH   1   2
BRANCH   1   8
ATOM      8  C   UNL     1       7.266  31.682  55.705  1.00  0.00     0.000 C 
BRANCH   8   9
ATOM      9  C   UNL     1       6.389  31.944  54.464  1.00  0.00    -0.000 C 
BRANCH   9  10
ATOM     10  C   UNL     1       6.614  33.307  53.788  1.00  0.00    -0.003 C 
ATOM     11  C   UNL     1       5.675  33.547  52.606  1.00  0.00     0.004 C 
ENDBRANCH   9  10
ENDBRANCH   8   9
ENDBRANCH   1   8
TORSDOF 6
ENDMDL
MODEL 7
REMARK VINA RESULT:    -2.909      2.279      4.056
REMARK INTER + INTRA:          -4.738
REMARK INTER:                  -4.060
REMARK INTRA:                  -0.679
REMARK UNBOUND:                -0.808
REMARK SMILES CCCCCCC=CC(=O)[O-]
REMARK SMILES IDX 5 1 6 2 7 3 8 4 9 5 10 6 11 7 4 8 3 9 2 10 1 11
REMARK H PARENT
REMARK Flexibility Score: inf
ROOT
ATOM      1  C   UNL     1      13.953  44.937  66.237  1.00  0.00     0.004 C 
ENDROOT
BRANCH   1   2
ATOM      2  C   UNL     1      13.478  44.029  67.385  1.00  0.00     0.027 C 
BRANCH   2   3
ATOM      3  C   UNL     1      14.468  42.940  67.709  1.00  0.00    -0.025 C 
ATOM      4  C   UNL     1      14.425  41.674  67.263  1.00  0.00     0.020 C 
BRANCH   4   5
ATOM      5  C   UNL     1      13.439  41.102  66.323  1.00  0.00     0.064 C 
ATOM      6  O   UNL     1      13.733  40.828  65.130  1.00  0.00    -0.545 OA
ATOM      7  O   UNL     1      12.157  40.829  66.780  1.00  0.00    -0.545 OA
ENDBRANCH   4   5
ENDBRANCH   2   3
ENDBRANCH   1   2
BRANCH   1   8
ATOM      8  C   UNL     1      15.485  45.099  66.146  1.00  0.00     0.000 C 
BRANCH   8   9
ATOM      9  C   UNL     1      16.108  44.694  64.795  1.00  0.00    -0.000 C 
BRANCH   9  10
ATOM     10  C   UNL     1      15.249  43.744  63.943  1.00  0.00    -0.003 C 
ATOM     11  C   UNL     1      14.912  44.318  62.568  1.00  0.00     0.004 C 
ENDBRANCH   9  10
ENDBRANCH   8   9
ENDBRANCH   1   8
TORSDOF 6
ENDMDL
MODEL 8
REMARK VINA RESULT:    -2.848      3.361      5.188
REMARK INTER + INTRA:          -4.655
REMARK INTER:                  -3.903
REMARK INTRA:                  -0.752
REMARK UNBOUND:                -0.808
REMARK SMILES CCCCCCC=CC(=O)[O-]
REMARK SMILES IDX 5 1 6 2 7 3 8 4 9 5 10 6 11 7 4 8 3 9 2 10 1 11
REMARK H PARENT
REMARK Flexibility Score: inf
ROOT
ATOM      1  C   UNL     1      14.179  42.623  65.643  1.00  0.00     0.004 C 
ENDROOT
BRANCH   1   2
ATOM      2  C   UNL     1      14.475  41.715  66.849  1.00  0.00     0.027 C 
BRANCH   2   3
ATOM      3  C   UNL     1      14.388  42.450  68.162  1.00  0.00    -0.025 C 
ATOM      4  C   UNL     1      13.307  42.524  68.955  1.00  0.00     0.020 C 
BRANCH   4   5
ATOM      5  C   UNL     1      12.005  41.860  68.739  1.00  0.00     0.064 C 
ATOM      6  O   UNL     1      11.070  42.412  68.102  1.00  0.00    -0.545 OA
ATOM      7  O   UNL     1      11.819  40.574  69.227  1.00  0.00    -0.545 OA
ENDBRANCH   4   5
ENDBRANCH   2   3
ENDBRANCH   1   2
BRANCH   1   8
ATOM      8  C   UNL     1      15.278  43.664  65.345  1.00  0.00     0.000 C 
BRANCH   8   9
ATOM      9  C   UNL     1      14.939  45.111  65.755  1.00  0.00    -0.000 C 
BRANCH   9  10
ATOM     10  C   UNL     1      13.442  45.465  65.707  1.00  0.00    -0.003 C 
ATOM     11  C   UNL     1      12.858  45.763  67.087  1.00  0.00     0.004 C 
ENDBRANCH   9  10
ENDBRANCH   8   9
ENDBRANCH   1   8
TORSDOF 6
ENDMDL
