MODEL 1
REMARK VINA RESULT:    -3.332      0.000      0.000
REMARK INTER + INTRA:          -3.868
REMARK INTER:                  -4.013
REMARK INTRA:                   0.145
REMARK UNBOUND:                 0.145
REMARK SMILES Oc1cc(O)c2c(c1)O[C@H](c1ccc(O)c(O)c1)[C@H](O)C2
REMARK SMILES IDX 21 1 19 2 10 3 9 4 7 5 8 6 2 7 3 8 4 9 6 10 20 11 11 13
REMARK SMILES IDX 18 14 12 15 16 16 13 17 14 18 17 19 15 21 5 23 1 25
REMARK H PARENT 20 12 17 20 15 22 5 24 1 26
REMARK Flexibility Score: inf
ROOT
ATOM      1  C   UNL     1      -9.521  20.105 -16.956  1.00  0.00     0.079 C 
ATOM      2  C   UNL     1     -10.680  21.125 -16.947  1.00  0.00     0.164 C 
ATOM      3  C   UNL     1     -11.565  20.954 -15.693  1.00  0.00     0.232 C 
ATOM      4  O   UNL     1     -10.728  21.125 -14.547  1.00  0.00    -0.482 OA
ATOM      5  C   UNL     1      -9.456  20.544 -14.461  1.00  0.00     0.131 A 
ATOM      6  C   UNL     1      -8.810  20.504 -13.223  1.00  0.00     0.093 A 
ATOM      7  C   UNL     1      -7.550  19.909 -13.105  1.00  0.00     0.122 A 
ATOM      8  C   UNL     1      -6.938  19.348 -14.227  1.00  0.00     0.092 A 
ATOM      9  C   UNL     1      -7.568  19.383 -15.477  1.00  0.00     0.126 A 
ATOM     10  C   UNL     1      -8.827  20.015 -15.611  1.00  0.00     0.039 A 
ENDROOT
BRANCH   2  11
ATOM     11  O   UNL     1     -11.442  21.060 -18.124  1.00  0.00    -0.389 OA
ATOM     12  H   UNL     1     -11.084  21.754 -18.737  1.00  0.00     0.211 HD
ENDBRANCH   2  11
BRANCH   3  13
ATOM     13  C   UNL     1     -12.349  19.648 -15.542  1.00  0.00    -0.001 A 
ATOM     14  C   UNL     1     -12.499  18.836 -16.684  1.00  0.00     0.057 A 
ATOM     15  C   UNL     1     -12.864  19.173 -14.316  1.00  0.00     0.012 A 
ATOM     16  C   UNL     1     -13.179  17.613 -16.620  1.00  0.00     0.157 A 
ATOM     17  C   UNL     1     -13.543  17.953 -14.253  1.00  0.00     0.050 A 
ATOM     18  C   UNL     1     -13.707  17.172 -15.399  1.00  0.00     0.157 A 
BRANCH  16  19
ATOM     19  O   UNL     1     -13.328  16.833 -17.768  1.00  0.00    -0.504 OA
ATOM     20  H   UNL     1     -12.561  16.685 -18.412  1.00  0.00     0.293 HD
ENDBRANCH  16  19
BRANCH  18  21
ATOM     21  O   UNL     1     -14.391  15.960 -15.302  1.00  0.00    -0.504 OA
ATOM     22  H   UNL     1     -15.217  15.853 -14.726  1.00  0.00     0.293 HD
ENDBRANCH  18  21
ENDBRANCH   3  13
BRANCH   9  23
ATOM     23  O   UNL     1      -6.921  18.780 -16.557  1.00  0.00    -0.507 OA
ATOM     24  H   UNL     1      -6.235  18.043 -16.452  1.00  0.00     0.293 HD
ENDBRANCH   9  23
BRANCH   7  25
ATOM     25  O   UNL     1      -6.900  19.863 -11.873  1.00  0.00    -0.508 OA
ATOM     26  H   UNL     1      -5.895  19.751 -11.807  1.00  0.00     0.293 HD
ENDBRANCH   7  25
TORSDOF 6
ENDMDL
MODEL 2
REMARK VINA RESULT:    -3.039      0.765      1.524
REMARK INTER + INTRA:          -3.516
REMARK INTER:                  -3.420
REMARK INTRA:                  -0.096
REMARK UNBOUND:                 0.145
REMARK SMILES Oc1cc(O)c2c(c1)O[C@H](c1ccc(O)c(O)c1)[C@H](O)C2
REMARK SMILES IDX 21 1 19 2 10 3 9 4 7 5 8 6 2 7 3 8 4 9 6 10 20 11 11 13
REMARK SMILES IDX 18 14 12 15 16 16 13 17 14 18 17 19 15 21 5 23 1 25
REMARK H PARENT 20 12 17 20 15 22 5 24 1 26
REMARK Flexibility Score: inf
ROOT
ATOM      1  C   UNL     1      -9.521  20.085 -16.857  1.00  0.00     0.079 C 
ATOM      2  C   UNL     1     -10.662  21.123 -16.909  1.00  0.00     0.164 C 
ATOM      3  C   UNL     1     -11.615  20.967 -15.704  1.00  0.00     0.232 C 
ATOM      4  O   UNL     1     -10.837  21.125 -14.514  1.00  0.00    -0.482 OA
ATOM      5  C   UNL     1      -9.582  20.524 -14.362  1.00  0.00     0.131 A 
ATOM      6  C   UNL     1      -9.003  20.474 -13.091  1.00  0.00     0.093 A 
ATOM      7  C   UNL     1      -7.761  19.858 -12.906  1.00  0.00     0.122 A 
ATOM      8  C   UNL     1      -7.099  19.287 -13.995  1.00  0.00     0.092 A 
ATOM      9  C   UNL     1      -7.661  19.332 -15.276  1.00  0.00     0.126 A 
ATOM     10  C   UNL     1      -8.901  19.984 -15.477  1.00  0.00     0.039 A 
ENDROOT
BRANCH   2  11
ATOM     11  O   UNL     1     -11.361  21.070 -18.125  1.00  0.00    -0.389 OA
ATOM     12  H   UNL     1     -10.836  20.488 -18.733  1.00  0.00     0.211 HD
ENDBRANCH   2  11
BRANCH   3  13
ATOM     13  C   UNL     1     -12.427  19.674 -15.595  1.00  0.00    -0.001 A 
ATOM     14  C   UNL     1     -13.359  19.570 -14.542  1.00  0.00     0.057 A 
ATOM     15  C   UNL     1     -12.355  18.615 -16.526  1.00  0.00     0.012 A 
ATOM     16  C   UNL     1     -14.160  18.430 -14.393  1.00  0.00     0.157 A 
ATOM     17  C   UNL     1     -13.154  17.478 -16.376  1.00  0.00     0.050 A 
ATOM     18  C   UNL     1     -14.053  17.377 -15.313  1.00  0.00     0.157 A 
BRANCH  16  19
ATOM     19  O   UNL     1     -15.064  18.343 -13.334  1.00  0.00    -0.504 OA
ATOM     20  H   UNL     1     -15.010  17.598 -12.650  1.00  0.00     0.293 HD
ENDBRANCH  16  19
BRANCH  18  21
ATOM     21  O   UNL     1     -14.834  16.229 -15.191  1.00  0.00    -0.504 OA
ATOM     22  H   UNL     1     -14.775  15.622 -14.382  1.00  0.00     0.293 HD
ENDBRANCH  18  21
ENDBRANCH   3  13
BRANCH   9  23
ATOM     23  O   UNL     1      -6.968  18.718 -16.321  1.00  0.00    -0.507 OA
ATOM     24  H   UNL     1      -7.426  18.223 -17.076  1.00  0.00     0.293 HD
ENDBRANCH   9  23
BRANCH   7  25
ATOM     25  O   UNL     1      -7.178  19.802 -11.642  1.00  0.00    -0.508 OA
ATOM     26  H   UNL     1      -7.286  20.557 -10.974  1.00  0.00     0.293 HD
ENDBRANCH   7  25
TORSDOF 6
ENDMDL
MODEL 3
REMARK VINA RESULT:    -1.909      1.498      2.151
REMARK INTER + INTRA:          -2.154
REMARK INTER:                  -2.039
REMARK INTRA:                  -0.114
REMARK UNBOUND:                 0.145
REMARK SMILES Oc1cc(O)c2c(c1)O[C@H](c1ccc(O)c(O)c1)[C@H](O)C2
REMARK SMILES IDX 21 1 19 2 10 3 9 4 7 5 8 6 2 7 3 8 4 9 6 10 20 11 11 13
REMARK SMILES IDX 18 14 12 15 16 16 13 17 14 18 17 19 15 21 5 23 1 25
REMARK H PARENT 20 12 17 20 15 22 5 24 1 26
REMARK Flexibility Score: inf
ROOT
ATOM      1  C   UNL     1      -8.539  18.878 -15.888  1.00  0.00     0.079 C 
ATOM      2  C   UNL     1      -9.209  19.850 -16.882  1.00  0.00     0.164 C 
ATOM      3  C   UNL     1     -10.502  20.452 -16.289  1.00  0.00     0.232 C 
ATOM      4  O   UNL     1     -10.151  21.125 -15.078  1.00  0.00    -0.482 OA
ATOM      5  C   UNL     1      -9.274  20.562 -14.143  1.00  0.00     0.131 A 
ATOM      6  C   UNL     1      -9.192  21.123 -12.866  1.00  0.00     0.093 A 
ATOM      7  C   UNL     1      -8.342  20.567 -11.904  1.00  0.00     0.122 A 
ATOM      8  C   UNL     1      -7.576  19.443 -12.221  1.00  0.00     0.092 A 
ATOM      9  C   UNL     1      -7.641  18.870 -13.496  1.00  0.00     0.126 A 
ATOM     10  C   UNL     1      -8.472  19.449 -14.485  1.00  0.00     0.039 A 
ENDROOT
BRANCH   2  11
ATOM     11  O   UNL     1      -9.449  19.244 -18.125  1.00  0.00    -0.389 OA
ATOM     12  H   UNL     1      -9.944  18.403 -17.943  1.00  0.00     0.211 HD
ENDBRANCH   2  11
BRANCH   3  13
ATOM     13  C   UNL     1     -11.670  19.503 -16.007  1.00  0.00    -0.001 A 
ATOM     14  C   UNL     1     -12.260  19.550 -14.728  1.00  0.00     0.057 A 
ATOM     15  C   UNL     1     -12.239  18.641 -16.970  1.00  0.00     0.012 A 
ATOM     16  C   UNL     1     -13.351  18.733 -14.402  1.00  0.00     0.157 A 
ATOM     17  C   UNL     1     -13.326  17.826 -16.644  1.00  0.00     0.050 A 
ATOM     18  C   UNL     1     -13.883  17.864 -15.365  1.00  0.00     0.157 A 
BRANCH  16  19
ATOM     19  O   UNL     1     -13.908  18.786 -13.124  1.00  0.00    -0.504 OA
ATOM     20  H   UNL     1     -14.308  19.640 -12.754  1.00  0.00     0.293 HD
ENDBRANCH  16  19
BRANCH  18  21
ATOM     21  O   UNL     1     -14.967  17.037 -15.072  1.00  0.00    -0.504 OA
ATOM     22  H   UNL     1     -15.391  17.012 -14.152  1.00  0.00     0.293 HD
ENDBRANCH  18  21
ENDBRANCH   3  13
BRANCH   9  23
ATOM     23  O   UNL     1      -6.875  17.729 -13.746  1.00  0.00    -0.507 OA
ATOM     24  H   UNL     1      -6.618  17.066 -13.026  1.00  0.00     0.293 HD
ENDBRANCH   9  23
BRANCH   7  25
ATOM     25  O   UNL     1      -8.257  21.119 -10.628  1.00  0.00    -0.508 OA
ATOM     26  H   UNL     1      -7.576  21.837 -10.405  1.00  0.00     0.293 HD
ENDBRANCH   7  25
TORSDOF 6
ENDMDL
MODEL 4
REMARK VINA RESULT:    -1.885      1.897      5.846
REMARK INTER + INTRA:          -2.126
REMARK INTER:                  -2.171
REMARK INTRA:                   0.045
REMARK UNBOUND:                 0.145
REMARK SMILES Oc1cc(O)c2c(c1)O[C@H](c1ccc(O)c(O)c1)[C@H](O)C2
REMARK SMILES IDX 21 1 19 2 10 3 9 4 7 5 8 6 2 7 3 8 4 9 6 10 20 11 11 13
REMARK SMILES IDX 18 14 12 15 16 16 13 17 14 18 17 19 15 21 5 23 1 25
REMARK H PARENT 20 12 17 20 15 22 5 24 1 26
REMARK Flexibility Score: inf
ROOT
ATOM      1  C   UNL     1     -11.317  17.535 -13.560  1.00  0.00     0.079 C 
ATOM      2  C   UNL     1     -10.332  18.247 -12.609  1.00  0.00     0.164 C 
ATOM      3  C   UNL     1      -9.868  19.599 -13.195  1.00  0.00     0.232 C 
ATOM      4  O   UNL     1     -11.033  20.398 -13.413  1.00  0.00    -0.482 OA
ATOM      5  C   UNL     1     -12.200  19.872 -13.981  1.00  0.00     0.131 A 
ATOM      6  C   UNL     1     -13.192  20.749 -14.430  1.00  0.00     0.093 A 
ATOM      7  C   UNL     1     -14.356  20.252 -15.023  1.00  0.00     0.122 A 
ATOM      8  C   UNL     1     -14.526  18.875 -15.173  1.00  0.00     0.092 A 
ATOM      9  C   UNL     1     -13.547  17.981 -14.725  1.00  0.00     0.126 A 
ATOM     10  C   UNL     1     -12.382  18.475 -14.092  1.00  0.00     0.039 A 
ENDROOT
BRANCH   2  11
ATOM     11  O   UNL     1      -9.240  17.430 -12.281  1.00  0.00    -0.389 OA
ATOM     12  H   UNL     1      -9.466  16.977 -11.427  1.00  0.00     0.211 HD
ENDBRANCH   2  11
BRANCH   3  13
ATOM     13  C   UNL     1      -9.038  19.576 -14.480  1.00  0.00    -0.001 A 
ATOM     14  C   UNL     1      -9.666  19.977 -15.676  1.00  0.00     0.057 A 
ATOM     15  C   UNL     1      -7.664  19.250 -14.528  1.00  0.00     0.012 A 
ATOM     16  C   UNL     1      -8.965  20.010 -16.889  1.00  0.00     0.157 A 
ATOM     17  C   UNL     1      -6.966  19.282 -15.738  1.00  0.00     0.050 A 
ATOM     18  C   UNL     1      -7.608  19.656 -16.919  1.00  0.00     0.157 A 
BRANCH  16  19
ATOM     19  O   UNL     1      -9.612  20.396 -18.063  1.00  0.00    -0.504 OA
ATOM     20  H   UNL     1      -9.536  21.339 -18.425  1.00  0.00     0.293 HD
ENDBRANCH  16  19
BRANCH  18  21
ATOM     21  O   UNL     1      -6.883  19.676 -18.110  1.00  0.00    -0.504 OA
ATOM     22  H   UNL     1      -7.215  19.218 -18.950  1.00  0.00     0.293 HD
ENDBRANCH  18  21
ENDBRANCH   3  13
BRANCH   9  23
ATOM     23  O   UNL     1     -13.759  16.615 -14.928  1.00  0.00    -0.507 OA
ATOM     24  H   UNL     1     -13.178  16.048 -15.533  1.00  0.00     0.293 HD
ENDBRANCH   9  23
BRANCH   7  25
ATOM     25  O   UNL     1     -15.348  21.120 -15.475  1.00  0.00    -0.508 OA
ATOM     26  H   UNL     1     -15.164  22.107 -15.619  1.00  0.00     0.293 HD
ENDBRANCH   7  25
TORSDOF 6
ENDMDL
