MODEL 1
REMARK VINA RESULT:    -5.550      0.000      0.000
REMARK INTER + INTRA:          -7.966
REMARK INTER:                  -7.659
REMARK INTRA:                  -0.307
REMARK UNBOUND:                -0.307
REMARK SMILES CC[C@H](CC[C@@H](C)[C@@H]1CC[C@H]2[C@@H]3CC=C4C[C@@H](O)CC[C@@]4(C)[C@@H]3CC[C@]21C)C(C)C
REMARK SMILES IDX 5 1 4 2 3 3 2 4 1 5 28 6 29 7 30 8 6 9 7 10 8 11 9 12 26 13
REMARK SMILES IDX 10 14 11 15 25 16 27 17 12 18 24 19 23 20 13 21 21 22 14 23
REMARK SMILES IDX 15 24 20 25 22 26 16 27 19 28 17 29 18 30
REMARK H PARENT 18 31
REMARK Flexibility Score: inf
ROOT
ATOM      1  C   UNL     1     -16.069 -29.407 -12.680  1.00  0.00     0.004 C 
ENDROOT
BRANCH   1   2
ATOM      2  C   UNL     1     -16.128 -28.450 -13.892  1.00  0.00     0.004 C 
BRANCH   2   3
ATOM      3  C   UNL     1     -15.280 -27.155 -13.700  1.00  0.00    -0.009 C 
BRANCH   3   4
ATOM      4  C   UNL     1     -14.821 -26.987 -12.215  1.00  0.00     0.000 C 
ATOM      5  C   UNL     1     -13.321 -27.209 -12.019  1.00  0.00     0.004 C 
ENDBRANCH   3   4
BRANCH   3   6
ATOM      6  C   UNL     1     -14.085 -27.122 -14.711  1.00  0.00    -0.014 C 
ATOM      7  C   UNL     1     -13.815 -25.726 -15.295  1.00  0.00     0.007 C 
ATOM      8  C   UNL     1     -14.240 -28.164 -15.832  1.00  0.00     0.007 C 
ENDBRANCH   3   6
ENDBRANCH   2   3
ENDBRANCH   1   2
BRANCH   1   9
ATOM      9  C   UNL     1     -16.356 -30.894 -13.044  1.00  0.00    -0.011 C 
ATOM     10  C   UNL     1     -15.841 -31.167 -14.474  1.00  0.00     0.008 C 
BRANCH   9  11
ATOM     11  C   UNL     1     -15.792 -31.862 -11.909  1.00  0.00    -0.002 C 
ATOM     12  C   UNL     1     -16.365 -31.599 -10.508  1.00  0.00     0.005 C 
ATOM     13  C   UNL     1     -14.233 -31.787 -11.671  1.00  0.00    -0.026 C 
ATOM     14  C   UNL     1     -15.428 -30.599  -9.848  1.00  0.00     0.005 C 
ATOM     15  C   UNL     1     -14.111 -30.612 -10.656  1.00  0.00    -0.001 C 
ATOM     16  C   UNL     1     -13.697 -33.146 -11.079  1.00  0.00     0.007 C 
ATOM     17  C   UNL     1     -13.434 -31.503 -12.980  1.00  0.00     0.012 C 
ATOM     18  C   UNL     1     -12.862 -30.625  -9.727  1.00  0.00     0.000 C 
ATOM     19  C   UNL     1     -13.448 -33.166  -9.564  1.00  0.00     0.005 C 
ATOM     20  C   UNL     1     -12.562 -32.003  -9.040  1.00  0.00     0.003 C 
ATOM     21  C   UNL     1     -11.632 -30.000 -10.398  1.00  0.00     0.031 C 
ATOM     22  C   UNL     1     -11.021 -32.365  -8.849  1.00  0.00    -0.008 C 
ATOM     23  C   UNL     1     -10.474 -29.999  -9.445  1.00  0.00    -0.027 C 
ATOM     24  C   UNL     1     -10.192 -31.079  -8.690  1.00  0.00    -0.065 C 
ATOM     25  C   UNL     1     -10.880 -33.262  -7.570  1.00  0.00     0.014 C 
ATOM     26  C   UNL     1     -10.443 -33.140 -10.063  1.00  0.00     0.016 C 
ATOM     27  C   UNL     1      -8.875 -31.084  -7.931  1.00  0.00     0.063 C 
ATOM     28  C   UNL     1      -9.450 -33.353  -7.026  1.00  0.00     0.033 C 
ATOM     29  C   UNL     1      -8.910 -31.962  -6.682  1.00  0.00     0.118 C 
BRANCH  29  30
ATOM     30  O   UNL     1      -9.697 -31.348  -5.694  1.00  0.00    -0.393 OA
ATOM     31  H   UNL     1     -10.250 -30.661  -6.151  1.00  0.00     0.210 HD
ENDBRANCH  29  30
ENDBRANCH   9  11
ENDBRANCH   1   9
TORSDOF 7
ENDMDL
MODEL 2
REMARK VINA RESULT:    -4.566      2.365      4.494
REMARK INTER + INTRA:          -6.608
REMARK INTER:                  -6.002
REMARK INTRA:                  -0.606
REMARK UNBOUND:                -0.307
REMARK SMILES CC[C@H](CC[C@@H](C)[C@@H]1CC[C@H]2[C@@H]3CC=C4C[C@@H](O)CC[C@@]4(C)[C@@H]3CC[C@]21C)C(C)C
REMARK SMILES IDX 5 1 4 2 3 3 2 4 1 5 28 6 29 7 30 8 6 9 7 10 8 11 9 12 26 13
REMARK SMILES IDX 10 14 11 15 25 16 27 17 12 18 24 19 23 20 13 21 21 22 14 23
REMARK SMILES IDX 15 24 20 25 22 26 16 27 19 28 17 29 18 30
REMARK H PARENT 18 31
REMARK Flexibility Score: inf
ROOT
ATOM      1  C   UNL     1     -15.616 -32.553 -14.703  1.00  0.00     0.004 C 
ENDROOT
BRANCH   1   2
ATOM      2  C   UNL     1     -14.783 -33.821 -14.406  1.00  0.00     0.004 C 
BRANCH   2   3
ATOM      3  C   UNL     1     -15.110 -35.013 -15.358  1.00  0.00    -0.009 C 
BRANCH   3   4
ATOM      4  C   UNL     1     -13.951 -35.267 -16.375  1.00  0.00     0.000 C 
ATOM      5  C   UNL     1     -14.445 -35.710 -17.753  1.00  0.00     0.004 C 
ENDBRANCH   3   4
BRANCH   3   6
ATOM      6  C   UNL     1     -15.483 -36.290 -14.533  1.00  0.00    -0.014 C 
ATOM      7  C   UNL     1     -16.850 -36.885 -14.910  1.00  0.00     0.007 C 
ATOM      8  C   UNL     1     -15.388 -36.055 -13.016  1.00  0.00     0.007 C 
ENDBRANCH   3   6
ENDBRANCH   2   3
ENDBRANCH   1   2
BRANCH   1   9
ATOM      9  C   UNL     1     -15.562 -31.490 -13.566  1.00  0.00    -0.011 C 
ATOM     10  C   UNL     1     -16.849 -30.636 -13.618  1.00  0.00     0.008 C 
BRANCH   9  11
ATOM     11  C   UNL     1     -15.251 -32.188 -12.167  1.00  0.00    -0.002 C 
ATOM     12  C   UNL     1     -15.974 -31.556 -10.968  1.00  0.00     0.005 C 
ATOM     13  C   UNL     1     -13.737 -32.157 -11.720  1.00  0.00    -0.026 C 
ATOM     14  C   UNL     1     -15.038 -30.487 -10.422  1.00  0.00     0.005 C 
ATOM     15  C   UNL     1     -13.635 -30.781 -10.997  1.00  0.00    -0.001 C 
ATOM     16  C   UNL     1     -13.420 -33.363 -10.755  1.00  0.00     0.007 C 
ATOM     17  C   UNL     1     -12.748 -32.251 -12.923  1.00  0.00     0.012 C 
ATOM     18  C   UNL     1     -12.526 -30.648  -9.912  1.00  0.00     0.000 C 
ATOM     19  C   UNL     1     -13.376 -33.031  -9.257  1.00  0.00     0.005 C 
ATOM     20  C   UNL     1     -12.456 -31.835  -8.887  1.00  0.00     0.003 C 
ATOM     21  C   UNL     1     -11.163 -30.285 -10.515  1.00  0.00     0.031 C 
ATOM     22  C   UNL     1     -10.998 -32.238  -8.387  1.00  0.00    -0.008 C 
ATOM     23  C   UNL     1     -10.146 -30.128  -9.425  1.00  0.00    -0.027 C 
ATOM     24  C   UNL     1     -10.073 -31.008  -8.407  1.00  0.00    -0.065 C 
ATOM     25  C   UNL     1     -11.115 -32.805  -6.930  1.00  0.00     0.014 C 
ATOM     26  C   UNL     1     -10.344 -33.320  -9.288  1.00  0.00     0.016 C 
ATOM     27  C   UNL     1      -8.875 -30.913  -7.477  1.00  0.00     0.063 C 
ATOM     28  C   UNL     1      -9.785 -32.853  -6.170  1.00  0.00     0.033 C 
ATOM     29  C   UNL     1      -9.160 -31.457  -6.078  1.00  0.00     0.118 C 
BRANCH  29  30
ATOM     30  O   UNL     1     -10.006 -30.572  -5.390  1.00  0.00    -0.393 OA
ATOM     31  H   UNL     1     -10.924 -30.948  -5.445  1.00  0.00     0.210 HD
ENDBRANCH  29  30
ENDBRANCH   9  11
ENDBRANCH   1   9
TORSDOF 7
ENDMDL
MODEL 3
REMARK VINA RESULT:    -3.682      4.002      6.148
REMARK INTER + INTRA:          -5.388
REMARK INTER:                  -4.558
REMARK INTRA:                  -0.830
REMARK UNBOUND:                -0.307
REMARK SMILES CC[C@H](CC[C@@H](C)[C@@H]1CC[C@H]2[C@@H]3CC=C4C[C@@H](O)CC[C@@]4(C)[C@@H]3CC[C@]21C)C(C)C
REMARK SMILES IDX 5 1 4 2 3 3 2 4 1 5 28 6 29 7 30 8 6 9 7 10 8 11 9 12 26 13
REMARK SMILES IDX 10 14 11 15 25 16 27 17 12 18 24 19 23 20 13 21 21 22 14 23
REMARK SMILES IDX 15 24 20 25 22 26 16 27 19 28 17 29 18 30
REMARK H PARENT 18 31
REMARK Flexibility Score: inf
ROOT
ATOM      1  C   UNL     1     -13.978 -26.765 -11.793  1.00  0.00     0.004 C 
ENDROOT
BRANCH   1   2
ATOM      2  C   UNL     1     -12.805 -27.168 -12.715  1.00  0.00     0.004 C 
BRANCH   2   3
ATOM      3  C   UNL     1     -12.858 -26.487 -14.117  1.00  0.00    -0.009 C 
BRANCH   3   4
ATOM      4  C   UNL     1     -11.732 -27.026 -15.058  1.00  0.00     0.000 C 
ATOM      5  C   UNL     1     -10.752 -25.941 -15.507  1.00  0.00     0.004 C 
ENDBRANCH   3   4
BRANCH   3   6
ATOM      6  C   UNL     1     -14.287 -26.623 -14.743  1.00  0.00    -0.014 C 
ATOM      7  C   UNL     1     -14.315 -27.468 -16.028  1.00  0.00     0.007 C 
ATOM      8  C   UNL     1     -14.957 -25.257 -14.971  1.00  0.00     0.007 C 
ENDBRANCH   3   6
ENDBRANCH   2   3
ENDBRANCH   1   2
BRANCH   1   9
ATOM      9  C   UNL     1     -15.071 -27.867 -11.654  1.00  0.00    -0.011 C 
ATOM     10  C   UNL     1     -16.384 -27.211 -11.174  1.00  0.00     0.008 C 
BRANCH   9  11
ATOM     11  C   UNL     1     -15.174 -28.719 -12.996  1.00  0.00    -0.002 C 
ATOM     12  C   UNL     1     -16.607 -28.928 -13.508  1.00  0.00     0.005 C 
ATOM     13  C   UNL     1     -14.616 -30.194 -12.903  1.00  0.00    -0.026 C 
ATOM     14  C   UNL     1     -17.099 -30.223 -12.877  1.00  0.00     0.005 C 
ATOM     15  C   UNL     1     -15.852 -30.980 -12.371  1.00  0.00    -0.001 C 
ATOM     16  C   UNL     1     -14.152 -30.701 -14.322  1.00  0.00     0.007 C 
ATOM     17  C   UNL     1     -13.394 -30.320 -11.941  1.00  0.00     0.012 C 
ATOM     18  C   UNL     1     -15.912 -32.496 -12.722  1.00  0.00     0.000 C 
ATOM     19  C   UNL     1     -15.132 -31.625 -15.059  1.00  0.00     0.005 C 
ATOM     20  C   UNL     1     -15.625 -32.840 -14.226  1.00  0.00     0.003 C 
ATOM     21  C   UNL     1     -15.107 -33.354 -11.737  1.00  0.00     0.031 C 
ATOM     22  C   UNL     1     -14.838 -34.200 -14.491  1.00  0.00    -0.008 C 
ATOM     23  C   UNL     1     -15.237 -34.803 -12.097  1.00  0.00    -0.027 C 
ATOM     24  C   UNL     1     -15.147 -35.216 -13.377  1.00  0.00    -0.065 C 
ATOM     25  C   UNL     1     -15.288 -34.768 -15.881  1.00  0.00     0.014 C 
ATOM     26  C   UNL     1     -13.300 -33.996 -14.513  1.00  0.00     0.016 C 
ATOM     27  C   UNL     1     -15.054 -36.711 -13.630  1.00  0.00     0.063 C 
ATOM     28  C   UNL     1     -14.941 -36.245 -16.094  1.00  0.00     0.033 C 
ATOM     29  C   UNL     1     -15.578 -37.116 -15.007  1.00  0.00     0.118 C 
BRANCH  29  30
ATOM     30  O   UNL     1     -16.978 -37.005 -15.031  1.00  0.00    -0.393 OA
ATOM     31  H   UNL     1     -17.260 -37.109 -15.978  1.00  0.00     0.210 HD
ENDBRANCH  29  30
ENDBRANCH   9  11
ENDBRANCH   1   9
TORSDOF 7
ENDMDL
MODEL 4
REMARK VINA RESULT:    -3.038      3.674      5.880
REMARK INTER + INTRA:          -4.500
REMARK INTER:                  -4.894
REMARK INTRA:                   0.394
REMARK UNBOUND:                -0.307
REMARK SMILES CC[C@H](CC[C@@H](C)[C@@H]1CC[C@H]2[C@@H]3CC=C4C[C@@H](O)CC[C@@]4(C)[C@@H]3CC[C@]21C)C(C)C
REMARK SMILES IDX 5 1 4 2 3 3 2 4 1 5 28 6 29 7 30 8 6 9 7 10 8 11 9 12 26 13
REMARK SMILES IDX 10 14 11 15 25 16 27 17 12 18 24 19 23 20 13 21 21 22 14 23
REMARK SMILES IDX 15 24 20 25 22 26 16 27 19 28 17 29 18 30
REMARK H PARENT 18 31
REMARK Flexibility Score: inf
ROOT
ATOM      1  C   UNL     1     -13.989 -27.582 -11.867  1.00  0.00     0.004 C 
ENDROOT
BRANCH   1   2
ATOM      2  C   UNL     1     -14.000 -26.292 -12.720  1.00  0.00     0.004 C 
BRANCH   2   3
ATOM      3  C   UNL     1     -14.301 -26.550 -14.228  1.00  0.00    -0.009 C 
BRANCH   3   4
ATOM      4  C   UNL     1     -14.298 -25.219 -15.048  1.00  0.00     0.000 C 
ATOM      5  C   UNL     1     -15.676 -24.561 -15.133  1.00  0.00     0.004 C 
ENDBRANCH   3   4
BRANCH   3   6
ATOM      6  C   UNL     1     -13.321 -27.623 -14.810  1.00  0.00    -0.014 C 
ATOM      7  C   UNL     1     -11.988 -27.033 -15.301  1.00  0.00     0.007 C 
ATOM      8  C   UNL     1     -13.977 -28.479 -15.907  1.00  0.00     0.007 C 
ENDBRANCH   3   6
ENDBRANCH   2   3
ENDBRANCH   1   2
BRANCH   1   9
ATOM      9  C   UNL     1     -15.411 -28.137 -11.556  1.00  0.00    -0.011 C 
ATOM     10  C   UNL     1     -16.367 -27.732 -12.699  1.00  0.00     0.008 C 
BRANCH   9  11
ATOM     11  C   UNL     1     -15.340 -29.696 -11.233  1.00  0.00    -0.002 C 
ATOM     12  C   UNL     1     -13.957 -30.188 -10.779  1.00  0.00     0.005 C 
ATOM     13  C   UNL     1     -15.671 -30.652 -12.446  1.00  0.00    -0.026 C 
ATOM     14  C   UNL     1     -13.222 -30.614 -12.041  1.00  0.00     0.005 C 
ATOM     15  C   UNL     1     -14.287 -30.787 -13.147  1.00  0.00    -0.001 C 
ATOM     16  C   UNL     1     -16.216 -32.037 -11.927  1.00  0.00     0.007 C 
ATOM     17  C   UNL     1     -16.749 -30.059 -13.406  1.00  0.00     0.012 C 
ATOM     18  C   UNL     1     -14.054 -32.083 -13.977  1.00  0.00     0.000 C 
ATOM     19  C   UNL     1     -15.204 -33.192 -11.909  1.00  0.00     0.005 C 
ATOM     20  C   UNL     1     -14.457 -33.416 -13.252  1.00  0.00     0.003 C 
ATOM     21  C   UNL     1     -14.617 -31.971 -15.400  1.00  0.00     0.031 C 
ATOM     22  C   UNL     1     -15.070 -34.556 -14.182  1.00  0.00    -0.008 C 
ATOM     23  C   UNL     1     -14.326 -33.227 -16.165  1.00  0.00    -0.027 C 
ATOM     24  C   UNL     1     -14.500 -34.441 -15.606  1.00  0.00    -0.065 C 
ATOM     25  C   UNL     1     -14.703 -35.948 -13.561  1.00  0.00     0.014 C 
ATOM     26  C   UNL     1     -16.615 -34.455 -14.295  1.00  0.00     0.016 C 
ATOM     27  C   UNL     1     -14.410 -35.655 -16.515  1.00  0.00     0.063 C 
ATOM     28  C   UNL     1     -14.862 -37.125 -14.531  1.00  0.00     0.033 C 
ATOM     29  C   UNL     1     -13.991 -36.925 -15.775  1.00  0.00     0.118 C 
BRANCH  29  30
ATOM     30  O   UNL     1     -12.632 -36.844 -15.430  1.00  0.00    -0.393 OA
ATOM     31  H   UNL     1     -12.234 -36.127 -15.991  1.00  0.00     0.210 HD
ENDBRANCH  29  30
ENDBRANCH   9  11
ENDBRANCH   1   9
TORSDOF 7
ENDMDL
