MODEL 1
REMARK VINA RESULT:    -3.842      0.000      0.000
REMARK INTER + INTRA:          -6.531
REMARK INTER:                  -5.863
REMARK INTRA:                  -0.668
REMARK UNBOUND:                -0.668
REMARK SMILES O=C([O-])CCCCCCCCC(=O)[O-]
REMARK SMILES IDX 7 1 6 2 5 3 4 4 2 5 1 6 3 7 8 8 9 9 10 10 11 11 12 12 13 13
REMARK SMILES IDX 14 14
REMARK H PARENT
REMARK Flexibility Score: inf
ROOT
ATOM      1  C   UNL     1      37.554  25.820 223.791  1.00  0.00     0.000 C 
ENDROOT
BRANCH   1   2
ATOM      2  C   UNL     1      36.257  25.076 224.135  1.00  0.00     0.000 C 
BRANCH   2   3
ATOM      3  C   UNL     1      36.037  23.887 223.191  1.00  0.00     0.006 C 
BRANCH   3   4
ATOM      4  C   UNL     1      36.243  24.300 221.730  1.00  0.00     0.053 C 
BRANCH   4   5
ATOM      5  C   UNL     1      35.008  24.030 220.931  1.00  0.00     0.041 C 
ATOM      6  O   UNL     1      35.037  24.109 219.674  1.00  0.00    -0.550 OA
ATOM      7  O   UNL     1      33.811  23.742 221.575  1.00  0.00    -0.550 OA
ENDBRANCH   4   5
ENDBRANCH   3   4
ENDBRANCH   2   3
ENDBRANCH   1   2
BRANCH   1   8
ATOM      8  C   UNL     1      38.481  25.901 225.012  1.00  0.00     0.000 C 
BRANCH   8   9
ATOM      9  C   UNL     1      39.690  24.958 224.900  1.00  0.00     0.000 C 
BRANCH   9  10
ATOM     10  C   UNL     1      39.396  23.551 225.449  1.00  0.00     0.006 C 
BRANCH  10  11
ATOM     11  C   UNL     1      39.490  22.473 224.361  1.00  0.00     0.053 C 
BRANCH  11  12
ATOM     12  C   UNL     1      40.257  22.953 223.167  1.00  0.00     0.041 C 
ATOM     13  O   UNL     1      41.515  22.906 223.162  1.00  0.00    -0.550 OA
ATOM     14  O   UNL     1      39.584  23.486 222.075  1.00  0.00    -0.550 OA
ENDBRANCH  11  12
ENDBRANCH  10  11
ENDBRANCH   9  10
ENDBRANCH   8   9
ENDBRANCH   1   8
TORSDOF 9
ENDMDL
MODEL 2
REMARK VINA RESULT:    -3.764      1.172      4.845
REMARK INTER + INTRA:          -6.413
REMARK INTER:                  -5.573
REMARK INTRA:                  -0.840
REMARK UNBOUND:                -0.668
REMARK SMILES O=C([O-])CCCCCCCCC(=O)[O-]
REMARK SMILES IDX 7 1 6 2 5 3 4 4 2 5 1 6 3 7 8 8 9 9 10 10 11 11 12 12 13 13
REMARK SMILES IDX 14 14
REMARK H PARENT
REMARK Flexibility Score: inf
ROOT
ATOM      1  C   UNL     1      38.426  25.768 225.105  1.00  0.00     0.000 C 
ENDROOT
BRANCH   1   2
ATOM      2  C   UNL     1      38.658  24.347 225.634  1.00  0.00     0.000 C 
BRANCH   2   3
ATOM      3  C   UNL     1      40.142  23.967 225.560  1.00  0.00     0.006 C 
BRANCH   3   4
ATOM      4  C   UNL     1      40.346  22.709 224.711  1.00  0.00     0.053 C 
BRANCH   4   5
ATOM      5  C   UNL     1      40.989  23.056 223.406  1.00  0.00     0.041 C 
ATOM      6  O   UNL     1      41.860  22.296 222.906  1.00  0.00    -0.550 OA
ATOM      7  O   UNL     1      40.665  24.245 222.765  1.00  0.00    -0.550 OA
ENDBRANCH   4   5
ENDBRANCH   3   4
ENDBRANCH   2   3
ENDBRANCH   1   2
BRANCH   1   8
ATOM      8  C   UNL     1      37.623  25.742 223.796  1.00  0.00     0.000 C 
BRANCH   8   9
ATOM      9  C   UNL     1      36.240  25.093 223.963  1.00  0.00     0.000 C 
BRANCH   9  10
ATOM     10  C   UNL     1      35.990  23.963 222.949  1.00  0.00     0.006 C 
BRANCH  10  11
ATOM     11  C   UNL     1      37.223  23.679 222.082  1.00  0.00     0.053 C 
BRANCH  11  12
ATOM     12  C   UNL     1      36.891  23.688 220.622  1.00  0.00     0.041 C 
ATOM     13  O   UNL     1      35.773  24.113 220.229  1.00  0.00    -0.550 OA
ATOM     14  O   UNL     1      37.801  23.191 219.697  1.00  0.00    -0.550 OA
ENDBRANCH  11  12
ENDBRANCH  10  11
ENDBRANCH   9  10
ENDBRANCH   8   9
ENDBRANCH   1   8
TORSDOF 9
ENDMDL
MODEL 3
REMARK VINA RESULT:    -3.652      2.116      6.064
REMARK INTER + INTRA:          -6.242
REMARK INTER:                  -5.735
REMARK INTRA:                  -0.507
REMARK UNBOUND:                -0.668
REMARK SMILES O=C([O-])CCCCCCCCC(=O)[O-]
REMARK SMILES IDX 7 1 6 2 5 3 4 4 2 5 1 6 3 7 8 8 9 9 10 10 11 11 12 12 13 13
REMARK SMILES IDX 14 14
REMARK H PARENT
REMARK Flexibility Score: inf
ROOT
ATOM      1  C   UNL     1      40.233  24.237 223.120  1.00  0.00     0.000 C 
ENDROOT
BRANCH   1   2
ATOM      2  C   UNL     1      40.648  23.413 224.345  1.00  0.00     0.000 C 
BRANCH   2   3
ATOM      3  C   UNL     1      41.841  22.505 224.019  1.00  0.00     0.006 C 
BRANCH   3   4
ATOM      4  C   UNL     1      41.382  21.067 223.757  1.00  0.00     0.053 C 
BRANCH   4   5
ATOM      5  C   UNL     1      42.255  20.417 222.732  1.00  0.00     0.041 C 
ATOM      6  O   UNL     1      41.919  20.422 221.518  1.00  0.00    -0.550 OA
ATOM      7  O   UNL     1      43.416  19.760 223.122  1.00  0.00    -0.550 OA
ENDBRANCH   4   5
ENDBRANCH   3   4
ENDBRANCH   2   3
ENDBRANCH   1   2
BRANCH   1   8
ATOM      8  C   UNL     1      39.081  23.557 222.365  1.00  0.00     0.000 C 
BRANCH   8   9
ATOM      9  C   UNL     1      37.852  23.315 223.255  1.00  0.00     0.000 C 
BRANCH   9  10
ATOM     10  C   UNL     1      36.563  23.109 222.441  1.00  0.00     0.006 C 
BRANCH  10  11
ATOM     11  C   UNL     1      36.125  24.388 221.716  1.00  0.00     0.053 C 
BRANCH  11  12
ATOM     12  C   UNL     1      35.942  24.160 220.247  1.00  0.00     0.041 C 
ATOM     13  O   UNL     1      34.786  24.154 219.746  1.00  0.00    -0.550 OA
ATOM     14  O   UNL     1      37.044  23.918 219.437  1.00  0.00    -0.550 OA
ENDBRANCH  11  12
ENDBRANCH  10  11
ENDBRANCH   9  10
ENDBRANCH   8   9
ENDBRANCH   1   8
TORSDOF 9
ENDMDL
MODEL 4
REMARK VINA RESULT:    -3.652      1.564      2.072
REMARK INTER + INTRA:          -6.241
REMARK INTER:                  -5.253
REMARK INTRA:                  -0.988
REMARK UNBOUND:                -0.668
REMARK SMILES O=C([O-])CCCCCCCCC(=O)[O-]
REMARK SMILES IDX 7 1 6 2 5 3 4 4 2 5 1 6 3 7 8 8 9 9 10 10 11 11 12 12 13 13
REMARK SMILES IDX 14 14
REMARK H PARENT
REMARK Flexibility Score: inf
ROOT
ATOM      1  C   UNL     1      37.216  25.194 225.329  1.00  0.00     0.000 C 
ENDROOT
BRANCH   1   2
ATOM      2  C   UNL     1      36.058  25.081 224.330  1.00  0.00     0.000 C 
BRANCH   2   3
ATOM      3  C   UNL     1      36.574  25.094 222.885  1.00  0.00     0.006 C 
BRANCH   3   4
ATOM      4  C   UNL     1      36.315  23.749 222.198  1.00  0.00     0.053 C 
BRANCH   4   5
ATOM      5  C   UNL     1      36.619  23.842 220.736  1.00  0.00     0.041 C 
ATOM      6  O   UNL     1      37.691  23.363 220.280  1.00  0.00    -0.550 OA
ATOM      7  O   UNL     1      35.742  24.501 219.884  1.00  0.00    -0.550 OA
ENDBRANCH   4   5
ENDBRANCH   3   4
ENDBRANCH   2   3
ENDBRANCH   1   2
BRANCH   1   8
ATOM      8  C   UNL     1      38.478  25.743 224.648  1.00  0.00     0.000 C 
BRANCH   8   9
ATOM      9  C   UNL     1      39.743  24.958 225.026  1.00  0.00     0.000 C 
BRANCH   9  10
ATOM     10  C   UNL     1      40.444  24.340 223.804  1.00  0.00     0.006 C 
BRANCH  10  11
ATOM     11  C   UNL     1      39.726  23.082 223.298  1.00  0.00     0.053 C 
BRANCH  11  12
ATOM     12  C   UNL     1      39.459  22.110 224.407  1.00  0.00     0.041 C 
ATOM     13  O   UNL     1      38.276  21.828 224.730  1.00  0.00    -0.550 OA
ATOM     14  O   UNL     1      40.518  21.545 225.107  1.00  0.00    -0.550 OA
ENDBRANCH  11  12
ENDBRANCH  10  11
ENDBRANCH   9  10
ENDBRANCH   8   9
ENDBRANCH   1   8
TORSDOF 9
ENDMDL
MODEL 5
REMARK VINA RESULT:    -3.608      1.677      2.535
REMARK INTER + INTRA:          -6.175
REMARK INTER:                  -5.340
REMARK INTRA:                  -0.835
REMARK UNBOUND:                -0.668
REMARK SMILES O=C([O-])CCCCCCCCC(=O)[O-]
REMARK SMILES IDX 7 1 6 2 5 3 4 4 2 5 1 6 3 7 8 8 9 9 10 10 11 11 12 12 13 13
REMARK SMILES IDX 14 14
REMARK H PARENT
REMARK Flexibility Score: inf
ROOT
ATOM      1  C   UNL     1      37.012  22.661 223.796  1.00  0.00     0.000 C 
ENDROOT
BRANCH   1   2
ATOM      2  C   UNL     1      36.396  24.053 223.983  1.00  0.00     0.000 C 
BRANCH   2   3
ATOM      3  C   UNL     1      36.375  24.828 222.660  1.00  0.00     0.006 C 
BRANCH   3   4
ATOM      4  C   UNL     1      36.328  23.872 221.463  1.00  0.00     0.053 C 
BRANCH   4   5
ATOM      5  C   UNL     1      35.022  23.997 220.745  1.00  0.00     0.041 C 
ATOM      6  O   UNL     1      34.995  24.334 219.531  1.00  0.00    -0.550 OA
ATOM      7  O   UNL     1      33.830  23.789 221.427  1.00  0.00    -0.550 OA
ENDBRANCH   4   5
ENDBRANCH   3   4
ENDBRANCH   2   3
ENDBRANCH   1   2
BRANCH   1   8
ATOM      8  C   UNL     1      38.301  22.516 224.616  1.00  0.00     0.000 C 
BRANCH   8   9
ATOM      9  C   UNL     1      39.567  22.711 223.768  1.00  0.00     0.000 C 
BRANCH   9  10
ATOM     10  C   UNL     1      39.981  24.188 223.651  1.00  0.00     0.006 C 
BRANCH  10  11
ATOM     11  C   UNL     1      39.886  24.924 224.993  1.00  0.00     0.053 C 
BRANCH  11  12
ATOM     12  C   UNL     1      41.105  24.703 225.836  1.00  0.00     0.041 C 
ATOM     13  O   UNL     1      42.228  24.531 225.293  1.00  0.00    -0.550 OA
ATOM     14  O   UNL     1      40.995  24.651 227.220  1.00  0.00    -0.550 OA
ENDBRANCH  11  12
ENDBRANCH  10  11
ENDBRANCH   9  10
ENDBRANCH   8   9
ENDBRANCH   1   8
TORSDOF 9
ENDMDL
MODEL 6
REMARK VINA RESULT:    -3.581      1.782      2.381
REMARK INTER + INTRA:          -6.133
REMARK INTER:                  -5.595
REMARK INTRA:                  -0.538
REMARK UNBOUND:                -0.668
REMARK SMILES O=C([O-])CCCCCCCCC(=O)[O-]
REMARK SMILES IDX 7 1 6 2 5 3 4 4 2 5 1 6 3 7 8 8 9 9 10 10 11 11 12 12 13 13
REMARK SMILES IDX 14 14
REMARK H PARENT
REMARK Flexibility Score: inf
ROOT
ATOM      1  C   UNL     1      37.706  24.865 223.916  1.00  0.00     0.000 C 
ENDROOT
BRANCH   1   2
ATOM      2  C   UNL     1      36.999  23.504 223.956  1.00  0.00     0.000 C 
BRANCH   2   3
ATOM      3  C   UNL     1      36.260  23.228 222.640  1.00  0.00     0.006 C 
BRANCH   3   4
ATOM      4  C   UNL     1      36.259  24.469 221.741  1.00  0.00     0.053 C 
BRANCH   4   5
ATOM      5  C   UNL     1      36.254  24.070 220.299  1.00  0.00     0.041 C 
ATOM      6  O   UNL     1      35.206  24.189 219.612  1.00  0.00    -0.550 OA
ATOM      7  O   UNL     1      37.394  23.520 219.726  1.00  0.00    -0.550 OA
ENDBRANCH   4   5
ENDBRANCH   3   4
ENDBRANCH   2   3
ENDBRANCH   1   2
BRANCH   1   8
ATOM      8  C   UNL     1      39.197  24.719 224.251  1.00  0.00     0.000 C 
BRANCH   8   9
ATOM      9  C   UNL     1      39.979  23.974 223.159  1.00  0.00     0.000 C 
BRANCH   9  10
ATOM     10  C   UNL     1      40.553  22.634 223.652  1.00  0.00     0.006 C 
BRANCH  10  11
ATOM     11  C   UNL     1      41.584  22.051 222.676  1.00  0.00     0.053 C 
BRANCH  11  12
ATOM     12  C   UNL     1      42.022  20.678 223.083  1.00  0.00     0.041 C 
ATOM     13  O   UNL     1      43.158  20.250 222.747  1.00  0.00    -0.550 OA
ATOM     14  O   UNL     1      41.162  19.857 223.802  1.00  0.00    -0.550 OA
ENDBRANCH  11  12
ENDBRANCH  10  11
ENDBRANCH   9  10
ENDBRANCH   8   9
ENDBRANCH   1   8
TORSDOF 9
ENDMDL
MODEL 7
REMARK VINA RESULT:    -3.581      2.157      2.765
REMARK INTER + INTRA:          -6.133
REMARK INTER:                  -5.412
REMARK INTRA:                  -0.721
REMARK UNBOUND:                -0.668
REMARK SMILES O=C([O-])CCCCCCCCC(=O)[O-]
REMARK SMILES IDX 7 1 6 2 5 3 4 4 2 5 1 6 3 7 8 8 9 9 10 10 11 11 12 12 13 13
REMARK SMILES IDX 14 14
REMARK H PARENT
REMARK Flexibility Score: inf
ROOT
ATOM      1  C   UNL     1      38.662  24.160 223.159  1.00  0.00     0.000 C 
ENDROOT
BRANCH   1   2
ATOM      2  C   UNL     1      37.562  23.215 223.659  1.00  0.00     0.000 C 
BRANCH   2   3
ATOM      3  C   UNL     1      36.474  23.025 222.595  1.00  0.00     0.006 C 
BRANCH   3   4
ATOM      4  C   UNL     1      36.260  24.312 221.793  1.00  0.00     0.053 C 
BRANCH   4   5
ATOM      5  C   UNL     1      36.324  24.031 220.325  1.00  0.00     0.041 C 
ATOM      6  O   UNL     1      35.321  24.244 219.594  1.00  0.00    -0.550 OA
ATOM      7  O   UNL     1      37.476  23.486 219.772  1.00  0.00    -0.550 OA
ENDBRANCH   4   5
ENDBRANCH   3   4
ENDBRANCH   2   3
ENDBRANCH   1   2
BRANCH   1   8
ATOM      8  C   UNL     1      39.866  23.369 222.627  1.00  0.00     0.000 C 
BRANCH   8   9
ATOM      9  C   UNL     1      41.167  23.698 223.376  1.00  0.00     0.000 C 
BRANCH   9  10
ATOM     10  C   UNL     1      41.263  22.985 224.737  1.00  0.00     0.006 C 
BRANCH  10  11
ATOM     11  C   UNL     1      41.215  21.458 224.596  1.00  0.00     0.053 C 
BRANCH  11  12
ATOM     12  C   UNL     1      40.099  20.860 225.397  1.00  0.00     0.041 C 
ATOM     13  O   UNL     1      39.774  19.655 225.229  1.00  0.00    -0.550 OA
ATOM     14  O   UNL     1      39.394  21.644 226.302  1.00  0.00    -0.550 OA
ENDBRANCH  11  12
ENDBRANCH  10  11
ENDBRANCH   9  10
ENDBRANCH   8   9
ENDBRANCH   1   8
TORSDOF 9
ENDMDL
MODEL 8
REMARK VINA RESULT:    -3.476      1.515      2.220
REMARK INTER + INTRA:          -5.973
REMARK INTER:                  -5.330
REMARK INTRA:                  -0.644
REMARK UNBOUND:                -0.668
REMARK SMILES O=C([O-])CCCCCCCCC(=O)[O-]
REMARK SMILES IDX 7 1 6 2 5 3 4 4 2 5 1 6 3 7 8 8 9 9 10 10 11 11 12 12 13 13
REMARK SMILES IDX 14 14
REMARK H PARENT
REMARK Flexibility Score: inf
ROOT
ATOM      1  C   UNL     1      38.756  26.215 225.674  1.00  0.00     0.000 C 
ENDROOT
BRANCH   1   2
ATOM      2  C   UNL     1      38.233  25.924 224.262  1.00  0.00     0.000 C 
BRANCH   2   3
ATOM      3  C   UNL     1      37.582  24.537 224.192  1.00  0.00     0.006 C 
BRANCH   3   4
ATOM      4  C   UNL     1      36.111  24.641 223.774  1.00  0.00     0.053 C 
BRANCH   4   5
ATOM      5  C   UNL     1      35.915  24.074 222.404  1.00  0.00     0.041 C 
ATOM      6  O   UNL     1      34.755  23.962 221.924  1.00  0.00    -0.550 OA
ATOM      7  O   UNL     1      37.008  23.621 221.675  1.00  0.00    -0.550 OA
ENDBRANCH   4   5
ENDBRANCH   3   4
ENDBRANCH   2   3
ENDBRANCH   1   2
BRANCH   1   8
ATOM      8  C   UNL     1      40.283  26.063 225.736  1.00  0.00     0.000 C 
BRANCH   8   9
ATOM      9  C   UNL     1      40.721  24.628 226.066  1.00  0.00     0.000 C 
BRANCH   9  10
ATOM     10  C   UNL     1      41.816  24.110 225.116  1.00  0.00     0.006 C 
BRANCH  10  11
ATOM     11  C   UNL     1      41.271  23.812 223.713  1.00  0.00     0.053 C 
BRANCH  11  12
ATOM     12  C   UNL     1      41.273  22.344 223.416  1.00  0.00     0.041 C 
ATOM     13  O   UNL     1      40.479  21.574 224.019  1.00  0.00    -0.550 OA
ATOM     14  O   UNL     1      42.177  21.820 222.500  1.00  0.00    -0.550 OA
ENDBRANCH  11  12
ENDBRANCH  10  11
ENDBRANCH   9  10
ENDBRANCH   8   9
ENDBRANCH   1   8
TORSDOF 9
ENDMDL
MODEL 9
REMARK VINA RESULT:    -3.448      2.085      4.938
REMARK INTER + INTRA:          -5.931
REMARK INTER:                  -5.122
REMARK INTRA:                  -0.808
REMARK UNBOUND:                -0.668
REMARK SMILES O=C([O-])CCCCCCCCC(=O)[O-]
REMARK SMILES IDX 7 1 6 2 5 3 4 4 2 5 1 6 3 7 8 8 9 9 10 10 11 11 12 12 13 13
REMARK SMILES IDX 14 14
REMARK H PARENT
REMARK Flexibility Score: inf
ROOT
ATOM      1  C   UNL     1      38.627  24.789 224.848  1.00  0.00     0.000 C 
ENDROOT
BRANCH   1   2
ATOM      2  C   UNL     1      39.978  24.295 224.317  1.00  0.00     0.000 C 
BRANCH   2   3
ATOM      3  C   UNL     1      39.880  22.843 223.830  1.00  0.00     0.006 C 
BRANCH   3   4
ATOM      4  C   UNL     1      40.220  21.862 224.957  1.00  0.00     0.053 C 
BRANCH   4   5
ATOM      5  C   UNL     1      39.025  21.034 225.309  1.00  0.00     0.041 C 
ATOM      6  O   UNL     1      37.874  21.398 224.950  1.00  0.00    -0.550 OA
ATOM      7  O   UNL     1      39.176  19.887 226.077  1.00  0.00    -0.550 OA
ENDBRANCH   4   5
ENDBRANCH   3   4
ENDBRANCH   2   3
ENDBRANCH   1   2
BRANCH   1   8
ATOM      8  C   UNL     1      37.693  25.182 223.693  1.00  0.00     0.000 C 
BRANCH   8   9
ATOM      9  C   UNL     1      36.378  24.388 223.701  1.00  0.00     0.000 C 
BRANCH   9  10
ATOM     10  C   UNL     1      36.244  23.451 222.488  1.00  0.00     0.006 C 
BRANCH  10  11
ATOM     11  C   UNL     1      37.376  23.653 221.472  1.00  0.00     0.053 C 
BRANCH  11  12
ATOM     12  C   UNL     1      36.866  23.656 220.064  1.00  0.00     0.041 C 
ATOM     13  O   UNL     1      37.331  22.844 219.221  1.00  0.00    -0.550 OA
ATOM     14  O   UNL     1      35.905  24.579 219.673  1.00  0.00    -0.550 OA
ENDBRANCH  11  12
ENDBRANCH  10  11
ENDBRANCH   9  10
ENDBRANCH   8   9
ENDBRANCH   1   8
TORSDOF 9
ENDMDL
