MODEL 1
REMARK VINA RESULT:    -3.238      0.000      0.000
REMARK INTER + INTRA:          -3.333
REMARK INTER:                  -3.333
REMARK INTRA:                   0.000
REMARK UNBOUND:                 0.000
REMARK SMILES CC1(C)[C@H]2CC[C@]1(C)[C@@H](O)C2
REMARK SMILES IDX 1 1 2 2 4 3 5 4 6 5 7 6 9 7 11 8 8 9 3 10 10 11
REMARK H PARENT 10 12
REMARK Flexibility Score: inf
ROOT
ATOM      1  C   UNL     1     138.291 143.378 143.504  1.00  0.00     0.012 C 
ATOM      2  C   UNL     1     139.801 143.304 143.123  1.00  0.00    -0.025 C 
ATOM      3  C   UNL     1     140.722 144.059 144.095  1.00  0.00    -0.002 C 
ATOM      4  C   UNL     1     142.116 143.933 143.433  1.00  0.00     0.005 C 
ATOM      5  C   UNL     1     141.789 144.009 141.928  1.00  0.00     0.010 C 
ATOM      6  C   UNL     1     140.244 144.180 141.926  1.00  0.00    -0.001 C 
ATOM      7  C   UNL     1     139.985 145.639 142.410  1.00  0.00     0.121 C 
ATOM      8  C   UNL     1     140.294 145.539 143.923  1.00  0.00     0.036 C 
ATOM      9  C   UNL     1     139.609 143.840 140.570  1.00  0.00     0.015 C 
ATOM     10  C   UNL     1     140.129 141.783 142.994  1.00  0.00     0.012 C 
ENDROOT
BRANCH   7  11
ATOM     11  O   UNL     1     138.661 146.044 142.173  1.00  0.00    -0.393 OA
ATOM     12  H   UNL     1     138.542 146.056 141.189  1.00  0.00     0.210 HD
ENDBRANCH   7  11
TORSDOF 1
ENDMDL
MODEL 2
REMARK VINA RESULT:    -3.183      4.025      5.214
REMARK INTER + INTRA:          -3.276
REMARK INTER:                  -3.276
REMARK INTRA:                   0.000
REMARK UNBOUND:                 0.000
REMARK SMILES CC1(C)[C@H]2CC[C@]1(C)[C@@H](O)C2
REMARK SMILES IDX 1 1 2 2 4 3 5 4 6 5 7 6 9 7 11 8 8 9 3 10 10 11
REMARK H PARENT 10 12
REMARK Flexibility Score: inf
ROOT
ATOM      1  C   UNL     1     138.464 138.532 143.595  1.00  0.00     0.012 C 
ATOM      2  C   UNL     1     138.413 140.036 143.184  1.00  0.00    -0.025 C 
ATOM      3  C   UNL     1     137.562 140.905 144.124  1.00  0.00    -0.002 C 
ATOM      4  C   UNL     1     137.578 142.292 143.435  1.00  0.00     0.005 C 
ATOM      5  C   UNL     1     137.559 141.931 141.935  1.00  0.00     0.010 C 
ATOM      6  C   UNL     1     137.525 140.377 141.963  1.00  0.00    -0.001 C 
ATOM      7  C   UNL     1     136.084 140.000 142.427  1.00  0.00     0.121 C 
ATOM      8  C   UNL     1     136.128 140.345 143.935  1.00  0.00     0.036 C 
ATOM      9  C   UNL     1     137.944 139.748 140.626  1.00  0.00     0.015 C 
ATOM     10  C   UNL     1     139.901 140.493 143.073  1.00  0.00     0.012 C 
ENDROOT
BRANCH   7  11
ATOM     11  O   UNL     1     135.801 138.642 142.211  1.00  0.00    -0.393 OA
ATOM     12  H   UNL     1     135.286 138.592 141.365  1.00  0.00     0.210 HD
ENDBRANCH   7  11
TORSDOF 1
ENDMDL
MODEL 3
REMARK VINA RESULT:    -3.181      4.116      5.268
REMARK INTER + INTRA:          -3.274
REMARK INTER:                  -3.274
REMARK INTRA:                   0.000
REMARK UNBOUND:                 0.000
REMARK SMILES CC1(C)[C@H]2CC[C@]1(C)[C@@H](O)C2
REMARK SMILES IDX 1 1 2 2 4 3 5 4 6 5 7 6 9 7 11 8 8 9 3 10 10 11
REMARK H PARENT 10 12
REMARK Flexibility Score: inf
ROOT
ATOM      1  C   UNL     1     143.076 143.174 143.339  1.00  0.00     0.012 C 
ATOM      2  C   UNL     1     143.143 141.643 143.054  1.00  0.00    -0.025 C 
ATOM      3  C   UNL     1     143.907 140.847 144.125  1.00  0.00    -0.002 C 
ATOM      4  C   UNL     1     143.931 139.409 143.548  1.00  0.00     0.005 C 
ATOM      5  C   UNL     1     144.073 139.650 142.032  1.00  0.00     0.010 C 
ATOM      6  C   UNL     1     144.122 141.201 141.939  1.00  0.00    -0.001 C 
ATOM      7  C   UNL     1     145.525 141.607 142.486  1.00  0.00     0.121 C 
ATOM      8  C   UNL     1     145.357 141.383 144.008  1.00  0.00     0.036 C 
ATOM      9  C   UNL     1     143.817 141.724 140.527  1.00  0.00     0.015 C 
ATOM     10  C   UNL     1     141.663 141.184 142.861  1.00  0.00     0.012 C 
ENDROOT
BRANCH   7  11
ATOM     11  O   UNL     1     145.839 142.943 142.187  1.00  0.00    -0.393 OA
ATOM     12  H   UNL     1     146.817 143.040 142.326  1.00  0.00     0.210 HD
ENDBRANCH   7  11
TORSDOF 1
ENDMDL
MODEL 4
REMARK VINA RESULT:    -3.164      4.003      5.373
REMARK INTER + INTRA:          -3.256
REMARK INTER:                  -3.256
REMARK INTRA:                   0.000
REMARK UNBOUND:                 0.000
REMARK SMILES CC1(C)[C@H]2CC[C@]1(C)[C@@H](O)C2
REMARK SMILES IDX 1 1 2 2 4 3 5 4 6 5 7 6 9 7 11 8 8 9 3 10 10 11
REMARK H PARENT 10 12
REMARK Flexibility Score: inf
ROOT
ATOM      1  C   UNL     1     145.593 141.070 143.835  1.00  0.00     0.012 C 
ATOM      2  C   UNL     1     144.983 141.703 142.547  1.00  0.00    -0.025 C 
ATOM      3  C   UNL     1     144.181 142.989 142.810  1.00  0.00    -0.002 C 
ATOM      4  C   UNL     1     143.596 143.333 141.418  1.00  0.00     0.005 C 
ATOM      5  C   UNL     1     143.302 141.943 140.816  1.00  0.00     0.010 C 
ATOM      6  C   UNL     1     143.750 140.981 141.952  1.00  0.00    -0.001 C 
ATOM      7  C   UNL     1     142.663 141.114 143.063  1.00  0.00     0.121 C 
ATOM      8  C   UNL     1     142.988 142.500 143.671  1.00  0.00     0.036 C 
ATOM      9  C   UNL     1     143.981 139.545 141.461  1.00  0.00     0.015 C 
ATOM     10  C   UNL     1     146.181 141.895 141.564  1.00  0.00     0.012 C 
ENDROOT
BRANCH   7  11
ATOM     11  O   UNL     1     142.760 140.090 144.019  1.00  0.00    -0.393 OA
ATOM     12  H   UNL     1     143.047 140.521 144.865  1.00  0.00     0.210 HD
ENDBRANCH   7  11
TORSDOF 1
ENDMDL
MODEL 5
REMARK VINA RESULT:    -3.127      1.125      2.814
REMARK INTER + INTRA:          -3.219
REMARK INTER:                  -3.219
REMARK INTRA:                   0.000
REMARK UNBOUND:                 0.000
REMARK SMILES CC1(C)[C@H]2CC[C@]1(C)[C@@H](O)C2
REMARK SMILES IDX 1 1 2 2 4 3 5 4 6 5 7 6 9 7 11 8 8 9 3 10 10 11
REMARK H PARENT 10 12
REMARK Flexibility Score: inf
ROOT
ATOM      1  C   UNL     1     141.112 144.697 140.859  1.00  0.00     0.012 C 
ATOM      2  C   UNL     1     140.866 143.689 142.023  1.00  0.00    -0.025 C 
ATOM      3  C   UNL     1     139.756 142.666 141.732  1.00  0.00    -0.002 C 
ATOM      4  C   UNL     1     139.635 141.884 143.063  1.00  0.00     0.005 C 
ATOM      5  C   UNL     1     139.891 142.974 144.125  1.00  0.00     0.010 C 
ATOM      6  C   UNL     1     140.116 144.244 143.258  1.00  0.00    -0.001 C 
ATOM      7  C   UNL     1     138.708 144.625 142.705  1.00  0.00     0.121 C 
ATOM      8  C   UNL     1     138.479 143.539 141.626  1.00  0.00     0.036 C 
ATOM      9  C   UNL     1     140.821 145.372 144.025  1.00  0.00     0.015 C 
ATOM     10  C   UNL     1     142.256 143.044 142.323  1.00  0.00     0.012 C 
ENDROOT
BRANCH   7  11
ATOM     11  O   UNL     1     138.692 145.918 142.155  1.00  0.00    -0.393 OA
ATOM     12  H   UNL     1     139.222 145.874 141.318  1.00  0.00     0.210 HD
ENDBRANCH   7  11
TORSDOF 1
ENDMDL
MODEL 6
REMARK VINA RESULT:    -3.125      4.010      5.891
REMARK INTER + INTRA:          -3.217
REMARK INTER:                  -3.217
REMARK INTRA:                   0.000
REMARK UNBOUND:                 0.000
REMARK SMILES CC1(C)[C@H]2CC[C@]1(C)[C@@H](O)C2
REMARK SMILES IDX 1 1 2 2 4 3 5 4 6 5 7 6 9 7 11 8 8 9 3 10 10 11
REMARK H PARENT 10 12
REMARK Flexibility Score: inf
ROOT
ATOM      1  C   UNL     1     137.613 141.683 141.533  1.00  0.00     0.012 C 
ATOM      2  C   UNL     1     138.011 140.613 142.595  1.00  0.00    -0.025 C 
ATOM      3  C   UNL     1     138.564 139.314 141.987  1.00  0.00    -0.002 C 
ATOM      4  C   UNL     1     138.759 138.399 143.221  1.00  0.00     0.005 C 
ATOM      5  C   UNL     1     137.570 138.784 144.125  1.00  0.00     0.010 C 
ATOM      6  C   UNL     1     136.841 139.866 143.281  1.00  0.00    -0.001 C 
ATOM      7  C   UNL     1     136.152 139.092 142.115  1.00  0.00     0.121 C 
ATOM      8  C   UNL     1     137.355 138.736 141.208  1.00  0.00     0.036 C 
ATOM      9  C   UNL     1     135.887 140.731 144.117  1.00  0.00     0.015 C 
ATOM     10  C   UNL     1     139.003 141.329 143.564  1.00  0.00     0.012 C 
ENDROOT
BRANCH   7  11
ATOM     11  O   UNL     1     135.209 139.885 141.442  1.00  0.00    -0.393 OA
ATOM     12  H   UNL     1     134.362 139.811 141.954  1.00  0.00     0.210 HD
ENDBRANCH   7  11
TORSDOF 1
ENDMDL
MODEL 7
REMARK VINA RESULT:    -3.119      3.836      5.313
REMARK INTER + INTRA:          -3.210
REMARK INTER:                  -3.210
REMARK INTRA:                   0.000
REMARK UNBOUND:                 0.000
REMARK SMILES CC1(C)[C@H]2CC[C@]1(C)[C@@H](O)C2
REMARK SMILES IDX 1 1 2 2 4 3 5 4 6 5 7 6 9 7 11 8 8 9 3 10 10 11
REMARK H PARENT 10 12
REMARK Flexibility Score: inf
ROOT
ATOM      1  C   UNL     1     135.950 140.628 143.875  1.00  0.00     0.012 C 
ATOM      2  C   UNL     1     136.565 140.011 142.582  1.00  0.00    -0.025 C 
ATOM      3  C   UNL     1     137.331 138.700 142.825  1.00  0.00    -0.002 C 
ATOM      4  C   UNL     1     137.928 138.375 141.434  1.00  0.00     0.005 C 
ATOM      5  C   UNL     1     138.265 139.771 140.871  1.00  0.00     0.010 C 
ATOM      6  C   UNL     1     137.824 140.716 142.023  1.00  0.00    -0.001 C 
ATOM      7  C   UNL     1     138.890 140.530 143.146  1.00  0.00     0.121 C 
ATOM      8  C   UNL     1     138.522 139.138 143.716  1.00  0.00     0.036 C 
ATOM      9  C   UNL     1     137.636 142.169 141.563  1.00  0.00     0.015 C 
ATOM     10  C   UNL     1     135.378 139.872 141.577  1.00  0.00     0.012 C 
ENDROOT
BRANCH   7  11
ATOM     11  O   UNL     1     138.803 141.533 144.125  1.00  0.00    -0.393 OA
ATOM     12  H   UNL     1     139.506 142.199 143.908  1.00  0.00     0.210 HD
ENDBRANCH   7  11
TORSDOF 1
ENDMDL
MODEL 8
REMARK VINA RESULT:    -3.073      1.186      2.776
REMARK INTER + INTRA:          -3.163
REMARK INTER:                  -3.163
REMARK INTRA:                   0.000
REMARK UNBOUND:                 0.000
REMARK SMILES CC1(C)[C@H]2CC[C@]1(C)[C@@H](O)C2
REMARK SMILES IDX 1 1 2 2 4 3 5 4 6 5 7 6 9 7 11 8 8 9 3 10 10 11
REMARK H PARENT 10 12
REMARK Flexibility Score: inf
ROOT
ATOM      1  C   UNL     1     139.504 146.206 141.909  1.00  0.00     0.012 C 
ATOM      2  C   UNL     1     140.175 144.966 142.576  1.00  0.00    -0.025 C 
ATOM      3  C   UNL     1     141.307 144.350 141.738  1.00  0.00    -0.002 C 
ATOM      4  C   UNL     1     141.706 143.094 142.552  1.00  0.00     0.005 C 
ATOM      5  C   UNL     1     140.357 142.611 143.123  1.00  0.00     0.010 C 
ATOM      6  C   UNL     1     139.356 143.653 142.550  1.00  0.00    -0.001 C 
ATOM      7  C   UNL     1     139.229 143.318 141.032  1.00  0.00     0.121 C 
ATOM      8  C   UNL     1     140.578 143.830 140.472  1.00  0.00     0.036 C 
ATOM      9  C   UNL     1     138.021 143.676 143.308  1.00  0.00     0.015 C 
ATOM     10  C   UNL     1     140.624 145.443 143.993  1.00  0.00     0.012 C 
ENDROOT
BRANCH   7  11
ATOM     11  O   UNL     1     138.136 143.972 140.439  1.00  0.00    -0.393 OA
ATOM     12  H   UNL     1     137.508 143.263 140.147  1.00  0.00     0.210 HD
ENDBRANCH   7  11
TORSDOF 1
ENDMDL
MODEL 9
REMARK VINA RESULT:    -2.241      5.340      7.281
REMARK INTER + INTRA:          -2.307
REMARK INTER:                  -2.307
REMARK INTRA:                   0.000
REMARK UNBOUND:                 0.000
REMARK SMILES CC1(C)[C@H]2CC[C@]1(C)[C@@H](O)C2
REMARK SMILES IDX 1 1 2 2 4 3 5 4 6 5 7 6 9 7 11 8 8 9 3 10 10 11
REMARK H PARENT 10 12
REMARK Flexibility Score: inf
ROOT
ATOM      1  C   UNL     1     142.945 138.722 143.462  1.00  0.00     0.012 C 
ATOM      2  C   UNL     1     141.433 138.594 143.101  1.00  0.00    -0.025 C 
ATOM      3  C   UNL     1     140.619 137.786 144.125  1.00  0.00    -0.002 C 
ATOM      4  C   UNL     1     139.214 137.709 143.479  1.00  0.00     0.005 C 
ATOM      5  C   UNL     1     139.533 137.594 141.975  1.00  0.00     0.010 C 
ATOM      6  C   UNL     1     141.088 137.610 141.957  1.00  0.00    -0.001 C 
ATOM      7  C   UNL     1     141.525 136.219 142.511  1.00  0.00     0.121 C 
ATOM      8  C   UNL     1     141.221 136.361 144.022  1.00  0.00     0.036 C 
ATOM      9  C   UNL     1     141.665 137.952 140.576  1.00  0.00     0.015 C 
ATOM     10  C   UNL     1     140.923 140.056 142.899  1.00  0.00     0.012 C 
ENDROOT
BRANCH   7  11
ATOM     11  O   UNL     1     142.886 135.964 142.274  1.00  0.00    -0.393 OA
ATOM     12  H   UNL     1     142.927 135.376 141.477  1.00  0.00     0.210 HD
ENDBRANCH   7  11
TORSDOF 1
ENDMDL
