MODEL 1
REMARK VINA RESULT:    -4.374      0.000      0.000
REMARK INTER + INTRA:          -4.501
REMARK INTER:                  -4.501
REMARK INTRA:                   0.000
REMARK UNBOUND:                 0.000
REMARK SMILES Cc1ccccc1O
REMARK SMILES IDX 1 1 2 2 3 3 4 4 5 5 6 6 7 7 8 8
REMARK H PARENT 8 9
REMARK Flexibility Score: inf
ROOT
ATOM      1  C   UNL     1     -25.240  99.124   0.005  1.00  0.00     0.048 C 
ATOM      2  C   UNL     1     -26.696  99.469   0.142  1.00  0.00    -0.009 A 
ATOM      3  C   UNL     1     -27.099 100.811   0.248  1.00  0.00     0.007 A 
ATOM      4  C   UNL     1     -28.453 101.133   0.375  1.00  0.00     0.001 A 
ATOM      5  C   UNL     1     -29.415 100.120   0.396  1.00  0.00     0.004 A 
ATOM      6  C   UNL     1     -29.025  98.783   0.293  1.00  0.00     0.046 A 
ATOM      7  C   UNL     1     -27.668  98.450   0.165  1.00  0.00     0.118 A 
ENDROOT
BRANCH   7   8
ATOM      8  O   UNL     1     -27.282  97.115   0.061  1.00  0.00    -0.508 OA
ATOM      9  H   UNL     1     -26.421  96.844  -0.400  1.00  0.00     0.293 HD
ENDBRANCH   7   8
TORSDOF 1
ENDMDL
MODEL 2
REMARK VINA RESULT:    -4.372      0.706      2.486
REMARK INTER + INTRA:          -4.500
REMARK INTER:                  -4.500
REMARK INTRA:                   0.000
REMARK UNBOUND:                 0.000
REMARK SMILES Cc1ccccc1O
REMARK SMILES IDX 1 1 2 2 3 3 4 4 5 5 6 6 7 7 8 8
REMARK H PARENT 8 9
REMARK Flexibility Score: inf
ROOT
ATOM      1  C   UNL     1     -29.790  98.525   0.616  1.00  0.00     0.048 C 
ATOM      2  C   UNL     1     -28.454  99.171   0.379  1.00  0.00    -0.009 A 
ATOM      3  C   UNL     1     -28.316 100.566   0.463  1.00  0.00     0.007 A 
ATOM      4  C   UNL     1     -27.074 101.167   0.243  1.00  0.00     0.001 A 
ATOM      5  C   UNL     1     -25.960 100.382  -0.061  1.00  0.00     0.004 A 
ATOM      6  C   UNL     1     -26.086  98.993  -0.149  1.00  0.00     0.046 A 
ATOM      7  C   UNL     1     -27.329  98.381   0.070  1.00  0.00     0.118 A 
ENDROOT
BRANCH   7   8
ATOM      8  O   UNL     1     -27.450  96.995  -0.018  1.00  0.00    -0.508 OA
ATOM      9  H   UNL     1     -27.755  96.438   0.772  1.00  0.00     0.293 HD
ENDBRANCH   7   8
TORSDOF 1
ENDMDL
MODEL 3
REMARK VINA RESULT:    -4.361      1.308      2.245
REMARK INTER + INTRA:          -4.489
REMARK INTER:                  -4.489
REMARK INTRA:                   0.000
REMARK UNBOUND:                 0.000
REMARK SMILES Cc1ccccc1O
REMARK SMILES IDX 1 1 2 2 3 3 4 4 5 5 6 6 7 7 8 8
REMARK H PARENT 8 9
REMARK Flexibility Score: inf
ROOT
ATOM      1  C   UNL     1     -26.698 101.766   0.238  1.00  0.00     0.048 C 
ATOM      2  C   UNL     1     -27.331 100.404   0.261  1.00  0.00    -0.009 A 
ATOM      3  C   UNL     1     -28.705 100.265   0.521  1.00  0.00     0.007 A 
ATOM      4  C   UNL     1     -29.294  98.998   0.541  1.00  0.00     0.001 A 
ATOM      5  C   UNL     1     -28.520  97.861   0.301  1.00  0.00     0.004 A 
ATOM      6  C   UNL     1     -27.153  97.988   0.043  1.00  0.00     0.046 A 
ATOM      7  C   UNL     1     -26.552  99.256   0.020  1.00  0.00     0.118 A 
ENDROOT
BRANCH   7   8
ATOM      8  O   UNL     1     -25.188  99.378  -0.239  1.00  0.00    -0.508 OA
ATOM      9  H   UNL     1     -24.805 100.197  -0.697  1.00  0.00     0.293 HD
ENDBRANCH   7   8
TORSDOF 1
ENDMDL
MODEL 4
REMARK VINA RESULT:    -4.309      1.839      2.756
REMARK INTER + INTRA:          -4.435
REMARK INTER:                  -4.435
REMARK INTRA:                   0.000
REMARK UNBOUND:                 0.000
REMARK SMILES Cc1ccccc1O
REMARK SMILES IDX 1 1 2 2 3 3 4 4 5 5 6 6 7 7 8 8
REMARK H PARENT 8 9
REMARK Flexibility Score: inf
ROOT
ATOM      1  C   UNL     1     -26.748 102.176   0.247  1.00  0.00     0.048 C 
ATOM      2  C   UNL     1     -27.105 100.719   0.331  1.00  0.00    -0.009 A 
ATOM      3  C   UNL     1     -26.096  99.746   0.429  1.00  0.00     0.007 A 
ATOM      4  C   UNL     1     -26.429  98.391   0.509  1.00  0.00     0.001 A 
ATOM      5  C   UNL     1     -27.768  97.996   0.492  1.00  0.00     0.004 A 
ATOM      6  C   UNL     1     -28.779  98.955   0.394  1.00  0.00     0.046 A 
ATOM      7  C   UNL     1     -28.455 100.318   0.314  1.00  0.00     0.118 A 
ENDROOT
BRANCH   7   8
ATOM      8  O   UNL     1     -29.467 101.272   0.217  1.00  0.00    -0.508 OA
ATOM      9  H   UNL     1     -29.713 101.697  -0.669  1.00  0.00     0.293 HD
ENDBRANCH   7   8
TORSDOF 1
ENDMDL
MODEL 5
REMARK VINA RESULT:    -4.272      1.205      2.252
REMARK INTER + INTRA:          -4.397
REMARK INTER:                  -4.397
REMARK INTRA:                   0.000
REMARK UNBOUND:                 0.000
REMARK SMILES Cc1ccccc1O
REMARK SMILES IDX 1 1 2 2 3 3 4 4 5 5 6 6 7 7 8 8
REMARK H PARENT 8 9
REMARK Flexibility Score: inf
ROOT
ATOM      1  C   UNL     1     -27.126  97.138   0.296  1.00  0.00     0.048 C 
ATOM      2  C   UNL     1     -27.468  98.601   0.289  1.00  0.00    -0.009 A 
ATOM      3  C   UNL     1     -28.803  99.017   0.425  1.00  0.00     0.007 A 
ATOM      4  C   UNL     1     -29.122 100.378   0.420  1.00  0.00     0.001 A 
ATOM      5  C   UNL     1     -28.113 101.333   0.280  1.00  0.00     0.004 A 
ATOM      6  C   UNL     1     -26.782 100.931   0.143  1.00  0.00     0.046 A 
ATOM      7  C   UNL     1     -26.453  99.567   0.147  1.00  0.00     0.118 A 
ENDROOT
BRANCH   7   8
ATOM      8  O   UNL     1     -25.124  99.169   0.011  1.00  0.00    -0.508 OA
ATOM      9  H   UNL     1     -24.857  98.191   0.032  1.00  0.00     0.293 HD
ENDBRANCH   7   8
TORSDOF 1
ENDMDL
MODEL 6
REMARK VINA RESULT:    -4.249      1.884      3.420
REMARK INTER + INTRA:          -4.374
REMARK INTER:                  -4.374
REMARK INTRA:                   0.000
REMARK UNBOUND:                 0.000
REMARK SMILES Cc1ccccc1O
REMARK SMILES IDX 1 1 2 2 3 3 4 4 5 5 6 6 7 7 8 8
REMARK H PARENT 8 9
REMARK Flexibility Score: inf
ROOT
ATOM      1  C   UNL     1     -29.736  98.619   1.331  1.00  0.00     0.048 C 
ATOM      2  C   UNL     1     -28.327  99.065   1.064  1.00  0.00    -0.009 A 
ATOM      3  C   UNL     1     -27.245  98.229   1.387  1.00  0.00     0.007 A 
ATOM      4  C   UNL     1     -25.934  98.643   1.137  1.00  0.00     0.001 A 
ATOM      5  C   UNL     1     -25.691  99.893   0.563  1.00  0.00     0.004 A 
ATOM      6  C   UNL     1     -26.760 100.733   0.239  1.00  0.00     0.046 A 
ATOM      7  C   UNL     1     -28.079 100.325   0.486  1.00  0.00     0.118 A 
ENDROOT
BRANCH   7   8
ATOM      8  O   UNL     1     -29.143 101.166   0.160  1.00  0.00    -0.508 OA
ATOM      9  H   UNL     1     -28.992 102.120  -0.145  1.00  0.00     0.293 HD
ENDBRANCH   7   8
TORSDOF 1
ENDMDL
MODEL 7
REMARK VINA RESULT:    -4.210      1.743      2.439
REMARK INTER + INTRA:          -4.333
REMARK INTER:                  -4.333
REMARK INTRA:                   0.000
REMARK UNBOUND:                 0.000
REMARK SMILES Cc1ccccc1O
REMARK SMILES IDX 1 1 2 2 3 3 4 4 5 5 6 6 7 7 8 8
REMARK H PARENT 8 9
REMARK Flexibility Score: inf
ROOT
ATOM      1  C   UNL     1     -25.131  99.413  -0.420  1.00  0.00     0.048 C 
ATOM      2  C   UNL     1     -26.589  99.320  -0.071  1.00  0.00    -0.009 A 
ATOM      3  C   UNL     1     -27.233  98.071  -0.045  1.00  0.00     0.007 A 
ATOM      4  C   UNL     1     -28.590  97.985   0.281  1.00  0.00     0.001 A 
ATOM      5  C   UNL     1     -29.313  99.140   0.582  1.00  0.00     0.004 A 
ATOM      6  C   UNL     1     -28.683 100.387   0.558  1.00  0.00     0.046 A 
ATOM      7  C   UNL     1     -27.322 100.484   0.233  1.00  0.00     0.118 A 
ENDROOT
BRANCH   7   8
ATOM      8  O   UNL     1     -26.696 101.729   0.210  1.00  0.00    -0.508 OA
ATOM      9  H   UNL     1     -27.168 102.567   0.530  1.00  0.00     0.293 HD
ENDBRANCH   7   8
TORSDOF 1
ENDMDL
MODEL 8
REMARK VINA RESULT:    -4.191      1.900      3.449
REMARK INTER + INTRA:          -4.313
REMARK INTER:                  -4.313
REMARK INTRA:                   0.000
REMARK UNBOUND:                 0.000
REMARK SMILES Cc1ccccc1O
REMARK SMILES IDX 1 1 2 2 3 3 4 4 5 5 6 6 7 7 8 8
REMARK H PARENT 8 9
REMARK Flexibility Score: inf
ROOT
ATOM      1  C   UNL     1     -29.489 101.330   0.176  1.00  0.00     0.048 C 
ATOM      2  C   UNL     1     -28.411 100.291   0.306  1.00  0.00    -0.009 A 
ATOM      3  C   UNL     1     -28.745  98.930   0.403  1.00  0.00     0.007 A 
ATOM      4  C   UNL     1     -27.742  97.964   0.523  1.00  0.00     0.001 A 
ATOM      5  C   UNL     1     -26.400  98.347   0.545  1.00  0.00     0.004 A 
ATOM      6  C   UNL     1     -26.056  99.698   0.450  1.00  0.00     0.046 A 
ATOM      7  C   UNL     1     -27.056 100.675   0.329  1.00  0.00     0.118 A 
ENDROOT
BRANCH   7   8
ATOM      8  O   UNL     1     -26.709 102.022   0.234  1.00  0.00    -0.508 OA
ATOM      9  H   UNL     1     -25.742 102.318   0.177  1.00  0.00     0.293 HD
ENDBRANCH   7   8
TORSDOF 1
ENDMDL
MODEL 9
REMARK VINA RESULT:    -4.149     11.889     13.145
REMARK INTER + INTRA:          -4.271
REMARK INTER:                  -4.271
REMARK INTRA:                   0.000
REMARK UNBOUND:                 0.000
REMARK SMILES Cc1ccccc1O
REMARK SMILES IDX 1 1 2 2 3 3 4 4 5 5 6 6 7 7 8 8
REMARK H PARENT 8 9
REMARK Flexibility Score: inf
ROOT
ATOM      1  C   UNL     1     -15.877  94.597  -7.434  1.00  0.00     0.048 C 
ATOM      2  C   UNL     1     -16.283  95.031  -6.054  1.00  0.00    -0.009 A 
ATOM      3  C   UNL     1     -15.919  94.264  -4.934  1.00  0.00     0.007 A 
ATOM      4  C   UNL     1     -16.297  94.668  -3.650  1.00  0.00     0.001 A 
ATOM      5  C   UNL     1     -17.038  95.838  -3.474  1.00  0.00     0.004 A 
ATOM      6  C   UNL     1     -17.406  96.607  -4.580  1.00  0.00     0.046 A 
ATOM      7  C   UNL     1     -17.032  96.210  -5.873  1.00  0.00     0.118 A 
ENDROOT
BRANCH   7   8
ATOM      8  O   UNL     1     -17.400  96.980  -6.975  1.00  0.00    -0.508 OA
ATOM      9  H   UNL     1     -18.371  97.177  -7.185  1.00  0.00     0.293 HD
ENDBRANCH   7   8
TORSDOF 1
ENDMDL
