MODEL 1
REMARK VINA RESULT:    -4.280      0.000      0.000
REMARK INTER + INTRA:          -5.928
REMARK INTER:                  -6.031
REMARK INTRA:                   0.104
REMARK UNBOUND:                 0.104
REMARK SMILES CC1=CCC(=C(C)C)C(=O)CC(C)=CCC1
REMARK SMILES IDX 12 1 14 2 13 3 15 4 16 5 2 6 1 7 3 8 11 10 9 11 10 12 5 13
REMARK SMILES IDX 6 14 7 15 8 16 4 17
REMARK H PARENT
REMARK Flexibility Score: 60.00
ROOT
ATOM      1  C   UNL     1     -18.103  12.413 -30.406  1.00  0.00    -0.070 C 
ATOM      2  C   UNL     1     -17.728  12.450 -31.716  1.00  0.00    -0.027 C 
ATOM      3  C   UNL     1     -19.588  12.426 -30.125  1.00  0.00     0.039 C 
ENDROOT
BRANCH   2   4
ATOM      4  C   UNL     1     -16.356  12.395 -32.377  1.00  0.00     0.032 C 
BRANCH   4   5
ATOM      5  C   UNL     1     -15.559  13.704 -32.452  1.00  0.00     0.034 C 
BRANCH   5   6
ATOM      6  C   UNL     1     -14.584  14.029 -31.311  1.00  0.00    -0.077 C 
ATOM      7  C   UNL     1     -14.311  15.502 -31.092  1.00  0.00     0.039 C 
ATOM      8  C   UNL     1     -13.994  13.182 -30.416  1.00  0.00    -0.023 CG0
ATOM      9  G   UNL     1     -14.075  11.675 -30.273  1.00  0.00     0.000 G0
ENDBRANCH   5   6
ENDBRANCH   4   5
ENDBRANCH   2   4
BRANCH   1  10
ATOM     10  C   UNL     1     -17.183  12.368 -29.195  1.00  0.00     0.111 C 
BRANCH  10  11
ATOM     11  C   UNL     1     -16.322  11.140 -29.196  1.00  0.00     0.163 C 
ATOM     12  O   UNL     1     -16.864  10.014 -29.362  1.00  0.00    -0.294 OA
BRANCH  11  13
ATOM     13  C   UNL     1     -14.848  11.246 -29.044  1.00  0.00    -0.002 C 
ATOM     14  C   UNL     1     -14.230  10.955 -27.862  1.00  0.00    -0.069 C 
ATOM     15  C   UNL     1     -12.724  10.957 -27.734  1.00  0.00     0.039 C 
ATOM     16  C   UNL     1     -15.030  10.632 -26.621  1.00  0.00     0.039 C 
BRANCH  13  17
ATOM     17  C   UNL     1     -14.082  11.675 -30.277  1.00  0.00     0.066 CG0
ATOM     18  G   UNL     1     -13.995  13.184 -30.397  1.00  0.00     0.000 G0
ENDBRANCH  13  17
ENDBRANCH  11  13
ENDBRANCH  10  11
ENDBRANCH   1  10
TORSDOF 0
ENDMDL
MODEL 2
REMARK VINA RESULT:    -4.139      2.010      4.165
REMARK INTER + INTRA:          -5.729
REMARK INTER:                  -5.834
REMARK INTRA:                   0.105
REMARK UNBOUND:                 0.104
REMARK SMILES CC1=CCC(=C(C)C)C(=O)CC(C)=CCC1
REMARK SMILES IDX 12 1 14 2 13 3 15 4 16 5 2 6 1 7 3 8 11 10 9 11 10 12 5 13
REMARK SMILES IDX 6 14 7 15 8 16 4 17
REMARK H PARENT
REMARK Flexibility Score: 60.00
ROOT
ATOM      1  C   UNL     1     -14.011  14.662 -31.285  1.00  0.00    -0.070 C 
ATOM      2  C   UNL     1     -13.061  14.034 -32.035  1.00  0.00    -0.027 C 
ATOM      3  C   UNL     1     -13.956  16.172 -31.247  1.00  0.00     0.039 C 
ENDROOT
BRANCH   2   4
ATOM      4  C   UNL     1     -12.835  12.561 -32.352  1.00  0.00     0.032 C 
BRANCH   4   5
ATOM      5  C   UNL     1     -12.085  11.723 -31.308  1.00  0.00     0.034 C 
BRANCH   5   6
ATOM      6  C   UNL     1     -12.909  10.922 -30.290  1.00  0.00    -0.077 C 
ATOM      7  C   UNL     1     -12.196  10.591 -28.996  1.00  0.00     0.039 C 
ATOM      8  C   UNL     1     -14.219  10.538 -30.354  1.00  0.00    -0.023 CG0
ATOM      9  G   UNL     1     -15.260  10.739 -31.438  1.00  0.00     0.000 G0
ENDBRANCH   5   6
ENDBRANCH   4   5
ENDBRANCH   2   4
BRANCH   1  10
ATOM     10  C   UNL     1     -15.117  14.002 -30.476  1.00  0.00     0.111 C 
BRANCH  10  11
ATOM     11  C   UNL     1     -16.019  13.173 -31.339  1.00  0.00     0.163 C 
ATOM     12  O   UNL     1     -16.503  13.684 -32.385  1.00  0.00    -0.294 OA
BRANCH  11  13
ATOM     13  C   UNL     1     -16.310  11.757 -30.995  1.00  0.00    -0.002 C 
ATOM     14  C   UNL     1     -17.456  11.402 -30.344  1.00  0.00    -0.069 C 
ATOM     15  C   UNL     1     -17.805   9.954 -30.087  1.00  0.00     0.039 C 
ATOM     16  C   UNL     1     -18.420  12.448 -29.833  1.00  0.00     0.039 C 
BRANCH  13  17
ATOM     17  C   UNL     1     -15.273  10.742 -31.426  1.00  0.00     0.066 CG0
ATOM     18  G   UNL     1     -14.219  10.516 -30.359  1.00  0.00     0.000 G0
ENDBRANCH  13  17
ENDBRANCH  11  13
ENDBRANCH  10  11
ENDBRANCH   1  10
TORSDOF 0
ENDMDL
MODEL 3
REMARK VINA RESULT:    -4.087      1.667      3.616
REMARK INTER + INTRA:          -5.656
REMARK INTER:                  -5.993
REMARK INTRA:                   0.337
REMARK UNBOUND:                 0.104
REMARK SMILES CC1=CCC(=C(C)C)C(=O)CC(C)=CCC1
REMARK SMILES IDX 12 1 14 2 13 3 15 4 16 5 2 6 1 7 3 8 11 10 9 11 10 12 5 13
REMARK SMILES IDX 6 14 7 15 8 16 4 17
REMARK H PARENT
REMARK Flexibility Score: 60.00
ROOT
ATOM      1  C   UNL     1     -14.274  14.061 -31.889  1.00  0.00    -0.070 C 
ATOM      2  C   UNL     1     -15.201  13.623 -32.788  1.00  0.00    -0.027 C 
ATOM      3  C   UNL     1     -13.324  15.137 -32.365  1.00  0.00     0.039 C 
ENDROOT
BRANCH   2   4
ATOM      4  C   UNL     1     -16.335  12.613 -32.658  1.00  0.00     0.032 C 
BRANCH   4   5
ATOM      5  C   UNL     1     -17.410  12.895 -31.600  1.00  0.00     0.034 C 
BRANCH   5   6
ATOM      6  C   UNL     1     -17.760  11.779 -30.605  1.00  0.00    -0.077 C 
ATOM      7  C   UNL     1     -19.194  11.771 -30.119  1.00  0.00     0.039 C 
ATOM      8  C   UNL     1     -16.984  10.746 -30.160  1.00  0.00    -0.023 CG0
ATOM      9  G   UNL     1     -15.543  10.385 -30.467  1.00  0.00     0.000 G0
ENDBRANCH   5   6
ENDBRANCH   4   5
ENDBRANCH   2   4
BRANCH   1  10
ATOM     10  C   UNL     1     -14.088  13.576 -30.460  1.00  0.00     0.111 C 
BRANCH  10  11
ATOM     11  C   UNL     1     -13.711  12.126 -30.409  1.00  0.00     0.163 C 
ATOM     12  O   UNL     1     -12.658  11.748 -30.989  1.00  0.00    -0.294 OA
BRANCH  11  13
ATOM     13  C   UNL     1     -14.540  11.152 -29.653  1.00  0.00    -0.002 C 
ATOM     14  C   UNL     1     -14.410  11.001 -28.303  1.00  0.00    -0.069 C 
ATOM     15  C   UNL     1     -15.325  10.090 -27.516  1.00  0.00     0.039 C 
ATOM     16  C   UNL     1     -13.330  11.729 -27.536  1.00  0.00     0.039 C 
BRANCH  13  17
ATOM     17  C   UNL     1     -15.542  10.360 -30.467  1.00  0.00     0.066 CG0
ATOM     18  G   UNL     1     -16.972  10.741 -30.136  1.00  0.00     0.000 G0
ENDBRANCH  13  17
ENDBRANCH  11  13
ENDBRANCH  10  11
ENDBRANCH   1  10
TORSDOF 0
ENDMDL
MODEL 4
REMARK VINA RESULT:    -3.991      1.961      4.050
REMARK INTER + INTRA:          -5.520
REMARK INTER:                  -5.546
REMARK INTRA:                   0.025
REMARK UNBOUND:                 0.104
REMARK SMILES CC1=CCC(=C(C)C)C(=O)CC(C)=CCC1
REMARK SMILES IDX 12 1 14 2 13 3 15 4 16 5 2 6 1 7 3 8 11 10 9 11 10 12 5 13
REMARK SMILES IDX 6 14 7 15 8 16 4 17
REMARK H PARENT
REMARK Flexibility Score: 60.00
ROOT
ATOM      1  C   UNL     1     -14.806  14.607 -31.250  1.00  0.00    -0.070 C 
ATOM      2  C   UNL     1     -15.915  14.394 -30.486  1.00  0.00    -0.027 C 
ATOM      3  C   UNL     1     -13.705  15.437 -30.630  1.00  0.00     0.039 C 
ENDROOT
BRANCH   2   4
ATOM      4  C   UNL     1     -17.177  13.579 -30.743  1.00  0.00     0.032 C 
BRANCH   4   5
ATOM      5  C   UNL     1     -17.319  12.247 -29.995  1.00  0.00     0.034 C 
BRANCH   5   6
ATOM      6  C   UNL     1     -16.097  11.704 -29.240  1.00  0.00    -0.077 C 
ATOM      7  C   UNL     1     -16.149  11.852 -27.734  1.00  0.00     0.039 C 
ATOM      8  C   UNL     1     -15.011  11.034 -29.727  1.00  0.00    -0.023 CG0
ATOM      9  G   UNL     1     -14.640  10.643 -31.145  1.00  0.00     0.000 G0
ENDBRANCH   5   6
ENDBRANCH   4   5
ENDBRANCH   2   4
BRANCH   1  10
ATOM     10  C   UNL     1     -14.563  14.105 -32.665  1.00  0.00     0.111 C 
BRANCH  10  11
ATOM     11  C   UNL     1     -14.703  12.615 -32.758  1.00  0.00     0.163 C 
ATOM     12  O   UNL     1     -15.499  12.128 -33.606  1.00  0.00    -0.294 OA
BRANCH  11  13
ATOM     13  C   UNL     1     -13.889  11.720 -31.895  1.00  0.00    -0.002 C 
ATOM     14  C   UNL     1     -12.539  11.880 -31.774  1.00  0.00    -0.069 C 
ATOM     15  C   UNL     1     -11.724  11.042 -30.816  1.00  0.00     0.039 C 
ATOM     16  C   UNL     1     -11.795  12.898 -32.609  1.00  0.00     0.039 C 
BRANCH  13  17
ATOM     17  C   UNL     1     -14.649  10.642 -31.152  1.00  0.00     0.066 CG0
ATOM     18  G   UNL     1     -14.993  11.062 -29.736  1.00  0.00     0.000 G0
ENDBRANCH  13  17
ENDBRANCH  11  13
ENDBRANCH  10  11
ENDBRANCH   1  10
TORSDOF 0
ENDMDL
MODEL 5
REMARK VINA RESULT:    -3.912      9.500     12.245
REMARK INTER + INTRA:          -5.409
REMARK INTER:                  -5.505
REMARK INTRA:                   0.096
REMARK UNBOUND:                 0.104
REMARK SMILES CC1=CCC(=C(C)C)C(=O)CC(C)=CCC1
REMARK SMILES IDX 12 1 14 2 13 3 15 4 16 5 2 6 1 7 3 8 11 10 9 11 10 12 5 13
REMARK SMILES IDX 6 14 7 15 8 16 4 17
REMARK H PARENT
REMARK Flexibility Score: 60.00
ROOT
ATOM      1  C   UNL     1     -24.261  19.460 -33.516  1.00  0.00    -0.070 C 
ATOM      2  C   UNL     1     -25.373  20.119 -33.950  1.00  0.00    -0.027 C 
ATOM      3  C   UNL     1     -23.058  20.310 -33.179  1.00  0.00     0.039 C 
ENDROOT
BRANCH   2   4
ATOM      4  C   UNL     1     -26.764  19.619 -34.321  1.00  0.00     0.032 C 
BRANCH   4   5
ATOM      5  C   UNL     1     -27.705  19.237 -33.171  1.00  0.00     0.034 C 
BRANCH   5   6
ATOM      6  C   UNL     1     -27.971  17.747 -32.914  1.00  0.00    -0.077 C 
ATOM      7  C   UNL     1     -28.953  17.091 -33.862  1.00  0.00     0.039 C 
ATOM      8  C   UNL     1     -27.388  16.913 -32.003  1.00  0.00    -0.023 CG0
ATOM      9  G   UNL     1     -26.333  17.179 -30.946  1.00  0.00     0.000 G0
ENDBRANCH   5   6
ENDBRANCH   4   5
ENDBRANCH   2   4
BRANCH   1  10
ATOM     10  C   UNL     1     -24.101  17.957 -33.345  1.00  0.00     0.111 C 
BRANCH  10  11
ATOM     11  C   UNL     1     -24.007  17.569 -31.900  1.00  0.00     0.163 C 
ATOM     12  O   UNL     1     -23.116  18.097 -31.181  1.00  0.00    -0.294 OA
BRANCH  11  13
ATOM     13  C   UNL     1     -24.974  16.608 -31.308  1.00  0.00    -0.002 C 
ATOM     14  C   UNL     1     -24.642  15.300 -31.099  1.00  0.00    -0.069 C 
ATOM     15  C   UNL     1     -25.583  14.347 -30.399  1.00  0.00     0.039 C 
ATOM     16  C   UNL     1     -23.320  14.744 -31.577  1.00  0.00     0.039 C 
BRANCH  13  17
ATOM     17  C   UNL     1     -26.328  17.172 -30.936  1.00  0.00     0.066 CG0
ATOM     18  G   UNL     1     -27.371  16.900 -32.003  1.00  0.00     0.000 G0
ENDBRANCH  13  17
ENDBRANCH  11  13
ENDBRANCH  10  11
ENDBRANCH   1  10
TORSDOF 0
ENDMDL
MODEL 6
REMARK VINA RESULT:    -3.904      1.845      4.130
REMARK INTER + INTRA:          -5.397
REMARK INTER:                  -6.037
REMARK INTRA:                   0.639
REMARK UNBOUND:                 0.104
REMARK SMILES CC1=CCC(=C(C)C)C(=O)CC(C)=CCC1
REMARK SMILES IDX 12 1 14 2 13 3 15 4 16 5 2 6 1 7 3 8 11 10 9 11 10 12 5 13
REMARK SMILES IDX 6 14 7 15 8 16 4 17
REMARK H PARENT
REMARK Flexibility Score: 60.00
ROOT
ATOM      1  C   UNL     1     -16.296  12.456 -32.534  1.00  0.00    -0.070 C 
ATOM      2  C   UNL     1     -17.525  12.235 -31.986  1.00  0.00    -0.027 C 
ATOM      3  C   UNL     1     -16.188  13.602 -33.514  1.00  0.00     0.039 C 
ENDROOT
BRANCH   2   4
ATOM      4  C   UNL     1     -17.999  11.231 -30.941  1.00  0.00     0.032 C 
BRANCH   4   5
ATOM      5  C   UNL     1     -18.050  11.705 -29.483  1.00  0.00     0.034 C 
BRANCH   5   6
ATOM      6  C   UNL     1     -16.734  11.785 -28.697  1.00  0.00    -0.077 C 
ATOM      7  C   UNL     1     -16.496  10.658 -27.714  1.00  0.00     0.039 C 
ATOM      8  C   UNL     1     -15.712  12.684 -28.818  1.00  0.00    -0.023 CG0
ATOM      9  G   UNL     1     -15.554  13.891 -29.723  1.00  0.00     0.000 G0
ENDBRANCH   5   6
ENDBRANCH   4   5
ENDBRANCH   2   4
BRANCH   1  10
ATOM     10  C   UNL     1     -15.024  11.666 -32.270  1.00  0.00     0.111 C 
BRANCH  10  11
ATOM     11  C   UNL     1     -14.206  12.278 -31.173  1.00  0.00     0.163 C 
ATOM     12  O   UNL     1     -13.294  11.594 -30.637  1.00  0.00    -0.294 OA
BRANCH  11  13
ATOM     13  C   UNL     1     -14.436  13.683 -30.748  1.00  0.00    -0.002 C 
ATOM     14  C   UNL     1     -13.715  14.715 -31.274  1.00  0.00    -0.069 C 
ATOM     15  C   UNL     1     -14.018  16.154 -30.924  1.00  0.00     0.039 C 
ATOM     16  C   UNL     1     -12.564  14.460 -32.222  1.00  0.00     0.039 C 
BRANCH  13  17
ATOM     17  C   UNL     1     -15.525  13.896 -29.718  1.00  0.00     0.066 CG0
ATOM     18  G   UNL     1     -15.719  12.678 -28.835  1.00  0.00     0.000 G0
ENDBRANCH  13  17
ENDBRANCH  11  13
ENDBRANCH  10  11
ENDBRANCH   1  10
TORSDOF 0
ENDMDL
MODEL 7
REMARK VINA RESULT:    -3.881      1.594      4.550
REMARK INTER + INTRA:          -5.366
REMARK INTER:                  -5.755
REMARK INTRA:                   0.389
REMARK UNBOUND:                 0.104
REMARK SMILES CC1=CCC(=C(C)C)C(=O)CC(C)=CCC1
REMARK SMILES IDX 12 1 14 2 13 3 15 4 16 5 2 6 1 7 3 8 11 10 9 11 10 12 5 13
REMARK SMILES IDX 6 14 7 15 8 16 4 17
REMARK H PARENT
REMARK Flexibility Score: 60.00
ROOT
ATOM      1  C   UNL     1     -13.788  10.795 -28.981  1.00  0.00    -0.070 C 
ATOM      2  C   UNL     1     -15.011  10.476 -28.469  1.00  0.00    -0.027 C 
ATOM      3  C   UNL     1     -12.693  11.094 -27.983  1.00  0.00     0.039 C 
ENDROOT
BRANCH   2   4
ATOM      4  C   UNL     1     -16.314  10.068 -29.146  1.00  0.00     0.032 C 
BRANCH   4   5
ATOM      5  C   UNL     1     -17.540  10.958 -28.905  1.00  0.00     0.034 C 
BRANCH   5   6
ATOM      6  C   UNL     1     -17.772  12.147 -29.848  1.00  0.00    -0.077 C 
ATOM      7  C   UNL     1     -19.157  12.233 -30.455  1.00  0.00     0.039 C 
ATOM      8  C   UNL     1     -16.934  13.182 -30.152  1.00  0.00    -0.023 CG0
ATOM      9  G   UNL     1     -15.517  13.477 -29.698  1.00  0.00     0.000 G0
ENDBRANCH   5   6
ENDBRANCH   4   5
ENDBRANCH   2   4
BRANCH   1  10
ATOM     10  C   UNL     1     -13.411  10.891 -30.451  1.00  0.00     0.111 C 
BRANCH  10  11
ATOM     11  C   UNL     1     -14.334  11.799 -31.205  1.00  0.00     0.163 C 
ATOM     12  O   UNL     1     -14.996  11.333 -32.171  1.00  0.00    -0.294 OA
BRANCH  11  13
ATOM     13  C   UNL     1     -14.502  13.219 -30.799  1.00  0.00    -0.002 C 
ATOM     14  C   UNL     1     -13.791  14.220 -31.395  1.00  0.00    -0.069 C 
ATOM     15  C   UNL     1     -14.037  15.674 -31.060  1.00  0.00     0.039 C 
ATOM     16  C   UNL     1     -12.711  13.915 -32.407  1.00  0.00     0.039 C 
BRANCH  13  17
ATOM     17  C   UNL     1     -15.517  13.482 -29.707  1.00  0.00     0.066 CG0
ATOM     18  G   UNL     1     -16.932  13.174 -30.158  1.00  0.00     0.000 G0
ENDBRANCH  13  17
ENDBRANCH  11  13
ENDBRANCH  10  11
ENDBRANCH   1  10
TORSDOF 0
ENDMDL
MODEL 8
REMARK VINA RESULT:    -3.863      1.601      3.840
REMARK INTER + INTRA:          -5.340
REMARK INTER:                  -5.635
REMARK INTRA:                   0.295
REMARK UNBOUND:                 0.104
REMARK SMILES CC1=CCC(=C(C)C)C(=O)CC(C)=CCC1
REMARK SMILES IDX 12 1 14 2 13 3 15 4 16 5 2 6 1 7 3 8 11 10 9 11 10 12 5 13
REMARK SMILES IDX 6 14 7 15 8 16 4 17
REMARK H PARENT
REMARK Flexibility Score: 60.00
ROOT
ATOM      1  C   UNL     1     -17.742  11.973 -30.618  1.00  0.00    -0.070 C 
ATOM      2  C   UNL     1     -17.408  10.781 -30.045  1.00  0.00    -0.027 C 
ATOM      3  C   UNL     1     -19.089  12.550 -30.246  1.00  0.00     0.039 C 
ENDROOT
BRANCH   2   4
ATOM      4  C   UNL     1     -16.142   9.938 -30.132  1.00  0.00     0.032 C 
BRANCH   4   5
ATOM      5  C   UNL     1     -15.175   9.996 -28.943  1.00  0.00     0.034 C 
BRANCH   5   6
ATOM      6  C   UNL     1     -13.750  10.513 -29.189  1.00  0.00    -0.077 C 
ATOM      7  C   UNL     1     -12.738  10.159 -28.120  1.00  0.00     0.039 C 
ATOM      8  C   UNL     1     -13.250  11.176 -30.274  1.00  0.00    -0.023 CG0
ATOM      9  G   UNL     1     -13.924  11.641 -31.551  1.00  0.00     0.000 G0
ENDBRANCH   5   6
ENDBRANCH   4   5
ENDBRANCH   2   4
BRANCH   1  10
ATOM     10  C   UNL     1     -16.906  12.779 -31.600  1.00  0.00     0.111 C 
BRANCH  10  11
ATOM     11  C   UNL     1     -15.689  13.362 -30.947  1.00  0.00     0.163 C 
ATOM     12  O   UNL     1     -15.829  14.054 -29.902  1.00  0.00    -0.294 OA
BRANCH  11  13
ATOM     13  C   UNL     1     -14.333  13.098 -31.494  1.00  0.00    -0.002 C 
ATOM     14  C   UNL     1     -13.514  14.115 -31.892  1.00  0.00    -0.069 C 
ATOM     15  C   UNL     1     -12.096  13.858 -32.347  1.00  0.00     0.039 C 
ATOM     16  C   UNL     1     -13.999  15.547 -31.910  1.00  0.00     0.039 C 
BRANCH  13  17
ATOM     17  C   UNL     1     -13.915  11.645 -31.561  1.00  0.00     0.066 CG0
ATOM     18  G   UNL     1     -13.257  11.182 -30.275  1.00  0.00     0.000 G0
ENDBRANCH  13  17
ENDBRANCH  11  13
ENDBRANCH  10  11
ENDBRANCH   1  10
TORSDOF 0
ENDMDL
MODEL 9
REMARK VINA RESULT:    -3.861      1.876      4.683
REMARK INTER + INTRA:          -5.337
REMARK INTER:                  -5.746
REMARK INTRA:                   0.409
REMARK UNBOUND:                 0.104
REMARK SMILES CC1=CCC(=C(C)C)C(=O)CC(C)=CCC1
REMARK SMILES IDX 12 1 14 2 13 3 15 4 16 5 2 6 1 7 3 8 11 10 9 11 10 12 5 13
REMARK SMILES IDX 6 14 7 15 8 16 4 17
REMARK H PARENT
REMARK Flexibility Score: 60.00
ROOT
ATOM      1  C   UNL     1     -15.369  10.965 -27.962  1.00  0.00    -0.070 C 
ATOM      2  C   UNL     1     -16.463  10.174 -28.151  1.00  0.00    -0.027 C 
ATOM      3  C   UNL     1     -14.728  10.920 -26.594  1.00  0.00     0.039 C 
ENDROOT
BRANCH   2   4
ATOM      4  C   UNL     1     -17.323   9.916 -29.382  1.00  0.00     0.032 C 
BRANCH   4   5
ATOM      5  C   UNL     1     -18.755  10.469 -29.369  1.00  0.00     0.034 C 
BRANCH   5   6
ATOM      6  C   UNL     1     -19.098  11.622 -30.323  1.00  0.00    -0.077 C 
ATOM      7  C   UNL     1     -20.465  12.241 -30.126  1.00  0.00     0.039 C 
ATOM      8  C   UNL     1     -18.313  12.221 -31.267  1.00  0.00    -0.023 CG0
ATOM      9  G   UNL     1     -16.889  11.932 -31.702  1.00  0.00     0.000 G0
ENDBRANCH   5   6
ENDBRANCH   4   5
ENDBRANCH   2   4
BRANCH   1  10
ATOM     10  C   UNL     1     -14.730  11.896 -28.981  1.00  0.00     0.111 C 
BRANCH  10  11
ATOM     11  C   UNL     1     -15.738  12.808 -29.612  1.00  0.00     0.163 C 
ATOM     12  O   UNL     1     -16.453  13.535 -28.870  1.00  0.00    -0.294 OA
BRANCH  11  13
ATOM     13  C   UNL     1     -15.870  12.889 -31.090  1.00  0.00    -0.002 C 
ATOM     14  C   UNL     1     -15.113  13.754 -31.827  1.00  0.00    -0.069 C 
ATOM     15  C   UNL     1     -15.167  13.763 -33.337  1.00  0.00     0.039 C 
ATOM     16  C   UNL     1     -14.197  14.754 -31.159  1.00  0.00     0.039 C 
BRANCH  13  17
ATOM     17  C   UNL     1     -16.873  11.947 -31.720  1.00  0.00     0.066 CG0
ATOM     18  G   UNL     1     -18.289  12.226 -31.252  1.00  0.00     0.000 G0
ENDBRANCH  13  17
ENDBRANCH  11  13
ENDBRANCH  10  11
ENDBRANCH   1  10
TORSDOF 0
ENDMDL
