MODEL 1
REMARK VINA RESULT:    -2.453      0.000      0.000
REMARK INTER + INTRA:          -2.453
REMARK INTER:                  -2.453
REMARK INTRA:                   0.000
REMARK UNBOUND:                 0.000
REMARK SMILES CC(=O)[O-]
REMARK SMILES IDX 1 1 2 2 3 3 4 4
REMARK H PARENT
REMARK Flexibility Score: inf
ROOT
ATOM      1  C   UNL     1      94.675 -59.055 104.254  1.00  0.00     0.063 C 
ATOM      2  C   UNL     1      93.794 -59.561 103.162  1.00  0.00     0.038 C 
ATOM      3  O   UNL     1      94.259 -60.330 102.281  1.00  0.00    -0.550 OA
ATOM      4  O   UNL     1      92.446 -59.227 103.146  1.00  0.00    -0.550 OA
ENDROOT
TORSDOF 0
ENDMDL
MODEL 2
REMARK VINA RESULT:    -2.439      0.094      1.619
REMARK INTER + INTRA:          -2.439
REMARK INTER:                  -2.439
REMARK INTRA:                   0.000
REMARK UNBOUND:                 0.000
REMARK SMILES CC(=O)[O-]
REMARK SMILES IDX 1 1 2 2 3 3 4 4
REMARK H PARENT
REMARK Flexibility Score: inf
ROOT
ATOM      1  C   UNL     1      94.675 -59.025 104.268  1.00  0.00     0.063 C 
ATOM      2  C   UNL     1      93.740 -59.527 103.220  1.00  0.00     0.038 C 
ATOM      3  O   UNL     1      92.531 -59.175 103.232  1.00  0.00    -0.550 OA
ATOM      4  O   UNL     1      94.211 -60.341 102.199  1.00  0.00    -0.550 OA
ENDROOT
TORSDOF 0
ENDMDL
MODEL 3
REMARK VINA RESULT:    -2.365      1.383      2.061
REMARK INTER + INTRA:          -2.365
REMARK INTER:                  -2.365
REMARK INTRA:                   0.000
REMARK UNBOUND:                 0.000
REMARK SMILES CC(=O)[O-]
REMARK SMILES IDX 1 1 2 2 3 3 4 4
REMARK H PARENT
REMARK Flexibility Score: inf
ROOT
ATOM      1  C   UNL     1      94.158 -60.680 102.449  1.00  0.00     0.063 C 
ATOM      2  C   UNL     1      93.666 -59.526 103.257  1.00  0.00     0.038 C 
ATOM      3  O   UNL     1      92.461 -59.173 103.183  1.00  0.00    -0.550 OA
ATOM      4  O   UNL     1      94.525 -58.873 104.132  1.00  0.00    -0.550 OA
ENDROOT
TORSDOF 0
ENDMDL
MODEL 4
REMARK VINA RESULT:    -2.349      1.347      1.671
REMARK INTER + INTRA:          -2.349
REMARK INTER:                  -2.349
REMARK INTRA:                   0.000
REMARK UNBOUND:                 0.000
REMARK SMILES CC(=O)[O-]
REMARK SMILES IDX 1 1 2 2 3 3 4 4
REMARK H PARENT
REMARK Flexibility Score: inf
ROOT
ATOM      1  C   UNL     1      94.265 -60.786 102.581  1.00  0.00     0.063 C 
ATOM      2  C   UNL     1      93.786 -59.579 103.314  1.00  0.00     0.038 C 
ATOM      3  O   UNL     1      94.581 -58.925 104.039  1.00  0.00    -0.550 OA
ATOM      4  O   UNL     1      92.477 -59.142 103.156  1.00  0.00    -0.550 OA
ENDROOT
TORSDOF 0
ENDMDL
MODEL 5
REMARK VINA RESULT:    -2.317      1.446      1.791
REMARK INTER + INTRA:          -2.317
REMARK INTER:                  -2.317
REMARK INTRA:                   0.000
REMARK UNBOUND:                 0.000
REMARK SMILES CC(=O)[O-]
REMARK SMILES IDX 1 1 2 2 3 3 4 4
REMARK H PARENT
REMARK Flexibility Score: inf
ROOT
ATOM      1  C   UNL     1      92.556 -59.203 102.912  1.00  0.00     0.063 C 
ATOM      2  C   UNL     1      93.947 -59.619 103.254  1.00  0.00     0.038 C 
ATOM      3  O   UNL     1      94.469 -60.609 102.678  1.00  0.00    -0.550 OA
ATOM      4  O   UNL     1      94.688 -58.883 104.169  1.00  0.00    -0.550 OA
ENDROOT
TORSDOF 0
ENDMDL
MODEL 6
REMARK VINA RESULT:    -2.296      2.594      3.259
REMARK INTER + INTRA:          -2.296
REMARK INTER:                  -2.296
REMARK INTRA:                   0.000
REMARK UNBOUND:                 0.000
REMARK SMILES CC(=O)[O-]
REMARK SMILES IDX 1 1 2 2 3 3 4 4
REMARK H PARENT
REMARK Flexibility Score: inf
ROOT
ATOM      1  C   UNL     1      92.438 -59.741 100.489  1.00  0.00     0.063 C 
ATOM      2  C   UNL     1      92.002 -58.784 101.547  1.00  0.00     0.038 C 
ATOM      3  O   UNL     1      91.308 -57.779 101.242  1.00  0.00    -0.550 OA
ATOM      4  O   UNL     1      92.316 -59.028 102.878  1.00  0.00    -0.550 OA
ENDROOT
TORSDOF 0
ENDMDL
MODEL 7
REMARK VINA RESULT:    -2.207      3.437      3.832
REMARK INTER + INTRA:          -2.207
REMARK INTER:                  -2.207
REMARK INTRA:                   0.000
REMARK UNBOUND:                 0.000
REMARK SMILES CC(=O)[O-]
REMARK SMILES IDX 1 1 2 2 3 3 4 4
REMARK H PARENT
REMARK Flexibility Score: inf
ROOT
ATOM      1  C   UNL     1      98.085 -60.155 105.599  1.00  0.00     0.063 C 
ATOM      2  C   UNL     1      96.705 -59.710 105.252  1.00  0.00     0.038 C 
ATOM      3  O   UNL     1      95.760 -60.541 105.234  1.00  0.00    -0.550 OA
ATOM      4  O   UNL     1      96.448 -58.368 105.002  1.00  0.00    -0.550 OA
ENDROOT
TORSDOF 0
ENDMDL
MODEL 8
REMARK VINA RESULT:    -2.145      2.773      2.996
REMARK INTER + INTRA:          -2.145
REMARK INTER:                  -2.145
REMARK INTRA:                   0.000
REMARK UNBOUND:                 0.000
REMARK SMILES CC(=O)[O-]
REMARK SMILES IDX 1 1 2 2 3 3 4 4
REMARK H PARENT
REMARK Flexibility Score: inf
ROOT
ATOM      1  C   UNL     1      95.649 -61.142 104.788  1.00  0.00     0.063 C 
ATOM      2  C   UNL     1      95.784 -59.657 104.801  1.00  0.00     0.038 C 
ATOM      3  O   UNL     1      96.839 -59.123 105.232  1.00  0.00    -0.550 OA
ATOM      4  O   UNL     1      94.768 -58.861 104.289  1.00  0.00    -0.550 OA
ENDROOT
TORSDOF 0
ENDMDL
MODEL 9
REMARK VINA RESULT:    -2.071      1.929      2.020
REMARK INTER + INTRA:          -2.071
REMARK INTER:                  -2.071
REMARK INTRA:                   0.000
REMARK UNBOUND:                 0.000
REMARK SMILES CC(=O)[O-]
REMARK SMILES IDX 1 1 2 2 3 3 4 4
REMARK H PARENT
REMARK Flexibility Score: inf
ROOT
ATOM      1  C   UNL     1      92.508 -59.187 102.855  1.00  0.00     0.063 C 
ATOM      2  C   UNL     1      93.148 -60.224 101.995  1.00  0.00     0.038 C 
ATOM      3  O   UNL     1      94.297 -60.655 102.275  1.00  0.00    -0.550 OA
ATOM      4  O   UNL     1      92.457 -60.754 100.913  1.00  0.00    -0.550 OA
ENDROOT
TORSDOF 0
ENDMDL
