MODEL 1
REMARK VINA RESULT:    22.907      0.000      0.000
REMARK INTER + INTRA:          34.402
REMARK INTER:                  33.620
REMARK INTRA:                   0.782
REMARK UNBOUND:                 0.782
REMARK SMILES O=c1c(O[C@H]2O[C@H](CO)[C@@H](O)[C@H](O)[C@@H]2O)c(-c2ccc(O)c(O)c2)oc2cc(O)cc(O)c12
REMARK SMILES IDX 4 1 3 2 16 3 25 4 2 5 26 6 1 7 33 8 27 9 31 10 28 11 30 12
REMARK SMILES IDX 17 13 18 14 19 15 20 16 24 17 22 18 21 19 23 21 32 23 29 25
REMARK SMILES IDX 5 27 14 28 6 29 12 30 7 31 10 32 15 33 13 35 8 37 9 38 11 40
REMARK H PARENT 21 20 23 22 32 24 29 26 15 34 13 36 9 39 11 41
REMARK Flexibility Score: inf
ROOT
ATOM      1  O   UNL     1      93.051  98.690  99.076  1.00  0.00    -0.454 OA
ENDROOT
BRANCH   1   2
ATOM      2  C   UNL     1      93.745  99.837  99.529  1.00  0.00     0.214 A 
ATOM      3  C   UNL     1      94.613 100.500  98.639  1.00  0.00     0.180 A 
ATOM      4  O   UNL     1      95.050 101.717  98.922  1.00  0.00    -0.452 OA
ATOM      5  C   UNL     1      93.535 100.410 100.794  1.00  0.00     0.239 A 
ATOM      6  C   UNL     1      94.749 102.358 100.042  1.00  0.00     0.146 A 
ATOM      7  O   UNL     1      92.937  99.751 101.691  1.00  0.00    -0.285 OA
ATOM      8  C   UNL     1      94.012 101.713 101.059  1.00  0.00     0.111 A 
ATOM      9  C   UNL     1      95.198 103.674 100.226  1.00  0.00     0.094 A 
ATOM     10  C   UNL     1      93.685 102.422 102.236  1.00  0.00     0.134 A 
ATOM     11  C   UNL     1      94.902 104.360 101.409  1.00  0.00     0.123 A 
ATOM     12  C   UNL     1      94.160 103.735 102.413  1.00  0.00     0.093 A 
BRANCH   3  13
ATOM     13  C   UNL     1      94.989  99.927  97.336  1.00  0.00     0.025 A 
ATOM     14  C   UNL     1      94.036  99.876  96.303  1.00  0.00     0.016 A 
ATOM     15  C   UNL     1      94.286  99.112  95.153  1.00  0.00     0.051 A 
ATOM     16  C   UNL     1      95.486  98.394  95.020  1.00  0.00     0.157 A 
ATOM     17  C   UNL     1      96.207  99.244  97.177  1.00  0.00     0.062 A 
ATOM     18  C   UNL     1      96.462  98.494  96.020  1.00  0.00     0.158 A 
BRANCH  16  19
ATOM     19  O   UNL     1      95.702  97.554  93.921  1.00  0.00    -0.504 OA
ATOM     20  H   UNL     1      95.145  97.646  93.076  1.00  0.00     0.293 HD
ENDBRANCH  16  19
BRANCH  18  21
ATOM     21  O   UNL     1      97.667  97.806  95.882  1.00  0.00    -0.504 OA
ATOM     22  H   UNL     1      98.528  98.306  95.702  1.00  0.00     0.293 HD
ENDBRANCH  18  21
ENDBRANCH   3  13
BRANCH  10  23
ATOM     23  O   UNL     1      92.885 101.847 103.219  1.00  0.00    -0.507 OA
ATOM     24  H   UNL     1      92.444 100.945 103.088  1.00  0.00     0.293 HD
ENDBRANCH  10  23
BRANCH  11  25
ATOM     25  O   UNL     1      95.393 105.656 101.590  1.00  0.00    -0.508 OA
ATOM     26  H   UNL     1      96.234 105.972 101.125  1.00  0.00     0.293 HD
ENDBRANCH  11  25
ENDBRANCH   1   2
BRANCH   1  27
ATOM     27  C   UNL     1      93.469  97.318  99.225  1.00  0.00     0.339 C 
ATOM     28  C   UNL     1      95.046  97.262  99.317  1.00  0.00     0.214 C 
ATOM     29  O   UNL     1      92.926  96.481  98.201  1.00  0.00    -0.332 OA
ATOM     30  C   UNL     1      95.780  96.204  98.380  1.00  0.00     0.180 C 
ATOM     31  C   UNL     1      93.703  96.561  97.028  1.00  0.00     0.179 C 
ATOM     32  C   UNL     1      94.899  95.637  97.234  1.00  0.00     0.177 C 
BRANCH  28  33
ATOM     33  O   UNL     1      95.435  97.129 100.672  1.00  0.00    -0.384 OA
ATOM     34  H   UNL     1      95.093  96.245 100.993  1.00  0.00     0.211 HD
ENDBRANCH  28  33
BRANCH  30  35
ATOM     35  O   UNL     1      96.296  95.135  99.134  1.00  0.00    -0.387 OA
ATOM     36  H   UNL     1      95.675  95.028  99.905  1.00  0.00     0.211 HD
ENDBRANCH  30  35
BRANCH  31  37
ATOM     37  C   UNL     1      92.876  96.309  95.749  1.00  0.00     0.191 C 
BRANCH  37  38
ATOM     38  O   UNL     1      93.546  95.470  94.846  1.00  0.00    -0.394 OA
ATOM     39  H   UNL     1      94.470  95.842  94.870  1.00  0.00     0.210 HD
ENDBRANCH  37  38
ENDBRANCH  31  37
BRANCH  32  40
ATOM     40  O   UNL     1      95.630  95.558  96.036  1.00  0.00    -0.387 OA
ATOM     41  H   UNL     1      95.969  94.628  95.952  1.00  0.00     0.211 HD
ENDBRANCH  32  40
ENDBRANCH   1  27
TORSDOF 12
ENDMDL
MODEL 2
REMARK VINA RESULT:    23.539      1.386      2.045
REMARK INTER + INTRA:          35.329
REMARK INTER:                  33.055
REMARK INTRA:                   2.275
REMARK UNBOUND:                 0.782
REMARK SMILES O=c1c(O[C@H]2O[C@H](CO)[C@@H](O)[C@H](O)[C@@H]2O)c(-c2ccc(O)c(O)c2)oc2cc(O)cc(O)c12
REMARK SMILES IDX 4 1 3 2 16 3 25 4 2 5 26 6 1 7 33 8 27 9 31 10 28 11 30 12
REMARK SMILES IDX 17 13 18 14 19 15 20 16 24 17 22 18 21 19 23 21 32 23 29 25
REMARK SMILES IDX 5 27 14 28 6 29 12 30 7 31 10 32 15 33 13 35 8 37 9 38 11 40
REMARK H PARENT 21 20 23 22 32 24 29 26 15 34 13 36 9 39 11 41
REMARK Flexibility Score: inf
ROOT
ATOM      1  O   UNL     1      94.965  97.936  99.659  1.00  0.00    -0.454 OA
ENDROOT
BRANCH   1   2
ATOM      2  C   UNL     1      95.086  99.328  99.884  1.00  0.00     0.214 A 
ATOM      3  C   UNL     1      95.552 100.146  98.836  1.00  0.00     0.180 A 
ATOM      4  O   UNL     1      95.408 101.460  98.907  1.00  0.00    -0.452 OA
ATOM      5  C   UNL     1      94.667  99.951 101.071  1.00  0.00     0.239 A 
ATOM      6  C   UNL     1      94.875 102.080  99.950  1.00  0.00     0.146 A 
ATOM      7  O   UNL     1      94.441  99.255 102.101  1.00  0.00    -0.285 OA
ATOM      8  C   UNL     1      94.521 101.356 101.109  1.00  0.00     0.111 A 
ATOM      9  C   UNL     1      94.696 103.471  99.908  1.00  0.00     0.094 A 
ATOM     10  C   UNL     1      93.935 102.035 102.201  1.00  0.00     0.134 A 
ATOM     11  C   UNL     1      94.149 104.144 101.006  1.00  0.00     0.123 A 
ATOM     12  C   UNL     1      93.781 103.432 102.150  1.00  0.00     0.093 A 
BRANCH   3  13
ATOM     13  C   UNL     1      96.119  99.589  97.597  1.00  0.00     0.025 A 
ATOM     14  C   UNL     1      96.083 100.354  96.417  1.00  0.00     0.016 A 
ATOM     15  C   UNL     1      96.378  99.755  95.182  1.00  0.00     0.051 A 
ATOM     16  C   UNL     1      96.711  98.393  95.112  1.00  0.00     0.157 A 
ATOM     17  C   UNL     1      96.498  98.238  97.525  1.00  0.00     0.062 A 
ATOM     18  C   UNL     1      96.807  97.646  96.292  1.00  0.00     0.158 A 
BRANCH  16  19
ATOM     19  O   UNL     1      96.912  97.767  93.875  1.00  0.00    -0.504 OA
ATOM     20  H   UNL     1      97.701  98.017  93.286  1.00  0.00     0.293 HD
ENDBRANCH  16  19
BRANCH  18  21
ATOM     21  O   UNL     1      97.164  96.299  96.232  1.00  0.00    -0.504 OA
ATOM     22  H   UNL     1      97.318  95.767  97.078  1.00  0.00     0.293 HD
ENDBRANCH  18  21
ENDBRANCH   3  13
BRANCH  10  23
ATOM     23  O   UNL     1      93.493 101.339 103.321  1.00  0.00    -0.507 OA
ATOM     24  H   UNL     1      94.069 100.642 103.780  1.00  0.00     0.293 HD
ENDBRANCH  10  23
BRANCH  11  25
ATOM     25  O   UNL     1      94.017 105.534 100.961  1.00  0.00    -0.508 OA
ATOM     26  H   UNL     1      94.792 106.131 100.702  1.00  0.00     0.293 HD
ENDBRANCH  11  25
ENDBRANCH   1   2
BRANCH   1  27
ATOM     27  C   UNL     1      93.841  97.255  99.067  1.00  0.00     0.339 C 
ATOM     28  C   UNL     1      94.368  96.134  98.086  1.00  0.00     0.214 C 
ATOM     29  O   UNL     1      92.928  98.169  98.452  1.00  0.00    -0.332 OA
ATOM     30  C   UNL     1      93.721  96.092  96.632  1.00  0.00     0.180 C 
ATOM     31  C   UNL     1      93.365  98.514  97.158  1.00  0.00     0.179 C 
ATOM     32  C   UNL     1      92.942  97.375  96.236  1.00  0.00     0.177 C 
BRANCH  28  33
ATOM     33  O   UNL     1      94.304  94.875  98.731  1.00  0.00    -0.384 OA
ATOM     34  H   UNL     1      94.081  94.195  98.032  1.00  0.00     0.211 HD
ENDBRANCH  28  33
BRANCH  30  35
ATOM     35  O   UNL     1      92.875  94.978  96.489  1.00  0.00    -0.387 OA
ATOM     36  H   UNL     1      91.949  95.344  96.486  1.00  0.00     0.211 HD
ENDBRANCH  30  35
BRANCH  31  37
ATOM     37  C   UNL     1      92.906  99.926  96.732  1.00  0.00     0.191 C 
BRANCH  37  38
ATOM     38  O   UNL     1      92.980 100.105  95.342  1.00  0.00    -0.394 OA
ATOM     39  H   UNL     1      92.971  99.165  95.014  1.00  0.00     0.210 HD
ENDBRANCH  37  38
ENDBRANCH  31  37
BRANCH  32  40
ATOM     40  O   UNL     1      93.216  97.735  94.905  1.00  0.00    -0.387 OA
ATOM     41  H   UNL     1      93.714  98.594  94.923  1.00  0.00     0.211 HD
ENDBRANCH  32  40
ENDBRANCH   1  27
TORSDOF 12
ENDMDL
MODEL 3
REMARK VINA RESULT:    23.840      1.905      8.213
REMARK INTER + INTRA:          35.772
REMARK INTER:                  31.954
REMARK INTRA:                   3.818
REMARK UNBOUND:                 0.782
REMARK SMILES O=c1c(O[C@H]2O[C@H](CO)[C@@H](O)[C@H](O)[C@@H]2O)c(-c2ccc(O)c(O)c2)oc2cc(O)cc(O)c12
REMARK SMILES IDX 4 1 3 2 16 3 25 4 2 5 26 6 1 7 33 8 27 9 31 10 28 11 30 12
REMARK SMILES IDX 17 13 18 14 19 15 20 16 24 17 22 18 21 19 23 21 32 23 29 25
REMARK SMILES IDX 5 27 14 28 6 29 12 30 7 31 10 32 15 33 13 35 8 37 9 38 11 40
REMARK H PARENT 21 20 23 22 32 24 29 26 15 34 13 36 9 39 11 41
REMARK Flexibility Score: inf
ROOT
ATOM      1  O   UNL     1      94.826 102.630  99.171  1.00  0.00    -0.454 OA
ENDROOT
BRANCH   1   2
ATOM      2  C   UNL     1      94.679 101.234  98.993  1.00  0.00     0.214 A 
ATOM      3  C   UNL     1      93.903 100.510  99.919  1.00  0.00     0.180 A 
ATOM      4  O   UNL     1      93.508  99.278  99.634  1.00  0.00    -0.452 OA
ATOM      5  C   UNL     1      95.186 100.547  97.878  1.00  0.00     0.239 A 
ATOM      6  C   UNL     1      93.840  98.646  98.517  1.00  0.00     0.146 A 
ATOM      7  O   UNL     1      96.051 101.099  97.139  1.00  0.00    -0.285 OA
ATOM      8  C   UNL     1      94.740  99.235  97.603  1.00  0.00     0.111 A 
ATOM      9  C   UNL     1      93.317  97.369  98.267  1.00  0.00     0.094 A 
ATOM     10  C   UNL     1      95.063  98.552  96.409  1.00  0.00     0.134 A 
ATOM     11  C   UNL     1      93.670  96.681  97.101  1.00  0.00     0.123 A 
ATOM     12  C   UNL     1      94.546  97.264  96.182  1.00  0.00     0.093 A 
BRANCH   3  13
ATOM     13  C   UNL     1      93.420 101.106 101.175  1.00  0.00     0.025 A 
ATOM     14  C   UNL     1      93.091 102.473 101.209  1.00  0.00     0.016 A 
ATOM     15  C   UNL     1      92.878 103.115 102.439  1.00  0.00     0.051 A 
ATOM     16  C   UNL     1      92.991 102.403 103.644  1.00  0.00     0.157 A 
ATOM     17  C   UNL     1      93.486 100.389 102.381  1.00  0.00     0.062 A 
ATOM     18  C   UNL     1      93.259 101.028 103.608  1.00  0.00     0.158 A 
BRANCH  16  19
ATOM     19  O   UNL     1      92.876 103.056 104.877  1.00  0.00    -0.504 OA
ATOM     20  H   UNL     1      93.579 103.723 105.182  1.00  0.00     0.293 HD
ENDBRANCH  16  19
BRANCH  18  21
ATOM     21  O   UNL     1      93.344 100.309 104.800  1.00  0.00    -0.504 OA
ATOM     22  H   UNL     1      94.109 100.465 105.443  1.00  0.00     0.293 HD
ENDBRANCH  18  21
ENDBRANCH   3  13
BRANCH  10  23
ATOM     23  O   UNL     1      95.875  99.141  95.445  1.00  0.00    -0.507 OA
ATOM     24  H   UNL     1      96.322 100.038  95.598  1.00  0.00     0.293 HD
ENDBRANCH  10  23
BRANCH  11  25
ATOM     25  O   UNL     1      93.171  95.393  96.888  1.00  0.00    -0.508 OA
ATOM     26  H   UNL     1      93.371  94.882  96.038  1.00  0.00     0.293 HD
ENDBRANCH  11  25
ENDBRANCH   1   2
BRANCH   1  27
ATOM     27  C   UNL     1      95.874 103.298  99.902  1.00  0.00     0.339 C 
ATOM     28  C   UNL     1      95.245 104.058 101.136  1.00  0.00     0.214 C 
ATOM     29  O   UNL     1      96.663 104.137  99.055  1.00  0.00    -0.332 OA
ATOM     30  C   UNL     1      95.680 105.576 101.340  1.00  0.00     0.180 C 
ATOM     31  C   UNL     1      96.038 105.386  98.869  1.00  0.00     0.179 C 
ATOM     32  C   UNL     1      96.359 106.224 100.102  1.00  0.00     0.177 C 
BRANCH  28  33
ATOM     33  O   UNL     1      95.436 103.290 102.311  1.00  0.00    -0.384 OA
ATOM     34  H   UNL     1      94.742 103.579 102.970  1.00  0.00     0.211 HD
ENDBRANCH  28  33
BRANCH  30  35
ATOM     35  O   UNL     1      96.529 105.712 102.453  1.00  0.00    -0.387 OA
ATOM     36  H   UNL     1      96.197 105.056 103.124  1.00  0.00     0.211 HD
ENDBRANCH  30  35
BRANCH  31  37
ATOM     37  C   UNL     1      96.391 106.031  97.511  1.00  0.00     0.191 C 
BRANCH  37  38
ATOM     38  O   UNL     1      95.952 107.361  97.432  1.00  0.00    -0.394 OA
ATOM     39  H   UNL     1      96.767 107.863  97.706  1.00  0.00     0.210 HD
ENDBRANCH  37  38
ENDBRANCH  31  37
BRANCH  32  40
ATOM     40  O   UNL     1      95.889 107.533  99.904  1.00  0.00    -0.387 OA
ATOM     41  H   UNL     1      95.244 107.734 100.632  1.00  0.00     0.211 HD
ENDBRANCH  32  40
ENDBRANCH   1  27
TORSDOF 12
ENDMDL
MODEL 4
REMARK VINA RESULT:    24.150      1.886      6.613
REMARK INTER + INTRA:          36.226
REMARK INTER:                  32.692
REMARK INTRA:                   3.534
REMARK UNBOUND:                 0.782
REMARK SMILES O=c1c(O[C@H]2O[C@H](CO)[C@@H](O)[C@H](O)[C@@H]2O)c(-c2ccc(O)c(O)c2)oc2cc(O)cc(O)c12
REMARK SMILES IDX 4 1 3 2 16 3 25 4 2 5 26 6 1 7 33 8 27 9 31 10 28 11 30 12
REMARK SMILES IDX 17 13 18 14 19 15 20 16 24 17 22 18 21 19 23 21 32 23 29 25
REMARK SMILES IDX 5 27 14 28 6 29 12 30 7 31 10 32 15 33 13 35 8 37 9 38 11 40
REMARK H PARENT 21 20 23 22 32 24 29 26 15 34 13 36 9 39 11 41
REMARK Flexibility Score: inf
ROOT
ATOM      1  O   UNL     1      93.196  99.491  99.814  1.00  0.00    -0.454 OA
ENDROOT
BRANCH   1   2
ATOM      2  C   UNL     1      93.867  99.293  98.584  1.00  0.00     0.214 A 
ATOM      3  C   UNL     1      94.721 100.305  98.106  1.00  0.00     0.180 A 
ATOM      4  O   UNL     1      95.574 100.046  97.126  1.00  0.00    -0.452 OA
ATOM      5  C   UNL     1      93.802  98.089  97.862  1.00  0.00     0.239 A 
ATOM      6  C   UNL     1      95.650  98.871  96.518  1.00  0.00     0.146 A 
ATOM      7  O   UNL     1      92.903  97.243  98.131  1.00  0.00    -0.285 OA
ATOM      8  C   UNL     1      94.730  97.845  96.826  1.00  0.00     0.111 A 
ATOM      9  C   UNL     1      96.634  98.664  95.540  1.00  0.00     0.094 A 
ATOM     10  C   UNL     1      94.844  96.593  96.180  1.00  0.00     0.134 A 
ATOM     11  C   UNL     1      96.719  97.435  94.876  1.00  0.00     0.123 A 
ATOM     12  C   UNL     1      95.823  96.409  95.187  1.00  0.00     0.093 A 
BRANCH   3  13
ATOM     13  C   UNL     1      94.777 101.641  98.721  1.00  0.00     0.025 A 
ATOM     14  C   UNL     1      95.966 102.389  98.641  1.00  0.00     0.016 A 
ATOM     15  C   UNL     1      96.128 103.539  99.429  1.00  0.00     0.051 A 
ATOM     16  C   UNL     1      95.110 103.954 100.302  1.00  0.00     0.157 A 
ATOM     17  C   UNL     1      93.744 102.088  99.561  1.00  0.00     0.062 A 
ATOM     18  C   UNL     1      93.902 103.246 100.337  1.00  0.00     0.158 A 
BRANCH  16  19
ATOM     19  O   UNL     1      95.301 105.043 101.161  1.00  0.00    -0.504 OA
ATOM     20  H   UNL     1      94.558 105.361 101.775  1.00  0.00     0.293 HD
ENDBRANCH  16  19
BRANCH  18  21
ATOM     21  O   UNL     1      92.876 103.670 101.180  1.00  0.00    -0.504 OA
ATOM     22  H   UNL     1      92.284 104.449 100.922  1.00  0.00     0.293 HD
ENDBRANCH  18  21
ENDBRANCH   3  13
BRANCH  10  23
ATOM     23  O   UNL     1      94.011  95.533  96.524  1.00  0.00    -0.507 OA
ATOM     24  H   UNL     1      93.073  95.683  96.877  1.00  0.00     0.293 HD
ENDBRANCH  10  23
BRANCH  11  25
ATOM     25  O   UNL     1      97.678  97.261  93.876  1.00  0.00    -0.508 OA
ATOM     26  H   UNL     1      97.868  96.351  93.478  1.00  0.00     0.293 HD
ENDBRANCH  11  25
ENDBRANCH   1   2
BRANCH   1  27
ATOM     27  C   UNL     1      93.776  99.413 101.132  1.00  0.00     0.339 C 
ATOM     28  C   UNL     1      93.937 100.871 101.717  1.00  0.00     0.214 C 
ATOM     29  O   UNL     1      94.990  98.658 101.135  1.00  0.00    -0.332 OA
ATOM     30  C   UNL     1      95.355 101.239 102.343  1.00  0.00     0.180 C 
ATOM     31  C   UNL     1      96.077  99.461 100.736  1.00  0.00     0.179 C 
ATOM     32  C   UNL     1      96.501 100.263 101.961  1.00  0.00     0.177 C 
BRANCH  28  33
ATOM     33  O   UNL     1      92.876 101.139 102.616  1.00  0.00    -0.384 OA
ATOM     34  H   UNL     1      92.198 100.414 102.498  1.00  0.00     0.211 HD
ENDBRANCH  28  33
BRANCH  30  35
ATOM     35  O   UNL     1      95.278 101.332 103.745  1.00  0.00    -0.387 OA
ATOM     36  H   UNL     1      94.796 100.512 104.040  1.00  0.00     0.211 HD
ENDBRANCH  30  35
BRANCH  31  37
ATOM     37  C   UNL     1      97.197  98.648 100.049  1.00  0.00     0.191 C 
BRANCH  37  38
ATOM     38  O   UNL     1      98.187  99.477  99.501  1.00  0.00    -0.394 OA
ATOM     39  H   UNL     1      97.709 100.347  99.431  1.00  0.00     0.210 HD
ENDBRANCH  37  38
ENDBRANCH  31  37
BRANCH  32  40
ATOM     40  O   UNL     1      97.679 100.970 101.664  1.00  0.00    -0.387 OA
ATOM     41  H   UNL     1      97.442 101.932 101.597  1.00  0.00     0.211 HD
ENDBRANCH  32  40
ENDBRANCH   1  27
TORSDOF 12
ENDMDL
MODEL 5
REMARK VINA RESULT:    25.776      1.803      4.144
REMARK INTER + INTRA:          38.614
REMARK INTER:                  34.305
REMARK INTRA:                   4.309
REMARK UNBOUND:                 0.782
REMARK SMILES O=c1c(O[C@H]2O[C@H](CO)[C@@H](O)[C@H](O)[C@@H]2O)c(-c2ccc(O)c(O)c2)oc2cc(O)cc(O)c12
REMARK SMILES IDX 4 1 3 2 16 3 25 4 2 5 26 6 1 7 33 8 27 9 31 10 28 11 30 12
REMARK SMILES IDX 17 13 18 14 19 15 20 16 24 17 22 18 21 19 23 21 32 23 29 25
REMARK SMILES IDX 5 27 14 28 6 29 12 30 7 31 10 32 15 33 13 35 8 37 9 38 11 40
REMARK H PARENT 21 20 23 22 32 24 29 26 15 34 13 36 9 39 11 41
REMARK Flexibility Score: inf
ROOT
ATOM      1  O   UNL     1      95.956  99.635  97.383  1.00  0.00    -0.454 OA
ENDROOT
BRANCH   1   2
ATOM      2  C   UNL     1      95.397 100.656  98.188  1.00  0.00     0.214 A 
ATOM      3  C   UNL     1      94.428 100.307  99.149  1.00  0.00     0.180 A 
ATOM      4  O   UNL     1      94.098 101.167 100.100  1.00  0.00    -0.452 OA
ATOM      5  C   UNL     1      95.834 101.990  98.147  1.00  0.00     0.239 A 
ATOM      6  C   UNL     1      94.605 102.389 100.187  1.00  0.00     0.146 A 
ATOM      7  O   UNL     1      96.538 102.391  97.177  1.00  0.00    -0.285 OA
ATOM      8  C   UNL     1      95.465 102.879  99.181  1.00  0.00     0.111 A 
ATOM      9  C   UNL     1      94.251 103.206 101.270  1.00  0.00     0.094 A 
ATOM     10  C   UNL     1      96.010 104.177  99.304  1.00  0.00     0.134 A 
ATOM     11  C   UNL     1      94.764 104.504 101.369  1.00  0.00     0.123 A 
ATOM     12  C   UNL     1      95.630 104.991 100.386  1.00  0.00     0.093 A 
BRANCH   3  13
ATOM     13  C   UNL     1      93.821  98.967  99.202  1.00  0.00     0.025 A 
ATOM     14  C   UNL     1      93.332  98.479 100.427  1.00  0.00     0.016 A 
ATOM     15  C   UNL     1      92.988  97.124 100.558  1.00  0.00     0.051 A 
ATOM     16  C   UNL     1      93.127  96.246  99.471  1.00  0.00     0.157 A 
ATOM     17  C   UNL     1      93.913  98.093  98.106  1.00  0.00     0.062 A 
ATOM     18  C   UNL     1      93.555  96.743  98.234  1.00  0.00     0.158 A 
BRANCH  16  19
ATOM     19  O   UNL     1      92.878  94.876  99.620  1.00  0.00    -0.504 OA
ATOM     20  H   UNL     1      92.242  94.390  98.995  1.00  0.00     0.293 HD
ENDBRANCH  16  19
BRANCH  18  21
ATOM     21  O   UNL     1      93.668  95.882  97.144  1.00  0.00    -0.504 OA
ATOM     22  H   UNL     1      92.843  95.541  96.667  1.00  0.00     0.293 HD
ENDBRANCH  18  21
ENDBRANCH   3  13
BRANCH  10  23
ATOM     23  O   UNL     1      96.931 104.657  98.379  1.00  0.00    -0.507 OA
ATOM     24  H   UNL     1      97.720 105.229  98.657  1.00  0.00     0.293 HD
ENDBRANCH  10  23
BRANCH  11  25
ATOM     25  O   UNL     1      94.369 105.318 102.434  1.00  0.00    -0.508 OA
ATOM     26  H   UNL     1      94.533 106.316 102.425  1.00  0.00     0.293 HD
ENDBRANCH  11  25
ENDBRANCH   1   2
BRANCH   1  27
ATOM     27  C   UNL     1      95.632  99.352  96.007  1.00  0.00     0.339 C 
ATOM     28  C   UNL     1      94.229  98.628  95.941  1.00  0.00     0.214 C 
ATOM     29  O   UNL     1      96.678  98.632  95.350  1.00  0.00    -0.332 OA
ATOM     30  C   UNL     1      94.145  97.307  95.056  1.00  0.00     0.180 C 
ATOM     31  C   UNL     1      96.583  97.253  95.626  1.00  0.00     0.179 C 
ATOM     32  C   UNL     1      95.522  96.691  94.685  1.00  0.00     0.177 C 
BRANCH  28  33
ATOM     33  O   UNL     1      93.230  99.567  95.585  1.00  0.00    -0.384 OA
ATOM     34  H   UNL     1      92.417  99.049  95.319  1.00  0.00     0.211 HD
ENDBRANCH  28  33
BRANCH  30  35
ATOM     35  O   UNL     1      93.412  97.534  93.878  1.00  0.00    -0.387 OA
ATOM     36  H   UNL     1      92.504  97.811  94.178  1.00  0.00     0.211 HD
ENDBRANCH  30  35
BRANCH  31  37
ATOM     37  C   UNL     1      97.954  96.543  95.589  1.00  0.00     0.191 C 
BRANCH  37  38
ATOM     38  O   UNL     1      98.442  96.412  94.280  1.00  0.00    -0.394 OA
ATOM     39  H   UNL     1      97.947  97.134  93.804  1.00  0.00     0.210 HD
ENDBRANCH  37  38
ENDBRANCH  31  37
BRANCH  32  40
ATOM     40  O   UNL     1      95.493  95.292  94.809  1.00  0.00    -0.387 OA
ATOM     41  H   UNL     1      96.022  94.913  94.058  1.00  0.00     0.211 HD
ENDBRANCH  32  40
ENDBRANCH   1  27
TORSDOF 12
ENDMDL
