MODEL 1
REMARK VINA RESULT:    -1.216      0.000      0.000
REMARK INTER + INTRA:          -1.634
REMARK INTER:                  -2.317
REMARK INTRA:                   0.683
REMARK UNBOUND:                 0.683
REMARK SMILES C[C@H]1O[C@@H](O[C@H]2[C@H](O)[C@@H](OCCc3ccc(O)c(O)c3)O[C@@H](CO)[C@@H]2OC(=O)C=Cc2ccc(O)c(O)c2)[C@H](O)[C@@H](O)[C@H]1O
REMARK SMILES IDX 6 1 7 2 9 3 21 4 22 5 25 6 5 7 4 8 1 9 2 10 43 11 3 12 41 13
REMARK SMILES IDX 39 14 44 15 42 17 40 19 8 21 26 23 27 24 28 25 29 26 30 27
REMARK SMILES IDX 31 28 38 29 32 30 36 31 33 32 34 33 37 34 35 36 10 38 11 39
REMARK SMILES IDX 12 40 13 41 20 42 14 43 18 44 15 45 16 46 19 47 17 49 23 51
REMARK SMILES IDX 24 52
REMARK H PARENT 44 16 42 18 40 20 8 22 37 35 35 37 19 48 17 50 24 53
REMARK Flexibility Score: inf
ROOT
ATOM      1  C   UNL     1      20.313  10.946  -5.026  1.00  0.00     0.199 C 
ATOM      2  C   UNL     1      20.392  10.528  -6.509  1.00  0.00     0.203 C 
ATOM      3  C   UNL     1      20.584   9.008  -6.678  1.00  0.00     0.282 C 
ATOM      4  O   UNL     1      19.592   8.264  -5.993  1.00  0.00    -0.340 OA
ATOM      5  C   UNL     1      19.554   8.522  -4.581  1.00  0.00     0.190 C 
ATOM      6  C   UNL     1      19.326  10.029  -4.246  1.00  0.00     0.240 C 
ENDROOT
BRANCH   1   7
ATOM      7  O   UNL     1      21.615  10.902  -4.479  1.00  0.00    -0.340 OA
BRANCH   7   8
ATOM      8  C   UNL     1      21.864  11.919  -3.513  1.00  0.00     0.282 C 
ATOM      9  C   UNL     1      23.951  11.905  -5.872  1.00  0.00     0.041 C 
ATOM     10  C   UNL     1      24.059  11.994  -4.350  1.00  0.00     0.150 C 
ATOM     11  C   UNL     1      24.430  10.728  -3.481  1.00  0.00     0.174 C 
ATOM     12  O   UNL     1      22.964  12.736  -3.846  1.00  0.00    -0.344 OA
ATOM     13  C   UNL     1      23.476  10.434  -2.232  1.00  0.00     0.179 C 
ATOM     14  C   UNL     1      22.156  11.239  -2.187  1.00  0.00     0.202 C 
BRANCH  11  15
ATOM     15  O   UNL     1      24.788   9.566  -4.222  1.00  0.00    -0.388 OA
ATOM     16  H   UNL     1      25.149   9.957  -5.084  1.00  0.00     0.211 HD
ENDBRANCH  11  15
BRANCH  13  17
ATOM     17  O   UNL     1      23.210   9.025  -2.083  1.00  0.00    -0.387 OA
ATOM     18  H   UNL     1      23.709   8.688  -1.275  1.00  0.00     0.211 HD
ENDBRANCH  13  17
BRANCH  14  19
ATOM     19  O   UNL     1      22.259  12.213  -1.181  1.00  0.00    -0.385 OA
ATOM     20  H   UNL     1      22.395  11.721  -0.325  1.00  0.00     0.211 HD
ENDBRANCH  14  19
ENDBRANCH   7   8
ENDBRANCH   1   7
BRANCH   2  21
ATOM     21  O   UNL     1      19.166  10.844  -7.125  1.00  0.00    -0.385 OA
ATOM     22  H   UNL     1      18.448  10.603  -6.509  1.00  0.00     0.211 HD
ENDBRANCH   2  21
BRANCH   6  23
ATOM     23  O   UNL     1      17.985  10.316  -4.637  1.00  0.00    -0.453 OA
BRANCH  23  24
ATOM     24  C   UNL     1      17.443  11.589  -4.871  1.00  0.00     0.331 C 
ATOM     25  O   UNL     1      18.164  12.624  -4.816  1.00  0.00    -0.247 OA
BRANCH  24  26
ATOM     26  C   UNL     1      16.073  11.675  -5.389  1.00  0.00     0.094 C 
ATOM     27  C   UNL     1      15.061  11.070  -4.761  1.00  0.00     0.016 C 
BRANCH  27  28
ATOM     28  C   UNL     1      13.644  11.137  -5.183  1.00  0.00    -0.021 A 
ATOM     29  C   UNL     1      12.794  12.180  -4.777  1.00  0.00     0.058 A 
ATOM     30  C   UNL     1      13.130  10.086  -5.957  1.00  0.00     0.012 A 
ATOM     31  C   UNL     1      11.442  12.182  -5.163  1.00  0.00     0.157 A 
ATOM     32  C   UNL     1      11.791  10.102  -6.362  1.00  0.00     0.051 A 
ATOM     33  C   UNL     1      10.955  11.145  -5.965  1.00  0.00     0.157 A 
BRANCH  31  34
ATOM     34  O   UNL     1      10.595  13.215  -4.749  1.00  0.00    -0.504 OA
ATOM     35  H   UNL     1      10.374  13.400  -3.775  1.00  0.00     0.293 HD
ENDBRANCH  31  34
BRANCH  33  36
ATOM     36  O   UNL     1       9.612  11.135  -6.356  1.00  0.00    -0.504 OA
ATOM     37  H   UNL     1       8.990  10.393  -6.095  1.00  0.00     0.293 HD
ENDBRANCH  33  36
ENDBRANCH  27  28
ENDBRANCH  24  26
ENDBRANCH  23  24
ENDBRANCH   6  23
BRANCH   3  38
ATOM     38  O   UNL     1      21.859   8.480  -6.270  1.00  0.00    -0.350 OA
BRANCH  38  39
ATOM     39  C   UNL     1      22.945   8.944  -7.025  1.00  0.00     0.168 C 
BRANCH  39  40
ATOM     40  C   UNL     1      24.103   7.940  -7.078  1.00  0.00     0.064 C 
BRANCH  40  41
ATOM     41  C   UNL     1      25.425   8.673  -7.040  1.00  0.00    -0.042 A 
ATOM     42  C   UNL     1      26.654   7.970  -7.013  1.00  0.00     0.054 A 
ATOM     43  C   UNL     1      25.427  10.051  -6.956  1.00  0.00     0.008 A 
ATOM     44  C   UNL     1      27.865   8.676  -6.994  1.00  0.00     0.157 A 
ATOM     45  C   UNL     1      26.635  10.769  -6.966  1.00  0.00     0.050 A 
ATOM     46  C   UNL     1      27.857  10.075  -7.022  1.00  0.00     0.157 A 
BRANCH  44  47
ATOM     47  O   UNL     1      29.061   7.940  -6.980  1.00  0.00    -0.504 OA
ATOM     48  H   UNL     1      29.307   7.252  -6.276  1.00  0.00     0.293 HD
ENDBRANCH  44  47
BRANCH  46  49
ATOM     49  O   UNL     1      29.023  10.822  -7.125  1.00  0.00    -0.504 OA
ATOM     50  H   UNL     1      29.414  11.085  -8.019  1.00  0.00     0.293 HD
ENDBRANCH  46  49
ENDBRANCH  40  41
ENDBRANCH  39  40
ENDBRANCH  38  39
ENDBRANCH   3  38
BRANCH   5  51
ATOM     51  C   UNL     1      20.702   7.875  -3.748  1.00  0.00     0.192 C 
BRANCH  51  52
ATOM     52  O   UNL     1      20.545   8.239  -2.401  1.00  0.00    -0.394 OA
ATOM     53  H   UNL     1      19.793   7.721  -2.011  1.00  0.00     0.210 HD
ENDBRANCH  51  52
ENDBRANCH   5  51
TORSDOF 20
ENDMDL
MODEL 2
REMARK VINA RESULT:     0.604      1.433      2.405
REMARK INTER + INTRA:           1.834
REMARK INTER:                   0.125
REMARK INTRA:                   1.709
REMARK UNBOUND:                 0.683
REMARK SMILES C[C@H]1O[C@@H](O[C@H]2[C@H](O)[C@@H](OCCc3ccc(O)c(O)c3)O[C@@H](CO)[C@@H]2OC(=O)C=Cc2ccc(O)c(O)c2)[C@H](O)[C@@H](O)[C@H]1O
REMARK SMILES IDX 6 1 7 2 9 3 21 4 22 5 25 6 5 7 4 8 1 9 2 10 43 11 3 12 41 13
REMARK SMILES IDX 39 14 44 15 42 17 40 19 8 21 26 23 27 24 28 25 29 26 30 27
REMARK SMILES IDX 31 28 38 29 32 30 36 31 33 32 34 33 37 34 35 36 10 38 11 39
REMARK SMILES IDX 12 40 13 41 20 42 14 43 18 44 15 45 16 46 19 47 17 49 23 51
REMARK SMILES IDX 24 52
REMARK H PARENT 44 16 42 18 40 20 8 22 37 35 35 37 19 48 17 50 24 53
REMARK Flexibility Score: inf
ROOT
ATOM      1  C   UNL     1      19.801  11.673  -4.842  1.00  0.00     0.199 C 
ATOM      2  C   UNL     1      20.395  12.112  -6.196  1.00  0.00     0.203 C 
ATOM      3  C   UNL     1      21.046  10.939  -6.956  1.00  0.00     0.282 C 
ATOM      4  O   UNL     1      20.156   9.850  -7.122  1.00  0.00    -0.340 OA
ATOM      5  C   UNL     1      19.663   9.317  -5.882  1.00  0.00     0.190 C 
ATOM      6  C   UNL     1      18.938  10.388  -5.009  1.00  0.00     0.240 C 
ENDROOT
BRANCH   1   7
ATOM      7  O   UNL     1      20.861  11.478  -3.929  1.00  0.00    -0.340 OA
BRANCH   7   8
ATOM      8  C   UNL     1      20.674  10.361  -3.064  1.00  0.00     0.282 C 
ATOM      9  C   UNL     1      20.346  13.134  -1.606  1.00  0.00     0.041 C 
ATOM     10  C   UNL     1      21.088  11.838  -1.283  1.00  0.00     0.150 C 
ATOM     11  C   UNL     1      22.641  11.700  -1.535  1.00  0.00     0.174 C 
ATOM     12  O   UNL     1      20.331  10.736  -1.748  1.00  0.00    -0.344 OA
ATOM     13  C   UNL     1      23.107  10.399  -2.340  1.00  0.00     0.179 C 
ATOM     14  C   UNL     1      21.978   9.586  -3.017  1.00  0.00     0.202 C 
BRANCH  11  15
ATOM     15  O   UNL     1      23.300  12.897  -1.940  1.00  0.00    -0.388 OA
ATOM     16  H   UNL     1      24.041  12.983  -1.254  1.00  0.00     0.211 HD
ENDBRANCH  11  15
BRANCH  13  17
ATOM     17  O   UNL     1      24.147  10.703  -3.290  1.00  0.00    -0.387 OA
ATOM     18  H   UNL     1      23.759  10.656  -4.218  1.00  0.00     0.211 HD
ENDBRANCH  13  17
BRANCH  14  19
ATOM     19  O   UNL     1      21.784   8.399  -2.293  1.00  0.00    -0.385 OA
ATOM     20  H   UNL     1      21.412   8.666  -1.407  1.00  0.00     0.211 HD
ENDBRANCH  14  19
ENDBRANCH   7   8
ENDBRANCH   1   7
BRANCH   2  21
ATOM     21  O   UNL     1      19.346  12.579  -7.011  1.00  0.00    -0.385 OA
ATOM     22  H   UNL     1      18.886  11.804  -7.383  1.00  0.00     0.211 HD
ENDBRANCH   2  21
BRANCH   6  23
ATOM     23  O   UNL     1      17.729  10.701  -5.699  1.00  0.00    -0.453 OA
BRANCH  23  24
ATOM     24  C   UNL     1      16.773  11.651  -5.310  1.00  0.00     0.331 C 
ATOM     25  O   UNL     1      17.120  12.751  -4.798  1.00  0.00    -0.247 OA
BRANCH  24  26
ATOM     26  C   UNL     1      15.377  11.431  -5.704  1.00  0.00     0.094 C 
ATOM     27  C   UNL     1      14.420  11.278  -4.787  1.00  0.00     0.016 C 
BRANCH  27  28
ATOM     28  C   UNL     1      12.982  11.096  -5.087  1.00  0.00    -0.021 A 
ATOM     29  C   UNL     1      12.096  12.183  -5.178  1.00  0.00     0.058 A 
ATOM     30  C   UNL     1      12.489   9.789  -5.219  1.00  0.00     0.012 A 
ATOM     31  C   UNL     1      10.728  11.964  -5.421  1.00  0.00     0.157 A 
ATOM     32  C   UNL     1      11.133   9.573  -5.485  1.00  0.00     0.051 A 
ATOM     33  C   UNL     1      10.261  10.656  -5.585  1.00  0.00     0.157 A 
BRANCH  31  34
ATOM     34  O   UNL     1       9.846  13.046  -5.500  1.00  0.00    -0.504 OA
ATOM     35  H   UNL     1       9.898  13.758  -6.222  1.00  0.00     0.293 HD
ENDBRANCH  31  34
BRANCH  33  36
ATOM     36  O   UNL     1       8.903  10.423  -5.828  1.00  0.00    -0.504 OA
ATOM     37  H   UNL     1       8.584   9.970  -6.663  1.00  0.00     0.293 HD
ENDBRANCH  33  36
ENDBRANCH  27  28
ENDBRANCH  24  26
ENDBRANCH  23  24
ENDBRANCH   6  23
BRANCH   3  38
ATOM     38  O   UNL     1      22.256  10.407  -6.387  1.00  0.00    -0.350 OA
BRANCH  38  39
ATOM     39  C   UNL     1      23.415  10.696  -7.120  1.00  0.00     0.168 C 
BRANCH  39  40
ATOM     40  C   UNL     1      24.458  11.467  -6.302  1.00  0.00     0.064 C 
BRANCH  40  41
ATOM     41  C   UNL     1      25.574  10.538  -5.880  1.00  0.00    -0.042 A 
ATOM     42  C   UNL     1      26.855  11.036  -5.542  1.00  0.00     0.054 A 
ATOM     43  C   UNL     1      25.356   9.175  -5.898  1.00  0.00     0.008 A 
ATOM     44  C   UNL     1      27.866  10.152  -5.139  1.00  0.00     0.157 A 
ATOM     45  C   UNL     1      26.353   8.282  -5.469  1.00  0.00     0.050 A 
ATOM     46  C   UNL     1      27.601   8.781  -5.054  1.00  0.00     0.157 A 
BRANCH  44  47
ATOM     47  O   UNL     1      29.120  10.688  -4.801  1.00  0.00    -0.504 OA
ATOM     48  H   UNL     1      29.899  10.784  -5.443  1.00  0.00     0.293 HD
ENDBRANCH  44  47
BRANCH  46  49
ATOM     49  O   UNL     1      28.525   7.876  -4.549  1.00  0.00    -0.504 OA
ATOM     50  H   UNL     1      29.393   7.673  -5.025  1.00  0.00     0.293 HD
ENDBRANCH  46  49
ENDBRANCH  40  41
ENDBRANCH  39  40
ENDBRANCH  38  39
ENDBRANCH   3  38
BRANCH   5  51
ATOM     51  C   UNL     1      20.674   8.448  -5.075  1.00  0.00     0.192 C 
BRANCH  51  52
ATOM     52  O   UNL     1      21.736   8.085  -5.919  1.00  0.00    -0.394 OA
ATOM     53  H   UNL     1      21.380   7.908  -6.829  1.00  0.00     0.210 HD
ENDBRANCH  51  52
ENDBRANCH   5  51
TORSDOF 20
ENDMDL
MODEL 3
REMARK VINA RESULT:     0.632      2.427      5.588
REMARK INTER + INTRA:           1.886
REMARK INTER:                  -0.494
REMARK INTRA:                   2.380
REMARK UNBOUND:                 0.683
REMARK SMILES C[C@H]1O[C@@H](O[C@H]2[C@H](O)[C@@H](OCCc3ccc(O)c(O)c3)O[C@@H](CO)[C@@H]2OC(=O)C=Cc2ccc(O)c(O)c2)[C@H](O)[C@@H](O)[C@H]1O
REMARK SMILES IDX 6 1 7 2 9 3 21 4 22 5 25 6 5 7 4 8 1 9 2 10 43 11 3 12 41 13
REMARK SMILES IDX 39 14 44 15 42 17 40 19 8 21 26 23 27 24 28 25 29 26 30 27
REMARK SMILES IDX 31 28 38 29 32 30 36 31 33 32 34 33 37 34 35 36 10 38 11 39
REMARK SMILES IDX 12 40 13 41 20 42 14 43 18 44 15 45 16 46 19 47 17 49 23 51
REMARK SMILES IDX 24 52
REMARK H PARENT 44 16 42 18 40 20 8 22 37 35 35 37 19 48 17 50 24 53
REMARK Flexibility Score: inf
ROOT
ATOM      1  C   UNL     1      23.772  11.735  -3.382  1.00  0.00     0.199 C 
ATOM      2  C   UNL     1      23.216  12.347  -4.685  1.00  0.00     0.203 C 
ATOM      3  C   UNL     1      22.134  11.459  -5.331  1.00  0.00     0.282 C 
ATOM      4  O   UNL     1      21.087  11.150  -4.429  1.00  0.00    -0.340 OA
ATOM      5  C   UNL     1      21.531  10.466  -3.247  1.00  0.00     0.190 C 
ATOM      6  C   UNL     1      22.612  11.264  -2.455  1.00  0.00     0.240 C 
ENDROOT
BRANCH   1   7
ATOM      7  O   UNL     1      24.638  10.671  -3.720  1.00  0.00    -0.340 OA
BRANCH   7   8
ATOM      8  C   UNL     1      25.314  10.856  -4.961  1.00  0.00     0.282 C 
ATOM      9  C   UNL     1      24.092   7.973  -4.627  1.00  0.00     0.041 C 
ATOM     10  C   UNL     1      25.444   8.513  -5.089  1.00  0.00     0.150 C 
ATOM     11  C   UNL     1      26.691   8.533  -4.120  1.00  0.00     0.174 C 
ATOM     12  O   UNL     1      25.248   9.723  -5.797  1.00  0.00    -0.344 OA
ATOM     13  C   UNL     1      27.479   9.921  -4.023  1.00  0.00     0.179 C 
ATOM     14  C   UNL     1      26.773  11.143  -4.656  1.00  0.00     0.202 C 
BRANCH  11  15
ATOM     15  O   UNL     1      26.495   7.890  -2.865  1.00  0.00    -0.388 OA
ATOM     16  H   UNL     1      27.260   8.254  -2.309  1.00  0.00     0.211 HD
ENDBRANCH  11  15
BRANCH  13  17
ATOM     17  O   UNL     1      27.878  10.215  -2.669  1.00  0.00    -0.387 OA
ATOM     18  H   UNL     1      28.044  11.206  -2.592  1.00  0.00     0.211 HD
ENDBRANCH  13  17
BRANCH  14  19
ATOM     19  O   UNL     1      27.436  11.477  -5.847  1.00  0.00    -0.385 OA
ATOM     20  H   UNL     1      26.749  11.873  -6.452  1.00  0.00     0.211 HD
ENDBRANCH  14  19
ENDBRANCH   7   8
ENDBRANCH   1   7
BRANCH   2  21
ATOM     21  O   UNL     1      22.592  13.569  -4.370  1.00  0.00    -0.385 OA
ATOM     22  H   UNL     1      21.846  13.380  -3.769  1.00  0.00     0.211 HD
ENDBRANCH   2  21
BRANCH   6  23
ATOM     23  O   UNL     1      21.938  12.396  -1.908  1.00  0.00    -0.453 OA
BRANCH  23  24
ATOM     24  C   UNL     1      20.753  12.374  -1.158  1.00  0.00     0.331 C 
ATOM     25  O   UNL     1      20.733  12.768   0.041  1.00  0.00    -0.247 OA
BRANCH  24  26
ATOM     26  C   UNL     1      19.496  12.086  -1.858  1.00  0.00     0.094 C 
ATOM     27  C   UNL     1      18.357  12.683  -1.500  1.00  0.00     0.016 C 
BRANCH  27  28
ATOM     28  C   UNL     1      17.053  12.490  -2.173  1.00  0.00    -0.021 A 
ATOM     29  C   UNL     1      15.835  12.779  -1.535  1.00  0.00     0.058 A 
ATOM     30  C   UNL     1      17.045  11.940  -3.464  1.00  0.00     0.012 A 
ATOM     31  C   UNL     1      14.616  12.539  -2.194  1.00  0.00     0.157 A 
ATOM     32  C   UNL     1      15.833  11.725  -4.129  1.00  0.00     0.051 A 
ATOM     33  C   UNL     1      14.628  12.023  -3.494  1.00  0.00     0.157 A 
BRANCH  31  34
ATOM     34  O   UNL     1      13.404  12.816  -1.554  1.00  0.00    -0.504 OA
ATOM     35  H   UNL     1      12.580  12.227  -1.638  1.00  0.00     0.293 HD
ENDBRANCH  31  34
BRANCH  33  36
ATOM     36  O   UNL     1      13.423  11.780  -4.162  1.00  0.00    -0.504 OA
ATOM     37  H   UNL     1      12.628  12.382  -4.057  1.00  0.00     0.293 HD
ENDBRANCH  33  36
ENDBRANCH  27  28
ENDBRANCH  24  26
ENDBRANCH  23  24
ENDBRANCH   6  23
BRANCH   3  38
ATOM     38  O   UNL     1      22.586  10.212  -5.891  1.00  0.00    -0.350 OA
BRANCH  38  39
ATOM     39  C   UNL     1      21.988   9.878  -7.113  1.00  0.00     0.168 C 
BRANCH  39  40
ATOM     40  C   UNL     1      20.574   9.307  -6.945  1.00  0.00     0.064 C 
BRANCH  40  41
ATOM     41  C   UNL     1      19.561  10.429  -6.940  1.00  0.00    -0.042 A 
ATOM     42  C   UNL     1      19.966  11.786  -6.949  1.00  0.00     0.054 A 
ATOM     43  C   UNL     1      18.218  10.121  -6.848  1.00  0.00     0.008 A 
ATOM     44  C   UNL     1      19.004  12.805  -6.959  1.00  0.00     0.157 A 
ATOM     45  C   UNL     1      17.244  11.135  -6.886  1.00  0.00     0.050 A 
ATOM     46  C   UNL     1      17.644  12.479  -6.979  1.00  0.00     0.157 A 
BRANCH  44  47
ATOM     47  O   UNL     1      19.450  14.137  -6.982  1.00  0.00    -0.504 OA
ATOM     48  H   UNL     1      19.141  14.838  -7.647  1.00  0.00     0.293 HD
ENDBRANCH  44  47
BRANCH  46  49
ATOM     49  O   UNL     1      16.651  13.442  -7.110  1.00  0.00    -0.504 OA
ATOM     50  H   UNL     1      16.739  14.362  -6.700  1.00  0.00     0.293 HD
ENDBRANCH  46  49
ENDBRANCH  40  41
ENDBRANCH  39  40
ENDBRANCH  38  39
ENDBRANCH   3  38
BRANCH   5  51
ATOM     51  C   UNL     1      21.894   8.962  -3.437  1.00  0.00     0.192 C 
BRANCH  51  52
ATOM     52  O   UNL     1      20.749   8.185  -3.197  1.00  0.00    -0.394 OA
ATOM     53  H   UNL     1      20.920   7.255  -3.501  1.00  0.00     0.210 HD
ENDBRANCH  51  52
ENDBRANCH   5  51
TORSDOF 20
ENDMDL
MODEL 4
REMARK VINA RESULT:     1.099      2.616      5.887
REMARK INTER + INTRA:           2.777
REMARK INTER:                   1.054
REMARK INTRA:                   1.723
REMARK UNBOUND:                 0.683
REMARK SMILES C[C@H]1O[C@@H](O[C@H]2[C@H](O)[C@@H](OCCc3ccc(O)c(O)c3)O[C@@H](CO)[C@@H]2OC(=O)C=Cc2ccc(O)c(O)c2)[C@H](O)[C@@H](O)[C@H]1O
REMARK SMILES IDX 6 1 7 2 9 3 21 4 22 5 25 6 5 7 4 8 1 9 2 10 43 11 3 12 41 13
REMARK SMILES IDX 39 14 44 15 42 17 40 19 8 21 26 23 27 24 28 25 29 26 30 27
REMARK SMILES IDX 31 28 38 29 32 30 36 31 33 32 34 33 37 34 35 36 10 38 11 39
REMARK SMILES IDX 12 40 13 41 20 42 14 43 18 44 15 45 16 46 19 47 17 49 23 51
REMARK SMILES IDX 24 52
REMARK H PARENT 44 16 42 18 40 20 8 22 37 35 35 37 19 48 17 50 24 53
REMARK Flexibility Score: inf
ROOT
ATOM      1  C   UNL     1      24.048  11.662  -3.718  1.00  0.00     0.199 C 
ATOM      2  C   UNL     1      23.420  12.151  -5.040  1.00  0.00     0.203 C 
ATOM      3  C   UNL     1      22.343  11.182  -5.569  1.00  0.00     0.282 C 
ATOM      4  O   UNL     1      21.344  10.914  -4.601  1.00  0.00    -0.340 OA
ATOM      5  C   UNL     1      21.858  10.341  -3.389  1.00  0.00     0.190 C 
ATOM      6  C   UNL     1      22.943  11.232  -2.709  1.00  0.00     0.240 C 
ENDROOT
BRANCH   1   7
ATOM      7  O   UNL     1      24.935  10.601  -4.009  1.00  0.00    -0.340 OA
BRANCH   7   8
ATOM      8  C   UNL     1      25.673  10.786  -5.213  1.00  0.00     0.282 C 
ATOM      9  C   UNL     1      24.507   7.877  -4.902  1.00  0.00     0.041 C 
ATOM     10  C   UNL     1      25.869   8.445  -5.298  1.00  0.00     0.150 C 
ATOM     11  C   UNL     1      27.060   8.512  -4.263  1.00  0.00     0.174 C 
ATOM     12  O   UNL     1      25.681   9.640  -6.034  1.00  0.00    -0.344 OA
ATOM     13  C   UNL     1      27.806   9.921  -4.145  1.00  0.00     0.179 C 
ATOM     14  C   UNL     1      27.105  11.115  -4.834  1.00  0.00     0.202 C 
BRANCH  11  15
ATOM     15  O   UNL     1      26.811   7.882  -3.010  1.00  0.00    -0.388 OA
ATOM     16  H   UNL     1      27.746   7.737  -2.647  1.00  0.00     0.211 HD
ENDBRANCH  11  15
BRANCH  13  17
ATOM     17  O   UNL     1      28.122  10.245  -2.776  1.00  0.00    -0.387 OA
ATOM     18  H   UNL     1      27.421  10.878  -2.426  1.00  0.00     0.211 HD
ENDBRANCH  13  17
BRANCH  14  19
ATOM     19  O   UNL     1      27.824  11.450  -5.992  1.00  0.00    -0.385 OA
ATOM     20  H   UNL     1      27.167  11.849  -6.627  1.00  0.00     0.211 HD
ENDBRANCH  14  19
ENDBRANCH   7   8
ENDBRANCH   1   7
BRANCH   2  21
ATOM     21  O   UNL     1      22.768  13.374  -4.796  1.00  0.00    -0.385 OA
ATOM     22  H   UNL     1      22.485  13.384  -3.862  1.00  0.00     0.211 HD
ENDBRANCH   2  21
BRANCH   6  23
ATOM     23  O   UNL     1      22.254  12.383  -2.224  1.00  0.00    -0.453 OA
BRANCH  23  24
ATOM     24  C   UNL     1      21.557  12.483  -1.011  1.00  0.00     0.331 C 
ATOM     25  O   UNL     1      22.158  12.755   0.065  1.00  0.00    -0.247 OA
BRANCH  24  26
ATOM     26  C   UNL     1      20.090  12.478  -1.052  1.00  0.00     0.094 C 
ATOM     27  C   UNL     1      19.435  12.475  -2.215  1.00  0.00     0.016 C 
BRANCH  27  28
ATOM     28  C   UNL     1      17.962  12.425  -2.356  1.00  0.00    -0.021 A 
ATOM     29  C   UNL     1      17.341  11.981  -3.536  1.00  0.00     0.058 A 
ATOM     30  C   UNL     1      17.175  12.900  -1.296  1.00  0.00     0.012 A 
ATOM     31  C   UNL     1      15.939  11.992  -3.645  1.00  0.00     0.157 A 
ATOM     32  C   UNL     1      15.780  12.887  -1.396  1.00  0.00     0.051 A 
ATOM     33  C   UNL     1      15.169  12.435  -2.565  1.00  0.00     0.157 A 
BRANCH  31  34
ATOM     34  O   UNL     1      15.322  11.561  -4.824  1.00  0.00    -0.504 OA
ATOM     35  H   UNL     1      14.316  11.555  -4.958  1.00  0.00     0.293 HD
ENDBRANCH  31  34
BRANCH  33  36
ATOM     36  O   UNL     1      13.773  12.451  -2.659  1.00  0.00    -0.504 OA
ATOM     37  H   UNL     1      13.272  13.266  -2.959  1.00  0.00     0.293 HD
ENDBRANCH  33  36
ENDBRANCH  27  28
ENDBRANCH  24  26
ENDBRANCH  23  24
ENDBRANCH   6  23
BRANCH   3  38
ATOM     38  O   UNL     1      22.814   9.909  -6.047  1.00  0.00    -0.350 OA
BRANCH  38  39
ATOM     39  C   UNL     1      22.070   9.382  -7.112  1.00  0.00     0.168 C 
BRANCH  39  40
ATOM     40  C   UNL     1      20.665   8.934  -6.689  1.00  0.00     0.064 C 
BRANCH  40  41
ATOM     41  C   UNL     1      19.688  10.078  -6.849  1.00  0.00    -0.042 A 
ATOM     42  C   UNL     1      18.292   9.849  -6.903  1.00  0.00     0.054 A 
ATOM     43  C   UNL     1      20.175  11.358  -7.019  1.00  0.00     0.008 A 
ATOM     44  C   UNL     1      17.409  10.929  -7.036  1.00  0.00     0.157 A 
ATOM     45  C   UNL     1      19.298  12.452  -7.125  1.00  0.00     0.050 A 
ATOM     46  C   UNL     1      17.909  12.235  -7.095  1.00  0.00     0.157 A 
BRANCH  44  47
ATOM     47  O   UNL     1      16.032  10.659  -7.073  1.00  0.00    -0.504 OA
ATOM     48  H   UNL     1      15.436  10.808  -7.880  1.00  0.00     0.293 HD
ENDBRANCH  44  47
BRANCH  46  49
ATOM     49  O   UNL     1      17.079  13.348  -7.107  1.00  0.00    -0.504 OA
ATOM     50  H   UNL     1      16.333  13.468  -6.436  1.00  0.00     0.293 HD
ENDBRANCH  46  49
ENDBRANCH  40  41
ENDBRANCH  39  40
ENDBRANCH  38  39
ENDBRANCH   3  38
BRANCH   5  51
ATOM     51  C   UNL     1      22.263   8.838  -3.476  1.00  0.00     0.192 C 
BRANCH  51  52
ATOM     52  O   UNL     1      21.122   8.047  -3.264  1.00  0.00    -0.394 OA
ATOM     53  H   UNL     1      20.609   7.986  -4.111  1.00  0.00     0.210 HD
ENDBRANCH  51  52
ENDBRANCH   5  51
TORSDOF 20
ENDMDL
