MODEL 1
REMARK VINA RESULT:    -0.670      0.000      0.000
REMARK INTER + INTRA:          -0.670
REMARK INTER:                  -0.670
REMARK INTRA:                   0.000
REMARK UNBOUND:                 0.000
REMARK SMILES CC(=O)[O-]
REMARK SMILES IDX 1 1 2 2 3 3 4 4
REMARK H PARENT
REMARK Flexibility Score: inf
ROOT
ATOM      1  C   UNL     1      -6.890  -1.001 -15.234  1.00  0.00     0.063 C 
ATOM      2  C   UNL     1      -7.270  -1.005 -16.675  1.00  0.00     0.038 C 
ATOM      3  O   UNL     1      -7.991  -1.928 -17.135  1.00  0.00    -0.550 OA
ATOM      4  O   UNL     1      -6.875   0.038 -17.503  1.00  0.00    -0.550 OA
ENDROOT
TORSDOF 0
ENDMDL
MODEL 2
REMARK VINA RESULT:    -0.657      1.395      1.770
REMARK INTER + INTRA:          -0.657
REMARK INTER:                  -0.657
REMARK INTRA:                   0.000
REMARK UNBOUND:                 0.000
REMARK SMILES CC(=O)[O-]
REMARK SMILES IDX 1 1 2 2 3 3 4 4
REMARK H PARENT
REMARK Flexibility Score: inf
ROOT
ATOM      1  C   UNL     1      -6.875   0.033 -17.466  1.00  0.00     0.063 C 
ATOM      2  C   UNL     1      -7.304  -1.035 -16.519  1.00  0.00     0.038 C 
ATOM      3  O   UNL     1      -8.004  -1.998 -16.927  1.00  0.00    -0.550 OA
ATOM      4  O   UNL     1      -6.886  -1.000 -15.195  1.00  0.00    -0.550 OA
ENDROOT
TORSDOF 0
ENDMDL
MODEL 3
REMARK VINA RESULT:    -0.261      4.815      5.367
REMARK INTER + INTRA:          -0.261
REMARK INTER:                  -0.261
REMARK INTRA:                   0.000
REMARK UNBOUND:                 0.000
REMARK SMILES CC(=O)[O-]
REMARK SMILES IDX 1 1 2 2 3 3 4 4
REMARK H PARENT
REMARK Flexibility Score: inf
ROOT
ATOM      1  C   UNL     1     -12.385   0.986 -17.395  1.00  0.00     0.063 C 
ATOM      2  C   UNL     1     -12.116  -0.452 -17.680  1.00  0.00     0.038 C 
ATOM      3  O   UNL     1     -11.139  -0.780 -18.403  1.00  0.00    -0.550 OA
ATOM      4  O   UNL     1     -12.910  -1.436 -17.107  1.00  0.00    -0.550 OA
ENDROOT
TORSDOF 0
ENDMDL
MODEL 4
REMARK VINA RESULT:    -0.153      1.406      2.096
REMARK INTER + INTRA:          -0.153
REMARK INTER:                  -0.153
REMARK INTRA:                   0.000
REMARK UNBOUND:                 0.000
REMARK SMILES CC(=O)[O-]
REMARK SMILES IDX 1 1 2 2 3 3 4 4
REMARK H PARENT
REMARK Flexibility Score: inf
ROOT
ATOM      1  C   UNL     1      -8.037  -2.102 -17.127  1.00  0.00     0.063 C 
ATOM      2  C   UNL     1      -7.228  -1.002 -16.529  1.00  0.00     0.038 C 
ATOM      3  O   UNL     1      -6.875  -0.022 -17.235  1.00  0.00    -0.550 OA
ATOM      4  O   UNL     1      -6.906  -1.030 -15.178  1.00  0.00    -0.550 OA
ENDROOT
TORSDOF 0
ENDMDL
MODEL 5
REMARK VINA RESULT:     0.249      5.074      5.306
REMARK INTER + INTRA:           0.249
REMARK INTER:                   0.249
REMARK INTRA:                   0.000
REMARK UNBOUND:                 0.000
REMARK SMILES CC(=O)[O-]
REMARK SMILES IDX 1 1 2 2 3 3 4 4
REMARK H PARENT
REMARK Flexibility Score: inf
ROOT
ATOM      1  C   UNL     1     -13.147  -1.091 -16.852  1.00  0.00     0.063 C 
ATOM      2  C   UNL     1     -12.196  -0.168 -17.535  1.00  0.00     0.038 C 
ATOM      3  O   UNL     1     -11.273  -0.632 -18.253  1.00  0.00    -0.550 OA
ATOM      4  O   UNL     1     -12.359   1.207 -17.424  1.00  0.00    -0.550 OA
ENDROOT
TORSDOF 0
ENDMDL
MODEL 6
REMARK VINA RESULT:     0.408      5.178      5.363
REMARK INTER + INTRA:           0.408
REMARK INTER:                   0.408
REMARK INTRA:                   0.000
REMARK UNBOUND:                 0.000
REMARK SMILES CC(=O)[O-]
REMARK SMILES IDX 1 1 2 2 3 3 4 4
REMARK H PARENT
REMARK Flexibility Score: inf
ROOT
ATOM      1  C   UNL     1     -11.303  -0.790 -18.332  1.00  0.00     0.063 C 
ATOM      2  C   UNL     1     -12.314  -0.127 -17.460  1.00  0.00     0.038 C 
ATOM      3  O   UNL     1     -13.075  -0.819 -16.735  1.00  0.00    -0.550 OA
ATOM      4  O   UNL     1     -12.384   1.259 -17.404  1.00  0.00    -0.550 OA
ENDROOT
TORSDOF 0
ENDMDL
MODEL 7
REMARK VINA RESULT:     1.795     19.908     20.159
REMARK INTER + INTRA:           1.795
REMARK INTER:                   1.795
REMARK INTRA:                   0.000
REMARK UNBOUND:                 0.000
REMARK SMILES CC(=O)[O-]
REMARK SMILES IDX 1 1 2 2 3 3 4 4
REMARK H PARENT
REMARK Flexibility Score: inf
ROOT
ATOM      1  C   UNL     1     -24.131   6.142 -22.654  1.00  0.00     0.063 C 
ATOM      2  C   UNL     1     -24.377   6.618 -24.045  1.00  0.00     0.038 C 
ATOM      3  O   UNL     1     -24.426   7.851 -24.292  1.00  0.00    -0.550 OA
ATOM      4  O   UNL     1     -24.501   5.703 -25.083  1.00  0.00    -0.550 OA
ENDROOT
TORSDOF 0
ENDMDL
MODEL 8
REMARK VINA RESULT:     1.853     20.312     20.507
REMARK INTER + INTRA:           1.853
REMARK INTER:                   1.853
REMARK INTRA:                   0.000
REMARK UNBOUND:                 0.000
REMARK SMILES CC(=O)[O-]
REMARK SMILES IDX 1 1 2 2 3 3 4 4
REMARK H PARENT
REMARK Flexibility Score: inf
ROOT
ATOM      1  C   UNL     1     -26.836   5.754 -13.999  1.00  0.00     0.063 C 
ATOM      2  C   UNL     1     -26.404   5.002 -12.786  1.00  0.00     0.038 C 
ATOM      3  O   UNL     1     -27.125   5.001 -11.754  1.00  0.00    -0.550 OA
ATOM      4  O   UNL     1     -25.232   4.257 -12.809  1.00  0.00    -0.550 OA
ENDROOT
TORSDOF 0
ENDMDL
MODEL 9
REMARK VINA RESULT:     2.009     19.518     19.803
REMARK INTER + INTRA:           2.009
REMARK INTER:                   2.009
REMARK INTRA:                   0.000
REMARK UNBOUND:                 0.000
REMARK SMILES CC(=O)[O-]
REMARK SMILES IDX 1 1 2 2 3 3 4 4
REMARK H PARENT
REMARK Flexibility Score: inf
ROOT
ATOM      1  C   UNL     1     -24.327   6.573 -24.428  1.00  0.00     0.063 C 
ATOM      2  C   UNL     1     -24.384   6.407 -22.948  1.00  0.00     0.038 C 
ATOM      3  O   UNL     1     -25.188   7.095 -22.266  1.00  0.00    -0.550 OA
ATOM      4  O   UNL     1     -23.589   5.456 -22.323  1.00  0.00    -0.550 OA
ENDROOT
TORSDOF 0
ENDMDL
