MODEL 1
REMARK VINA RESULT:    -3.766      0.000      0.000
REMARK INTER + INTRA:          -7.167
REMARK INTER:                  -6.848
REMARK INTRA:                  -0.319
REMARK UNBOUND:                -0.319
REMARK SMILES CCCCCCCCCCCCCCCC(=O)[O-]
REMARK SMILES IDX 9 1 10 2 11 3 12 4 13 5 14 6 15 7 16 8 17 9 18 10 8 11 7 12
REMARK SMILES IDX 6 13 5 14 4 15 3 16 2 17 1 18
REMARK H PARENT
REMARK Flexibility Score: inf
ROOT
ATOM      1  C   UNL     1       0.821  -0.384 -10.012  1.00  0.00     0.000 C 
ENDROOT
BRANCH   1   2
ATOM      2  C   UNL     1       1.151  -1.886 -10.039  1.00  0.00     0.000 C 
BRANCH   2   3
ATOM      3  C   UNL     1       2.663  -2.157 -10.092  1.00  0.00     0.000 C 
BRANCH   3   4
ATOM      4  C   UNL     1       2.996  -3.657 -10.115  1.00  0.00     0.000 C 
BRANCH   4   5
ATOM      5  C   UNL     1       4.283  -3.944  -9.326  1.00  0.00     0.000 C 
BRANCH   5   6
ATOM      6  C   UNL     1       4.647  -5.438  -9.310  1.00  0.00     0.006 C 
BRANCH   6   7
ATOM      7  C   UNL     1       6.038  -5.714  -9.895  1.00  0.00     0.053 C 
BRANCH   7   8
ATOM      8  C   UNL     1       7.102  -5.294  -8.931  1.00  0.00     0.041 C 
ATOM      9  O   UNL     1       7.221  -5.880  -7.823  1.00  0.00    -0.550 OA
ATOM     10  O   UNL     1       7.931  -4.222  -9.236  1.00  0.00    -0.550 OA
ENDBRANCH   7   8
ENDBRANCH   6   7
ENDBRANCH   5   6
ENDBRANCH   4   5
ENDBRANCH   3   4
ENDBRANCH   2   3
ENDBRANCH   1   2
BRANCH   1  11
ATOM     11  C   UNL     1      -0.690  -0.100 -10.092  1.00  0.00     0.000 C 
BRANCH  11  12
ATOM     12  C   UNL     1      -1.118   1.316  -9.663  1.00  0.00    -0.000 C 
BRANCH  12  13
ATOM     13  C   UNL     1      -2.548   1.670 -10.106  1.00  0.00    -0.000 C 
BRANCH  13  14
ATOM     14  C   UNL     1      -2.831   3.179 -10.036  1.00  0.00    -0.000 C 
BRANCH  14  15
ATOM     15  C   UNL     1      -4.329   3.508 -10.125  1.00  0.00    -0.000 C 
BRANCH  15  16
ATOM     16  C   UNL     1      -4.665   4.755  -9.293  1.00  0.00    -0.000 C 
BRANCH  16  17
ATOM     17  C   UNL     1      -5.863   5.536  -9.856  1.00  0.00    -0.003 C 
ATOM     18  C   UNL     1      -7.205   5.011  -9.346  1.00  0.00     0.004 C 
ENDBRANCH  16  17
ENDBRANCH  15  16
ENDBRANCH  14  15
ENDBRANCH  13  14
ENDBRANCH  12  13
ENDBRANCH  11  12
ENDBRANCH   1  11
TORSDOF 14
ENDMDL
MODEL 2
REMARK VINA RESULT:    -3.104     20.791     21.673
REMARK INTER + INTRA:          -5.964
REMARK INTER:                  -5.522
REMARK INTRA:                  -0.442
REMARK UNBOUND:                -0.319
REMARK SMILES CCCCCCCCCCCCCCCC(=O)[O-]
REMARK SMILES IDX 9 1 10 2 11 3 12 4 13 5 14 6 15 7 16 8 17 9 18 10 8 11 7 12
REMARK SMILES IDX 6 13 5 14 4 15 3 16 2 17 1 18
REMARK H PARENT
REMARK Flexibility Score: inf
ROOT
ATOM      1  C   UNL     1      -4.178  -2.258   9.902  1.00  0.00     0.000 C 
ENDROOT
BRANCH   1   2
ATOM      2  C   UNL     1      -3.221  -3.456  10.027  1.00  0.00     0.000 C 
BRANCH   2   3
ATOM      3  C   UNL     1      -3.965  -4.798  10.125  1.00  0.00     0.000 C 
BRANCH   3   4
ATOM      4  C   UNL     1      -5.252  -4.825   9.286  1.00  0.00     0.000 C 
BRANCH   4   5
ATOM      5  C   UNL     1      -6.350  -5.634   9.993  1.00  0.00     0.000 C 
BRANCH   5   6
ATOM      6  C   UNL     1      -6.587  -7.006   9.344  1.00  0.00     0.006 C 
BRANCH   6   7
ATOM      7  C   UNL     1      -8.075  -7.310   9.127  1.00  0.00     0.053 C 
BRANCH   7   8
ATOM      8  C   UNL     1      -8.292  -8.783   8.992  1.00  0.00     0.041 C 
ATOM      9  O   UNL     1      -7.503  -9.479   8.300  1.00  0.00    -0.550 OA
ATOM     10  O   UNL     1      -9.395  -9.381   9.589  1.00  0.00    -0.550 OA
ENDBRANCH   7   8
ENDBRANCH   6   7
ENDBRANCH   5   6
ENDBRANCH   4   5
ENDBRANCH   3   4
ENDBRANCH   2   3
ENDBRANCH   1   2
BRANCH   1  11
ATOM     11  C   UNL     1      -3.465  -0.902  10.052  1.00  0.00     0.000 C 
BRANCH  11  12
ATOM     12  C   UNL     1      -1.937  -0.935   9.859  1.00  0.00    -0.000 C 
BRANCH  12  13
ATOM     13  C   UNL     1      -1.270   0.425  10.124  1.00  0.00    -0.000 C 
BRANCH  13  14
ATOM     14  C   UNL     1       0.253   0.384   9.919  1.00  0.00    -0.000 C 
BRANCH  14  15
ATOM     15  C   UNL     1       0.906   1.771  10.035  1.00  0.00    -0.000 C 
BRANCH  15  16
ATOM     16  C   UNL     1       2.218   1.825   9.239  1.00  0.00    -0.000 C 
BRANCH  16  17
ATOM     17  C   UNL     1       3.355   2.506  10.019  1.00  0.00    -0.003 C 
ATOM     18  C   UNL     1       3.613   3.939   9.556  1.00  0.00     0.004 C 
ENDBRANCH  16  17
ENDBRANCH  15  16
ENDBRANCH  14  15
ENDBRANCH  13  14
ENDBRANCH  12  13
ENDBRANCH  11  12
ENDBRANCH   1  11
TORSDOF 14
ENDMDL
MODEL 3
REMARK VINA RESULT:    -3.083      4.893     11.782
REMARK INTER + INTRA:          -5.926
REMARK INTER:                  -5.334
REMARK INTRA:                  -0.591
REMARK UNBOUND:                -0.319
REMARK SMILES CCCCCCCCCCCCCCCC(=O)[O-]
REMARK SMILES IDX 9 1 10 2 11 3 12 4 13 5 14 6 15 7 16 8 17 9 18 10 8 11 7 12
REMARK SMILES IDX 6 13 5 14 4 15 3 16 2 17 1 18
REMARK H PARENT
REMARK Flexibility Score: inf
ROOT
ATOM      1  C   UNL     1       4.608  -2.408  -9.395  1.00  0.00     0.000 C 
ENDROOT
BRANCH   1   2
ATOM      2  C   UNL     1       3.384  -1.830 -10.124  1.00  0.00     0.000 C 
BRANCH   2   3
ATOM      3  C   UNL     1       2.101  -1.911  -9.280  1.00  0.00     0.000 C 
BRANCH   3   4
ATOM      4  C   UNL     1       0.906  -1.215  -9.949  1.00  0.00     0.000 C 
BRANCH   4   5
ATOM      5  C   UNL     1       1.176   0.288 -10.125  1.00  0.00     0.000 C 
BRANCH   5   6
ATOM      6  C   UNL     1      -0.103   1.134 -10.025  1.00  0.00     0.006 C 
BRANCH   6   7
ATOM      7  C   UNL     1      -1.380   0.284 -10.053  1.00  0.00     0.053 C 
BRANCH   7   8
ATOM      8  C   UNL     1      -2.589   1.153  -9.908  1.00  0.00     0.041 C 
ATOM      9  O   UNL     1      -2.465   2.359  -9.569  1.00  0.00    -0.550 OA
ATOM     10  O   UNL     1      -3.856   0.618 -10.101  1.00  0.00    -0.550 OA
ENDBRANCH   7   8
ENDBRANCH   6   7
ENDBRANCH   5   6
ENDBRANCH   4   5
ENDBRANCH   3   4
ENDBRANCH   2   3
ENDBRANCH   1   2
BRANCH   1  11
ATOM     11  C   UNL     1       5.061  -3.764  -9.967  1.00  0.00     0.000 C 
BRANCH  11  12
ATOM     12  C   UNL     1       4.079  -4.931  -9.753  1.00  0.00    -0.000 C 
BRANCH  12  13
ATOM     13  C   UNL     1       4.688  -6.087  -8.941  1.00  0.00    -0.000 C 
BRANCH  13  14
ATOM     14  C   UNL     1       4.641  -7.426  -9.695  1.00  0.00    -0.000 C 
BRANCH  14  15
ATOM     15  C   UNL     1       6.033  -7.916 -10.124  1.00  0.00    -0.000 C 
BRANCH  15  16
ATOM     16  C   UNL     1       6.908  -8.219  -8.899  1.00  0.00    -0.000 C 
BRANCH  16  17
ATOM     17  C   UNL     1       7.953  -9.312  -9.175  1.00  0.00    -0.003 C 
ATOM     18  C   UNL     1       9.387  -8.818  -8.986  1.00  0.00     0.004 C 
ENDBRANCH  16  17
ENDBRANCH  15  16
ENDBRANCH  14  15
ENDBRANCH  13  14
ENDBRANCH  12  13
ENDBRANCH  11  12
ENDBRANCH   1  11
TORSDOF 14
ENDMDL
MODEL 4
REMARK VINA RESULT:    -2.784      6.961     12.988
REMARK INTER + INTRA:          -5.382
REMARK INTER:                  -4.758
REMARK INTRA:                  -0.624
REMARK UNBOUND:                -0.319
REMARK SMILES CCCCCCCCCCCCCCCC(=O)[O-]
REMARK SMILES IDX 9 1 10 2 11 3 12 4 13 5 14 6 15 7 16 8 17 9 18 10 8 11 7 12
REMARK SMILES IDX 6 13 5 14 4 15 3 16 2 17 1 18
REMARK H PARENT
REMARK Flexibility Score: inf
ROOT
ATOM      1  C   UNL     1      -6.993   5.357  -8.040  1.00  0.00     0.000 C 
ENDROOT
BRANCH   1   2
ATOM      2  C   UNL     1      -8.221   6.281  -8.090  1.00  0.00     0.000 C 
BRANCH   2   3
ATOM      3  C   UNL     1      -8.381   6.976  -9.453  1.00  0.00     0.000 C 
BRANCH   3   4
ATOM      4  C   UNL     1      -8.425   8.508  -9.335  1.00  0.00     0.000 C 
BRANCH   4   5
ATOM      5  C   UNL     1      -7.395   9.008  -8.310  1.00  0.00     0.000 C 
BRANCH   5   6
ATOM      6  C   UNL     1      -6.458  10.080  -8.888  1.00  0.00     0.006 C 
BRANCH   6   7
ATOM      7  C   UNL     1      -5.689   9.591 -10.122  1.00  0.00     0.053 C 
BRANCH   7   8
ATOM      8  C   UNL     1      -4.313   9.148  -9.737  1.00  0.00     0.041 C 
ATOM      9  O   UNL     1      -4.055   7.922  -9.607  1.00  0.00    -0.550 OA
ATOM     10  O   UNL     1      -3.327  10.091  -9.475  1.00  0.00    -0.550 OA
ENDBRANCH   7   8
ENDBRANCH   6   7
ENDBRANCH   5   6
ENDBRANCH   4   5
ENDBRANCH   3   4
ENDBRANCH   2   3
ENDBRANCH   1   2
BRANCH   1  11
ATOM     11  C   UNL     1      -5.885   5.778  -9.023  1.00  0.00     0.000 C 
BRANCH  11  12
ATOM     12  C   UNL     1      -5.544   4.745 -10.113  1.00  0.00    -0.000 C 
BRANCH  12  13
ATOM     13  C   UNL     1      -4.056   4.353 -10.123  1.00  0.00    -0.000 C 
BRANCH  13  14
ATOM     14  C   UNL     1      -3.841   2.849  -9.888  1.00  0.00    -0.000 C 
BRANCH  14  15
ATOM     15  C   UNL     1      -2.471   2.534  -9.268  1.00  0.00    -0.000 C 
BRANCH  15  16
ATOM     16  C   UNL     1      -1.719   1.488 -10.104  1.00  0.00    -0.000 C 
BRANCH  16  17
ATOM     17  C   UNL     1      -0.343   1.138  -9.516  1.00  0.00    -0.003 C 
ATOM     18  C   UNL     1       0.144  -0.249  -9.935  1.00  0.00     0.004 C 
ENDBRANCH  16  17
ENDBRANCH  15  16
ENDBRANCH  14  15
ENDBRANCH  13  14
ENDBRANCH  12  13
ENDBRANCH  11  12
ENDBRANCH   1  11
TORSDOF 14
ENDMDL
MODEL 5
REMARK VINA RESULT:    -2.735     20.753     21.736
REMARK INTER + INTRA:          -5.292
REMARK INTER:                  -4.808
REMARK INTRA:                  -0.485
REMARK UNBOUND:                -0.319
REMARK SMILES CCCCCCCCCCCCCCCC(=O)[O-]
REMARK SMILES IDX 9 1 10 2 11 3 12 4 13 5 14 6 15 7 16 8 17 9 18 10 8 11 7 12
REMARK SMILES IDX 6 13 5 14 4 15 3 16 2 17 1 18
REMARK H PARENT
REMARK Flexibility Score: inf
ROOT
ATOM      1  C   UNL     1       3.431   3.169   9.909  1.00  0.00     0.000 C 
ENDROOT
BRANCH   1   2
ATOM      2  C   UNL     1       2.117   2.466   9.528  1.00  0.00     0.000 C 
BRANCH   2   3
ATOM      3  C   UNL     1       2.047   1.023  10.054  1.00  0.00     0.000 C 
BRANCH   3   4
ATOM      4  C   UNL     1       0.611   0.477  10.097  1.00  0.00     0.000 C 
BRANCH   4   5
ATOM      5  C   UNL     1       0.564  -0.980   9.612  1.00  0.00     0.000 C 
BRANCH   5   6
ATOM      6  C   UNL     1      -0.682  -1.730  10.111  1.00  0.00     0.006 C 
BRANCH   6   7
ATOM      7  C   UNL     1      -1.984  -0.975   9.815  1.00  0.00     0.053 C 
BRANCH   7   8
ATOM      8  C   UNL     1      -3.161  -1.885   9.970  1.00  0.00     0.041 C 
ATOM      9  O   UNL     1      -4.321  -1.407  10.081  1.00  0.00    -0.550 OA
ATOM     10  O   UNL     1      -2.972  -3.259  10.042  1.00  0.00    -0.550 OA
ENDBRANCH   7   8
ENDBRANCH   6   7
ENDBRANCH   5   6
ENDBRANCH   4   5
ENDBRANCH   3   4
ENDBRANCH   2   3
ENDBRANCH   1   2
BRANCH   1  11
ATOM     11  C   UNL     1       4.678   2.326   9.587  1.00  0.00     0.000 C 
BRANCH  11  12
ATOM     12  C   UNL     1       6.012   2.897  10.103  1.00  0.00    -0.000 C 
BRANCH  12  13
ATOM     13  C   UNL     1       6.075   4.432  10.029  1.00  0.00    -0.000 C 
BRANCH  13  14
ATOM     14  C   UNL     1       7.242   4.934   9.164  1.00  0.00    -0.000 C 
BRANCH  14  15
ATOM     15  C   UNL     1       7.937   6.167   9.760  1.00  0.00    -0.000 C 
BRANCH  15  16
ATOM     16  C   UNL     1       7.422   7.456   9.104  1.00  0.00    -0.000 C 
BRANCH  16  17
ATOM     17  C   UNL     1       8.231   8.696   9.518  1.00  0.00    -0.003 C 
ATOM     18  C   UNL     1       9.666   8.357   9.922  1.00  0.00     0.004 C 
ENDBRANCH  16  17
ENDBRANCH  15  16
ENDBRANCH  14  15
ENDBRANCH  13  14
ENDBRANCH  12  13
ENDBRANCH  11  12
ENDBRANCH   1  11
TORSDOF 14
ENDMDL
MODEL 6
REMARK VINA RESULT:    -2.642      1.483      2.124
REMARK INTER + INTRA:          -5.123
REMARK INTER:                  -4.852
REMARK INTRA:                  -0.271
REMARK UNBOUND:                -0.319
REMARK SMILES CCCCCCCCCCCCCCCC(=O)[O-]
REMARK SMILES IDX 9 1 10 2 11 3 12 4 13 5 14 6 15 7 16 8 17 9 18 10 8 11 7 12
REMARK SMILES IDX 6 13 5 14 4 15 3 16 2 17 1 18
REMARK H PARENT
REMARK Flexibility Score: inf
ROOT
ATOM      1  C   UNL     1       2.427  -0.944  -9.542  1.00  0.00     0.000 C 
ENDROOT
BRANCH   1   2
ATOM      2  C   UNL     1       2.865  -2.415  -9.442  1.00  0.00     0.000 C 
BRANCH   2   3
ATOM      3  C   UNL     1       4.284  -2.646  -9.986  1.00  0.00     0.000 C 
BRANCH   3   4
ATOM      4  C   UNL     1       4.746  -4.104  -9.838  1.00  0.00     0.000 C 
BRANCH   4   5
ATOM      5  C   UNL     1       6.248  -4.173  -9.518  1.00  0.00     0.000 C 
BRANCH   5   6
ATOM      6  C   UNL     1       6.655  -5.509  -8.877  1.00  0.00     0.006 C 
BRANCH   6   7
ATOM      7  C   UNL     1       6.981  -6.589  -9.916  1.00  0.00     0.053 C 
BRANCH   7   8
ATOM      8  C   UNL     1       8.224  -7.326  -9.530  1.00  0.00     0.041 C 
ATOM      9  O   UNL     1       9.324  -6.717  -9.455  1.00  0.00    -0.550 OA
ATOM     10  O   UNL     1       8.177  -8.695  -9.300  1.00  0.00    -0.550 OA
ENDBRANCH   7   8
ENDBRANCH   6   7
ENDBRANCH   5   6
ENDBRANCH   4   5
ENDBRANCH   3   4
ENDBRANCH   2   3
ENDBRANCH   1   2
BRANCH   1  11
ATOM     11  C   UNL     1       0.904  -0.762  -9.409  1.00  0.00     0.000 C 
BRANCH  11  12
ATOM     12  C   UNL     1       0.329   0.499 -10.081  1.00  0.00    -0.000 C 
BRANCH  12  13
ATOM     13  C   UNL     1      -1.096   0.834  -9.608  1.00  0.00    -0.000 C 
BRANCH  13  14
ATOM     14  C   UNL     1      -1.583   2.197 -10.125  1.00  0.00    -0.000 C 
BRANCH  14  15
ATOM     15  C   UNL     1      -2.991   2.555  -9.622  1.00  0.00    -0.000 C 
BRANCH  15  16
ATOM     16  C   UNL     1      -3.414   3.943 -10.124  1.00  0.00    -0.000 C 
BRANCH  16  17
ATOM     17  C   UNL     1      -4.920   4.201  -9.952  1.00  0.00    -0.003 C 
ATOM     18  C   UNL     1      -5.232   5.648  -9.571  1.00  0.00     0.004 C 
ENDBRANCH  16  17
ENDBRANCH  15  16
ENDBRANCH  14  15
ENDBRANCH  13  14
ENDBRANCH  12  13
ENDBRANCH  11  12
ENDBRANCH   1  11
TORSDOF 14
ENDMDL
MODEL 7
REMARK VINA RESULT:    -2.404     20.345     21.132
REMARK INTER + INTRA:          -4.691
REMARK INTER:                  -4.648
REMARK INTRA:                  -0.044
REMARK UNBOUND:                -0.319
REMARK SMILES CCCCCCCCCCCCCCCC(=O)[O-]
REMARK SMILES IDX 9 1 10 2 11 3 12 4 13 5 14 6 15 7 16 8 17 9 18 10 8 11 7 12
REMARK SMILES IDX 6 13 5 14 4 15 3 16 2 17 1 18
REMARK H PARENT
REMARK Flexibility Score: inf
ROOT
ATOM      1  C   UNL     1      -4.179  -2.258   9.900  1.00  0.00     0.000 C 
ENDROOT
BRANCH   1   2
ATOM      2  C   UNL     1      -3.223  -3.456  10.024  1.00  0.00     0.000 C 
BRANCH   2   3
ATOM      3  C   UNL     1      -3.967  -4.800  10.096  1.00  0.00     0.000 C 
BRANCH   3   4
ATOM      4  C   UNL     1      -4.947  -4.998   8.929  1.00  0.00     0.000 C 
BRANCH   4   5
ATOM      5  C   UNL     1      -6.223  -5.713   9.401  1.00  0.00     0.000 C 
BRANCH   5   6
ATOM      6  C   UNL     1      -6.091  -7.244   9.366  1.00  0.00     0.006 C 
BRANCH   6   7
ATOM      7  C   UNL     1      -4.718  -7.731   9.849  1.00  0.00     0.053 C 
BRANCH   7   8
ATOM      8  C   UNL     1      -4.499  -9.154   9.446  1.00  0.00     0.041 C 
ATOM      9  O   UNL     1      -5.472  -9.951   9.378  1.00  0.00    -0.550 OA
ATOM     10  O   UNL     1      -3.213  -9.614   9.192  1.00  0.00    -0.550 OA
ENDBRANCH   7   8
ENDBRANCH   6   7
ENDBRANCH   5   6
ENDBRANCH   4   5
ENDBRANCH   3   4
ENDBRANCH   2   3
ENDBRANCH   1   2
BRANCH   1  11
ATOM     11  C   UNL     1      -3.463  -0.903  10.042  1.00  0.00     0.000 C 
BRANCH  11  12
ATOM     12  C   UNL     1      -1.937  -0.938   9.836  1.00  0.00    -0.000 C 
BRANCH  12  13
ATOM     13  C   UNL     1      -1.267   0.424  10.089  1.00  0.00    -0.000 C 
BRANCH  13  14
ATOM     14  C   UNL     1       0.267   0.349  10.011  1.00  0.00    -0.000 C 
BRANCH  14  15
ATOM     15  C   UNL     1       0.923   1.732   9.880  1.00  0.00    -0.000 C 
BRANCH  15  16
ATOM     16  C   UNL     1       2.137   1.675   8.942  1.00  0.00    -0.000 C 
BRANCH  16  17
ATOM     17  C   UNL     1       3.445   2.079   9.640  1.00  0.00    -0.003 C 
ATOM     18  C   UNL     1       3.685   3.589   9.619  1.00  0.00     0.004 C 
ENDBRANCH  16  17
ENDBRANCH  15  16
ENDBRANCH  14  15
ENDBRANCH  13  14
ENDBRANCH  12  13
ENDBRANCH  11  12
ENDBRANCH   1  11
TORSDOF 14
ENDMDL
MODEL 8
REMARK VINA RESULT:    -2.290     21.193     22.130
REMARK INTER + INTRA:          -4.485
REMARK INTER:                  -3.549
REMARK INTRA:                  -0.936
REMARK UNBOUND:                -0.319
REMARK SMILES CCCCCCCCCCCCCCCC(=O)[O-]
REMARK SMILES IDX 9 1 10 2 11 3 12 4 13 5 14 6 15 7 16 8 17 9 18 10 8 11 7 12
REMARK SMILES IDX 6 13 5 14 4 15 3 16 2 17 1 18
REMARK H PARENT
REMARK Flexibility Score: inf
ROOT
ATOM      1  C   UNL     1       5.429   6.971   8.503  1.00  0.00     0.000 C 
ENDROOT
BRANCH   1   2
ATOM      2  C   UNL     1       5.992   7.389   9.872  1.00  0.00     0.000 C 
BRANCH   2   3
ATOM      3  C   UNL     1       6.054   8.916  10.043  1.00  0.00     0.000 C 
BRANCH   3   4
ATOM      4  C   UNL     1       6.305   9.651   8.717  1.00  0.00     0.000 C 
BRANCH   4   5
ATOM      5  C   UNL     1       7.764  10.121   8.619  1.00  0.00     0.000 C 
BRANCH   5   6
ATOM      6  C   UNL     1       8.591   9.751   9.860  1.00  0.00     0.006 C 
BRANCH   6   7
ATOM      7  C   UNL     1       9.907   9.046   9.506  1.00  0.00     0.053 C 
BRANCH   7   8
ATOM      8  C   UNL     1       9.640   7.656   9.022  1.00  0.00     0.041 C 
ATOM      9  O   UNL     1      10.077   6.666   9.666  1.00  0.00    -0.550 OA
ATOM     10  O   UNL     1       8.950   7.455   7.833  1.00  0.00    -0.550 OA
ENDBRANCH   7   8
ENDBRANCH   6   7
ENDBRANCH   5   6
ENDBRANCH   4   5
ENDBRANCH   3   4
ENDBRANCH   2   3
ENDBRANCH   1   2
BRANCH   1  11
ATOM     11  C   UNL     1       5.731   5.502   8.153  1.00  0.00     0.000 C 
BRANCH  11  12
ATOM     12  C   UNL     1       6.958   4.896   8.858  1.00  0.00    -0.000 C 
BRANCH  12  13
ATOM     13  C   UNL     1       6.591   4.103  10.125  1.00  0.00    -0.000 C 
BRANCH  13  14
ATOM     14  C   UNL     1       5.161   3.541  10.074  1.00  0.00    -0.000 C 
BRANCH  14  15
ATOM     15  C   UNL     1       5.123   2.039   9.752  1.00  0.00    -0.000 C 
BRANCH  15  16
ATOM     16  C   UNL     1       3.725   1.459  10.013  1.00  0.00    -0.000 C 
BRANCH  16  17
ATOM     17  C   UNL     1       2.604   2.480   9.760  1.00  0.00    -0.003 C 
ATOM     18  C   UNL     1       1.216   1.922  10.075  1.00  0.00     0.004 C 
ENDBRANCH  16  17
ENDBRANCH  15  16
ENDBRANCH  14  15
ENDBRANCH  13  14
ENDBRANCH  12  13
ENDBRANCH  11  12
ENDBRANCH   1  11
TORSDOF 14
ENDMDL
