MODEL 1
REMARK VINA RESULT:    -2.830      0.000      0.000
REMARK INTER + INTRA:         -10.659
REMARK INTER:                  -6.470
REMARK INTRA:                  -4.189
REMARK UNBOUND:                -4.189
REMARK SMILES CCCCCCCCCCCCCCCCCCCCCCCC(=O)[O-]
REMARK SMILES IDX 13 1 14 2 15 3 16 4 17 5 18 6 19 7 20 8 21 9 22 10 23 11
REMARK SMILES IDX 24 12 25 13 26 14 12 15 11 16 10 17 9 18 8 19 7 20 6 21 5 22
REMARK SMILES IDX 4 23 3 24 2 25 1 26
REMARK H PARENT
REMARK Flexibility Score: inf
ROOT
ATOM      1  C   UNL     1      -2.807   8.002  -6.484  1.00  0.00     0.000 C 
ENDROOT
BRANCH   1   2
ATOM      2  C   UNL     1      -2.814   8.077  -8.020  1.00  0.00     0.000 C 
BRANCH   2   3
ATOM      3  C   UNL     1      -2.755   9.502  -8.605  1.00  0.00     0.000 C 
BRANCH   3   4
ATOM      4  C   UNL     1      -4.131  10.194  -8.703  1.00  0.00     0.000 C 
BRANCH   4   5
ATOM      5  C   UNL     1      -4.048  11.702  -8.402  1.00  0.00     0.000 C 
BRANCH   5   6
ATOM      6  C   UNL     1      -3.172  12.014  -7.177  1.00  0.00     0.000 C 
BRANCH   6   7
ATOM      7  C   UNL     1      -2.020  12.979  -7.505  1.00  0.00     0.000 C 
BRANCH   7   8
ATOM      8  C   UNL     1      -0.642  12.304  -7.413  1.00  0.00     0.000 C 
BRANCH   8   9
ATOM      9  C   UNL     1      -0.337  11.765  -6.005  1.00  0.00     0.000 C 
BRANCH   9  10
ATOM     10  C   UNL     1      -0.008  10.261  -5.992  1.00  0.00     0.006 C 
BRANCH  10  11
ATOM     11  C   UNL     1       1.022   9.839  -7.056  1.00  0.00     0.053 C 
BRANCH  11  12
ATOM     12  C   UNL     1       2.190   9.108  -6.469  1.00  0.00     0.041 C 
ATOM     13  O   UNL     1       2.621   9.417  -5.326  1.00  0.00    -0.550 OA
ATOM     14  O   UNL     1       2.782   8.059  -7.164  1.00  0.00    -0.550 OA
ENDBRANCH  11  12
ENDBRANCH  10  11
ENDBRANCH   9  10
ENDBRANCH   8   9
ENDBRANCH   7   8
ENDBRANCH   6   7
ENDBRANCH   5   6
ENDBRANCH   4   5
ENDBRANCH   3   4
ENDBRANCH   2   3
ENDBRANCH   1   2
BRANCH   1  15
ATOM     15  C   UNL     1      -4.223   7.923  -5.887  1.00  0.00     0.000 C 
BRANCH  15  16
ATOM     16  C   UNL     1      -4.569   9.149  -5.026  1.00  0.00     0.000 C 
BRANCH  16  17
ATOM     17  C   UNL     1      -3.322   9.869  -4.493  1.00  0.00     0.000 C 
BRANCH  17  18
ATOM     18  C   UNL     1      -3.699  10.893  -3.412  1.00  0.00    -0.000 C 
BRANCH  18  19
ATOM     19  C   UNL     1      -2.877  12.191  -3.499  1.00  0.00    -0.000 C 
BRANCH  19  20
ATOM     20  C   UNL     1      -3.698  13.465  -3.779  1.00  0.00    -0.000 C 
BRANCH  20  21
ATOM     21  C   UNL     1      -5.172  13.171  -4.091  1.00  0.00    -0.000 C 
BRANCH  21  22
ATOM     22  C   UNL     1      -6.078  13.615  -2.933  1.00  0.00    -0.000 C 
BRANCH  22  23
ATOM     23  C   UNL     1      -5.297  14.245  -1.765  1.00  0.00    -0.000 C 
BRANCH  23  24
ATOM     24  C   UNL     1      -5.474  13.539  -0.409  1.00  0.00    -0.000 C 
BRANCH  24  25
ATOM     25  C   UNL     1      -4.344  12.546  -0.100  1.00  0.00    -0.003 C 
ATOM     26  C   UNL     1      -2.994  13.256  -0.034  1.00  0.00     0.004 C 
ENDBRANCH  24  25
ENDBRANCH  23  24
ENDBRANCH  22  23
ENDBRANCH  21  22
ENDBRANCH  20  21
ENDBRANCH  19  20
ENDBRANCH  18  19
ENDBRANCH  17  18
ENDBRANCH  16  17
ENDBRANCH  15  16
ENDBRANCH   1  15
TORSDOF 22
ENDMDL
MODEL 2
REMARK VINA RESULT:    -2.819      1.740      4.066
REMARK INTER + INTRA:         -10.633
REMARK INTER:                  -6.513
REMARK INTRA:                  -4.120
REMARK UNBOUND:                -4.189
REMARK SMILES CCCCCCCCCCCCCCCCCCCCCCCC(=O)[O-]
REMARK SMILES IDX 13 1 14 2 15 3 16 4 17 5 18 6 19 7 20 8 21 9 22 10 23 11
REMARK SMILES IDX 24 12 25 13 26 14 12 15 11 16 10 17 9 18 8 19 7 20 6 21 5 22
REMARK SMILES IDX 4 23 3 24 2 25 1 26
REMARK H PARENT
REMARK Flexibility Score: inf
ROOT
ATOM      1  C   UNL     1      -3.219  10.304  -4.334  1.00  0.00     0.000 C 
ENDROOT
BRANCH   1   2
ATOM      2  C   UNL     1      -4.309   9.297  -4.737  1.00  0.00     0.000 C 
BRANCH   2   3
ATOM      3  C   UNL     1      -3.839   8.167  -5.674  1.00  0.00     0.000 C 
BRANCH   3   4
ATOM      4  C   UNL     1      -4.553   8.152  -7.042  1.00  0.00     0.000 C 
BRANCH   4   5
ATOM      5  C   UNL     1      -3.814   7.282  -8.076  1.00  0.00     0.000 C 
BRANCH   5   6
ATOM      6  C   UNL     1      -2.335   7.064  -7.717  1.00  0.00     0.000 C 
BRANCH   6   7
ATOM      7  C   UNL     1      -1.396   8.015  -8.479  1.00  0.00     0.000 C 
BRANCH   7   8
ATOM      8  C   UNL     1      -0.768   9.081  -7.566  1.00  0.00     0.000 C 
BRANCH   8   9
ATOM      9  C   UNL     1      -1.535  10.414  -7.594  1.00  0.00     0.000 C 
BRANCH   9  10
ATOM     10  C   UNL     1      -0.613  11.643  -7.487  1.00  0.00     0.006 C 
BRANCH  10  11
ATOM     11  C   UNL     1      -0.970  12.590  -6.326  1.00  0.00     0.053 C 
BRANCH  11  12
ATOM     12  C   UNL     1       0.062  12.582  -5.240  1.00  0.00     0.041 C 
ATOM     13  O   UNL     1       0.259  13.615  -4.546  1.00  0.00    -0.550 OA
ATOM     14  O   UNL     1       0.781  11.424  -4.965  1.00  0.00    -0.550 OA
ENDBRANCH  11  12
ENDBRANCH  10  11
ENDBRANCH   9  10
ENDBRANCH   8   9
ENDBRANCH   7   8
ENDBRANCH   6   7
ENDBRANCH   5   6
ENDBRANCH   4   5
ENDBRANCH   3   4
ENDBRANCH   2   3
ENDBRANCH   1   2
BRANCH   1  15
ATOM     15  C   UNL     1      -3.638  11.189  -3.147  1.00  0.00     0.000 C 
BRANCH  15  16
ATOM     16  C   UNL     1      -2.757  12.440  -3.005  1.00  0.00     0.000 C 
BRANCH  16  17
ATOM     17  C   UNL     1      -2.950  13.152  -1.658  1.00  0.00     0.000 C 
BRANCH  17  18
ATOM     18  C   UNL     1      -3.924  12.374  -0.761  1.00  0.00    -0.000 C 
BRANCH  18  19
ATOM     19  C   UNL     1      -5.079  13.242  -0.230  1.00  0.00    -0.000 C 
BRANCH  19  20
ATOM     20  C   UNL     1      -5.468  14.430  -1.131  1.00  0.00    -0.000 C 
BRANCH  20  21
ATOM     21  C   UNL     1      -6.734  14.166  -1.958  1.00  0.00    -0.000 C 
BRANCH  21  22
ATOM     22  C   UNL     1      -6.376  13.739  -3.389  1.00  0.00    -0.000 C 
BRANCH  22  23
ATOM     23  C   UNL     1      -5.400  14.708  -4.080  1.00  0.00    -0.000 C 
BRANCH  23  24
ATOM     24  C   UNL     1      -4.864  14.229  -5.441  1.00  0.00    -0.000 C 
BRANCH  24  25
ATOM     25  C   UNL     1      -5.451  12.876  -5.872  1.00  0.00    -0.003 C 
ATOM     26  C   UNL     1      -4.694  12.307  -7.069  1.00  0.00     0.004 C 
ENDBRANCH  24  25
ENDBRANCH  23  24
ENDBRANCH  22  23
ENDBRANCH  21  22
ENDBRANCH  20  21
ENDBRANCH  19  20
ENDBRANCH  18  19
ENDBRANCH  17  18
ENDBRANCH  16  17
ENDBRANCH  15  16
ENDBRANCH   1  15
TORSDOF 22
ENDMDL
MODEL 3
REMARK VINA RESULT:    -2.787      3.603      7.454
REMARK INTER + INTRA:         -10.561
REMARK INTER:                  -7.274
REMARK INTRA:                  -3.287
REMARK UNBOUND:                -4.189
REMARK SMILES CCCCCCCCCCCCCCCCCCCCCCCC(=O)[O-]
REMARK SMILES IDX 13 1 14 2 15 3 16 4 17 5 18 6 19 7 20 8 21 9 22 10 23 11
REMARK SMILES IDX 24 12 25 13 26 14 12 15 11 16 10 17 9 18 8 19 7 20 6 21 5 22
REMARK SMILES IDX 4 23 3 24 2 25 1 26
REMARK H PARENT
REMARK Flexibility Score: inf
ROOT
ATOM      1  C   UNL     1      -4.169  12.682  -0.790  1.00  0.00     0.000 C 
ENDROOT
BRANCH   1   2
ATOM      2  C   UNL     1      -5.369  13.439  -0.197  1.00  0.00     0.000 C 
BRANCH   2   3
ATOM      3  C   UNL     1      -6.367  13.993  -1.233  1.00  0.00     0.000 C 
BRANCH   3   4
ATOM      4  C   UNL     1      -6.019  13.630  -2.693  1.00  0.00     0.000 C 
BRANCH   4   5
ATOM      5  C   UNL     1      -7.102  14.096  -3.683  1.00  0.00     0.000 C 
BRANCH   5   6
ATOM      6  C   UNL     1      -7.217  13.176  -4.910  1.00  0.00     0.000 C 
BRANCH   6   7
ATOM      7  C   UNL     1      -5.933  13.161  -5.758  1.00  0.00     0.000 C 
BRANCH   7   8
ATOM      8  C   UNL     1      -5.585  11.756  -6.277  1.00  0.00     0.000 C 
BRANCH   8   9
ATOM      9  C   UNL     1      -5.883  10.652  -5.247  1.00  0.00     0.000 C 
BRANCH   9  10
ATOM     10  C   UNL     1      -6.313   9.323  -5.895  1.00  0.00     0.006 C 
BRANCH  10  11
ATOM     11  C   UNL     1      -6.082   8.091  -5.001  1.00  0.00     0.053 C 
BRANCH  11  12
ATOM     12  C   UNL     1      -7.349   7.347  -4.708  1.00  0.00     0.041 C 
ATOM     13  O   UNL     1      -8.304   7.375  -5.530  1.00  0.00    -0.550 OA
ATOM     14  O   UNL     1      -7.465   6.591  -3.547  1.00  0.00    -0.550 OA
ENDBRANCH  11  12
ENDBRANCH  10  11
ENDBRANCH   9  10
ENDBRANCH   8   9
ENDBRANCH   7   8
ENDBRANCH   6   7
ENDBRANCH   5   6
ENDBRANCH   4   5
ENDBRANCH   3   4
ENDBRANCH   2   3
ENDBRANCH   1   2
BRANCH   1  15
ATOM     15  C   UNL     1      -2.828  13.119  -0.174  1.00  0.00     0.000 C 
BRANCH  15  16
ATOM     16  C   UNL     1      -2.367  14.494  -0.682  1.00  0.00     0.000 C 
BRANCH  16  17
ATOM     17  C   UNL     1      -2.777  14.755  -2.139  1.00  0.00     0.000 C 
BRANCH  17  18
ATOM     18  C   UNL     1      -1.818  14.054  -3.113  1.00  0.00    -0.000 C 
BRANCH  18  19
ATOM     19  C   UNL     1      -2.549  13.258  -4.209  1.00  0.00    -0.000 C 
BRANCH  19  20
ATOM     20  C   UNL     1      -2.602  11.735  -3.983  1.00  0.00    -0.000 C 
BRANCH  20  21
ATOM     21  C   UNL     1      -1.762  10.949  -5.000  1.00  0.00    -0.000 C 
BRANCH  21  22
ATOM     22  C   UNL     1      -2.394   9.580  -5.294  1.00  0.00    -0.000 C 
BRANCH  22  23
ATOM     23  C   UNL     1      -2.598   9.322  -6.797  1.00  0.00    -0.000 C 
BRANCH  23  24
ATOM     24  C   UNL     1      -3.106   7.912  -7.151  1.00  0.00    -0.000 C 
BRANCH  24  25
ATOM     25  C   UNL     1      -2.164   7.160  -8.103  1.00  0.00    -0.003 C 
ATOM     26  C   UNL     1      -2.461   5.663  -8.098  1.00  0.00     0.004 C 
ENDBRANCH  24  25
ENDBRANCH  23  24
ENDBRANCH  22  23
ENDBRANCH  21  22
ENDBRANCH  20  21
ENDBRANCH  19  20
ENDBRANCH  18  19
ENDBRANCH  17  18
ENDBRANCH  16  17
ENDBRANCH  15  16
ENDBRANCH   1  15
TORSDOF 22
ENDMDL
MODEL 4
REMARK VINA RESULT:    -2.779      1.453      3.188
REMARK INTER + INTRA:         -10.541
REMARK INTER:                  -7.007
REMARK INTRA:                  -3.534
REMARK UNBOUND:                -4.189
REMARK SMILES CCCCCCCCCCCCCCCCCCCCCCCC(=O)[O-]
REMARK SMILES IDX 13 1 14 2 15 3 16 4 17 5 18 6 19 7 20 8 21 9 22 10 23 11
REMARK SMILES IDX 24 12 25 13 26 14 12 15 11 16 10 17 9 18 8 19 7 20 6 21 5 22
REMARK SMILES IDX 4 23 3 24 2 25 1 26
REMARK H PARENT
REMARK Flexibility Score: inf
ROOT
ATOM      1  C   UNL     1      -3.417  10.177  -4.086  1.00  0.00     0.000 C 
ENDROOT
BRANCH   1   2
ATOM      2  C   UNL     1      -4.757   9.879  -4.780  1.00  0.00     0.000 C 
BRANCH   2   3
ATOM      3  C   UNL     1      -4.895   8.453  -5.349  1.00  0.00     0.000 C 
BRANCH   3   4
ATOM      4  C   UNL     1      -5.761   8.371  -6.624  1.00  0.00     0.000 C 
BRANCH   4   5
ATOM      5  C   UNL     1      -4.956   7.885  -7.844  1.00  0.00     0.000 C 
BRANCH   5   6
ATOM      6  C   UNL     1      -3.546   7.402  -7.468  1.00  0.00     0.000 C 
BRANCH   6   7
ATOM      7  C   UNL     1      -2.445   8.103  -8.283  1.00  0.00     0.000 C 
BRANCH   7   8
ATOM      8  C   UNL     1      -1.435   8.845  -7.392  1.00  0.00     0.000 C 
BRANCH   8   9
ATOM      9  C   UNL     1      -1.798  10.325  -7.186  1.00  0.00     0.000 C 
BRANCH   9  10
ATOM     10  C   UNL     1      -0.601  11.185  -6.738  1.00  0.00     0.006 C 
BRANCH  10  11
ATOM     11  C   UNL     1      -0.004  10.763  -5.384  1.00  0.00     0.053 C 
BRANCH  11  12
ATOM     12  C   UNL     1       1.465  10.477  -5.467  1.00  0.00     0.041 C 
ATOM     13  O   UNL     1       1.905   9.669  -6.329  1.00  0.00    -0.550 OA
ATOM     14  O   UNL     1       2.355  11.128  -4.620  1.00  0.00    -0.550 OA
ENDBRANCH  11  12
ENDBRANCH  10  11
ENDBRANCH   9  10
ENDBRANCH   8   9
ENDBRANCH   7   8
ENDBRANCH   6   7
ENDBRANCH   5   6
ENDBRANCH   4   5
ENDBRANCH   3   4
ENDBRANCH   2   3
ENDBRANCH   1   2
BRANCH   1  15
ATOM     15  C   UNL     1      -3.497  11.384  -3.135  1.00  0.00     0.000 C 
BRANCH  15  16
ATOM     16  C   UNL     1      -2.490  12.487  -3.500  1.00  0.00     0.000 C 
BRANCH  16  17
ATOM     17  C   UNL     1      -3.000  13.408  -4.618  1.00  0.00     0.000 C 
BRANCH  17  18
ATOM     18  C   UNL     1      -3.907  14.511  -4.050  1.00  0.00    -0.000 C 
BRANCH  18  19
ATOM     19  C   UNL     1      -5.376  14.367  -4.486  1.00  0.00    -0.000 C 
BRANCH  19  20
ATOM     20  C   UNL     1      -6.281  13.620  -3.487  1.00  0.00    -0.000 C 
BRANCH  20  21
ATOM     21  C   UNL     1      -7.117  14.566  -2.613  1.00  0.00    -0.000 C 
BRANCH  21  22
ATOM     22  C   UNL     1      -6.799  14.363  -1.124  1.00  0.00    -0.000 C 
BRANCH  22  23
ATOM     23  C   UNL     1      -5.632  13.388  -0.885  1.00  0.00    -0.000 C 
BRANCH  23  24
ATOM     24  C   UNL     1      -4.647  13.813   0.220  1.00  0.00    -0.000 C 
BRANCH  24  25
ATOM     25  C   UNL     1      -3.219  13.303  -0.025  1.00  0.00    -0.003 C 
ATOM     26  C   UNL     1      -2.268  14.459  -0.325  1.00  0.00     0.004 C 
ENDBRANCH  24  25
ENDBRANCH  23  24
ENDBRANCH  22  23
ENDBRANCH  21  22
ENDBRANCH  20  21
ENDBRANCH  19  20
ENDBRANCH  18  19
ENDBRANCH  17  18
ENDBRANCH  16  17
ENDBRANCH  15  16
ENDBRANCH   1  15
TORSDOF 22
ENDMDL
MODEL 5
REMARK VINA RESULT:    -2.715      3.309      7.260
REMARK INTER + INTRA:         -10.395
REMARK INTER:                  -6.758
REMARK INTRA:                  -3.637
REMARK UNBOUND:                -4.189
REMARK SMILES CCCCCCCCCCCCCCCCCCCCCCCC(=O)[O-]
REMARK SMILES IDX 13 1 14 2 15 3 16 4 17 5 18 6 19 7 20 8 21 9 22 10 23 11
REMARK SMILES IDX 24 12 25 13 26 14 12 15 11 16 10 17 9 18 8 19 7 20 6 21 5 22
REMARK SMILES IDX 4 23 3 24 2 25 1 26
REMARK H PARENT
REMARK Flexibility Score: inf
ROOT
ATOM      1  C   UNL     1      -2.313  10.784  -4.615  1.00  0.00     0.000 C 
ENDROOT
BRANCH   1   2
ATOM      2  C   UNL     1      -1.910  12.228  -4.274  1.00  0.00     0.000 C 
BRANCH   2   3
ATOM      3  C   UNL     1      -2.017  13.229  -5.441  1.00  0.00     0.000 C 
BRANCH   3   4
ATOM      4  C   UNL     1      -2.923  12.748  -6.595  1.00  0.00     0.000 C 
BRANCH   4   5
ATOM      5  C   UNL     1      -4.281  13.475  -6.612  1.00  0.00     0.000 C 
BRANCH   5   6
ATOM      6  C   UNL     1      -5.383  12.687  -5.886  1.00  0.00     0.000 C 
BRANCH   6   7
ATOM      7  C   UNL     1      -6.036  13.495  -4.751  1.00  0.00     0.000 C 
BRANCH   7   8
ATOM      8  C   UNL     1      -5.134  14.632  -4.243  1.00  0.00     0.000 C 
BRANCH   8   9
ATOM      9  C   UNL     1      -4.904  14.574  -2.723  1.00  0.00     0.000 C 
BRANCH   9  10
ATOM     10  C   UNL     1      -5.225  13.196  -2.116  1.00  0.00     0.006 C 
BRANCH  10  11
ATOM     11  C   UNL     1      -4.219  12.738  -1.044  1.00  0.00     0.053 C 
BRANCH  11  12
ATOM     12  C   UNL     1      -4.432  13.420   0.273  1.00  0.00     0.041 C 
ATOM     13  O   UNL     1      -5.519  13.277   0.892  1.00  0.00    -0.550 OA
ATOM     14  O   UNL     1      -3.417  14.185   0.837  1.00  0.00    -0.550 OA
ENDBRANCH  11  12
ENDBRANCH  10  11
ENDBRANCH   9  10
ENDBRANCH   8   9
ENDBRANCH   7   8
ENDBRANCH   6   7
ENDBRANCH   5   6
ENDBRANCH   4   5
ENDBRANCH   3   4
ENDBRANCH   2   3
ENDBRANCH   1   2
BRANCH   1  15
ATOM     15  C   UNL     1      -3.516  10.293  -3.790  1.00  0.00     0.000 C 
BRANCH  15  16
ATOM     16  C   UNL     1      -4.435   9.356  -4.590  1.00  0.00     0.000 C 
BRANCH  16  17
ATOM     17  C   UNL     1      -3.979   9.180  -6.046  1.00  0.00     0.000 C 
BRANCH  17  18
ATOM     18  C   UNL     1      -3.392   7.778  -6.272  1.00  0.00    -0.000 C 
BRANCH  18  19
ATOM     19  C   UNL     1      -2.433   7.714  -7.474  1.00  0.00    -0.000 C 
BRANCH  19  20
ATOM     20  C   UNL     1      -1.825   9.065  -7.896  1.00  0.00    -0.000 C 
BRANCH  20  21
ATOM     21  C   UNL     1      -0.291   9.040  -7.953  1.00  0.00    -0.000 C 
BRANCH  21  22
ATOM     22  C   UNL     1       0.315   9.851  -6.799  1.00  0.00    -0.000 C 
BRANCH  22  23
ATOM     23  C   UNL     1       1.838  10.035  -6.927  1.00  0.00    -0.000 C 
BRANCH  23  24
ATOM     24  C   UNL     1       2.621   8.754  -7.265  1.00  0.00    -0.000 C 
BRANCH  24  25
ATOM     25  C   UNL     1       3.921   8.618  -6.457  1.00  0.00    -0.003 C 
ATOM     26  C   UNL     1       3.662   7.949  -5.110  1.00  0.00     0.004 C 
ENDBRANCH  24  25
ENDBRANCH  23  24
ENDBRANCH  22  23
ENDBRANCH  21  22
ENDBRANCH  20  21
ENDBRANCH  19  20
ENDBRANCH  18  19
ENDBRANCH  17  18
ENDBRANCH  16  17
ENDBRANCH  15  16
ENDBRANCH   1  15
TORSDOF 22
ENDMDL
MODEL 6
REMARK VINA RESULT:    -2.698      3.346      7.182
REMARK INTER + INTRA:         -10.357
REMARK INTER:                  -6.553
REMARK INTRA:                  -3.805
REMARK UNBOUND:                -4.189
REMARK SMILES CCCCCCCCCCCCCCCCCCCCCCCC(=O)[O-]
REMARK SMILES IDX 13 1 14 2 15 3 16 4 17 5 18 6 19 7 20 8 21 9 22 10 23 11
REMARK SMILES IDX 24 12 25 13 26 14 12 15 11 16 10 17 9 18 8 19 7 20 6 21 5 22
REMARK SMILES IDX 4 23 3 24 2 25 1 26
REMARK H PARENT
REMARK Flexibility Score: inf
ROOT
ATOM      1  C   UNL     1      -4.200  12.683  -0.742  1.00  0.00     0.000 C 
ENDROOT
BRANCH   1   2
ATOM      2  C   UNL     1      -5.333  13.337   0.066  1.00  0.00     0.000 C 
BRANCH   2   3
ATOM      3  C   UNL     1      -6.435  14.007  -0.779  1.00  0.00     0.000 C 
BRANCH   3   4
ATOM      4  C   UNL     1      -6.226  13.867  -2.302  1.00  0.00     0.000 C 
BRANCH   4   5
ATOM      5  C   UNL     1      -7.370  14.512  -3.108  1.00  0.00     0.000 C 
BRANCH   5   6
ATOM      6  C   UNL     1      -7.680  13.750  -4.407  1.00  0.00     0.000 C 
BRANCH   6   7
ATOM      7  C   UNL     1      -6.413  13.199  -5.084  1.00  0.00     0.000 C 
BRANCH   7   8
ATOM      8  C   UNL     1      -6.586  11.748  -5.565  1.00  0.00     0.000 C 
BRANCH   8   9
ATOM      9  C   UNL     1      -5.492  10.810  -5.026  1.00  0.00     0.000 C 
BRANCH   9  10
ATOM     10  C   UNL     1      -5.247   9.587  -5.930  1.00  0.00     0.006 C 
BRANCH  10  11
ATOM     11  C   UNL     1      -5.457   8.237  -5.220  1.00  0.00     0.053 C 
BRANCH  11  12
ATOM     12  C   UNL     1      -6.906   7.912  -5.019  1.00  0.00     0.041 C 
ATOM     13  O   UNL     1      -7.754   8.227  -5.896  1.00  0.00    -0.550 OA
ATOM     14  O   UNL     1      -7.319   7.228  -3.880  1.00  0.00    -0.550 OA
ENDBRANCH  11  12
ENDBRANCH  10  11
ENDBRANCH   9  10
ENDBRANCH   8   9
ENDBRANCH   7   8
ENDBRANCH   6   7
ENDBRANCH   5   6
ENDBRANCH   4   5
ENDBRANCH   3   4
ENDBRANCH   2   3
ENDBRANCH   1   2
BRANCH   1  15
ATOM     15  C   UNL     1      -2.807  12.980  -0.159  1.00  0.00     0.000 C 
BRANCH  15  16
ATOM     16  C   UNL     1      -2.318  14.398  -0.496  1.00  0.00     0.000 C 
BRANCH  16  17
ATOM     17  C   UNL     1      -2.848  14.902  -1.846  1.00  0.00     0.000 C 
BRANCH  17  18
ATOM     18  C   UNL     1      -1.936  14.450  -2.997  1.00  0.00    -0.000 C 
BRANCH  18  19
ATOM     19  C   UNL     1      -2.667  13.592  -4.044  1.00  0.00    -0.000 C 
BRANCH  19  20
ATOM     20  C   UNL     1      -2.449  12.073  -3.909  1.00  0.00    -0.000 C 
BRANCH  20  21
ATOM     21  C   UNL     1      -1.289  11.556  -4.772  1.00  0.00    -0.000 C 
BRANCH  21  22
ATOM     22  C   UNL     1      -1.655  10.224  -5.444  1.00  0.00    -0.000 C 
BRANCH  22  23
ATOM     23  C   UNL     1      -1.489  10.255  -6.974  1.00  0.00    -0.000 C 
BRANCH  23  24
ATOM     24  C   UNL     1      -1.816  11.606  -7.635  1.00  0.00    -0.000 C 
BRANCH  24  25
ATOM     25  C   UNL     1      -3.297  11.741  -8.019  1.00  0.00    -0.003 C 
ATOM     26  C   UNL     1      -3.799  13.161  -7.776  1.00  0.00     0.004 C 
ENDBRANCH  24  25
ENDBRANCH  23  24
ENDBRANCH  22  23
ENDBRANCH  21  22
ENDBRANCH  20  21
ENDBRANCH  19  20
ENDBRANCH  18  19
ENDBRANCH  17  18
ENDBRANCH  16  17
ENDBRANCH  15  16
ENDBRANCH   1  15
TORSDOF 22
ENDMDL
MODEL 7
REMARK VINA RESULT:    -2.688      3.156      6.828
REMARK INTER + INTRA:         -10.334
REMARK INTER:                  -7.080
REMARK INTRA:                  -3.254
REMARK UNBOUND:                -4.189
REMARK SMILES CCCCCCCCCCCCCCCCCCCCCCCC(=O)[O-]
REMARK SMILES IDX 13 1 14 2 15 3 16 4 17 5 18 6 19 7 20 8 21 9 22 10 23 11
REMARK SMILES IDX 24 12 25 13 26 14 12 15 11 16 10 17 9 18 8 19 7 20 6 21 5 22
REMARK SMILES IDX 4 23 3 24 2 25 1 26
REMARK H PARENT
REMARK Flexibility Score: inf
ROOT
ATOM      1  C   UNL     1      -5.374   8.231  -5.046  1.00  0.00     0.000 C 
ENDROOT
BRANCH   1   2
ATOM      2  C   UNL     1      -6.390   8.301  -6.199  1.00  0.00     0.000 C 
BRANCH   2   3
ATOM      3  C   UNL     1      -7.434   9.429  -6.081  1.00  0.00     0.000 C 
BRANCH   3   4
ATOM      4  C   UNL     1      -6.831  10.803  -5.716  1.00  0.00     0.000 C 
BRANCH   4   5
ATOM      5  C   UNL     1      -5.984  11.390  -6.860  1.00  0.00     0.000 C 
BRANCH   5   6
ATOM      6  C   UNL     1      -5.496  12.817  -6.563  1.00  0.00     0.000 C 
BRANCH   6   7
ATOM      7  C   UNL     1      -5.869  13.285  -5.145  1.00  0.00     0.000 C 
BRANCH   7   8
ATOM      8  C   UNL     1      -4.983  14.441  -4.653  1.00  0.00     0.000 C 
BRANCH   8   9
ATOM      9  C   UNL     1      -5.037  14.623  -3.126  1.00  0.00     0.000 C 
BRANCH   9  10
ATOM     10  C   UNL     1      -5.702  13.439  -2.401  1.00  0.00     0.006 C 
BRANCH  10  11
ATOM     11  C   UNL     1      -6.015  13.713  -0.918  1.00  0.00     0.053 C 
BRANCH  11  12
ATOM     12  C   UNL     1      -4.873  13.362  -0.015  1.00  0.00     0.041 C 
ATOM     13  O   UNL     1      -4.657  14.039   1.025  1.00  0.00    -0.550 OA
ATOM     14  O   UNL     1      -4.068  12.264  -0.298  1.00  0.00    -0.550 OA
ENDBRANCH  11  12
ENDBRANCH  10  11
ENDBRANCH   9  10
ENDBRANCH   8   9
ENDBRANCH   7   8
ENDBRANCH   6   7
ENDBRANCH   5   6
ENDBRANCH   4   5
ENDBRANCH   3   4
ENDBRANCH   2   3
ENDBRANCH   1   2
BRANCH   1  15
ATOM     15  C   UNL     1      -3.917   8.205  -5.540  1.00  0.00     0.000 C 
BRANCH  15  16
ATOM     16  C   UNL     1      -3.183   9.530  -5.281  1.00  0.00     0.000 C 
BRANCH  16  17
ATOM     17  C   UNL     1      -3.651  10.224  -3.992  1.00  0.00     0.000 C 
BRANCH  17  18
ATOM     18  C   UNL     1      -2.866  11.522  -3.752  1.00  0.00    -0.000 C 
BRANCH  18  19
ATOM     19  C   UNL     1      -2.174  12.051  -5.022  1.00  0.00    -0.000 C 
BRANCH  19  20
ATOM     20  C   UNL     1      -0.662  12.313  -4.879  1.00  0.00    -0.000 C 
BRANCH  20  21
ATOM     21  C   UNL     1       0.159  11.728  -6.037  1.00  0.00    -0.000 C 
BRANCH  21  22
ATOM     22  C   UNL     1       0.402  10.225  -5.833  1.00  0.00    -0.000 C 
BRANCH  22  23
ATOM     23  C   UNL     1       1.751   9.751  -6.404  1.00  0.00    -0.000 C 
BRANCH  23  24
ATOM     24  C   UNL     1       2.874   9.584  -5.364  1.00  0.00    -0.000 C 
BRANCH  24  25
ATOM     25  C   UNL     1       3.493   8.178  -5.374  1.00  0.00    -0.003 C 
ATOM     26  C   UNL     1       4.960   8.228  -5.791  1.00  0.00     0.004 C 
ENDBRANCH  24  25
ENDBRANCH  23  24
ENDBRANCH  22  23
ENDBRANCH  21  22
ENDBRANCH  20  21
ENDBRANCH  19  20
ENDBRANCH  18  19
ENDBRANCH  17  18
ENDBRANCH  16  17
ENDBRANCH  15  16
ENDBRANCH   1  15
TORSDOF 22
ENDMDL
MODEL 8
REMARK VINA RESULT:    -2.683      2.962      6.340
REMARK INTER + INTRA:         -10.322
REMARK INTER:                  -6.429
REMARK INTRA:                  -3.893
REMARK UNBOUND:                -4.189
REMARK SMILES CCCCCCCCCCCCCCCCCCCCCCCC(=O)[O-]
REMARK SMILES IDX 13 1 14 2 15 3 16 4 17 5 18 6 19 7 20 8 21 9 22 10 23 11
REMARK SMILES IDX 24 12 25 13 26 14 12 15 11 16 10 17 9 18 8 19 7 20 6 21 5 22
REMARK SMILES IDX 4 23 3 24 2 25 1 26
REMARK H PARENT
REMARK Flexibility Score: inf
ROOT
ATOM      1  C   UNL     1      -4.719   9.066  -4.617  1.00  0.00     0.000 C 
ENDROOT
BRANCH   1   2
ATOM      2  C   UNL     1      -6.109   8.774  -5.207  1.00  0.00     0.000 C 
BRANCH   2   3
ATOM      3  C   UNL     1      -6.473   9.597  -6.459  1.00  0.00     0.000 C 
BRANCH   3   4
ATOM      4  C   UNL     1      -6.720  11.094  -6.173  1.00  0.00     0.000 C 
BRANCH   4   5
ATOM      5  C   UNL     1      -5.524  11.971  -6.587  1.00  0.00     0.000 C 
BRANCH   5   6
ATOM      6  C   UNL     1      -5.241  13.098  -5.580  1.00  0.00     0.000 C 
BRANCH   6   7
ATOM      7  C   UNL     1      -6.032  12.933  -4.271  1.00  0.00     0.000 C 
BRANCH   7   8
ATOM      8  C   UNL     1      -5.125  12.937  -3.029  1.00  0.00     0.000 C 
BRANCH   8   9
ATOM      9  C   UNL     1      -5.764  13.659  -1.830  1.00  0.00     0.000 C 
BRANCH   9  10
ATOM     10  C   UNL     1      -5.175  13.219  -0.477  1.00  0.00     0.006 C 
BRANCH  10  11
ATOM     11  C   UNL     1      -3.750  12.644  -0.575  1.00  0.00     0.053 C 
BRANCH  11  12
ATOM     12  C   UNL     1      -2.695  13.669  -0.289  1.00  0.00     0.041 C 
ATOM     13  O   UNL     1      -2.178  14.326  -1.232  1.00  0.00    -0.550 OA
ATOM     14  O   UNL     1      -2.308  13.929   1.021  1.00  0.00    -0.550 OA
ENDBRANCH  11  12
ENDBRANCH  10  11
ENDBRANCH   9  10
ENDBRANCH   8   9
ENDBRANCH   7   8
ENDBRANCH   6   7
ENDBRANCH   5   6
ENDBRANCH   4   5
ENDBRANCH   3   4
ENDBRANCH   2   3
ENDBRANCH   1   2
BRANCH   1  15
ATOM     15  C   UNL     1      -3.576   8.682  -5.573  1.00  0.00     0.000 C 
BRANCH  15  16
ATOM     16  C   UNL     1      -2.503   9.778  -5.679  1.00  0.00     0.000 C 
BRANCH  16  17
ATOM     17  C   UNL     1      -2.524  10.745  -4.486  1.00  0.00     0.000 C 
BRANCH  17  18
ATOM     18  C   UNL     1      -1.350  11.732  -4.560  1.00  0.00    -0.000 C 
BRANCH  18  19
ATOM     19  C   UNL     1      -1.801  13.202  -4.635  1.00  0.00    -0.000 C 
BRANCH  19  20
ATOM     20  C   UNL     1      -1.558  13.889  -5.992  1.00  0.00    -0.000 C 
BRANCH  20  21
ATOM     21  C   UNL     1      -0.155  13.623  -6.555  1.00  0.00    -0.000 C 
BRANCH  21  22
ATOM     22  C   UNL     1      -0.233  13.062  -7.983  1.00  0.00    -0.000 C 
BRANCH  22  23
ATOM     23  C   UNL     1      -0.303  11.525  -8.024  1.00  0.00    -0.000 C 
BRANCH  23  24
ATOM     24  C   UNL     1       1.054  10.810  -7.900  1.00  0.00    -0.000 C 
BRANCH  24  25
ATOM     25  C   UNL     1       1.044   9.685  -6.853  1.00  0.00    -0.003 C 
ATOM     26  C   UNL     1       1.687  10.145  -5.548  1.00  0.00     0.004 C 
ENDBRANCH  24  25
ENDBRANCH  23  24
ENDBRANCH  22  23
ENDBRANCH  21  22
ENDBRANCH  20  21
ENDBRANCH  19  20
ENDBRANCH  18  19
ENDBRANCH  17  18
ENDBRANCH  16  17
ENDBRANCH  15  16
ENDBRANCH   1  15
TORSDOF 22
ENDMDL
MODEL 9
REMARK VINA RESULT:    -2.669      8.649     12.011
REMARK INTER + INTRA:         -10.291
REMARK INTER:                  -6.700
REMARK INTRA:                  -3.590
REMARK UNBOUND:                -4.189
REMARK SMILES CCCCCCCCCCCCCCCCCCCCCCCC(=O)[O-]
REMARK SMILES IDX 13 1 14 2 15 3 16 4 17 5 18 6 19 7 20 8 21 9 22 10 23 11
REMARK SMILES IDX 24 12 25 13 26 14 12 15 11 16 10 17 9 18 8 19 7 20 6 21 5 22
REMARK SMILES IDX 4 23 3 24 2 25 1 26
REMARK H PARENT
REMARK Flexibility Score: inf
ROOT
ATOM      1  C   UNL     1       6.234  13.469   0.899  1.00  0.00     0.000 C 
ENDROOT
BRANCH   1   2
ATOM      2  C   UNL     1       6.040  13.385  -0.624  1.00  0.00     0.000 C 
BRANCH   2   3
ATOM      3  C   UNL     1       5.058  12.296  -1.098  1.00  0.00     0.000 C 
BRANCH   3   4
ATOM      4  C   UNL     1       5.479  11.605  -2.413  1.00  0.00     0.000 C 
BRANCH   4   5
ATOM      5  C   UNL     1       6.805  10.834  -2.268  1.00  0.00     0.000 C 
BRANCH   5   6
ATOM      6  C   UNL     1       6.601   9.311  -2.210  1.00  0.00     0.000 C 
BRANCH   6   7
ATOM      7  C   UNL     1       7.598   8.548  -3.099  1.00  0.00     0.000 C 
BRANCH   7   8
ATOM      8  C   UNL     1       6.939   7.967  -4.361  1.00  0.00     0.000 C 
BRANCH   8   9
ATOM      9  C   UNL     1       5.406   8.098  -4.344  1.00  0.00     0.000 C 
BRANCH   9  10
ATOM     10  C   UNL     1       4.837   8.692  -5.646  1.00  0.00     0.006 C 
BRANCH  10  11
ATOM     11  C   UNL     1       4.402  10.163  -5.522  1.00  0.00     0.053 C 
BRANCH  11  12
ATOM     12  C   UNL     1       2.915  10.331  -5.592  1.00  0.00     0.041 C 
ATOM     13  O   UNL     1       2.285  10.817  -4.615  1.00  0.00    -0.550 OA
ATOM     14  O   UNL     1       2.225   9.987  -6.750  1.00  0.00    -0.550 OA
ENDBRANCH  11  12
ENDBRANCH  10  11
ENDBRANCH   9  10
ENDBRANCH   8   9
ENDBRANCH   7   8
ENDBRANCH   6   7
ENDBRANCH   5   6
ENDBRANCH   4   5
ENDBRANCH   3   4
ENDBRANCH   2   3
ENDBRANCH   1   2
BRANCH   1  15
ATOM     15  C   UNL     1       7.672  13.133   1.334  1.00  0.00     0.000 C 
BRANCH  15  16
ATOM     16  C   UNL     1       7.750  11.834   2.152  1.00  0.00     0.000 C 
BRANCH  16  17
ATOM     17  C   UNL     1       7.771  10.577   1.269  1.00  0.00     0.000 C 
BRANCH  17  18
ATOM     18  C   UNL     1       6.490   9.751   1.459  1.00  0.00    -0.000 C 
BRANCH  18  19
ATOM     19  C   UNL     1       6.770   8.280   1.816  1.00  0.00    -0.000 C 
BRANCH  19  20
ATOM     20  C   UNL     1       8.075   7.705   1.234  1.00  0.00    -0.000 C 
BRANCH  20  21
ATOM     21  C   UNL     1       9.073   7.269   2.316  1.00  0.00    -0.000 C 
BRANCH  21  22
ATOM     22  C   UNL     1      10.199   8.301   2.474  1.00  0.00    -0.000 C 
BRANCH  22  23
ATOM     23  C   UNL     1      10.119   9.083   3.797  1.00  0.00    -0.000 C 
BRANCH  23  24
ATOM     24  C   UNL     1       9.105   8.533   4.816  1.00  0.00    -0.000 C 
BRANCH  24  25
ATOM     25  C   UNL     1       7.904   9.467   5.029  1.00  0.00    -0.003 C 
ATOM     26  C   UNL     1       8.333  10.762   5.713  1.00  0.00     0.004 C 
ENDBRANCH  24  25
ENDBRANCH  23  24
ENDBRANCH  22  23
ENDBRANCH  21  22
ENDBRANCH  20  21
ENDBRANCH  19  20
ENDBRANCH  18  19
ENDBRANCH  17  18
ENDBRANCH  16  17
ENDBRANCH  15  16
ENDBRANCH   1  15
TORSDOF 22
ENDMDL
