MODEL 1
REMARK VINA RESULT:    -2.492      0.000      0.000
REMARK INTER + INTRA:          -3.013
REMARK INTER:                  -2.929
REMARK INTRA:                  -0.084
REMARK UNBOUND:                -0.084
REMARK SMILES O=C([O-])CCC(=O)[O-]
REMARK SMILES IDX 4 1 2 2 1 3 3 4 5 5 6 6 7 7 8 8
REMARK H PARENT
REMARK Flexibility Score: inf
ROOT
ATOM      1  C   UNL     1      66.593  56.522  11.027  1.00  0.00     0.059 C 
ENDROOT
BRANCH   1   2
ATOM      2  C   UNL     1      66.949  55.147  10.550  1.00  0.00     0.042 C 
ATOM      3  O   UNL     1      67.799  54.996   9.633  1.00  0.00    -0.550 OA
ATOM      4  O   UNL     1      66.313  54.036  11.089  1.00  0.00    -0.550 OA
ENDBRANCH   1   2
BRANCH   1   5
ATOM      5  C   UNL     1      65.076  56.711  11.125  1.00  0.00     0.059 C 
BRANCH   5   6
ATOM      6  C   UNL     1      64.563  57.623  10.053  1.00  0.00     0.042 C 
ATOM      7  O   UNL     1      65.281  57.893   9.054  1.00  0.00    -0.550 OA
ATOM      8  O   UNL     1      63.278  58.142  10.138  1.00  0.00    -0.550 OA
ENDBRANCH   5   6
ENDBRANCH   1   5
TORSDOF 3
ENDMDL
MODEL 2
REMARK VINA RESULT:    -2.460      1.845      2.702
REMARK INTER + INTRA:          -2.975
REMARK INTER:                  -2.857
REMARK INTRA:                  -0.118
REMARK UNBOUND:                -0.084
REMARK SMILES O=C([O-])CCC(=O)[O-]
REMARK SMILES IDX 4 1 2 2 1 3 3 4 5 5 6 6 7 7 8 8
REMARK H PARENT
REMARK Flexibility Score: inf
ROOT
ATOM      1  C   UNL     1      64.625  58.140  10.464  1.00  0.00     0.059 C 
ENDROOT
BRANCH   1   2
ATOM      2  C   UNL     1      65.564  57.255   9.703  1.00  0.00     0.042 C 
ATOM      3  O   UNL     1      65.632  57.335   8.448  1.00  0.00    -0.550 OA
ATOM      4  O   UNL     1      66.333  56.313  10.375  1.00  0.00    -0.550 OA
ENDBRANCH   1   2
BRANCH   1   5
ATOM      5  C   UNL     1      63.299  57.433  10.763  1.00  0.00     0.059 C 
BRANCH   5   6
ATOM      6  C   UNL     1      62.319  57.603   9.643  1.00  0.00     0.042 C 
ATOM      7  O   UNL     1      61.921  58.753   9.317  1.00  0.00    -0.550 OA
ATOM      8  O   UNL     1      61.875  56.494   8.933  1.00  0.00    -0.550 OA
ENDBRANCH   5   6
ENDBRANCH   1   5
TORSDOF 3
ENDMDL
MODEL 3
REMARK VINA RESULT:    -2.432      2.516      4.782
REMARK INTER + INTRA:          -2.943
REMARK INTER:                  -2.910
REMARK INTRA:                  -0.033
REMARK UNBOUND:                -0.084
REMARK SMILES O=C([O-])CCC(=O)[O-]
REMARK SMILES IDX 4 1 2 2 1 3 3 4 5 5 6 6 7 7 8 8
REMARK H PARENT
REMARK Flexibility Score: inf
ROOT
ATOM      1  C   UNL     1      68.013  55.008  10.127  1.00  0.00     0.059 C 
ENDROOT
BRANCH   1   2
ATOM      2  C   UNL     1      66.679  54.765  10.766  1.00  0.00     0.042 C 
ATOM      3  O   UNL     1      66.300  53.590  11.014  1.00  0.00    -0.550 OA
ATOM      4  O   UNL     1      65.837  55.834  11.049  1.00  0.00    -0.550 OA
ENDBRANCH   1   2
BRANCH   1   5
ATOM      5  C   UNL     1      69.019  55.589  11.125  1.00  0.00     0.059 C 
BRANCH   5   6
ATOM      6  C   UNL     1      70.428  55.441  10.638  1.00  0.00     0.042 C 
ATOM      7  O   UNL     1      70.797  54.374  10.081  1.00  0.00    -0.550 OA
ATOM      8  O   UNL     1      71.322  56.497  10.763  1.00  0.00    -0.550 OA
ENDBRANCH   5   6
ENDBRANCH   1   5
TORSDOF 3
ENDMDL
MODEL 4
REMARK VINA RESULT:    -2.342      0.953      4.000
REMARK INTER + INTRA:          -2.837
REMARK INTER:                  -2.808
REMARK INTRA:                  -0.029
REMARK UNBOUND:                -0.084
REMARK SMILES O=C([O-])CCC(=O)[O-]
REMARK SMILES IDX 4 1 2 2 1 3 3 4 5 5 6 6 7 7 8 8
REMARK H PARENT
REMARK Flexibility Score: inf
ROOT
ATOM      1  C   UNL     1      65.666  57.011   9.666  1.00  0.00     0.059 C 
ENDROOT
BRANCH   1   2
ATOM      2  C   UNL     1      64.733  58.054  10.202  1.00  0.00     0.042 C 
ATOM      3  O   UNL     1      65.109  58.826  11.123  1.00  0.00    -0.550 OA
ATOM      4  O   UNL     1      63.436  58.147   9.713  1.00  0.00    -0.550 OA
ENDBRANCH   1   2
BRANCH   1   5
ATOM      5  C   UNL     1      66.479  56.353  10.786  1.00  0.00     0.059 C 
BRANCH   5   6
ATOM      6  C   UNL     1      67.004  55.012  10.371  1.00  0.00     0.042 C 
ATOM      7  O   UNL     1      67.984  54.931   9.584  1.00  0.00    -0.550 OA
ATOM      8  O   UNL     1      66.437  53.854  10.886  1.00  0.00    -0.550 OA
ENDBRANCH   5   6
ENDBRANCH   1   5
TORSDOF 3
ENDMDL
MODEL 5
REMARK VINA RESULT:    -1.922      1.714      2.232
REMARK INTER + INTRA:          -2.343
REMARK INTER:                  -2.243
REMARK INTRA:                  -0.100
REMARK UNBOUND:                -0.084
REMARK SMILES O=C([O-])CCC(=O)[O-]
REMARK SMILES IDX 4 1 2 2 1 3 3 4 5 5 6 6 7 7 8 8
REMARK H PARENT
REMARK Flexibility Score: inf
ROOT
ATOM      1  C   UNL     1      65.344  57.252   8.917  1.00  0.00     0.059 C 
ENDROOT
BRANCH   1   2
ATOM      2  C   UNL     1      66.348  56.603   9.822  1.00  0.00     0.042 C 
ATOM      3  O   UNL     1      67.023  55.620   9.416  1.00  0.00    -0.550 OA
ATOM      4  O   UNL     1      66.507  57.056  11.125  1.00  0.00    -0.550 OA
ENDBRANCH   1   2
BRANCH   1   5
ATOM      5  C   UNL     1      64.538  58.329   9.649  1.00  0.00     0.059 C 
BRANCH   5   6
ATOM      6  C   UNL     1      63.178  57.834  10.034  1.00  0.00     0.042 C 
ATOM      7  O   UNL     1      62.146  58.426   9.617  1.00  0.00    -0.550 OA
ATOM      8  O   UNL     1      63.048  56.696  10.820  1.00  0.00    -0.550 OA
ENDBRANCH   5   6
ENDBRANCH   1   5
TORSDOF 3
ENDMDL
MODEL 6
REMARK VINA RESULT:    -1.656      1.893      4.522
REMARK INTER + INTRA:          -2.030
REMARK INTER:                  -1.997
REMARK INTRA:                  -0.033
REMARK UNBOUND:                -0.084
REMARK SMILES O=C([O-])CCC(=O)[O-]
REMARK SMILES IDX 4 1 2 2 1 3 3 4 5 5 6 6 7 7 8 8
REMARK H PARENT
REMARK Flexibility Score: inf
ROOT
ATOM      1  C   UNL     1      67.240  56.397  11.077  1.00  0.00     0.059 C 
ENDROOT
BRANCH   1   2
ATOM      2  C   UNL     1      65.816  56.582  10.650  1.00  0.00     0.042 C 
ATOM      3  O   UNL     1      64.912  55.846  11.125  1.00  0.00    -0.550 OA
ATOM      4  O   UNL     1      65.493  57.540   9.697  1.00  0.00    -0.550 OA
ENDBRANCH   1   2
BRANCH   1   5
ATOM      5  C   UNL     1      67.781  55.026  10.659  1.00  0.00     0.059 C 
BRANCH   5   6
ATOM      6  C   UNL     1      69.255  54.917  10.901  1.00  0.00     0.042 C 
ATOM      7  O   UNL     1      69.970  55.953  10.941  1.00  0.00    -0.550 OA
ATOM      8  O   UNL     1      69.833  53.674  11.124  1.00  0.00    -0.550 OA
ENDBRANCH   5   6
ENDBRANCH   1   5
TORSDOF 3
ENDMDL
MODEL 7
REMARK VINA RESULT:    -1.415      2.287      3.679
REMARK INTER + INTRA:          -1.747
REMARK INTER:                  -1.714
REMARK INTRA:                  -0.033
REMARK UNBOUND:                -0.084
REMARK SMILES O=C([O-])CCC(=O)[O-]
REMARK SMILES IDX 4 1 2 2 1 3 3 4 5 5 6 6 7 7 8 8
REMARK H PARENT
REMARK Flexibility Score: inf
ROOT
ATOM      1  C   UNL     1      68.668  55.009  10.029  1.00  0.00     0.059 C 
ENDROOT
BRANCH   1   2
ATOM      2  C   UNL     1      70.114  54.955  10.421  1.00  0.00     0.042 C 
ATOM      3  O   UNL     1      70.631  53.866  10.783  1.00  0.00    -0.550 OA
ATOM      4  O   UNL     1      70.878  56.115  10.425  1.00  0.00    -0.550 OA
ENDBRANCH   1   2
BRANCH   1   5
ATOM      5  C   UNL     1      67.810  55.649  11.125  1.00  0.00     0.059 C 
BRANCH   5   6
ATOM      6  C   UNL     1      66.394  55.161  11.072  1.00  0.00     0.042 C 
ATOM      7  O   UNL     1      65.442  55.984  11.009  1.00  0.00    -0.550 OA
ATOM      8  O   UNL     1      66.128  53.798  11.053  1.00  0.00    -0.550 OA
ENDBRANCH   5   6
ENDBRANCH   1   5
TORSDOF 3
ENDMDL
