MODEL 1
REMARK VINA RESULT:    -3.236      0.000      0.000
REMARK INTER + INTRA:          -4.048
REMARK INTER:                  -3.993
REMARK INTRA:                  -0.055
REMARK UNBOUND:                -0.055
REMARK SMILES CCCCCC(=O)[O-]
REMARK SMILES IDX 4 1 5 2 6 3 7 4 8 5 3 6 2 7 1 8
REMARK H PARENT
REMARK Flexibility Score: inf
ROOT
ATOM      1  C   UNL     1      44.894  12.403 -33.653  1.00  0.00     0.006 C 
ENDROOT
BRANCH   1   2
ATOM      2  C   UNL     1      43.432  12.049 -33.957  1.00  0.00     0.053 C 
BRANCH   2   3
ATOM      3  C   UNL     1      43.161  12.024 -35.431  1.00  0.00     0.041 C 
ATOM      4  O   UNL     1      44.088  11.755 -36.239  1.00  0.00    -0.550 OA
ATOM      5  O   UNL     1      41.895  12.328 -35.912  1.00  0.00    -0.550 OA
ENDBRANCH   2   3
ENDBRANCH   1   2
BRANCH   1   6
ATOM      6  C   UNL     1      45.131  12.666 -32.158  1.00  0.00     0.000 C 
BRANCH   6   7
ATOM      7  C   UNL     1      46.382  11.932 -31.663  1.00  0.00    -0.003 C 
ATOM      8  C   UNL     1      46.282  11.615 -30.174  1.00  0.00     0.004 C 
ENDBRANCH   6   7
ENDBRANCH   1   6
TORSDOF 4
ENDMDL
MODEL 2
REMARK VINA RESULT:    -3.186     19.405     20.083
REMARK INTER + INTRA:          -3.986
REMARK INTER:                  -3.825
REMARK INTRA:                  -0.162
REMARK UNBOUND:                -0.055
REMARK SMILES CCCCCC(=O)[O-]
REMARK SMILES IDX 4 1 5 2 6 3 7 4 8 5 3 6 2 7 1 8
REMARK H PARENT
REMARK Flexibility Score: inf
ROOT
ATOM      1  C   UNL     1      56.481  28.953 -36.456  1.00  0.00     0.006 C 
ENDROOT
BRANCH   1   2
ATOM      2  C   UNL     1      56.147  28.529 -35.019  1.00  0.00     0.053 C 
BRANCH   2   3
ATOM      3  C   UNL     1      56.196  27.040 -34.854  1.00  0.00     0.041 C 
ATOM      4  O   UNL     1      57.123  26.507 -34.190  1.00  0.00    -0.550 OA
ATOM      5  O   UNL     1      55.236  26.240 -35.460  1.00  0.00    -0.550 OA
ENDBRANCH   2   3
ENDBRANCH   1   2
BRANCH   1   6
ATOM      6  C   UNL     1      55.240  29.428 -37.226  1.00  0.00     0.000 C 
BRANCH   6   7
ATOM      7  C   UNL     1      55.213  28.839 -38.641  1.00  0.00    -0.003 C 
ATOM      8  C   UNL     1      54.162  27.739 -38.760  1.00  0.00     0.004 C 
ENDBRANCH   6   7
ENDBRANCH   1   6
TORSDOF 4
ENDMDL
MODEL 3
REMARK VINA RESULT:    -3.089     19.063     19.684
REMARK INTER + INTRA:          -3.866
REMARK INTER:                  -3.785
REMARK INTRA:                  -0.082
REMARK UNBOUND:                -0.055
REMARK SMILES CCCCCC(=O)[O-]
REMARK SMILES IDX 4 1 5 2 6 3 7 4 8 5 3 6 2 7 1 8
REMARK H PARENT
REMARK Flexibility Score: inf
ROOT
ATOM      1  C   UNL     1      56.465  28.141 -32.893  1.00  0.00     0.006 C 
ENDROOT
BRANCH   1   2
ATOM      2  C   UNL     1      56.778  26.979 -33.845  1.00  0.00     0.053 C 
BRANCH   2   3
ATOM      3  C   UNL     1      55.857  26.965 -35.026  1.00  0.00     0.041 C 
ATOM      4  O   UNL     1      55.257  25.906 -35.348  1.00  0.00    -0.550 OA
ATOM      5  O   UNL     1      55.687  28.112 -35.791  1.00  0.00    -0.550 OA
ENDBRANCH   2   3
ENDBRANCH   1   2
BRANCH   1   6
ATOM      6  C   UNL     1      56.377  27.688 -31.428  1.00  0.00     0.000 C 
BRANCH   6   7
ATOM      7  C   UNL     1      56.146  28.882 -30.496  1.00  0.00    -0.003 C 
ATOM      8  C   UNL     1      55.633  30.094 -31.269  1.00  0.00     0.004 C 
ENDBRANCH   6   7
ENDBRANCH   1   6
TORSDOF 4
ENDMDL
MODEL 4
REMARK VINA RESULT:    -2.997      3.150      5.021
REMARK INTER + INTRA:          -3.753
REMARK INTER:                  -3.702
REMARK INTRA:                  -0.051
REMARK UNBOUND:                -0.055
REMARK SMILES CCCCCC(=O)[O-]
REMARK SMILES IDX 4 1 5 2 6 3 7 4 8 5 3 6 2 7 1 8
REMARK H PARENT
REMARK Flexibility Score: inf
ROOT
ATOM      1  C   UNL     1      44.141  12.391 -33.297  1.00  0.00     0.006 C 
ENDROOT
BRANCH   1   2
ATOM      2  C   UNL     1      45.587  12.677 -32.870  1.00  0.00     0.053 C 
BRANCH   2   3
ATOM      3  C   UNL     1      45.849  12.236 -31.462  1.00  0.00     0.041 C 
ATOM      4  O   UNL     1      45.341  12.866 -30.497  1.00  0.00    -0.550 OA
ATOM      5  O   UNL     1      46.678  11.150 -31.215  1.00  0.00    -0.550 OA
ENDBRANCH   2   3
ENDBRANCH   1   2
BRANCH   1   6
ATOM      6  C   UNL     1      44.026  12.084 -34.797  1.00  0.00     0.000 C 
BRANCH   6   7
ATOM      7  C   UNL     1      42.578  11.762 -35.183  1.00  0.00    -0.003 C 
ATOM      8  C   UNL     1      41.958  12.896 -35.995  1.00  0.00     0.004 C 
ENDBRANCH   6   7
ENDBRANCH   1   6
TORSDOF 4
ENDMDL
MODEL 5
REMARK VINA RESULT:    -2.900      3.378      5.610
REMARK INTER + INTRA:          -3.633
REMARK INTER:                  -3.560
REMARK INTRA:                  -0.073
REMARK UNBOUND:                -0.055
REMARK SMILES CCCCCC(=O)[O-]
REMARK SMILES IDX 4 1 5 2 6 3 7 4 8 5 3 6 2 7 1 8
REMARK H PARENT
REMARK Flexibility Score: inf
ROOT
ATOM      1  C   UNL     1      41.515  13.488 -36.440  1.00  0.00     0.006 C 
ENDROOT
BRANCH   1   2
ATOM      2  C   UNL     1      41.820  12.145 -35.763  1.00  0.00     0.053 C 
BRANCH   2   3
ATOM      3  C   UNL     1      43.284  11.977 -35.495  1.00  0.00     0.041 C 
ATOM      4  O   UNL     1      43.722  12.027 -34.316  1.00  0.00    -0.550 OA
ATOM      5  O   UNL     1      44.169  11.798 -36.551  1.00  0.00    -0.550 OA
ENDBRANCH   2   3
ENDBRANCH   1   2
BRANCH   1   6
ATOM      6  C   UNL     1      40.422  14.277 -35.705  1.00  0.00     0.000 C 
BRANCH   6   7
ATOM      7  C   UNL     1      39.026  13.795 -36.116  1.00  0.00    -0.003 C 
ATOM      8  C   UNL     1      37.963  14.286 -35.138  1.00  0.00     0.004 C 
ENDBRANCH   6   7
ENDBRANCH   1   6
TORSDOF 4
ENDMDL
MODEL 6
REMARK VINA RESULT:    -2.879     20.005     20.459
REMARK INTER + INTRA:          -3.607
REMARK INTER:                  -3.502
REMARK INTRA:                  -0.105
REMARK UNBOUND:                -0.055
REMARK SMILES CCCCCC(=O)[O-]
REMARK SMILES IDX 4 1 5 2 6 3 7 4 8 5 3 6 2 7 1 8
REMARK H PARENT
REMARK Flexibility Score: inf
ROOT
ATOM      1  C   UNL     1      56.384  28.837 -35.839  1.00  0.00     0.006 C 
ENDROOT
BRANCH   1   2
ATOM      2  C   UNL     1      55.773  30.193 -36.221  1.00  0.00     0.053 C 
BRANCH   2   3
ATOM      3  C   UNL     1      54.954  30.101 -37.472  1.00  0.00     0.041 C 
ATOM      4  O   UNL     1      55.287  29.305 -38.389  1.00  0.00    -0.550 OA
ATOM      5  O   UNL     1      53.842  30.916 -37.638  1.00  0.00    -0.550 OA
ENDBRANCH   2   3
ENDBRANCH   1   2
BRANCH   1   6
ATOM      6  C   UNL     1      56.532  28.673 -34.319  1.00  0.00     0.000 C 
BRANCH   6   7
ATOM      7  C   UNL     1      56.139  27.258 -33.879  1.00  0.00    -0.003 C 
ATOM      8  C   UNL     1      55.548  26.463 -35.040  1.00  0.00     0.004 C 
ENDBRANCH   6   7
ENDBRANCH   1   6
TORSDOF 4
ENDMDL
MODEL 7
REMARK VINA RESULT:    -2.864     19.475     19.951
REMARK INTER + INTRA:          -3.588
REMARK INTER:                  -3.500
REMARK INTRA:                  -0.089
REMARK UNBOUND:                -0.055
REMARK SMILES CCCCCC(=O)[O-]
REMARK SMILES IDX 4 1 5 2 6 3 7 4 8 5 3 6 2 7 1 8
REMARK H PARENT
REMARK Flexibility Score: inf
ROOT
ATOM      1  C   UNL     1      55.607  27.352 -35.519  1.00  0.00     0.006 C 
ENDROOT
BRANCH   1   2
ATOM      2  C   UNL     1      56.092  28.729 -35.993  1.00  0.00     0.053 C 
BRANCH   2   3
ATOM      3  C   UNL     1      55.275  29.241 -37.140  1.00  0.00     0.041 C 
ATOM      4  O   UNL     1      54.994  30.466 -37.219  1.00  0.00    -0.550 OA
ATOM      5  O   UNL     1      54.797  28.362 -38.103  1.00  0.00    -0.550 OA
ENDBRANCH   2   3
ENDBRANCH   1   2
BRANCH   1   6
ATOM      6  C   UNL     1      56.291  26.909 -34.218  1.00  0.00     0.000 C 
BRANCH   6   7
ATOM      7  C   UNL     1      56.419  28.081 -33.239  1.00  0.00    -0.003 C 
ATOM      8  C   UNL     1      56.378  27.599 -31.791  1.00  0.00     0.004 C 
ENDBRANCH   6   7
ENDBRANCH   1   6
TORSDOF 4
ENDMDL
MODEL 8
REMARK VINA RESULT:    -2.805     19.891     20.641
REMARK INTER + INTRA:          -3.516
REMARK INTER:                  -3.411
REMARK INTRA:                  -0.105
REMARK UNBOUND:                -0.055
REMARK SMILES CCCCCC(=O)[O-]
REMARK SMILES IDX 4 1 5 2 6 3 7 4 8 5 3 6 2 7 1 8
REMARK H PARENT
REMARK Flexibility Score: inf
ROOT
ATOM      1  C   UNL     1      56.748  27.927 -32.849  1.00  0.00     0.006 C 
ENDROOT
BRANCH   1   2
ATOM      2  C   UNL     1      56.369  27.658 -31.386  1.00  0.00     0.053 C 
BRANCH   2   3
ATOM      3  C   UNL     1      56.085  28.927 -30.643  1.00  0.00     0.041 C 
ATOM      4  O   UNL     1      55.558  29.904 -31.238  1.00  0.00    -0.550 OA
ATOM      5  O   UNL     1      56.431  29.043 -29.303  1.00  0.00    -0.550 OA
ENDBRANCH   2   3
ENDBRANCH   1   2
BRANCH   1   6
ATOM      6  C   UNL     1      55.979  27.025 -33.825  1.00  0.00     0.000 C 
BRANCH   6   7
ATOM      7  C   UNL     1      55.978  27.620 -35.238  1.00  0.00    -0.003 C 
ATOM      8  C   UNL     1      57.028  28.719 -35.374  1.00  0.00     0.004 C 
ENDBRANCH   6   7
ENDBRANCH   1   6
TORSDOF 4
ENDMDL
MODEL 9
REMARK VINA RESULT:    -2.726     19.768     20.498
REMARK INTER + INTRA:          -3.418
REMARK INTER:                  -3.344
REMARK INTRA:                  -0.074
REMARK UNBOUND:                -0.055
REMARK SMILES CCCCCC(=O)[O-]
REMARK SMILES IDX 4 1 5 2 6 3 7 4 8 5 3 6 2 7 1 8
REMARK H PARENT
REMARK Flexibility Score: inf
ROOT
ATOM      1  C   UNL     1      56.716  28.055 -35.008  1.00  0.00     0.006 C 
ENDROOT
BRANCH   1   2
ATOM      2  C   UNL     1      56.408  27.194 -33.775  1.00  0.00     0.053 C 
BRANCH   2   3
ATOM      3  C   UNL     1      56.291  28.023 -32.533  1.00  0.00     0.041 C 
ATOM      4  O   UNL     1      56.238  29.279 -32.613  1.00  0.00    -0.550 OA
ATOM      5  O   UNL     1      56.274  27.412 -31.286  1.00  0.00    -0.550 OA
ENDBRANCH   2   3
ENDBRANCH   1   2
BRANCH   1   6
ATOM      6  C   UNL     1      55.601  27.985 -36.061  1.00  0.00     0.000 C 
BRANCH   6   7
ATOM      7  C   UNL     1      55.601  29.237 -36.945  1.00  0.00    -0.003 C 
ATOM      8  C   UNL     1      55.157  28.908 -38.368  1.00  0.00     0.004 C 
ENDBRANCH   6   7
ENDBRANCH   1   6
TORSDOF 4
ENDMDL
