MODEL 1
REMARK VINA RESULT:    -5.083      0.000      0.000
REMARK INTER + INTRA:         -10.937
REMARK INTER:                  -8.946
REMARK INTRA:                  -1.991
REMARK UNBOUND:                -1.991
REMARK SMILES CCCCCCCCCCCCCCC(=O)[O-]
REMARK SMILES IDX 9 1 10 2 11 3 12 4 13 5 14 6 15 7 16 8 17 9 8 10 7 11 6 12
REMARK SMILES IDX 5 13 4 14 3 15 2 16 1 17
REMARK H PARENT
REMARK Flexibility Score: inf
ROOT
ATOM      1  C   UNL     1      15.472  -5.110  12.136  1.00  0.00     0.000 C 
ENDROOT
BRANCH   1   2
ATOM      2  C   UNL     1      16.410  -5.590  11.022  1.00  0.00     0.000 C 
BRANCH   2   3
ATOM      3  C   UNL     1      17.795  -5.939  11.580  1.00  0.00     0.000 C 
BRANCH   3   4
ATOM      4  C   UNL     1      17.984  -5.354  12.988  1.00  0.00     0.000 C 
BRANCH   4   5
ATOM      5  C   UNL     1      19.234  -4.467  13.097  1.00  0.00     0.006 C 
BRANCH   5   6
ATOM      6  C   UNL     1      18.927  -2.981  12.866  1.00  0.00     0.053 C 
BRANCH   6   7
ATOM      7  C   UNL     1      18.219  -2.406  14.052  1.00  0.00     0.041 C 
ATOM      8  O   UNL     1      18.633  -2.648  15.216  1.00  0.00    -0.550 OA
ATOM      9  O   UNL     1      17.130  -1.562  13.870  1.00  0.00    -0.550 OA
ENDBRANCH   6   7
ENDBRANCH   5   6
ENDBRANCH   4   5
ENDBRANCH   3   4
ENDBRANCH   2   3
ENDBRANCH   1   2
BRANCH   1  10
ATOM     10  C   UNL     1      14.109  -5.806  12.045  1.00  0.00     0.000 C 
BRANCH  10  11
ATOM     11  C   UNL     1      13.849  -6.672  13.286  1.00  0.00    -0.000 C 
BRANCH  11  12
ATOM     12  C   UNL     1      15.098  -7.440  13.752  1.00  0.00    -0.000 C 
BRANCH  12  13
ATOM     13  C   UNL     1      15.359  -7.332  15.269  1.00  0.00    -0.000 C 
BRANCH  13  14
ATOM     14  C   UNL     1      14.739  -6.060  15.875  1.00  0.00    -0.000 C 
BRANCH  14  15
ATOM     15  C   UNL     1      15.724  -4.881  15.911  1.00  0.00    -0.000 C 
BRANCH  15  16
ATOM     16  C   UNL     1      15.018  -3.526  16.059  1.00  0.00    -0.003 C 
ATOM     17  C   UNL     1      13.510  -3.706  16.211  1.00  0.00     0.004 C 
ENDBRANCH  15  16
ENDBRANCH  14  15
ENDBRANCH  13  14
ENDBRANCH  12  13
ENDBRANCH  11  12
ENDBRANCH  10  11
ENDBRANCH   1  10
TORSDOF 13
ENDMDL
MODEL 2
REMARK VINA RESULT:    -5.078      2.138      3.770
REMARK INTER + INTRA:         -10.928
REMARK INTER:                  -9.037
REMARK INTRA:                  -1.891
REMARK UNBOUND:                -1.991
REMARK SMILES CCCCCCCCCCCCCCC(=O)[O-]
REMARK SMILES IDX 9 1 10 2 11 3 12 4 13 5 14 6 15 7 16 8 17 9 8 10 7 11 6 12
REMARK SMILES IDX 5 13 4 14 3 15 2 16 1 17
REMARK H PARENT
REMARK Flexibility Score: inf
ROOT
ATOM      1  C   UNL     1      17.510  -4.252  13.849  1.00  0.00     0.000 C 
ENDROOT
BRANCH   1   2
ATOM      2  C   UNL     1      18.362  -4.440  12.589  1.00  0.00     0.000 C 
BRANCH   2   3
ATOM      3  C   UNL     1      18.226  -5.866  12.039  1.00  0.00     0.000 C 
BRANCH   3   4
ATOM      4  C   UNL     1      16.752  -6.219  11.788  1.00  0.00     0.000 C 
BRANCH   4   5
ATOM      5  C   UNL     1      16.217  -5.626  10.474  1.00  0.00     0.006 C 
BRANCH   5   6
ATOM      6  C   UNL     1      14.710  -5.346  10.523  1.00  0.00     0.053 C 
BRANCH   6   7
ATOM      7  C   UNL     1      14.377  -4.485  11.699  1.00  0.00     0.041 C 
ATOM      8  O   UNL     1      14.673  -3.260  11.692  1.00  0.00    -0.550 OA
ATOM      9  O   UNL     1      13.696  -5.022  12.785  1.00  0.00    -0.550 OA
ENDBRANCH   6   7
ENDBRANCH   5   6
ENDBRANCH   4   5
ENDBRANCH   3   4
ENDBRANCH   2   3
ENDBRANCH   1   2
BRANCH   1  10
ATOM     10  C   UNL     1      18.267  -4.715  15.100  1.00  0.00     0.000 C 
BRANCH  10  11
ATOM     11  C   UNL     1      17.360  -5.547  16.017  1.00  0.00    -0.000 C 
BRANCH  11  12
ATOM     12  C   UNL     1      15.970  -5.806  15.409  1.00  0.00    -0.000 C 
BRANCH  12  13
ATOM     13  C   UNL     1      14.810  -5.250  16.260  1.00  0.00    -0.000 C 
BRANCH  13  14
ATOM     14  C   UNL     1      14.669  -3.723  16.120  1.00  0.00    -0.000 C 
BRANCH  14  15
ATOM     15  C   UNL     1      14.990  -2.977  17.424  1.00  0.00    -0.000 C 
BRANCH  15  16
ATOM     16  C   UNL     1      16.420  -2.419  17.449  1.00  0.00    -0.003 C 
ATOM     17  C   UNL     1      17.188  -2.930  18.665  1.00  0.00     0.004 C 
ENDBRANCH  15  16
ENDBRANCH  14  15
ENDBRANCH  13  14
ENDBRANCH  12  13
ENDBRANCH  11  12
ENDBRANCH  10  11
ENDBRANCH   1  10
TORSDOF 13
ENDMDL
MODEL 3
REMARK VINA RESULT:    -5.074      2.355      5.238
REMARK INTER + INTRA:         -10.920
REMARK INTER:                  -8.754
REMARK INTRA:                  -2.167
REMARK UNBOUND:                -1.991
REMARK SMILES CCCCCCCCCCCCCCC(=O)[O-]
REMARK SMILES IDX 9 1 10 2 11 3 12 4 13 5 14 6 15 7 16 8 17 9 8 10 7 11 6 12
REMARK SMILES IDX 5 13 4 14 3 15 2 16 1 17
REMARK H PARENT
REMARK Flexibility Score: inf
ROOT
ATOM      1  C   UNL     1      16.705  -4.594  16.668  1.00  0.00     0.000 C 
ENDROOT
BRANCH   1   2
ATOM      2  C   UNL     1      15.662  -3.785  15.888  1.00  0.00     0.000 C 
BRANCH   2   3
ATOM      3  C   UNL     1      14.484  -3.392  16.787  1.00  0.00     0.000 C 
BRANCH   3   4
ATOM      4  C   UNL     1      13.153  -3.490  16.025  1.00  0.00     0.000 C 
BRANCH   4   5
ATOM      5  C   UNL     1      13.310  -3.207  14.522  1.00  0.00     0.006 C 
BRANCH   5   6
ATOM      6  C   UNL     1      12.076  -3.622  13.711  1.00  0.00     0.053 C 
BRANCH   6   7
ATOM      7  C   UNL     1      12.329  -3.441  12.248  1.00  0.00     0.041 C 
ATOM      8  O   UNL     1      11.456  -3.781  11.406  1.00  0.00    -0.550 OA
ATOM      9  O   UNL     1      13.510  -2.851  11.813  1.00  0.00    -0.550 OA
ENDBRANCH   6   7
ENDBRANCH   5   6
ENDBRANCH   4   5
ENDBRANCH   3   4
ENDBRANCH   2   3
ENDBRANCH   1   2
BRANCH   1  10
ATOM     10  C   UNL     1      16.841  -6.010  16.097  1.00  0.00     0.000 C 
BRANCH  10  11
ATOM     11  C   UNL     1      15.464  -6.660  15.901  1.00  0.00    -0.000 C 
BRANCH  11  12
ATOM     12  C   UNL     1      15.329  -7.382  14.550  1.00  0.00    -0.000 C 
BRANCH  12  13
ATOM     13  C   UNL     1      14.562  -6.567  13.487  1.00  0.00    -0.000 C 
BRANCH  13  14
ATOM     14  C   UNL     1      15.501  -5.685  12.645  1.00  0.00    -0.000 C 
BRANCH  14  15
ATOM     15  C   UNL     1      16.773  -6.426  12.205  1.00  0.00    -0.000 C 
BRANCH  15  16
ATOM     16  C   UNL     1      18.004  -5.509  12.158  1.00  0.00    -0.003 C 
ATOM     17  C   UNL     1      17.758  -4.219  12.936  1.00  0.00     0.004 C 
ENDBRANCH  15  16
ENDBRANCH  14  15
ENDBRANCH  13  14
ENDBRANCH  12  13
ENDBRANCH  11  12
ENDBRANCH  10  11
ENDBRANCH   1  10
TORSDOF 13
ENDMDL
MODEL 4
REMARK VINA RESULT:    -5.064      2.852      4.818
REMARK INTER + INTRA:         -10.903
REMARK INTER:                  -9.022
REMARK INTRA:                  -1.881
REMARK UNBOUND:                -1.991
REMARK SMILES CCCCCCCCCCCCCCC(=O)[O-]
REMARK SMILES IDX 9 1 10 2 11 3 12 4 13 5 14 6 15 7 16 8 17 9 8 10 7 11 6 12
REMARK SMILES IDX 5 13 4 14 3 15 2 16 1 17
REMARK H PARENT
REMARK Flexibility Score: inf
ROOT
ATOM      1  C   UNL     1      17.432  -5.557  11.877  1.00  0.00     0.000 C 
ENDROOT
BRANCH   1   2
ATOM      2  C   UNL     1      16.642  -6.533  12.757  1.00  0.00     0.000 C 
BRANCH   2   3
ATOM      3  C   UNL     1      15.225  -6.012  13.025  1.00  0.00     0.000 C 
BRANCH   3   4
ATOM      4  C   UNL     1      15.085  -4.547  12.582  1.00  0.00     0.000 C 
BRANCH   4   5
ATOM      5  C   UNL     1      13.906  -4.330  11.620  1.00  0.00     0.006 C 
BRANCH   5   6
ATOM      6  C   UNL     1      13.340  -5.647  11.072  1.00  0.00     0.053 C 
BRANCH   6   7
ATOM      7  C   UNL     1      13.627  -5.769   9.609  1.00  0.00     0.041 C 
ATOM      8  O   UNL     1      12.681  -5.891   8.786  1.00  0.00    -0.550 OA
ATOM      9  O   UNL     1      14.936  -5.700   9.149  1.00  0.00    -0.550 OA
ENDBRANCH   6   7
ENDBRANCH   5   6
ENDBRANCH   4   5
ENDBRANCH   3   4
ENDBRANCH   2   3
ENDBRANCH   1   2
BRANCH   1  10
ATOM     10  C   UNL     1      18.765  -5.180  12.534  1.00  0.00     0.000 C 
BRANCH  10  11
ATOM     11  C   UNL     1      18.783  -3.698  12.933  1.00  0.00    -0.000 C 
BRANCH  11  12
ATOM     12  C   UNL     1      18.146  -3.441  14.310  1.00  0.00    -0.000 C 
BRANCH  12  13
ATOM     13  C   UNL     1      18.602  -4.437  15.397  1.00  0.00    -0.000 C 
BRANCH  13  14
ATOM     14  C   UNL     1      17.640  -4.464  16.599  1.00  0.00    -0.000 C 
BRANCH  14  15
ATOM     15  C   UNL     1      16.165  -4.531  16.175  1.00  0.00    -0.000 C 
BRANCH  15  16
ATOM     16  C   UNL     1      15.320  -3.408  16.792  1.00  0.00    -0.003 C 
ATOM     17  C   UNL     1      13.833  -3.633  16.534  1.00  0.00     0.004 C 
ENDBRANCH  15  16
ENDBRANCH  14  15
ENDBRANCH  13  14
ENDBRANCH  12  13
ENDBRANCH  11  12
ENDBRANCH  10  11
ENDBRANCH   1  10
TORSDOF 13
ENDMDL
MODEL 5
REMARK VINA RESULT:    -5.046      2.466      4.460
REMARK INTER + INTRA:         -10.872
REMARK INTER:                  -9.064
REMARK INTRA:                  -1.808
REMARK UNBOUND:                -1.991
REMARK SMILES CCCCCCCCCCCCCCC(=O)[O-]
REMARK SMILES IDX 9 1 10 2 11 3 12 4 13 5 14 6 15 7 16 8 17 9 8 10 7 11 6 12
REMARK SMILES IDX 5 13 4 14 3 15 2 16 1 17
REMARK H PARENT
REMARK Flexibility Score: inf
ROOT
ATOM      1  C   UNL     1      12.995  -2.582  12.915  1.00  0.00     0.000 C 
ENDROOT
BRANCH   1   2
ATOM      2  C   UNL     1      13.696  -2.793  14.262  1.00  0.00     0.000 C 
BRANCH   2   3
ATOM      3  C   UNL     1      12.740  -3.410  15.290  1.00  0.00     0.000 C 
BRANCH   3   4
ATOM      4  C   UNL     1      13.478  -3.744  16.596  1.00  0.00     0.000 C 
BRANCH   4   5
ATOM      5  C   UNL     1      14.989  -3.478  16.507  1.00  0.00     0.006 C 
BRANCH   5   6
ATOM      6  C   UNL     1      15.520  -2.679  17.703  1.00  0.00     0.053 C 
BRANCH   6   7
ATOM      7  C   UNL     1      16.970  -2.974  17.926  1.00  0.00     0.041 C 
ATOM      8  O   UNL     1      17.504  -2.725  19.039  1.00  0.00    -0.550 OA
ATOM      9  O   UNL     1      17.721  -3.570  16.920  1.00  0.00    -0.550 OA
ENDBRANCH   6   7
ENDBRANCH   5   6
ENDBRANCH   4   5
ENDBRANCH   3   4
ENDBRANCH   2   3
ENDBRANCH   1   2
BRANCH   1  10
ATOM     10  C   UNL     1      12.109  -3.783  12.563  1.00  0.00     0.000 C 
BRANCH  10  11
ATOM     11  C   UNL     1      12.173  -4.093  11.061  1.00  0.00    -0.000 C 
BRANCH  11  12
ATOM     12  C   UNL     1      13.319  -5.052  10.696  1.00  0.00    -0.000 C 
BRANCH  12  13
ATOM     13  C   UNL     1      13.730  -5.991  11.850  1.00  0.00    -0.000 C 
BRANCH  13  14
ATOM     14  C   UNL     1      15.153  -5.695  12.359  1.00  0.00    -0.000 C 
BRANCH  14  15
ATOM     15  C   UNL     1      15.519  -6.519  13.604  1.00  0.00    -0.000 C 
BRANCH  15  16
ATOM     16  C   UNL     1      14.335  -6.696  14.564  1.00  0.00    -0.003 C 
ATOM     17  C   UNL     1      14.781  -7.342  15.873  1.00  0.00     0.004 C 
ENDBRANCH  15  16
ENDBRANCH  14  15
ENDBRANCH  13  14
ENDBRANCH  12  13
ENDBRANCH  11  12
ENDBRANCH  10  11
ENDBRANCH   1  10
TORSDOF 13
ENDMDL
MODEL 6
REMARK VINA RESULT:    -5.029      2.366      4.473
REMARK INTER + INTRA:         -10.841
REMARK INTER:                  -8.668
REMARK INTRA:                  -2.173
REMARK UNBOUND:                -1.991
REMARK SMILES CCCCCCCCCCCCCCC(=O)[O-]
REMARK SMILES IDX 9 1 10 2 11 3 12 4 13 5 14 6 15 7 16 8 17 9 8 10 7 11 6 12
REMARK SMILES IDX 5 13 4 14 3 15 2 16 1 17
REMARK H PARENT
REMARK Flexibility Score: inf
ROOT
ATOM      1  C   UNL     1      15.966  -7.216  13.269  1.00  0.00     0.000 C 
ENDROOT
BRANCH   1   2
ATOM      2  C   UNL     1      15.595  -6.923  14.727  1.00  0.00     0.000 C 
BRANCH   2   3
ATOM      3  C   UNL     1      14.464  -5.891  14.811  1.00  0.00     0.000 C 
BRANCH   3   4
ATOM      4  C   UNL     1      14.546  -5.089  16.119  1.00  0.00     0.000 C 
BRANCH   4   5
ATOM      5  C   UNL     1      14.296  -3.587  15.910  1.00  0.00     0.006 C 
BRANCH   5   6
ATOM      6  C   UNL     1      13.968  -3.240  14.452  1.00  0.00     0.053 C 
BRANCH   6   7
ATOM      7  C   UNL     1      12.600  -2.644  14.353  1.00  0.00     0.041 C 
ATOM      8  O   UNL     1      11.618  -3.215  14.898  1.00  0.00    -0.550 OA
ATOM      9  O   UNL     1      12.414  -1.431  13.700  1.00  0.00    -0.550 OA
ENDBRANCH   6   7
ENDBRANCH   5   6
ENDBRANCH   4   5
ENDBRANCH   3   4
ENDBRANCH   2   3
ENDBRANCH   1   2
BRANCH   1  10
ATOM     10  C   UNL     1      15.609  -6.033  12.362  1.00  0.00     0.000 C 
BRANCH  10  11
ATOM     11  C   UNL     1      16.825  -5.584  11.539  1.00  0.00    -0.000 C 
BRANCH  11  12
ATOM     12  C   UNL     1      18.120  -5.523  12.368  1.00  0.00    -0.000 C 
BRANCH  12  13
ATOM     13  C   UNL     1      18.469  -4.104  12.865  1.00  0.00    -0.000 C 
BRANCH  13  14
ATOM     14  C   UNL     1      17.638  -3.699  14.096  1.00  0.00    -0.000 C 
BRANCH  14  15
ATOM     15  C   UNL     1      18.171  -4.317  15.398  1.00  0.00    -0.000 C 
BRANCH  15  16
ATOM     16  C   UNL     1      18.440  -3.265  16.484  1.00  0.00    -0.003 C 
ATOM     17  C   UNL     1      17.610  -3.541  17.734  1.00  0.00     0.004 C 
ENDBRANCH  15  16
ENDBRANCH  14  15
ENDBRANCH  13  14
ENDBRANCH  12  13
ENDBRANCH  11  12
ENDBRANCH  10  11
ENDBRANCH   1  10
TORSDOF 13
ENDMDL
MODEL 7
REMARK VINA RESULT:    -5.023      2.540      4.683
REMARK INTER + INTRA:         -10.831
REMARK INTER:                  -8.820
REMARK INTRA:                  -2.012
REMARK UNBOUND:                -1.991
REMARK SMILES CCCCCCCCCCCCCCC(=O)[O-]
REMARK SMILES IDX 9 1 10 2 11 3 12 4 13 5 14 6 15 7 16 8 17 9 8 10 7 11 6 12
REMARK SMILES IDX 5 13 4 14 3 15 2 16 1 17
REMARK H PARENT
REMARK Flexibility Score: inf
ROOT
ATOM      1  C   UNL     1      18.636  -3.146  15.057  1.00  0.00     0.000 C 
ENDROOT
BRANCH   1   2
ATOM      2  C   UNL     1      18.579  -4.478  14.300  1.00  0.00     0.000 C 
BRANCH   2   3
ATOM      3  C   UNL     1      17.953  -4.296  12.912  1.00  0.00     0.000 C 
BRANCH   3   4
ATOM      4  C   UNL     1      17.829  -5.643  12.184  1.00  0.00     0.000 C 
BRANCH   4   5
ATOM      5  C   UNL     1      16.422  -6.252  12.301  1.00  0.00     0.006 C 
BRANCH   5   6
ATOM      6  C   UNL     1      15.314  -5.252  11.950  1.00  0.00     0.053 C 
BRANCH   6   7
ATOM      7  C   UNL     1      13.974  -5.811  12.309  1.00  0.00     0.041 C 
ATOM      8  O   UNL     1      13.882  -6.961  12.815  1.00  0.00    -0.550 OA
ATOM      9  O   UNL     1      12.829  -5.044  12.130  1.00  0.00    -0.550 OA
ENDBRANCH   6   7
ENDBRANCH   5   6
ENDBRANCH   4   5
ENDBRANCH   3   4
ENDBRANCH   2   3
ENDBRANCH   1   2
BRANCH   1  10
ATOM     10  C   UNL     1      19.059  -3.360  16.515  1.00  0.00     0.000 C 
BRANCH  10  11
ATOM     11  C   UNL     1      17.837  -3.401  17.443  1.00  0.00    -0.000 C 
BRANCH  11  12
ATOM     12  C   UNL     1      16.635  -2.622  16.884  1.00  0.00    -0.000 C 
BRANCH  12  13
ATOM     13  C   UNL     1      15.336  -2.828  17.690  1.00  0.00    -0.000 C 
BRANCH  13  14
ATOM     14  C   UNL     1      14.204  -3.416  16.826  1.00  0.00    -0.000 C 
BRANCH  14  15
ATOM     15  C   UNL     1      14.731  -4.272  15.664  1.00  0.00    -0.000 C 
BRANCH  15  16
ATOM     16  C   UNL     1      14.678  -5.776  15.966  1.00  0.00    -0.003 C 
ATOM     17  C   UNL     1      16.075  -6.389  15.951  1.00  0.00     0.004 C 
ENDBRANCH  15  16
ENDBRANCH  14  15
ENDBRANCH  13  14
ENDBRANCH  12  13
ENDBRANCH  11  12
ENDBRANCH  10  11
ENDBRANCH   1  10
TORSDOF 13
ENDMDL
MODEL 8
REMARK VINA RESULT:    -5.003      2.218      5.438
REMARK INTER + INTRA:         -10.796
REMARK INTER:                  -8.780
REMARK INTRA:                  -2.017
REMARK UNBOUND:                -1.991
REMARK SMILES CCCCCCCCCCCCCCC(=O)[O-]
REMARK SMILES IDX 9 1 10 2 11 3 12 4 13 5 14 6 15 7 16 8 17 9 8 10 7 11 6 12
REMARK SMILES IDX 5 13 4 14 3 15 2 16 1 17
REMARK H PARENT
REMARK Flexibility Score: inf
ROOT
ATOM      1  C   UNL     1      16.291  -5.937  15.956  1.00  0.00     0.000 C 
ENDROOT
BRANCH   1   2
ATOM      2  C   UNL     1      14.849  -5.428  15.839  1.00  0.00     0.000 C 
BRANCH   2   3
ATOM      3  C   UNL     1      14.690  -4.063  16.519  1.00  0.00     0.000 C 
BRANCH   3   4
ATOM      4  C   UNL     1      13.406  -3.361  16.049  1.00  0.00     0.000 C 
BRANCH   4   5
ATOM      5  C   UNL     1      13.283  -3.317  14.517  1.00  0.00     0.006 C 
BRANCH   5   6
ATOM      6  C   UNL     1      12.422  -2.145  14.027  1.00  0.00     0.053 C 
BRANCH   6   7
ATOM      7  C   UNL     1      13.069  -1.477  12.855  1.00  0.00     0.041 C 
ATOM      8  O   UNL     1      14.314  -1.283  12.844  1.00  0.00    -0.550 OA
ATOM      9  O   UNL     1      12.305  -1.112  11.754  1.00  0.00    -0.550 OA
ENDBRANCH   6   7
ENDBRANCH   5   6
ENDBRANCH   4   5
ENDBRANCH   3   4
ENDBRANCH   2   3
ENDBRANCH   1   2
BRANCH   1  10
ATOM     10  C   UNL     1      17.184  -4.903  16.651  1.00  0.00     0.000 C 
BRANCH  10  11
ATOM     11  C   UNL     1      18.274  -4.389  15.700  1.00  0.00    -0.000 C 
BRANCH  11  12
ATOM     12  C   UNL     1      18.097  -2.906  15.331  1.00  0.00    -0.000 C 
BRANCH  12  13
ATOM     13  C   UNL     1      17.325  -2.686  14.014  1.00  0.00    -0.000 C 
BRANCH  13  14
ATOM     14  C   UNL     1      17.473  -3.876  13.048  1.00  0.00    -0.000 C 
BRANCH  14  15
ATOM     15  C   UNL     1      16.123  -4.368  12.503  1.00  0.00    -0.000 C 
BRANCH  15  16
ATOM     16  C   UNL     1      16.266  -5.596  11.593  1.00  0.00    -0.003 C 
ATOM     17  C   UNL     1      17.669  -6.188  11.686  1.00  0.00     0.004 C 
ENDBRANCH  15  16
ENDBRANCH  14  15
ENDBRANCH  13  14
ENDBRANCH  12  13
ENDBRANCH  11  12
ENDBRANCH  10  11
ENDBRANCH   1  10
TORSDOF 13
ENDMDL
MODEL 9
REMARK VINA RESULT:    -4.951      2.032      4.664
REMARK INTER + INTRA:         -10.704
REMARK INTER:                  -8.942
REMARK INTRA:                  -1.762
REMARK UNBOUND:                -1.991
REMARK SMILES CCCCCCCCCCCCCCC(=O)[O-]
REMARK SMILES IDX 9 1 10 2 11 3 12 4 13 5 14 6 15 7 16 8 17 9 8 10 7 11 6 12
REMARK SMILES IDX 5 13 4 14 3 15 2 16 1 17
REMARK H PARENT
REMARK Flexibility Score: inf
ROOT
ATOM      1  C   UNL     1      12.401  -3.362  15.102  1.00  0.00     0.000 C 
ENDROOT
BRANCH   1   2
ATOM      2  C   UNL     1      13.489  -3.369  16.182  1.00  0.00     0.000 C 
BRANCH   2   3
ATOM      3  C   UNL     1      14.192  -4.731  16.247  1.00  0.00     0.000 C 
BRANCH   3   4
ATOM      4  C   UNL     1      15.481  -4.724  15.411  1.00  0.00     0.000 C 
BRANCH   4   5
ATOM      5  C   UNL     1      16.273  -3.414  15.554  1.00  0.00     0.006 C 
BRANCH   5   6
ATOM      6  C   UNL     1      17.518  -3.570  16.437  1.00  0.00     0.053 C 
BRANCH   6   7
ATOM      7  C   UNL     1      17.290  -2.942  17.775  1.00  0.00     0.041 C 
ATOM      8  O   UNL     1      16.291  -2.198  17.964  1.00  0.00    -0.550 OA
ATOM      9  O   UNL     1      18.155  -3.214  18.828  1.00  0.00    -0.550 OA
ENDBRANCH   6   7
ENDBRANCH   5   6
ENDBRANCH   4   5
ENDBRANCH   3   4
ENDBRANCH   2   3
ENDBRANCH   1   2
BRANCH   1  10
ATOM     10  C   UNL     1      12.749  -2.380  13.978  1.00  0.00     0.000 C 
BRANCH  10  11
ATOM     11  C   UNL     1      12.752  -3.084  12.613  1.00  0.00    -0.000 C 
BRANCH  11  12
ATOM     12  C   UNL     1      13.029  -4.594  12.719  1.00  0.00    -0.000 C 
BRANCH  12  13
ATOM     13  C   UNL     1      13.722  -5.183  11.473  1.00  0.00    -0.000 C 
BRANCH  13  14
ATOM     14  C   UNL     1      15.236  -4.904  11.464  1.00  0.00    -0.000 C 
BRANCH  14  15
ATOM     15  C   UNL     1      16.055  -6.062  12.054  1.00  0.00    -0.000 C 
BRANCH  15  16
ATOM     16  C   UNL     1      17.554  -5.943  11.746  1.00  0.00    -0.003 C 
ATOM     17  C   UNL     1      18.179  -4.776  12.505  1.00  0.00     0.004 C 
ENDBRANCH  15  16
ENDBRANCH  14  15
ENDBRANCH  13  14
ENDBRANCH  12  13
ENDBRANCH  11  12
ENDBRANCH  10  11
ENDBRANCH   1  10
TORSDOF 13
ENDMDL
