MODEL 1
REMARK VINA RESULT:    -4.979      0.000      0.000
REMARK INTER + INTRA:          -6.586
REMARK INTER:                  -6.434
REMARK INTRA:                  -0.152
REMARK UNBOUND:                -0.152
REMARK SMILES C=CC(=O)CCCCC
REMARK SMILES IDX 6 1 7 2 8 3 9 4 5 5 3 6 4 7 2 8 1 9
REMARK H PARENT
REMARK Flexibility Score: inf
ROOT
ATOM      1  C   UNL     1      21.138 -21.709  20.793  1.00  0.00     0.008 C 
ENDROOT
BRANCH   1   2
ATOM      2  C   UNL     1      20.863 -20.384  21.540  1.00  0.00     0.000 C 
BRANCH   2   3
ATOM      3  C   UNL     1      19.385 -19.960  21.517  1.00  0.00    -0.003 C 
ATOM      4  C   UNL     1      19.118 -18.690  22.322  1.00  0.00     0.004 C 
ENDBRANCH   2   3
ENDBRANCH   1   2
BRANCH   1   5
ATOM      5  C   UNL     1      22.634 -22.072  20.737  1.00  0.00     0.080 C 
BRANCH   5   6
ATOM      6  C   UNL     1      22.912 -23.551  20.893  1.00  0.00     0.155 C 
ATOM      7  O   UNL     1      23.300 -24.228  19.902  1.00  0.00    -0.295 OA
BRANCH   6   8
ATOM      8  C   UNL     1      22.706 -24.253  22.175  1.00  0.00     0.039 C 
ATOM      9  C   UNL     1      22.154 -25.463  22.275  1.00  0.00     0.012 C 
ENDBRANCH   6   8
ENDBRANCH   5   6
ENDBRANCH   1   5
TORSDOF 5
ENDMDL
MODEL 2
REMARK VINA RESULT:    -4.956      1.963      5.058
REMARK INTER + INTRA:          -6.557
REMARK INTER:                  -6.438
REMARK INTRA:                  -0.119
REMARK UNBOUND:                -0.152
REMARK SMILES C=CC(=O)CCCCC
REMARK SMILES IDX 6 1 7 2 8 3 9 4 5 5 3 6 4 7 2 8 1 9
REMARK H PARENT
REMARK Flexibility Score: inf
ROOT
ATOM      1  C   UNL     1      22.376 -21.916  21.250  1.00  0.00     0.008 C 
ENDROOT
BRANCH   1   2
ATOM      2  C   UNL     1      22.575 -23.415  20.928  1.00  0.00     0.000 C 
BRANCH   2   3
ATOM      3  C   UNL     1      23.053 -24.245  22.131  1.00  0.00    -0.003 C 
ATOM      4  C   UNL     1      22.196 -25.485  22.376  1.00  0.00     0.004 C 
ENDBRANCH   2   3
ENDBRANCH   1   2
BRANCH   1   5
ATOM      5  C   UNL     1      20.983 -21.393  20.853  1.00  0.00     0.080 C 
BRANCH   5   6
ATOM      6  C   UNL     1      20.577 -20.124  21.571  1.00  0.00     0.155 C 
ATOM      7  O   UNL     1      21.459 -19.330  21.995  1.00  0.00    -0.295 OA
BRANCH   6   8
ATOM      8  C   UNL     1      19.162 -19.792  21.832  1.00  0.00     0.039 C 
ATOM      9  C   UNL     1      18.138 -20.392  21.223  1.00  0.00     0.012 C 
ENDBRANCH   6   8
ENDBRANCH   5   6
ENDBRANCH   1   5
TORSDOF 5
ENDMDL
MODEL 3
REMARK VINA RESULT:    -4.889      2.916      4.643
REMARK INTER + INTRA:          -6.470
REMARK INTER:                  -6.324
REMARK INTRA:                  -0.146
REMARK UNBOUND:                -0.152
REMARK SMILES C=CC(=O)CCCCC
REMARK SMILES IDX 6 1 7 2 8 3 9 4 5 5 3 6 4 7 2 8 1 9
REMARK H PARENT
REMARK Flexibility Score: inf
ROOT
ATOM      1  C   UNL     1      23.118 -23.167  19.921  1.00  0.00     0.008 C 
ENDROOT
BRANCH   1   2
ATOM      2  C   UNL     1      22.420 -23.241  21.299  1.00  0.00     0.000 C 
BRANCH   2   3
ATOM      3  C   UNL     1      23.070 -24.246  22.264  1.00  0.00    -0.003 C 
ATOM      4  C   UNL     1      22.174 -25.447  22.564  1.00  0.00     0.004 C 
ENDBRANCH   2   3
ENDBRANCH   1   2
BRANCH   1   5
ATOM      5  C   UNL     1      24.114 -24.319  19.686  1.00  0.00     0.080 C 
BRANCH   5   6
ATOM      6  C   UNL     1      24.225 -24.745  18.238  1.00  0.00     0.155 C 
ATOM      7  O   UNL     1      23.487 -24.214  17.365  1.00  0.00    -0.295 OA
BRANCH   6   8
ATOM      8  C   UNL     1      25.156 -25.807  17.806  1.00  0.00     0.039 C 
ATOM      9  C   UNL     1      26.465 -25.789  18.060  1.00  0.00     0.012 C 
ENDBRANCH   6   8
ENDBRANCH   5   6
ENDBRANCH   1   5
TORSDOF 5
ENDMDL
MODEL 4
REMARK VINA RESULT:    -4.874      5.596      7.409
REMARK INTER + INTRA:          -6.451
REMARK INTER:                  -6.307
REMARK INTRA:                  -0.144
REMARK UNBOUND:                -0.152
REMARK SMILES C=CC(=O)CCCCC
REMARK SMILES IDX 6 1 7 2 8 3 9 4 5 5 3 6 4 7 2 8 1 9
REMARK H PARENT
REMARK Flexibility Score: inf
ROOT
ATOM      1  C   UNL     1      26.245 -20.338  18.693  1.00  0.00     0.008 C 
ENDROOT
BRANCH   1   2
ATOM      2  C   UNL     1      27.235 -19.559  19.589  1.00  0.00     0.000 C 
BRANCH   2   3
ATOM      3  C   UNL     1      28.709 -19.894  19.313  1.00  0.00    -0.003 C 
ATOM      4  C   UNL     1      28.945 -21.384  19.068  1.00  0.00     0.004 C 
ENDBRANCH   2   3
ENDBRANCH   1   2
BRANCH   1   5
ATOM      5  C   UNL     1      24.857 -19.674  18.608  1.00  0.00     0.080 C 
BRANCH   5   6
ATOM      6  C   UNL     1      24.065 -20.067  17.379  1.00  0.00     0.155 C 
ATOM      7  O   UNL     1      23.383 -21.128  17.380  1.00  0.00    -0.295 OA
BRANCH   6   8
ATOM      8  C   UNL     1      24.091 -19.260  16.142  1.00  0.00     0.039 C 
ATOM      9  C   UNL     1      24.101 -19.786  14.917  1.00  0.00     0.012 C 
ENDBRANCH   6   8
ENDBRANCH   5   6
ENDBRANCH   1   5
TORSDOF 5
ENDMDL
MODEL 5
REMARK VINA RESULT:    -4.866      2.784      5.093
REMARK INTER + INTRA:          -6.440
REMARK INTER:                  -6.297
REMARK INTRA:                  -0.143
REMARK UNBOUND:                -0.152
REMARK SMILES C=CC(=O)CCCCC
REMARK SMILES IDX 6 1 7 2 8 3 9 4 5 5 3 6 4 7 2 8 1 9
REMARK H PARENT
REMARK Flexibility Score: inf
ROOT
ATOM      1  C   UNL     1      22.239 -22.188  21.244  1.00  0.00     0.008 C 
ENDROOT
BRANCH   1   2
ATOM      2  C   UNL     1      22.983 -23.538  21.127  1.00  0.00     0.000 C 
BRANCH   2   3
ATOM      3  C   UNL     1      23.039 -24.325  22.447  1.00  0.00    -0.003 C 
ATOM      4  C   UNL     1      22.324 -25.673  22.367  1.00  0.00     0.004 C 
ENDBRANCH   2   3
ENDBRANCH   1   2
BRANCH   1   5
ATOM      5  C   UNL     1      22.446 -21.277  20.019  1.00  0.00     0.080 C 
BRANCH   5   6
ATOM      6  C   UNL     1      23.359 -20.098  20.279  1.00  0.00     0.155 C 
ATOM      7  O   UNL     1      23.135 -19.330  21.253  1.00  0.00    -0.295 OA
BRANCH   6   8
ATOM      8  C   UNL     1      24.501 -19.786  19.396  1.00  0.00     0.039 C 
ATOM      9  C   UNL     1      24.448 -19.857  18.066  1.00  0.00     0.012 C 
ENDBRANCH   6   8
ENDBRANCH   5   6
ENDBRANCH   1   5
TORSDOF 5
ENDMDL
MODEL 6
REMARK VINA RESULT:    -4.863      3.270      5.837
REMARK INTER + INTRA:          -6.436
REMARK INTER:                  -6.213
REMARK INTRA:                  -0.223
REMARK UNBOUND:                -0.152
REMARK SMILES C=CC(=O)CCCCC
REMARK SMILES IDX 6 1 7 2 8 3 9 4 5 5 3 6 4 7 2 8 1 9
REMARK H PARENT
REMARK Flexibility Score: inf
ROOT
ATOM      1  C   UNL     1      24.875 -24.359  19.404  1.00  0.00     0.008 C 
ENDROOT
BRANCH   1   2
ATOM      2  C   UNL     1      25.019 -25.431  18.300  1.00  0.00     0.000 C 
BRANCH   2   3
ATOM      3  C   UNL     1      26.474 -25.857  18.042  1.00  0.00    -0.003 C 
ATOM      4  C   UNL     1      27.491 -24.935  18.712  1.00  0.00     0.004 C 
ENDBRANCH   2   3
ENDBRANCH   1   2
BRANCH   1   5
ATOM      5  C   UNL     1      23.449 -23.785  19.507  1.00  0.00     0.080 C 
BRANCH   5   6
ATOM      6  C   UNL     1      22.998 -23.518  20.927  1.00  0.00     0.155 C 
ATOM      7  O   UNL     1      22.592 -22.370  21.254  1.00  0.00    -0.295 OA
BRANCH   6   8
ATOM      8  C   UNL     1      23.051 -24.559  21.973  1.00  0.00     0.039 C 
ATOM      9  C   UNL     1      22.151 -25.536  22.090  1.00  0.00     0.012 C 
ENDBRANCH   6   8
ENDBRANCH   5   6
ENDBRANCH   1   5
TORSDOF 5
ENDMDL
MODEL 7
REMARK VINA RESULT:    -4.829      3.268      5.080
REMARK INTER + INTRA:          -6.392
REMARK INTER:                  -6.239
REMARK INTRA:                  -0.154
REMARK UNBOUND:                -0.152
REMARK SMILES C=CC(=O)CCCCC
REMARK SMILES IDX 6 1 7 2 8 3 9 4 5 5 3 6 4 7 2 8 1 9
REMARK H PARENT
REMARK Flexibility Score: inf
ROOT
ATOM      1  C   UNL     1      23.592 -24.309  19.853  1.00  0.00     0.008 C 
ENDROOT
BRANCH   1   2
ATOM      2  C   UNL     1      22.798 -23.536  20.931  1.00  0.00     0.000 C 
BRANCH   2   3
ATOM      3  C   UNL     1      22.940 -24.128  22.343  1.00  0.00    -0.003 C 
ATOM      4  C   UNL     1      22.475 -25.580  22.429  1.00  0.00     0.004 C 
ENDBRANCH   2   3
ENDBRANCH   1   2
BRANCH   1   5
ATOM      5  C   UNL     1      24.046 -23.417  18.682  1.00  0.00     0.080 C 
BRANCH   5   6
ATOM      6  C   UNL     1      23.249 -23.622  17.412  1.00  0.00     0.155 C 
ATOM      7  O   UNL     1      23.281 -24.735  16.820  1.00  0.00    -0.295 OA
BRANCH   6   8
ATOM      8  C   UNL     1      22.451 -22.537  16.807  1.00  0.00     0.039 C 
ATOM      9  C   UNL     1      22.985 -21.459  16.231  1.00  0.00     0.012 C 
ENDBRANCH   6   8
ENDBRANCH   5   6
ENDBRANCH   1   5
TORSDOF 5
ENDMDL
MODEL 8
REMARK VINA RESULT:    -4.805      2.180      4.626
REMARK INTER + INTRA:          -6.361
REMARK INTER:                  -5.898
REMARK INTRA:                  -0.463
REMARK UNBOUND:                -0.152
REMARK SMILES C=CC(=O)CCCCC
REMARK SMILES IDX 6 1 7 2 8 3 9 4 5 5 3 6 4 7 2 8 1 9
REMARK H PARENT
REMARK Flexibility Score: inf
ROOT
ATOM      1  C   UNL     1      24.154 -23.496  19.485  1.00  0.00     0.008 C 
ENDROOT
BRANCH   1   2
ATOM      2  C   UNL     1      23.411 -24.632  20.226  1.00  0.00     0.000 C 
BRANCH   2   3
ATOM      3  C   UNL     1      23.330 -24.425  21.747  1.00  0.00    -0.003 C 
ATOM      4  C   UNL     1      22.294 -25.326  22.416  1.00  0.00     0.004 C 
ENDBRANCH   2   3
ENDBRANCH   1   2
BRANCH   1   5
ATOM      5  C   UNL     1      23.211 -22.392  18.972  1.00  0.00     0.080 C 
BRANCH   5   6
ATOM      6  C   UNL     1      23.398 -21.057  19.660  1.00  0.00     0.155 C 
ATOM      7  O   UNL     1      24.306 -20.271  19.276  1.00  0.00    -0.295 OA
BRANCH   6   8
ATOM      8  C   UNL     1      22.567 -20.647  20.810  1.00  0.00     0.039 C 
ATOM      9  C   UNL     1      21.454 -21.281  21.180  1.00  0.00     0.012 C 
ENDBRANCH   6   8
ENDBRANCH   5   6
ENDBRANCH   1   5
TORSDOF 5
ENDMDL
