MODEL 1
REMARK VINA RESULT:    -4.097      0.000      0.000
REMARK INTER + INTRA:          -6.401
REMARK INTER:                  -6.012
REMARK INTRA:                  -0.388
REMARK UNBOUND:                -0.388
REMARK SMILES O=C([O-])CCCCCCCC(=O)[O-]
REMARK SMILES IDX 7 1 6 2 5 3 4 4 2 5 1 6 3 7 8 8 9 9 10 10 11 11 12 12 13 13
REMARK H PARENT
REMARK Flexibility Score: inf
ROOT
ATOM      1  C   UNL     1       2.209   7.943   6.757  1.00  0.00     0.000 C 
ENDROOT
BRANCH   1   2
ATOM      2  C   UNL     1       1.773   9.200   7.523  1.00  0.00     0.000 C 
BRANCH   2   3
ATOM      3  C   UNL     1       0.347   9.044   8.071  1.00  0.00     0.006 C 
BRANCH   3   4
ATOM      4  C   UNL     1      -0.379   7.836   7.465  1.00  0.00     0.053 C 
BRANCH   4   5
ATOM      5  C   UNL     1      -1.697   8.222   6.868  1.00  0.00     0.041 C 
ATOM      6  O   UNL     1      -2.339   7.398   6.163  1.00  0.00    -0.550 OA
ATOM      7  O   UNL     1      -2.202   9.502   7.060  1.00  0.00    -0.550 OA
ENDBRANCH   4   5
ENDBRANCH   3   4
ENDBRANCH   2   3
ENDBRANCH   1   2
BRANCH   1   8
ATOM      8  C   UNL     1       3.680   7.996   6.317  1.00  0.00     0.000 C 
BRANCH   8   9
ATOM      9  C   UNL     1       4.391   6.639   6.465  1.00  0.00     0.006 C 
BRANCH   9  10
ATOM     10  C   UNL     1       3.448   5.459   6.202  1.00  0.00     0.053 C 
BRANCH  10  11
ATOM     11  C   UNL     1       3.881   4.654   5.016  1.00  0.00     0.041 C 
ATOM     12  O   UNL     1       3.118   3.778   4.532  1.00  0.00    -0.550 OA
ATOM     13  O   UNL     1       5.144   4.846   4.468  1.00  0.00    -0.550 OA
ENDBRANCH  10  11
ENDBRANCH   9  10
ENDBRANCH   8   9
ENDBRANCH   1   8
TORSDOF 8
ENDMDL
MODEL 2
REMARK VINA RESULT:    -4.033      0.687      6.183
REMARK INTER + INTRA:          -6.307
REMARK INTER:                  -6.004
REMARK INTRA:                  -0.303
REMARK UNBOUND:                -0.388
REMARK SMILES O=C([O-])CCCCCCCC(=O)[O-]
REMARK SMILES IDX 7 1 6 2 5 3 4 4 2 5 1 6 3 7 8 8 9 9 10 10 11 11 12 12 13 13
REMARK H PARENT
REMARK Flexibility Score: inf
ROOT
ATOM      1  C   UNL     1       2.087   7.317   7.488  1.00  0.00     0.000 C 
ENDROOT
BRANCH   1   2
ATOM      2  C   UNL     1       3.616   7.170   7.502  1.00  0.00     0.000 C 
BRANCH   2   3
ATOM      3  C   UNL     1       4.040   5.785   6.993  1.00  0.00     0.006 C 
BRANCH   3   4
ATOM      4  C   UNL     1       3.354   5.416   5.671  1.00  0.00     0.053 C 
BRANCH   4   5
ATOM      5  C   UNL     1       4.149   4.415   4.892  1.00  0.00     0.041 C 
ATOM      6  O   UNL     1       5.320   4.689   4.518  1.00  0.00    -0.550 OA
ATOM      7  O   UNL     1       3.586   3.193   4.548  1.00  0.00    -0.550 OA
ENDBRANCH   4   5
ENDBRANCH   3   4
ENDBRANCH   2   3
ENDBRANCH   1   2
BRANCH   1   8
ATOM      8  C   UNL     1       1.634   8.773   7.299  1.00  0.00     0.000 C 
BRANCH   8   9
ATOM      9  C   UNL     1       0.163   8.992   7.698  1.00  0.00     0.006 C 
BRANCH   9  10
ATOM     10  C   UNL     1      -0.699   7.752   7.432  1.00  0.00     0.053 C 
BRANCH  10  11
ATOM     11  C   UNL     1      -2.023   8.113   6.831  1.00  0.00     0.041 C 
ATOM     12  O   UNL     1      -2.627   7.294   6.091  1.00  0.00    -0.550 OA
ATOM     13  O   UNL     1      -2.571   9.370   7.058  1.00  0.00    -0.550 OA
ENDBRANCH  10  11
ENDBRANCH   9  10
ENDBRANCH   8   9
ENDBRANCH   1   8
TORSDOF 8
ENDMDL
MODEL 3
REMARK VINA RESULT:    -3.947     13.193     14.293
REMARK INTER + INTRA:          -6.181
REMARK INTER:                  -5.656
REMARK INTRA:                  -0.525
REMARK UNBOUND:                -0.388
REMARK SMILES O=C([O-])CCCCCCCC(=O)[O-]
REMARK SMILES IDX 7 1 6 2 5 3 4 4 2 5 1 6 3 7 8 8 9 9 10 10 11 11 12 12 13 13
REMARK H PARENT
REMARK Flexibility Score: inf
ROOT
ATOM      1  C   UNL     1      -5.090   7.084  -3.266  1.00  0.00     0.000 C 
ENDROOT
BRANCH   1   2
ATOM      2  C   UNL     1      -5.916   5.810  -3.491  1.00  0.00     0.000 C 
BRANCH   2   3
ATOM      3  C   UNL     1      -7.402   6.057  -3.191  1.00  0.00     0.006 C 
BRANCH   3   4
ATOM      4  C   UNL     1      -7.710   7.543  -2.962  1.00  0.00     0.053 C 
BRANCH   4   5
ATOM      5  C   UNL     1      -8.416   8.151  -4.134  1.00  0.00     0.041 C 
ATOM      6  O   UNL     1      -9.169   9.148  -3.972  1.00  0.00    -0.550 OA
ATOM      7  O   UNL     1      -8.271   7.598  -5.400  1.00  0.00    -0.550 OA
ENDBRANCH   4   5
ENDBRANCH   3   4
ENDBRANCH   2   3
ENDBRANCH   1   2
BRANCH   1   8
ATOM      8  C   UNL     1      -4.372   7.558  -4.538  1.00  0.00     0.000 C 
BRANCH   8   9
ATOM      9  C   UNL     1      -4.899   8.912  -5.046  1.00  0.00     0.006 C 
BRANCH   9  10
ATOM     10  C   UNL     1      -4.042   9.477  -6.186  1.00  0.00     0.053 C 
BRANCH  10  11
ATOM     11  C   UNL     1      -4.855   9.738  -7.416  1.00  0.00     0.041 C 
ATOM     12  O   UNL     1      -6.112   9.756  -7.352  1.00  0.00    -0.550 OA
ATOM     13  O   UNL     1      -4.224   9.925  -8.641  1.00  0.00    -0.550 OA
ENDBRANCH  10  11
ENDBRANCH   9  10
ENDBRANCH   8   9
ENDBRANCH   1   8
TORSDOF 8
ENDMDL
MODEL 4
REMARK VINA RESULT:    -3.926     11.826     13.297
REMARK INTER + INTRA:          -6.150
REMARK INTER:                  -5.271
REMARK INTRA:                  -0.879
REMARK UNBOUND:                -0.388
REMARK SMILES O=C([O-])CCCCCCCC(=O)[O-]
REMARK SMILES IDX 7 1 6 2 5 3 4 4 2 5 1 6 3 7 8 8 9 9 10 10 11 11 12 12 13 13
REMARK H PARENT
REMARK Flexibility Score: inf
ROOT
ATOM      1  C   UNL     1      -8.631   8.043  -2.561  1.00  0.00     0.000 C 
ENDROOT
BRANCH   1   2
ATOM      2  C   UNL     1      -7.561   9.070  -2.164  1.00  0.00     0.000 C 
BRANCH   2   3
ATOM      3  C   UNL     1      -7.337  10.094  -3.287  1.00  0.00     0.006 C 
BRANCH   3   4
ATOM      4  C   UNL     1      -5.879  10.125  -3.764  1.00  0.00     0.053 C 
BRANCH   4   5
ATOM      5  C   UNL     1      -5.742   9.615  -5.166  1.00  0.00     0.041 C 
ATOM      6  O   UNL     1      -6.750   9.180  -5.783  1.00  0.00    -0.550 OA
ATOM      7  O   UNL     1      -4.496   9.588  -5.779  1.00  0.00    -0.550 OA
ENDBRANCH   4   5
ENDBRANCH   3   4
ENDBRANCH   2   3
ENDBRANCH   1   2
BRANCH   1   8
ATOM      8  C   UNL     1      -8.092   6.605  -2.590  1.00  0.00     0.000 C 
BRANCH   8   9
ATOM      9  C   UNL     1      -7.156   6.348  -3.785  1.00  0.00     0.006 C 
BRANCH   9  10
ATOM     10  C   UNL     1      -5.860   5.645  -3.364  1.00  0.00     0.053 C 
BRANCH  10  11
ATOM     11  C   UNL     1      -4.694   6.585  -3.359  1.00  0.00     0.041 C 
ATOM     12  O   UNL     1      -3.902   6.616  -4.337  1.00  0.00    -0.550 OA
ATOM     13  O   UNL     1      -4.461   7.401  -2.259  1.00  0.00    -0.550 OA
ENDBRANCH  10  11
ENDBRANCH   9  10
ENDBRANCH   8   9
ENDBRANCH   1   8
TORSDOF 8
ENDMDL
MODEL 5
REMARK VINA RESULT:    -3.900     11.120     14.371
REMARK INTER + INTRA:          -6.112
REMARK INTER:                  -5.860
REMARK INTRA:                  -0.251
REMARK UNBOUND:                -0.388
REMARK SMILES O=C([O-])CCCCCCCC(=O)[O-]
REMARK SMILES IDX 7 1 6 2 5 3 4 4 2 5 1 6 3 7 8 8 9 9 10 10 11 11 12 12 13 13
REMARK H PARENT
REMARK Flexibility Score: inf
ROOT
ATOM      1  C   UNL     1       3.987  -7.515   4.676  1.00  0.00     0.000 C 
ENDROOT
BRANCH   1   2
ATOM      2  C   UNL     1       3.653  -6.158   5.314  1.00  0.00     0.000 C 
BRANCH   2   3
ATOM      3  C   UNL     1       4.905  -5.274   5.411  1.00  0.00     0.006 C 
BRANCH   3   4
ATOM      4  C   UNL     1       4.562  -3.779   5.423  1.00  0.00     0.053 C 
BRANCH   4   5
ATOM      5  C   UNL     1       5.490  -2.988   4.555  1.00  0.00     0.041 C 
ATOM      6  O   UNL     1       6.644  -3.423   4.300  1.00  0.00    -0.550 OA
ATOM      7  O   UNL     1       5.094  -1.754   4.054  1.00  0.00    -0.550 OA
ENDBRANCH   4   5
ENDBRANCH   3   4
ENDBRANCH   2   3
ENDBRANCH   1   2
BRANCH   1   8
ATOM      8  C   UNL     1       2.732  -8.313   4.291  1.00  0.00     0.000 C 
BRANCH   8   9
ATOM      9  C   UNL     1       1.429  -7.588   4.672  1.00  0.00     0.006 C 
BRANCH   9  10
ATOM     10  C   UNL     1       0.220  -8.532   4.676  1.00  0.00     0.053 C 
BRANCH  10  11
ATOM     11  C   UNL     1      -1.073  -7.782   4.582  1.00  0.00     0.041 C 
ATOM     12  O   UNL     1      -1.508  -7.144   5.576  1.00  0.00    -0.550 OA
ATOM     13  O   UNL     1      -1.814  -7.816   3.407  1.00  0.00    -0.550 OA
ENDBRANCH  10  11
ENDBRANCH   9  10
ENDBRANCH   8   9
ENDBRANCH   1   8
TORSDOF 8
ENDMDL
MODEL 6
REMARK VINA RESULT:    -3.876     10.711     13.547
REMARK INTER + INTRA:          -6.077
REMARK INTER:                  -5.831
REMARK INTRA:                  -0.245
REMARK UNBOUND:                -0.388
REMARK SMILES O=C([O-])CCCCCCCC(=O)[O-]
REMARK SMILES IDX 7 1 6 2 5 3 4 4 2 5 1 6 3 7 8 8 9 9 10 10 11 11 12 12 13 13
REMARK H PARENT
REMARK Flexibility Score: inf
ROOT
ATOM      1  C   UNL     1       3.771  -6.850   5.542  1.00  0.00     0.000 C 
ENDROOT
BRANCH   1   2
ATOM      2  C   UNL     1       2.808  -7.581   4.595  1.00  0.00     0.000 C 
BRANCH   2   3
ATOM      3  C   UNL     1       1.348  -7.231   4.918  1.00  0.00     0.006 C 
BRANCH   3   4
ATOM      4  C   UNL     1       0.363  -8.256   4.340  1.00  0.00     0.053 C 
BRANCH   4   5
ATOM      5  C   UNL     1      -1.055  -7.788   4.449  1.00  0.00     0.041 C 
ATOM      6  O   UNL     1      -1.501  -7.368   5.550  1.00  0.00    -0.550 OA
ATOM      7  O   UNL     1      -1.895  -7.846   3.345  1.00  0.00    -0.550 OA
ENDBRANCH   4   5
ENDBRANCH   3   4
ENDBRANCH   2   3
ENDBRANCH   1   2
BRANCH   1   8
ATOM      8  C   UNL     1       3.338  -5.404   5.827  1.00  0.00     0.000 C 
BRANCH   8   9
ATOM      9  C   UNL     1       4.534  -4.447   5.976  1.00  0.00     0.006 C 
BRANCH   9  10
ATOM     10  C   UNL     1       4.263  -3.078   5.338  1.00  0.00     0.053 C 
BRANCH  10  11
ATOM     11  C   UNL     1       5.468  -2.549   4.623  1.00  0.00     0.041 C 
ATOM     12  O   UNL     1       6.413  -3.323   4.318  1.00  0.00    -0.550 OA
ATOM     13  O   UNL     1       5.564  -1.195   4.327  1.00  0.00    -0.550 OA
ENDBRANCH  10  11
ENDBRANCH   9  10
ENDBRANCH   8   9
ENDBRANCH   1   8
TORSDOF 8
ENDMDL
MODEL 7
REMARK VINA RESULT:    -3.822     10.408     13.344
REMARK INTER + INTRA:          -5.997
REMARK INTER:                  -5.720
REMARK INTRA:                  -0.277
REMARK UNBOUND:                -0.388
REMARK SMILES O=C([O-])CCCCCCCC(=O)[O-]
REMARK SMILES IDX 7 1 6 2 5 3 4 4 2 5 1 6 3 7 8 8 9 9 10 10 11 11 12 12 13 13
REMARK H PARENT
REMARK Flexibility Score: inf
ROOT
ATOM      1  C   UNL     1       4.063  -6.557   5.294  1.00  0.00     0.000 C 
ENDROOT
BRANCH   1   2
ATOM      2  C   UNL     1       3.100  -7.590   4.691  1.00  0.00     0.000 C 
BRANCH   2   3
ATOM      3  C   UNL     1       1.638  -7.175   4.915  1.00  0.00     0.006 C 
BRANCH   3   4
ATOM      4  C   UNL     1       0.649  -8.227   4.397  1.00  0.00     0.053 C 
BRANCH   4   5
ATOM      5  C   UNL     1      -0.772  -7.798   4.591  1.00  0.00     0.041 C 
ATOM      6  O   UNL     1      -1.167  -7.408   5.722  1.00  0.00    -0.550 OA
ATOM      7  O   UNL     1      -1.670  -7.860   3.533  1.00  0.00    -0.550 OA
ENDBRANCH   4   5
ENDBRANCH   3   4
ENDBRANCH   2   3
ENDBRANCH   1   2
BRANCH   1   8
ATOM      8  C   UNL     1       3.339  -5.312   5.828  1.00  0.00     0.000 C 
BRANCH   8   9
ATOM      9  C   UNL     1       4.218  -4.049   5.782  1.00  0.00     0.006 C 
BRANCH   9  10
ATOM     10  C   UNL     1       3.396  -2.780   5.527  1.00  0.00     0.053 C 
BRANCH  10  11
ATOM     11  C   UNL     1       4.249  -1.657   5.022  1.00  0.00     0.041 C 
ATOM     12  O   UNL     1       4.225  -0.537   5.596  1.00  0.00    -0.550 OA
ATOM     13  O   UNL     1       5.042  -1.837   3.895  1.00  0.00    -0.550 OA
ENDBRANCH  10  11
ENDBRANCH   9  10
ENDBRANCH   8   9
ENDBRANCH   1   8
TORSDOF 8
ENDMDL
MODEL 8
REMARK VINA RESULT:    -3.791     14.303     14.933
REMARK INTER + INTRA:          -5.952
REMARK INTER:                  -5.690
REMARK INTRA:                  -0.262
REMARK UNBOUND:                -0.388
REMARK SMILES O=C([O-])CCCCCCCC(=O)[O-]
REMARK SMILES IDX 7 1 6 2 5 3 4 4 2 5 1 6 3 7 8 8 9 9 10 10 11 11 12 12 13 13
REMARK H PARENT
REMARK Flexibility Score: inf
ROOT
ATOM      1  C   UNL     1       3.052  -7.314   4.734  1.00  0.00     0.000 C 
ENDROOT
BRANCH   1   2
ATOM      2  C   UNL     1       2.659  -8.653   4.094  1.00  0.00     0.000 C 
BRANCH   2   3
ATOM      3  C   UNL     1       1.132  -8.808   4.038  1.00  0.00     0.006 C 
BRANCH   3   4
ATOM      4  C   UNL     1       0.403  -7.626   4.690  1.00  0.00     0.053 C 
BRANCH   4   5
ATOM      5  C   UNL     1      -1.084  -7.789   4.631  1.00  0.00     0.041 C 
ATOM      6  O   UNL     1      -1.674  -7.830   3.518  1.00  0.00    -0.550 OA
ATOM      7  O   UNL     1      -1.824  -7.863   5.804  1.00  0.00    -0.550 OA
ENDBRANCH   4   5
ENDBRANCH   3   4
ENDBRANCH   2   3
ENDBRANCH   1   2
BRANCH   1   8
ATOM      8  C   UNL     1       4.428  -7.364   5.416  1.00  0.00     0.000 C 
BRANCH   8   9
ATOM      9  C   UNL     1       5.419  -6.344   4.826  1.00  0.00     0.006 C 
BRANCH   9  10
ATOM     10  C   UNL     1       6.486  -7.012   3.951  1.00  0.00     0.053 C 
BRANCH  10  11
ATOM     11  C   UNL     1       7.463  -6.016   3.406  1.00  0.00     0.041 C 
ATOM     12  O   UNL     1       8.070  -5.235   4.184  1.00  0.00    -0.550 OA
ATOM     13  O   UNL     1       7.675  -5.926   2.036  1.00  0.00    -0.550 OA
ENDBRANCH  10  11
ENDBRANCH   9  10
ENDBRANCH   8   9
ENDBRANCH   1   8
TORSDOF 8
ENDMDL
MODEL 9
REMARK VINA RESULT:    -3.692     11.814     13.460
REMARK INTER + INTRA:          -5.807
REMARK INTER:                  -5.098
REMARK INTRA:                  -0.709
REMARK UNBOUND:                -0.388
REMARK SMILES O=C([O-])CCCCCCCC(=O)[O-]
REMARK SMILES IDX 7 1 6 2 5 3 4 4 2 5 1 6 3 7 8 8 9 9 10 10 11 11 12 12 13 13
REMARK H PARENT
REMARK Flexibility Score: inf
ROOT
ATOM      1  C   UNL     1      -5.305   9.639  -1.831  1.00  0.00     0.000 C 
ENDROOT
BRANCH   1   2
ATOM      2  C   UNL     1      -4.766   8.201  -1.866  1.00  0.00     0.000 C 
BRANCH   2   3
ATOM      3  C   UNL     1      -4.769   7.649  -3.299  1.00  0.00     0.006 C 
BRANCH   3   4
ATOM      4  C   UNL     1      -5.540   6.327  -3.412  1.00  0.00     0.053 C 
BRANCH   4   5
ATOM      5  C   UNL     1      -6.952   6.544  -3.858  1.00  0.00     0.041 C 
ATOM      6  O   UNL     1      -7.256   7.568  -4.525  1.00  0.00    -0.550 OA
ATOM      7  O   UNL     1      -7.941   5.633  -3.509  1.00  0.00    -0.550 OA
ENDBRANCH   4   5
ENDBRANCH   3   4
ENDBRANCH   2   3
ENDBRANCH   1   2
BRANCH   1   8
ATOM      8  C   UNL     1      -6.488   9.806  -0.865  1.00  0.00     0.000 C 
BRANCH   8   9
ATOM      9  C   UNL     1      -7.850   9.651  -1.566  1.00  0.00     0.006 C 
BRANCH   9  10
ATOM     10  C   UNL     1      -8.859   8.879  -0.706  1.00  0.00     0.053 C 
BRANCH  10  11
ATOM     11  C   UNL     1      -9.692   7.945  -1.530  1.00  0.00     0.041 C 
ATOM     12  O   UNL     1     -10.031   8.264  -2.699  1.00  0.00    -0.550 OA
ATOM     13  O   UNL     1     -10.123   6.739  -0.992  1.00  0.00    -0.550 OA
ENDBRANCH  10  11
ENDBRANCH   9  10
ENDBRANCH   8   9
ENDBRANCH   1   8
TORSDOF 8
ENDMDL
