MODEL 1
REMARK VINA RESULT:    -4.169      0.000      0.000
REMARK INTER + INTRA:          -5.843
REMARK INTER:                  -5.631
REMARK INTRA:                  -0.212
REMARK UNBOUND:                -0.212
REMARK SMILES CCCCCCCC(=O)[O-]
REMARK SMILES IDX 5 1 6 2 7 3 8 4 9 5 10 6 4 7 3 8 2 9 1 10
REMARK H PARENT
REMARK Flexibility Score: inf
ROOT
ATOM      1  C   UNL     1     -17.084  -1.374  36.347  1.00  0.00     0.000 C 
ENDROOT
BRANCH   1   2
ATOM      2  C   UNL     1     -17.692  -0.718  37.595  1.00  0.00     0.006 C 
BRANCH   2   3
ATOM      3  C   UNL     1     -18.864   0.210  37.251  1.00  0.00     0.053 C 
BRANCH   3   4
ATOM      4  C   UNL     1     -18.539   1.645  37.531  1.00  0.00     0.041 C 
ATOM      5  O   UNL     1     -18.991   2.209  38.560  1.00  0.00    -0.550 OA
ATOM      6  O   UNL     1     -17.762   2.369  36.635  1.00  0.00    -0.550 OA
ENDBRANCH   3   4
ENDBRANCH   2   3
ENDBRANCH   1   2
BRANCH   1   7
ATOM      7  C   UNL     1     -17.782  -0.885  35.073  1.00  0.00     0.000 C 
BRANCH   7   8
ATOM      8  C   UNL     1     -17.631  -1.903  33.937  1.00  0.00    -0.000 C 
BRANCH   8   9
ATOM      9  C   UNL     1     -16.812  -1.319  32.780  1.00  0.00    -0.003 C 
ATOM     10  C   UNL     1     -17.430  -1.676  31.431  1.00  0.00     0.004 C 
ENDBRANCH   8   9
ENDBRANCH   7   8
ENDBRANCH   1   7
TORSDOF 6
ENDMDL
MODEL 2
REMARK VINA RESULT:    -4.151     11.877     13.439
REMARK INTER + INTRA:          -5.819
REMARK INTER:                  -5.519
REMARK INTRA:                  -0.300
REMARK UNBOUND:                -0.212
REMARK SMILES CCCCCCCC(=O)[O-]
REMARK SMILES IDX 5 1 6 2 7 3 8 4 9 5 10 6 4 7 3 8 2 9 1 10
REMARK H PARENT
REMARK Flexibility Score: inf
ROOT
ATOM      1  C   UNL     1     -22.910  -0.706  24.977  1.00  0.00     0.000 C 
ENDROOT
BRANCH   1   2
ATOM      2  C   UNL     1     -22.258   0.466  24.230  1.00  0.00     0.006 C 
BRANCH   2   3
ATOM      3  C   UNL     1     -23.295   1.369  23.549  1.00  0.00     0.053 C 
BRANCH   3   4
ATOM      4  C   UNL     1     -22.728   2.056  22.344  1.00  0.00     0.041 C 
ATOM      5  O   UNL     1     -23.432   2.862  21.682  1.00  0.00    -0.550 OA
ATOM      6  O   UNL     1     -21.430   1.778  21.933  1.00  0.00    -0.550 OA
ENDBRANCH   3   4
ENDBRANCH   2   3
ENDBRANCH   1   2
BRANCH   1   7
ATOM      7  C   UNL     1     -24.300  -1.015  24.410  1.00  0.00     0.000 C 
BRANCH   7   8
ATOM      8  C   UNL     1     -25.200  -1.654  25.474  1.00  0.00    -0.000 C 
BRANCH   8   9
ATOM      9  C   UNL     1     -24.365  -2.296  26.588  1.00  0.00    -0.003 C 
ATOM     10  C   UNL     1     -24.906  -1.927  27.966  1.00  0.00     0.004 C 
ENDBRANCH   8   9
ENDBRANCH   7   8
ENDBRANCH   1   7
TORSDOF 6
ENDMDL
MODEL 3
REMARK VINA RESULT:    -4.148      1.283      2.404
REMARK INTER + INTRA:          -5.815
REMARK INTER:                  -5.483
REMARK INTRA:                  -0.332
REMARK UNBOUND:                -0.212
REMARK SMILES CCCCCCCC(=O)[O-]
REMARK SMILES IDX 5 1 6 2 7 3 8 4 9 5 10 6 4 7 3 8 2 9 1 10
REMARK H PARENT
REMARK Flexibility Score: inf
ROOT
ATOM      1  C   UNL     1     -16.398  -2.236  34.339  1.00  0.00     0.000 C 
ENDROOT
BRANCH   1   2
ATOM      2  C   UNL     1     -17.565  -1.307  34.703  1.00  0.00     0.006 C 
BRANCH   2   3
ATOM      3  C   UNL     1     -17.434  -0.737  36.121  1.00  0.00     0.053 C 
BRANCH   3   4
ATOM      4  C   UNL     1     -17.970   0.659  36.212  1.00  0.00     0.041 C 
ATOM      5  O   UNL     1     -17.285   1.630  35.800  1.00  0.00    -0.550 OA
ATOM      6  O   UNL     1     -19.216   0.888  36.783  1.00  0.00    -0.550 OA
ENDBRANCH   3   4
ENDBRANCH   2   3
ENDBRANCH   1   2
BRANCH   1   7
ATOM      7  C   UNL     1     -16.023  -2.094  32.860  1.00  0.00     0.000 C 
BRANCH   7   8
ATOM      8  C   UNL     1     -16.995  -1.160  32.131  1.00  0.00    -0.000 C 
BRANCH   8   9
ATOM      9  C   UNL     1     -17.768  -1.911  31.040  1.00  0.00    -0.003 C 
ATOM     10  C   UNL     1     -19.221  -2.133  31.447  1.00  0.00     0.004 C 
ENDBRANCH   8   9
ENDBRANCH   7   8
ENDBRANCH   1   7
TORSDOF 6
ENDMDL
MODEL 4
REMARK VINA RESULT:    -4.140     11.278     12.802
REMARK INTER + INTRA:          -5.805
REMARK INTER:                  -5.605
REMARK INTRA:                  -0.200
REMARK UNBOUND:                -0.212
REMARK SMILES CCCCCCCC(=O)[O-]
REMARK SMILES IDX 5 1 6 2 7 3 8 4 9 5 10 6 4 7 3 8 2 9 1 10
REMARK H PARENT
REMARK Flexibility Score: inf
ROOT
ATOM      1  C   UNL     1     -24.098  -0.394  24.104  1.00  0.00     0.000 C 
ENDROOT
BRANCH   1   2
ATOM      2  C   UNL     1     -23.531  -1.018  25.387  1.00  0.00     0.006 C 
BRANCH   2   3
ATOM      3  C   UNL     1     -24.307  -2.269  25.817  1.00  0.00     0.053 C 
BRANCH   3   4
ATOM      4  C   UNL     1     -24.811  -2.155  27.223  1.00  0.00     0.041 C 
ATOM      5  O   UNL     1     -24.064  -2.450  28.191  1.00  0.00    -0.550 OA
ATOM      6  O   UNL     1     -26.120  -1.754  27.462  1.00  0.00    -0.550 OA
ENDBRANCH   3   4
ENDBRANCH   2   3
ENDBRANCH   1   2
BRANCH   1   7
ATOM      7  C   UNL     1     -23.515   1.003  23.867  1.00  0.00     0.000 C 
BRANCH   7   8
ATOM      8  C   UNL     1     -22.120   0.919  23.237  1.00  0.00    -0.000 C 
BRANCH   8   9
ATOM      9  C   UNL     1     -21.980   1.907  22.073  1.00  0.00    -0.003 C 
ATOM     10  C   UNL     1     -23.322   2.548  21.730  1.00  0.00     0.004 C 
ENDBRANCH   8   9
ENDBRANCH   7   8
ENDBRANCH   1   7
TORSDOF 6
ENDMDL
MODEL 5
REMARK VINA RESULT:    -4.112     10.214     11.639
REMARK INTER + INTRA:          -5.766
REMARK INTER:                  -5.258
REMARK INTRA:                  -0.508
REMARK UNBOUND:                -0.212
REMARK SMILES CCCCCCCC(=O)[O-]
REMARK SMILES IDX 5 1 6 2 7 3 8 4 9 5 10 6 4 7 3 8 2 9 1 10
REMARK H PARENT
REMARK Flexibility Score: inf
ROOT
ATOM      1  C   UNL     1     -19.105   8.842  30.425  1.00  0.00     0.000 C 
ENDROOT
BRANCH   1   2
ATOM      2  C   UNL     1     -18.333   9.083  29.120  1.00  0.00     0.006 C 
BRANCH   2   3
ATOM      3  C   UNL     1     -17.085   8.198  29.012  1.00  0.00     0.053 C 
BRANCH   3   4
ATOM      4  C   UNL     1     -15.837   9.014  28.859  1.00  0.00     0.041 C 
ATOM      5  O   UNL     1     -15.700  10.090  29.496  1.00  0.00    -0.550 OA
ATOM      6  O   UNL     1     -14.839   8.600  27.985  1.00  0.00    -0.550 OA
ENDBRANCH   3   4
ENDBRANCH   2   3
ENDBRANCH   1   2
BRANCH   1   7
ATOM      7  C   UNL     1     -19.120  10.103  31.297  1.00  0.00     0.000 C 
BRANCH   7   8
ATOM      8  C   UNL     1     -18.583   9.808  32.702  1.00  0.00    -0.000 C 
BRANCH   8   9
ATOM      9  C   UNL     1     -17.069   9.573  32.676  1.00  0.00    -0.003 C 
ATOM     10  C   UNL     1     -16.731   8.115  32.973  1.00  0.00     0.004 C 
ENDBRANCH   8   9
ENDBRANCH   7   8
ENDBRANCH   1   7
TORSDOF 6
ENDMDL
MODEL 6
REMARK VINA RESULT:    -4.069     10.530     12.725
REMARK INTER + INTRA:          -5.708
REMARK INTER:                  -5.419
REMARK INTRA:                  -0.289
REMARK UNBOUND:                -0.212
REMARK SMILES CCCCCCCC(=O)[O-]
REMARK SMILES IDX 5 1 6 2 7 3 8 4 9 5 10 6 4 7 3 8 2 9 1 10
REMARK H PARENT
REMARK Flexibility Score: inf
ROOT
ATOM      1  C   UNL     1     -24.510  -0.605  24.467  1.00  0.00     0.000 C 
ENDROOT
BRANCH   1   2
ATOM      2  C   UNL     1     -23.061  -0.360  24.912  1.00  0.00     0.006 C 
BRANCH   2   3
ATOM      3  C   UNL     1     -22.258   0.428  23.869  1.00  0.00     0.053 C 
BRANCH   3   4
ATOM      4  C   UNL     1     -22.824   1.798  23.651  1.00  0.00     0.041 C 
ATOM      5  O   UNL     1     -22.959   2.590  24.620  1.00  0.00    -0.550 OA
ATOM      6  O   UNL     1     -23.232   2.187  22.382  1.00  0.00    -0.550 OA
ENDBRANCH   3   4
ENDBRANCH   2   3
ENDBRANCH   1   2
BRANCH   1   7
ATOM      7  C   UNL     1     -25.225  -1.563  25.427  1.00  0.00     0.000 C 
BRANCH   7   8
ATOM      8  C   UNL     1     -24.232  -2.225  26.388  1.00  0.00    -0.000 C 
BRANCH   8   9
ATOM      9  C   UNL     1     -24.734  -2.154  27.834  1.00  0.00    -0.003 C 
ATOM     10  C   UNL     1     -23.856  -2.986  28.764  1.00  0.00     0.004 C 
ENDBRANCH   8   9
ENDBRANCH   7   8
ENDBRANCH   1   7
TORSDOF 6
ENDMDL
MODEL 7
REMARK VINA RESULT:    -3.974      3.079      5.327
REMARK INTER + INTRA:          -5.579
REMARK INTER:                  -5.259
REMARK INTRA:                  -0.321
REMARK UNBOUND:                -0.212
REMARK SMILES CCCCCCCC(=O)[O-]
REMARK SMILES IDX 5 1 6 2 7 3 8 4 9 5 10 6 4 7 3 8 2 9 1 10
REMARK H PARENT
REMARK Flexibility Score: inf
ROOT
ATOM      1  C   UNL     1     -17.136  -1.216  36.368  1.00  0.00     0.000 C 
ENDROOT
BRANCH   1   2
ATOM      2  C   UNL     1     -17.652  -0.714  35.012  1.00  0.00     0.006 C 
BRANCH   2   3
ATOM      3  C   UNL     1     -17.853  -1.856  34.008  1.00  0.00     0.053 C 
BRANCH   3   4
ATOM      4  C   UNL     1     -17.086  -1.625  32.742  1.00  0.00     0.041 C 
ATOM      5  O   UNL     1     -15.830  -1.562  32.763  1.00  0.00    -0.550 OA
ATOM      6  O   UNL     1     -17.764  -1.444  31.542  1.00  0.00    -0.550 OA
ENDBRANCH   3   4
ENDBRANCH   2   3
ENDBRANCH   1   2
BRANCH   1   7
ATOM      7  C   UNL     1     -17.950  -0.617  37.522  1.00  0.00     0.000 C 
BRANCH   7   8
ATOM      8  C   UNL     1     -18.841   0.530  37.031  1.00  0.00    -0.000 C 
BRANCH   8   9
ATOM      9  C   UNL     1     -18.921   1.650  38.075  1.00  0.00    -0.003 C 
ATOM     10  C   UNL     1     -17.559   2.303  38.288  1.00  0.00     0.004 C 
ENDBRANCH   8   9
ENDBRANCH   7   8
ENDBRANCH   1   7
TORSDOF 6
ENDMDL
MODEL 8
REMARK VINA RESULT:    -3.955     12.737     14.063
REMARK INTER + INTRA:          -5.554
REMARK INTER:                  -5.164
REMARK INTRA:                  -0.390
REMARK UNBOUND:                -0.212
REMARK SMILES CCCCCCCC(=O)[O-]
REMARK SMILES IDX 5 1 6 2 7 3 8 4 9 5 10 6 4 7 3 8 2 9 1 10
REMARK H PARENT
REMARK Flexibility Score: inf
ROOT
ATOM      1  C   UNL     1     -22.988  -0.700  25.002  1.00  0.00     0.000 C 
ENDROOT
BRANCH   1   2
ATOM      2  C   UNL     1     -22.338   0.381  24.126  1.00  0.00     0.006 C 
BRANCH   2   3
ATOM      3  C   UNL     1     -23.379   1.253  23.412  1.00  0.00     0.053 C 
BRANCH   3   4
ATOM      4  C   UNL     1     -22.771   2.039  22.291  1.00  0.00     0.041 C 
ATOM      5  O   UNL     1     -23.473   2.845  21.628  1.00  0.00    -0.550 OA
ATOM      6  O   UNL     1     -21.435   1.854  21.958  1.00  0.00    -0.550 OA
ENDBRANCH   3   4
ENDBRANCH   2   3
ENDBRANCH   1   2
BRANCH   1   7
ATOM      7  C   UNL     1     -24.491  -0.805  24.722  1.00  0.00     0.000 C 
BRANCH   7   8
ATOM      8  C   UNL     1     -24.952  -2.267  24.724  1.00  0.00    -0.000 C 
BRANCH   8   9
ATOM      9  C   UNL     1     -25.764  -2.590  23.464  1.00  0.00    -0.003 C 
ATOM     10  C   UNL     1     -25.921  -1.358  22.578  1.00  0.00     0.004 C 
ENDBRANCH   8   9
ENDBRANCH   7   8
ENDBRANCH   1   7
TORSDOF 6
ENDMDL
MODEL 9
REMARK VINA RESULT:    -3.845     11.243     12.197
REMARK INTER + INTRA:          -5.406
REMARK INTER:                  -5.117
REMARK INTRA:                  -0.289
REMARK UNBOUND:                -0.212
REMARK SMILES CCCCCCCC(=O)[O-]
REMARK SMILES IDX 5 1 6 2 7 3 8 4 9 5 10 6 4 7 3 8 2 9 1 10
REMARK H PARENT
REMARK Flexibility Score: inf
ROOT
ATOM      1  C   UNL     1     -19.479   9.000  29.337  1.00  0.00     0.000 C 
ENDROOT
BRANCH   1   2
ATOM      2  C   UNL     1     -18.290   9.782  28.759  1.00  0.00     0.006 C 
BRANCH   2   3
ATOM      3  C   UNL     1     -17.306   8.873  28.010  1.00  0.00     0.053 C 
BRANCH   3   4
ATOM      4  C   UNL     1     -15.992   8.771  28.722  1.00  0.00     0.041 C 
ATOM      5  O   UNL     1     -15.940   8.865  29.975  1.00  0.00    -0.550 OA
ATOM      6  O   UNL     1     -14.819   8.605  27.995  1.00  0.00    -0.550 OA
ENDBRANCH   3   4
ENDBRANCH   2   3
ENDBRANCH   1   2
BRANCH   1   7
ATOM      7  C   UNL     1     -19.738   9.391  30.796  1.00  0.00     0.000 C 
BRANCH   7   8
ATOM      8  C   UNL     1     -21.215   9.734  31.022  1.00  0.00    -0.000 C 
BRANCH   8   9
ATOM      9  C   UNL     1     -22.012   9.619  29.717  1.00  0.00    -0.003 C 
ATOM     10  C   UNL     1     -23.335   8.893  29.942  1.00  0.00     0.004 C 
ENDBRANCH   8   9
ENDBRANCH   7   8
ENDBRANCH   1   7
TORSDOF 6
ENDMDL
