MODEL 1
REMARK VINA RESULT:    -3.385      0.000      0.000
REMARK INTER + INTRA:          -4.084
REMARK INTER:                  -3.978
REMARK INTRA:                  -0.106
REMARK UNBOUND:                -0.106
REMARK SMILES CCCCC(=O)[O-]
REMARK SMILES IDX 4 1 5 2 6 3 7 4 3 5 2 6 1 7
REMARK H PARENT
REMARK Flexibility Score: inf
ROOT
ATOM      1  C   UNL     1      32.940  21.280  14.094  1.00  0.00     0.053 C 
ENDROOT
BRANCH   1   2
ATOM      2  C   UNL     1      34.273  21.509  14.737  1.00  0.00     0.041 C 
ATOM      3  O   UNL     1      35.283  20.867  14.346  1.00  0.00    -0.550 OA
ATOM      4  O   UNL     1      34.407  22.456  15.745  1.00  0.00    -0.550 OA
ENDBRANCH   1   2
BRANCH   1   5
ATOM      5  C   UNL     1      32.704  19.795  13.785  1.00  0.00     0.006 C 
BRANCH   5   6
ATOM      6  C   UNL     1      32.286  19.564  12.325  1.00  0.00    -0.003 C 
ATOM      7  C   UNL     1      33.347  20.087  11.361  1.00  0.00     0.004 C 
ENDBRANCH   5   6
ENDBRANCH   1   5
TORSDOF 3
ENDMDL
MODEL 2
REMARK VINA RESULT:    -3.370      2.924      4.098
REMARK INTER + INTRA:          -4.067
REMARK INTER:                  -4.024
REMARK INTRA:                  -0.044
REMARK UNBOUND:                -0.106
REMARK SMILES CCCCC(=O)[O-]
REMARK SMILES IDX 4 1 5 2 6 3 7 4 3 5 2 6 1 7
REMARK H PARENT
REMARK Flexibility Score: inf
ROOT
ATOM      1  C   UNL     1      32.247  19.340  13.596  1.00  0.00     0.053 C 
ENDROOT
BRANCH   1   2
ATOM      2  C   UNL     1      31.573  19.369  12.259  1.00  0.00     0.041 C 
ATOM      3  O   UNL     1      30.359  19.048  12.156  1.00  0.00    -0.550 OA
ATOM      4  O   UNL     1      32.274  19.782  11.133  1.00  0.00    -0.550 OA
ENDBRANCH   1   2
BRANCH   1   5
ATOM      5  C   UNL     1      33.567  20.123  13.586  1.00  0.00     0.006 C 
BRANCH   5   6
ATOM      6  C   UNL     1      33.462  21.450  14.351  1.00  0.00    -0.003 C 
ATOM      7  C   UNL     1      34.605  21.602  15.349  1.00  0.00     0.004 C 
ENDBRANCH   5   6
ENDBRANCH   1   5
TORSDOF 3
ENDMDL
MODEL 3
REMARK VINA RESULT:    -3.362      1.682      2.413
REMARK INTER + INTRA:          -4.057
REMARK INTER:                  -3.972
REMARK INTRA:                  -0.085
REMARK UNBOUND:                -0.106
REMARK SMILES CCCCC(=O)[O-]
REMARK SMILES IDX 4 1 5 2 6 3 7 4 3 5 2 6 1 7
REMARK H PARENT
REMARK Flexibility Score: inf
ROOT
ATOM      1  C   UNL     1      32.266  19.076  13.583  1.00  0.00     0.053 C 
ENDROOT
BRANCH   1   2
ATOM      2  C   UNL     1      33.184  20.256  13.671  1.00  0.00     0.041 C 
ATOM      3  O   UNL     1      32.734  21.385  14.001  1.00  0.00    -0.550 OA
ATOM      4  O   UNL     1      34.543  20.103  13.423  1.00  0.00    -0.550 OA
ENDBRANCH   1   2
BRANCH   1   5
ATOM      5  C   UNL     1      31.297  19.195  12.399  1.00  0.00     0.006 C 
BRANCH   5   6
ATOM      6  C   UNL     1      32.032  19.368  11.061  1.00  0.00    -0.003 C 
ATOM      7  C   UNL     1      31.812  18.162  10.154  1.00  0.00     0.004 C 
ENDBRANCH   5   6
ENDBRANCH   1   5
TORSDOF 3
ENDMDL
MODEL 4
REMARK VINA RESULT:    -3.339      3.502      4.550
REMARK INTER + INTRA:          -4.030
REMARK INTER:                  -3.923
REMARK INTRA:                  -0.108
REMARK UNBOUND:                -0.106
REMARK SMILES CCCCC(=O)[O-]
REMARK SMILES IDX 4 1 5 2 6 3 7 4 3 5 2 6 1 7
REMARK H PARENT
REMARK Flexibility Score: inf
ROOT
ATOM      1  C   UNL     1      30.981  19.456  12.156  1.00  0.00     0.053 C 
ENDROOT
BRANCH   1   2
ATOM      2  C   UNL     1      31.336  18.760  10.878  1.00  0.00     0.041 C 
ATOM      3  O   UNL     1      32.479  18.911  10.372  1.00  0.00    -0.550 OA
ATOM      4  O   UNL     1      30.417  17.918  10.265  1.00  0.00    -0.550 OA
ENDBRANCH   1   2
BRANCH   1   5
ATOM      5  C   UNL     1      31.850  18.978  13.327  1.00  0.00     0.006 C 
BRANCH   5   6
ATOM      6  C   UNL     1      32.700  20.111  13.921  1.00  0.00    -0.003 C 
ATOM      7  C   UNL     1      34.091  20.142  13.296  1.00  0.00     0.004 C 
ENDBRANCH   5   6
ENDBRANCH   1   5
TORSDOF 3
ENDMDL
MODEL 5
REMARK VINA RESULT:    -3.135     15.282     15.768
REMARK INTER + INTRA:          -3.790
REMARK INTER:                  -3.744
REMARK INTRA:                  -0.046
REMARK UNBOUND:                -0.106
REMARK SMILES CCCCC(=O)[O-]
REMARK SMILES IDX 4 1 5 2 6 3 7 4 3 5 2 6 1 7
REMARK H PARENT
REMARK Flexibility Score: inf
ROOT
ATOM      1  C   UNL     1      31.044   6.201  14.324  1.00  0.00     0.053 C 
ENDROOT
BRANCH   1   2
ATOM      2  C   UNL     1      31.593   4.831  14.580  1.00  0.00     0.041 C 
ATOM      3  O   UNL     1      31.951   4.500  15.741  1.00  0.00    -0.550 OA
ATOM      4  O   UNL     1      31.678   3.909  13.544  1.00  0.00    -0.550 OA
ENDBRANCH   1   2
BRANCH   1   5
ATOM      5  C   UNL     1      30.033   6.203  13.170  1.00  0.00     0.006 C 
BRANCH   5   6
ATOM      6  C   UNL     1      28.581   6.154  13.668  1.00  0.00    -0.003 C 
ATOM      7  C   UNL     1      27.737   7.240  13.009  1.00  0.00     0.004 C 
ENDBRANCH   5   6
ENDBRANCH   1   5
TORSDOF 3
ENDMDL
MODEL 6
REMARK VINA RESULT:    -3.088      3.364      4.172
REMARK INTER + INTRA:          -3.736
REMARK INTER:                  -3.636
REMARK INTRA:                  -0.100
REMARK UNBOUND:                -0.106
REMARK SMILES CCCCC(=O)[O-]
REMARK SMILES IDX 4 1 5 2 6 3 7 4 3 5 2 6 1 7
REMARK H PARENT
REMARK Flexibility Score: inf
ROOT
ATOM      1  C   UNL     1      31.719  19.377  11.927  1.00  0.00     0.053 C 
ENDROOT
BRANCH   1   2
ATOM      2  C   UNL     1      30.462  20.187  11.844  1.00  0.00     0.041 C 
ATOM      3  O   UNL     1      29.423  19.692  11.334  1.00  0.00    -0.550 OA
ATOM      4  O   UNL     1      30.429  21.477  12.361  1.00  0.00    -0.550 OA
ENDBRANCH   1   2
BRANCH   1   5
ATOM      5  C   UNL     1      32.294  19.361  13.350  1.00  0.00     0.006 C 
BRANCH   5   6
ATOM      6  C   UNL     1      33.644  20.089  13.439  1.00  0.00    -0.003 C 
ATOM      7  C   UNL     1      33.550  21.310  14.349  1.00  0.00     0.004 C 
ENDBRANCH   5   6
ENDBRANCH   1   5
TORSDOF 3
ENDMDL
MODEL 7
REMARK VINA RESULT:    -3.048     14.623     15.282
REMARK INTER + INTRA:          -3.688
REMARK INTER:                  -3.660
REMARK INTRA:                  -0.028
REMARK UNBOUND:                -0.106
REMARK SMILES CCCCC(=O)[O-]
REMARK SMILES IDX 4 1 5 2 6 3 7 4 3 5 2 6 1 7
REMARK H PARENT
REMARK Flexibility Score: inf
ROOT
ATOM      1  C   UNL     1      29.947   6.200  12.336  1.00  0.00     0.053 C 
ENDROOT
BRANCH   1   2
ATOM      2  C   UNL     1      28.857   7.158  11.966  1.00  0.00     0.041 C 
ATOM      3  O   UNL     1      28.019   7.527  12.830  1.00  0.00    -0.550 OA
ATOM      4  O   UNL     1      28.787   7.669  10.676  1.00  0.00    -0.550 OA
ENDBRANCH   1   2
BRANCH   1   5
ATOM      5  C   UNL     1      29.999   5.952  13.850  1.00  0.00     0.006 C 
BRANCH   5   6
ATOM      6  C   UNL     1      31.438   5.940  14.388  1.00  0.00    -0.003 C 
ATOM      7  C   UNL     1      31.673   4.742  15.302  1.00  0.00     0.004 C 
ENDBRANCH   5   6
ENDBRANCH   1   5
TORSDOF 3
ENDMDL
MODEL 8
REMARK VINA RESULT:    -2.971     17.797     18.349
REMARK INTER + INTRA:          -3.598
REMARK INTER:                  -3.562
REMARK INTRA:                  -0.036
REMARK UNBOUND:                -0.106
REMARK SMILES CCCCC(=O)[O-]
REMARK SMILES IDX 4 1 5 2 6 3 7 4 3 5 2 6 1 7
REMARK H PARENT
REMARK Flexibility Score: inf
ROOT
ATOM      1  C   UNL     1      35.008   9.414  29.075  1.00  0.00     0.053 C 
ENDROOT
BRANCH   1   2
ATOM      2  C   UNL     1      34.252  10.658  29.425  1.00  0.00     0.041 C 
ATOM      3  O   UNL     1      33.103  10.578  29.935  1.00  0.00    -0.550 OA
ATOM      4  O   UNL     1      34.829  11.906  29.220  1.00  0.00    -0.550 OA
ENDBRANCH   1   2
BRANCH   1   5
ATOM      5  C   UNL     1      34.545   8.823  27.736  1.00  0.00     0.006 C 
BRANCH   5   6
ATOM      6  C   UNL     1      35.596   8.997  26.629  1.00  0.00    -0.003 C 
ATOM      7  C   UNL     1      35.610   7.795  25.691  1.00  0.00     0.004 C 
ENDBRANCH   5   6
ENDBRANCH   1   5
TORSDOF 3
ENDMDL
