MODEL 1
REMARK VINA RESULT:    -4.384      0.000      0.000
REMARK INTER + INTRA:          -8.813
REMARK INTER:                  -7.715
REMARK INTRA:                  -1.098
REMARK UNBOUND:                -1.098
REMARK SMILES CCCCCCC=CCCCCCCCC(=O)[O-]
REMARK SMILES IDX 10 1 11 2 12 3 13 4 14 5 15 6 16 7 17 8 18 9 9 10 8 11 7 12
REMARK SMILES IDX 6 13 5 14 4 15 3 16 2 17 1 18
REMARK H PARENT
REMARK Flexibility Score: inf
ROOT
ATOM      1  C   UNL     1      -4.603   7.007  -8.683  1.00  0.00     0.004 C 
ENDROOT
BRANCH   1   2
ATOM      2  C   UNL     1      -4.963   7.484  -7.268  1.00  0.00     0.000 C 
BRANCH   2   3
ATOM      3  C   UNL     1      -5.537   6.359  -6.393  1.00  0.00     0.000 C 
BRANCH   3   4
ATOM      4  C   UNL     1      -5.385   4.997  -7.081  1.00  0.00     0.000 C 
BRANCH   4   5
ATOM      5  C   UNL     1      -5.046   3.901  -6.063  1.00  0.00     0.006 C 
BRANCH   5   6
ATOM      6  C   UNL     1      -5.210   4.414  -4.630  1.00  0.00     0.053 C 
BRANCH   6   7
ATOM      7  C   UNL     1      -5.785   3.345  -3.754  1.00  0.00     0.041 C 
ATOM      8  O   UNL     1      -5.076   2.368  -3.398  1.00  0.00    -0.550 OA
ATOM      9  O   UNL     1      -7.120   3.403  -3.372  1.00  0.00    -0.550 OA
ENDBRANCH   6   7
ENDBRANCH   5   6
ENDBRANCH   4   5
ENDBRANCH   3   4
ENDBRANCH   2   3
ENDBRANCH   1   2
BRANCH   1  10
ATOM     10  C   UNL     1      -5.056   7.991  -9.773  1.00  0.00     0.027 C 
BRANCH  10  11
ATOM     11  C   UNL     1      -6.321   7.520 -10.437  1.00  0.00    -0.031 C 
ATOM     12  C   UNL     1      -6.541   6.214 -10.638  1.00  0.00    -0.031 C 
BRANCH  12  13
ATOM     13  C   UNL     1      -7.801   5.718 -11.298  1.00  0.00     0.027 C 
BRANCH  13  14
ATOM     14  C   UNL     1      -7.515   4.914 -12.576  1.00  0.00     0.004 C 
BRANCH  14  15
ATOM     15  C   UNL     1      -6.539   5.646 -13.513  1.00  0.00     0.000 C 
BRANCH  15  16
ATOM     16  C   UNL     1      -5.782   4.684 -14.443  1.00  0.00    -0.000 C 
BRANCH  16  17
ATOM     17  C   UNL     1      -5.780   3.238 -13.926  1.00  0.00    -0.003 C 
ATOM     18  C   UNL     1      -4.395   2.611 -14.055  1.00  0.00     0.004 C 
ENDBRANCH  16  17
ENDBRANCH  15  16
ENDBRANCH  14  15
ENDBRANCH  13  14
ENDBRANCH  12  13
ENDBRANCH  10  11
ENDBRANCH   1  10
TORSDOF 13
ENDMDL
MODEL 2
REMARK VINA RESULT:    -4.344      1.233      1.654
REMARK INTER + INTRA:          -8.745
REMARK INTER:                  -7.620
REMARK INTRA:                  -1.124
REMARK UNBOUND:                -1.098
REMARK SMILES CCCCCCC=CCCCCCCCC(=O)[O-]
REMARK SMILES IDX 10 1 11 2 12 3 13 4 14 5 15 6 16 7 17 8 18 9 9 10 8 11 7 12
REMARK SMILES IDX 6 13 5 14 4 15 3 16 2 17 1 18
REMARK H PARENT
REMARK Flexibility Score: inf
ROOT
ATOM      1  C   UNL     1      -4.379   7.228  -8.391  1.00  0.00     0.004 C 
ENDROOT
BRANCH   1   2
ATOM      2  C   UNL     1      -4.787   7.339  -6.914  1.00  0.00     0.000 C 
BRANCH   2   3
ATOM      3  C   UNL     1      -6.299   7.541  -6.732  1.00  0.00     0.000 C 
BRANCH   3   4
ATOM      4  C   UNL     1      -6.799   6.830  -5.468  1.00  0.00     0.000 C 
BRANCH   4   5
ATOM      5  C   UNL     1      -5.638   6.173  -4.711  1.00  0.00     0.006 C 
BRANCH   5   6
ATOM      6  C   UNL     1      -6.068   4.835  -4.103  1.00  0.00     0.053 C 
BRANCH   6   7
ATOM      7  C   UNL     1      -5.163   3.736  -4.564  1.00  0.00     0.041 C 
ATOM      8  O   UNL     1      -5.077   2.667  -3.904  1.00  0.00    -0.550 OA
ATOM      9  O   UNL     1      -4.376   3.911  -5.695  1.00  0.00    -0.550 OA
ENDBRANCH   6   7
ENDBRANCH   5   6
ENDBRANCH   4   5
ENDBRANCH   3   4
ENDBRANCH   2   3
ENDBRANCH   1   2
BRANCH   1  10
ATOM     10  C   UNL     1      -4.676   5.842  -8.985  1.00  0.00     0.027 C 
BRANCH  10  11
ATOM     11  C   UNL     1      -5.393   5.959 -10.302  1.00  0.00    -0.031 C 
ATOM     12  C   UNL     1      -6.712   5.736 -10.383  1.00  0.00    -0.031 C 
BRANCH  12  13
ATOM     13  C   UNL     1      -7.453   5.848 -11.689  1.00  0.00     0.027 C 
BRANCH  13  14
ATOM     14  C   UNL     1      -6.537   6.271 -12.849  1.00  0.00     0.004 C 
BRANCH  14  15
ATOM     15  C   UNL     1      -6.501   5.218 -13.970  1.00  0.00     0.000 C 
BRANCH  15  16
ATOM     16  C   UNL     1      -5.942   3.868 -13.492  1.00  0.00    -0.000 C 
BRANCH  16  17
ATOM     17  C   UNL     1      -5.039   3.198 -14.538  1.00  0.00    -0.003 C 
ATOM     18  C   UNL     1      -3.728   2.728 -13.911  1.00  0.00     0.004 C 
ENDBRANCH  16  17
ENDBRANCH  15  16
ENDBRANCH  14  15
ENDBRANCH  13  14
ENDBRANCH  12  13
ENDBRANCH  10  11
ENDBRANCH   1  10
TORSDOF 13
ENDMDL
MODEL 3
REMARK VINA RESULT:    -4.201      1.007      1.937
REMARK INTER + INTRA:          -8.492
REMARK INTER:                  -7.586
REMARK INTRA:                  -0.906
REMARK UNBOUND:                -1.098
REMARK SMILES CCCCCCC=CCCCCCCCC(=O)[O-]
REMARK SMILES IDX 10 1 11 2 12 3 13 4 14 5 15 6 16 7 17 8 18 9 9 10 8 11 7 12
REMARK SMILES IDX 6 13 5 14 4 15 3 16 2 17 1 18
REMARK H PARENT
REMARK Flexibility Score: inf
ROOT
ATOM      1  C   UNL     1      -4.406   5.673  -8.695  1.00  0.00     0.004 C 
ENDROOT
BRANCH   1   2
ATOM      2  C   UNL     1      -5.459   4.936  -7.852  1.00  0.00     0.000 C 
BRANCH   2   3
ATOM      3  C   UNL     1      -4.981   4.659  -6.419  1.00  0.00     0.000 C 
BRANCH   3   4
ATOM      4  C   UNL     1      -5.431   5.774  -5.466  1.00  0.00     0.000 C 
BRANCH   4   5
ATOM      5  C   UNL     1      -5.553   5.253  -4.029  1.00  0.00     0.006 C 
BRANCH   5   6
ATOM      6  C   UNL     1      -6.606   4.146  -3.934  1.00  0.00     0.053 C 
BRANCH   6   7
ATOM      7  C   UNL     1      -6.089   3.000  -3.121  1.00  0.00     0.041 C 
ATOM      8  O   UNL     1      -6.540   2.789  -1.965  1.00  0.00    -0.550 OA
ATOM      9  O   UNL     1      -5.074   2.194  -3.622  1.00  0.00    -0.550 OA
ENDBRANCH   6   7
ENDBRANCH   5   6
ENDBRANCH   4   5
ENDBRANCH   3   4
ENDBRANCH   2   3
ENDBRANCH   1   2
BRANCH   1  10
ATOM     10  C   UNL     1      -4.378   7.184  -8.419  1.00  0.00     0.027 C 
BRANCH  10  11
ATOM     11  C   UNL     1      -5.033   7.951  -9.534  1.00  0.00    -0.031 C 
ATOM     12  C   UNL     1      -5.469   7.320 -10.633  1.00  0.00    -0.031 C 
BRANCH  12  13
ATOM     13  C   UNL     1      -6.131   8.066 -11.762  1.00  0.00     0.027 C 
BRANCH  13  14
ATOM     14  C   UNL     1      -6.907   7.134 -12.705  1.00  0.00     0.004 C 
BRANCH  14  15
ATOM     15  C   UNL     1      -7.246   5.790 -12.039  1.00  0.00     0.000 C 
BRANCH  15  16
ATOM     16  C   UNL     1      -7.408   4.650 -13.058  1.00  0.00    -0.000 C 
BRANCH  16  17
ATOM     17  C   UNL     1      -6.255   4.592 -14.070  1.00  0.00    -0.003 C 
ATOM     18  C   UNL     1      -5.280   3.468 -13.727  1.00  0.00     0.004 C 
ENDBRANCH  16  17
ENDBRANCH  15  16
ENDBRANCH  14  15
ENDBRANCH  13  14
ENDBRANCH  12  13
ENDBRANCH  10  11
ENDBRANCH   1  10
TORSDOF 13
ENDMDL
MODEL 4
REMARK VINA RESULT:    -4.114     12.729     14.365
REMARK INTER + INTRA:          -8.338
REMARK INTER:                  -7.408
REMARK INTRA:                  -0.930
REMARK UNBOUND:                -1.098
REMARK SMILES CCCCCCC=CCCCCCCCC(=O)[O-]
REMARK SMILES IDX 10 1 11 2 12 3 13 4 14 5 15 6 16 7 17 8 18 9 9 10 8 11 7 12
REMARK SMILES IDX 6 13 5 14 4 15 3 16 2 17 1 18
REMARK H PARENT
REMARK Flexibility Score: inf
ROOT
ATOM      1  C   UNL     1      -3.724  -7.244  -1.282  1.00  0.00     0.004 C 
ENDROOT
BRANCH   1   2
ATOM      2  C   UNL     1      -4.384  -7.346   0.102  1.00  0.00     0.000 C 
BRANCH   2   3
ATOM      3  C   UNL     1      -3.751  -6.396   1.131  1.00  0.00     0.000 C 
BRANCH   3   4
ATOM      4  C   UNL     1      -4.489  -5.052   1.164  1.00  0.00     0.000 C 
BRANCH   4   5
ATOM      5  C   UNL     1      -3.559  -3.924   1.624  1.00  0.00     0.006 C 
BRANCH   5   6
ATOM      6  C   UNL     1      -2.536  -3.578   0.539  1.00  0.00     0.053 C 
BRANCH   6   7
ATOM      7  C   UNL     1      -1.152  -3.561   1.109  1.00  0.00     0.041 C 
ATOM      8  O   UNL     1      -0.810  -4.419   1.964  1.00  0.00    -0.550 OA
ATOM      9  O   UNL     1      -0.257  -2.569   0.732  1.00  0.00    -0.550 OA
ENDBRANCH   6   7
ENDBRANCH   5   6
ENDBRANCH   4   5
ENDBRANCH   3   4
ENDBRANCH   2   3
ENDBRANCH   1   2
BRANCH   1  10
ATOM     10  C   UNL     1      -4.465  -6.282  -2.222  1.00  0.00     0.027 C 
BRANCH  10  11
ATOM     11  C   UNL     1      -5.553  -6.993  -2.979  1.00  0.00    -0.031 C 
ATOM     12  C   UNL     1      -5.453  -8.302  -3.250  1.00  0.00    -0.031 C 
BRANCH  12  13
ATOM     13  C   UNL     1      -6.530  -9.037  -4.003  1.00  0.00     0.027 C 
BRANCH  13  14
ATOM     14  C   UNL     1      -6.057 -10.406  -4.515  1.00  0.00     0.004 C 
BRANCH  14  15
ATOM     15  C   UNL     1      -6.229 -10.544  -6.038  1.00  0.00     0.000 C 
BRANCH  15  16
ATOM     16  C   UNL     1      -6.566  -9.206  -6.716  1.00  0.00    -0.000 C 
BRANCH  16  17
ATOM     17  C   UNL     1      -7.079  -9.383  -8.152  1.00  0.00    -0.003 C 
ATOM     18  C   UNL     1      -7.313  -8.031  -8.822  1.00  0.00     0.004 C 
ENDBRANCH  16  17
ENDBRANCH  15  16
ENDBRANCH  14  15
ENDBRANCH  13  14
ENDBRANCH  12  13
ENDBRANCH  10  11
ENDBRANCH   1  10
TORSDOF 13
ENDMDL
MODEL 5
REMARK VINA RESULT:    -4.085     12.624     13.906
REMARK INTER + INTRA:          -8.288
REMARK INTER:                  -7.725
REMARK INTRA:                  -0.563
REMARK UNBOUND:                -1.098
REMARK SMILES CCCCCCC=CCCCCCCCC(=O)[O-]
REMARK SMILES IDX 10 1 11 2 12 3 13 4 14 5 15 6 16 7 17 8 18 9 9 10 8 11 7 12
REMARK SMILES IDX 6 13 5 14 4 15 3 16 2 17 1 18
REMARK H PARENT
REMARK Flexibility Score: inf
ROOT
ATOM      1  C   UNL     1      -4.846  -6.715  -2.454  1.00  0.00     0.004 C 
ENDROOT
BRANCH   1   2
ATOM      2  C   UNL     1      -3.699  -7.250  -1.584  1.00  0.00     0.000 C 
BRANCH   2   3
ATOM      3  C   UNL     1      -3.764  -6.737  -0.137  1.00  0.00     0.000 C 
BRANCH   3   4
ATOM      4  C   UNL     1      -3.934  -5.213  -0.103  1.00  0.00     0.000 C 
BRANCH   4   5
ATOM      5  C   UNL     1      -3.263  -4.612   1.138  1.00  0.00     0.006 C 
BRANCH   5   6
ATOM      6  C   UNL     1      -2.488  -3.341   0.781  1.00  0.00     0.053 C 
BRANCH   6   7
ATOM      7  C   UNL     1      -1.046  -3.483   1.159  1.00  0.00     0.041 C 
ATOM      8  O   UNL     1      -0.671  -4.447   1.876  1.00  0.00    -0.550 OA
ATOM      9  O   UNL     1      -0.125  -2.524   0.759  1.00  0.00    -0.550 OA
ENDBRANCH   6   7
ENDBRANCH   5   6
ENDBRANCH   4   5
ENDBRANCH   3   4
ENDBRANCH   2   3
ENDBRANCH   1   2
BRANCH   1  10
ATOM     10  C   UNL     1      -6.000  -7.718  -2.596  1.00  0.00     0.027 C 
BRANCH  10  11
ATOM     11  C   UNL     1      -5.867  -8.523  -3.859  1.00  0.00    -0.031 C 
ATOM     12  C   UNL     1      -6.949  -9.037  -4.460  1.00  0.00    -0.031 C 
BRANCH  12  13
ATOM     13  C   UNL     1      -6.841  -9.844  -5.727  1.00  0.00     0.027 C 
BRANCH  13  14
ATOM     14  C   UNL     1      -7.386  -9.091  -6.950  1.00  0.00     0.004 C 
BRANCH  14  15
ATOM     15  C   UNL     1      -6.495  -9.283  -8.190  1.00  0.00     0.000 C 
BRANCH  15  16
ATOM     16  C   UNL     1      -6.011  -7.949  -8.780  1.00  0.00    -0.000 C 
BRANCH  16  17
ATOM     17  C   UNL     1      -5.063  -8.139  -9.974  1.00  0.00    -0.003 C 
ATOM     18  C   UNL     1      -5.232  -9.523 -10.594  1.00  0.00     0.004 C 
ENDBRANCH  16  17
ENDBRANCH  15  16
ENDBRANCH  14  15
ENDBRANCH  13  14
ENDBRANCH  12  13
ENDBRANCH  10  11
ENDBRANCH   1  10
TORSDOF 13
ENDMDL
MODEL 6
REMARK VINA RESULT:    -4.072      3.584      7.934
REMARK INTER + INTRA:          -8.265
REMARK INTER:                  -6.962
REMARK INTRA:                  -1.303
REMARK UNBOUND:                -1.098
REMARK SMILES CCCCCCC=CCCCCCCCC(=O)[O-]
REMARK SMILES IDX 10 1 11 2 12 3 13 4 14 5 15 6 16 7 17 8 18 9 9 10 8 11 7 12
REMARK SMILES IDX 6 13 5 14 4 15 3 16 2 17 1 18
REMARK H PARENT
REMARK Flexibility Score: inf
ROOT
ATOM      1  C   UNL     1      -4.483   5.647  -8.748  1.00  0.00     0.004 C 
ENDROOT
BRANCH   1   2
ATOM      2  C   UNL     1      -4.330   7.156  -8.499  1.00  0.00     0.000 C 
BRANCH   2   3
ATOM      3  C   UNL     1      -5.069   8.005  -9.544  1.00  0.00     0.000 C 
BRANCH   3   4
ATOM      4  C   UNL     1      -6.586   7.955  -9.319  1.00  0.00     0.000 C 
BRANCH   4   5
ATOM      5  C   UNL     1      -7.306   7.387 -10.547  1.00  0.00     0.006 C 
BRANCH   5   6
ATOM      6  C   UNL     1      -6.327   7.161 -11.702  1.00  0.00     0.053 C 
BRANCH   6   7
ATOM      7  C   UNL     1      -6.852   6.118 -12.638  1.00  0.00     0.041 C 
ATOM      8  O   UNL     1      -6.611   6.194 -13.871  1.00  0.00    -0.550 OA
ATOM      9  O   UNL     1      -7.649   5.088 -12.155  1.00  0.00    -0.550 OA
ENDBRANCH   6   7
ENDBRANCH   5   6
ENDBRANCH   4   5
ENDBRANCH   3   4
ENDBRANCH   2   3
ENDBRANCH   1   2
BRANCH   1  10
ATOM     10  C   UNL     1      -5.136   4.915  -7.566  1.00  0.00     0.027 C 
BRANCH  10  11
ATOM     11  C   UNL     1      -5.264   5.820  -6.371  1.00  0.00    -0.031 C 
ATOM     12  C   UNL     1      -5.182   5.326  -5.128  1.00  0.00    -0.031 C 
BRANCH  12  13
ATOM     13  C   UNL     1      -5.305   6.211  -3.917  1.00  0.00     0.027 C 
BRANCH  13  14
ATOM     14  C   UNL     1      -6.549   5.886  -3.075  1.00  0.00     0.004 C 
BRANCH  14  15
ATOM     15  C   UNL     1      -7.432   4.816  -3.741  1.00  0.00     0.000 C 
BRANCH  15  16
ATOM     16  C   UNL     1      -7.698   3.615  -2.819  1.00  0.00    -0.000 C 
BRANCH  16  17
ATOM     17  C   UNL     1      -6.406   3.000  -2.260  1.00  0.00    -0.003 C 
ATOM     18  C   UNL     1      -5.594   2.329  -3.366  1.00  0.00     0.004 C 
ENDBRANCH  16  17
ENDBRANCH  15  16
ENDBRANCH  14  15
ENDBRANCH  13  14
ENDBRANCH  12  13
ENDBRANCH  10  11
ENDBRANCH   1  10
TORSDOF 13
ENDMDL
MODEL 7
REMARK VINA RESULT:    -4.043      3.880      7.561
REMARK INTER + INTRA:          -8.214
REMARK INTER:                  -6.270
REMARK INTRA:                  -1.944
REMARK UNBOUND:                -1.098
REMARK SMILES CCCCCCC=CCCCCCCCC(=O)[O-]
REMARK SMILES IDX 10 1 11 2 12 3 13 4 14 5 15 6 16 7 17 8 18 9 9 10 8 11 7 12
REMARK SMILES IDX 6 13 5 14 4 15 3 16 2 17 1 18
REMARK H PARENT
REMARK Flexibility Score: inf
ROOT
ATOM      1  C   UNL     1      -4.433   6.645  -8.610  1.00  0.00     0.004 C 
ENDROOT
BRANCH   1   2
ATOM      2  C   UNL     1      -4.966   7.829  -9.431  1.00  0.00     0.000 C 
BRANCH   2   3
ATOM      3  C   UNL     1      -6.289   7.508 -10.143  1.00  0.00     0.000 C 
BRANCH   3   4
ATOM      4  C   UNL     1      -6.178   7.767 -11.651  1.00  0.00     0.000 C 
BRANCH   4   5
ATOM      5  C   UNL     1      -7.056   6.792 -12.443  1.00  0.00     0.006 C 
BRANCH   5   6
ATOM      6  C   UNL     1      -6.586   5.348 -12.249  1.00  0.00     0.053 C 
BRANCH   6   7
ATOM      7  C   UNL     1      -6.198   4.742 -13.562  1.00  0.00     0.041 C 
ATOM      8  O   UNL     1      -6.267   5.423 -14.618  1.00  0.00    -0.550 OA
ATOM      9  O   UNL     1      -5.808   3.411 -13.625  1.00  0.00    -0.550 OA
ENDBRANCH   6   7
ENDBRANCH   5   6
ENDBRANCH   4   5
ENDBRANCH   3   4
ENDBRANCH   2   3
ENDBRANCH   1   2
BRANCH   1  10
ATOM     10  C   UNL     1      -5.219   5.350  -8.859  1.00  0.00     0.027 C 
BRANCH  10  11
ATOM     11  C   UNL     1      -5.488   4.622  -7.571  1.00  0.00    -0.031 C 
ATOM     12  C   UNL     1      -4.757   4.877  -6.476  1.00  0.00    -0.031 C 
BRANCH  12  13
ATOM     13  C   UNL     1      -5.009   4.164  -5.174  1.00  0.00     0.027 C 
BRANCH  13  14
ATOM     14  C   UNL     1      -6.366   4.533  -4.556  1.00  0.00     0.004 C 
BRANCH  14  15
ATOM     15  C   UNL     1      -6.516   6.051  -4.356  1.00  0.00     0.000 C 
BRANCH  15  16
ATOM     16  C   UNL     1      -7.792   6.609  -5.007  1.00  0.00    -0.000 C 
BRANCH  16  17
ATOM     17  C   UNL     1      -7.497   7.482  -6.235  1.00  0.00    -0.003 C 
ATOM     18  C   UNL     1      -6.264   8.353  -6.006  1.00  0.00     0.004 C 
ENDBRANCH  16  17
ENDBRANCH  15  16
ENDBRANCH  14  15
ENDBRANCH  13  14
ENDBRANCH  12  13
ENDBRANCH  10  11
ENDBRANCH   1  10
TORSDOF 13
ENDMDL
MODEL 8
REMARK VINA RESULT:    -4.031      3.890      8.021
REMARK INTER + INTRA:          -8.192
REMARK INTER:                  -7.375
REMARK INTRA:                  -0.818
REMARK UNBOUND:                -1.098
REMARK SMILES CCCCCCC=CCCCCCCCC(=O)[O-]
REMARK SMILES IDX 10 1 11 2 12 3 13 4 14 5 15 6 16 7 17 8 18 9 9 10 8 11 7 12
REMARK SMILES IDX 6 13 5 14 4 15 3 16 2 17 1 18
REMARK H PARENT
REMARK Flexibility Score: inf
ROOT
ATOM      1  C   UNL     1      -5.520   5.727  -9.400  1.00  0.00     0.004 C 
ENDROOT
BRANCH   1   2
ATOM      2  C   UNL     1      -6.678   5.739 -10.410  1.00  0.00     0.000 C 
BRANCH   2   3
ATOM      3  C   UNL     1      -6.192   5.755 -11.867  1.00  0.00     0.000 C 
BRANCH   3   4
ATOM      4  C   UNL     1      -7.217   5.091 -12.794  1.00  0.00     0.000 C 
BRANCH   4   5
ATOM      5  C   UNL     1      -6.548   4.569 -14.072  1.00  0.00     0.006 C 
BRANCH   5   6
ATOM      6  C   UNL     1      -6.272   3.067 -13.971  1.00  0.00     0.053 C 
BRANCH   6   7
ATOM      7  C   UNL     1      -4.860   2.767 -14.368  1.00  0.00     0.041 C 
ATOM      8  O   UNL     1      -3.916   2.993 -13.568  1.00  0.00    -0.550 OA
ATOM      9  O   UNL     1      -4.584   2.283 -15.641  1.00  0.00    -0.550 OA
ENDBRANCH   6   7
ENDBRANCH   5   6
ENDBRANCH   4   5
ENDBRANCH   3   4
ENDBRANCH   2   3
ENDBRANCH   1   2
BRANCH   1  10
ATOM     10  C   UNL     1      -4.795   7.078  -9.313  1.00  0.00     0.027 C 
BRANCH  10  11
ATOM     11  C   UNL     1      -4.671   7.536  -7.886  1.00  0.00    -0.031 C 
ATOM     12  C   UNL     1      -5.413   6.974  -6.921  1.00  0.00    -0.031 C 
BRANCH  12  13
ATOM     13  C   UNL     1      -5.306   7.414  -5.485  1.00  0.00     0.027 C 
BRANCH  13  14
ATOM     14  C   UNL     1      -5.189   6.228  -4.515  1.00  0.00     0.004 C 
BRANCH  14  15
ATOM     15  C   UNL     1      -6.037   5.027  -4.968  1.00  0.00     0.000 C 
BRANCH  15  16
ATOM     16  C   UNL     1      -5.254   3.704  -4.932  1.00  0.00    -0.000 C 
BRANCH  16  17
ATOM     17  C   UNL     1      -5.570   2.862  -3.688  1.00  0.00    -0.003 C 
ATOM     18  C   UNL     1      -6.923   3.247  -3.094  1.00  0.00     0.004 C 
ENDBRANCH  16  17
ENDBRANCH  15  16
ENDBRANCH  14  15
ENDBRANCH  13  14
ENDBRANCH  12  13
ENDBRANCH  10  11
ENDBRANCH   1  10
TORSDOF 13
ENDMDL
MODEL 9
REMARK VINA RESULT:    -3.818     11.700     14.124
REMARK INTER + INTRA:          -7.818
REMARK INTER:                  -6.056
REMARK INTRA:                  -1.763
REMARK UNBOUND:                -1.098
REMARK SMILES CCCCCCC=CCCCCCCCC(=O)[O-]
REMARK SMILES IDX 10 1 11 2 12 3 13 4 14 5 15 6 16 7 17 8 18 9 9 10 8 11 7 12
REMARK SMILES IDX 6 13 5 14 4 15 3 16 2 17 1 18
REMARK H PARENT
REMARK Flexibility Score: inf
ROOT
ATOM      1  C   UNL     1      -5.915  -5.152 -12.127  1.00  0.00     0.004 C 
ENDROOT
BRANCH   1   2
ATOM      2  C   UNL     1      -6.262  -5.415 -10.654  1.00  0.00     0.000 C 
BRANCH   2   3
ATOM      3  C   UNL     1      -7.435  -6.392 -10.487  1.00  0.00     0.000 C 
BRANCH   3   4
ATOM      4  C   UNL     1      -7.041  -7.577  -9.597  1.00  0.00     0.000 C 
BRANCH   4   5
ATOM      5  C   UNL     1      -5.520  -7.773  -9.584  1.00  0.00     0.006 C 
BRANCH   5   6
ATOM      6  C   UNL     1      -5.129  -9.074 -10.290  1.00  0.00     0.053 C 
BRANCH   6   7
ATOM      7  C   UNL     1      -5.615 -10.258  -9.515  1.00  0.00     0.041 C 
ATOM      8  O   UNL     1      -5.114 -10.530  -8.393  1.00  0.00    -0.550 OA
ATOM      9  O   UNL     1      -6.589 -11.090 -10.054  1.00  0.00    -0.550 OA
ENDBRANCH   6   7
ENDBRANCH   5   6
ENDBRANCH   4   5
ENDBRANCH   3   4
ENDBRANCH   2   3
ENDBRANCH   1   2
BRANCH   1  10
ATOM     10  C   UNL     1      -6.406  -6.269 -13.060  1.00  0.00     0.027 C 
BRANCH  10  11
ATOM     11  C   UNL     1      -5.281  -7.194 -13.436  1.00  0.00    -0.031 C 
ATOM     12  C   UNL     1      -4.004  -6.817 -13.277  1.00  0.00    -0.031 C 
BRANCH  12  13
ATOM     13  C   UNL     1      -2.861  -7.725 -13.644  1.00  0.00     0.027 C 
BRANCH  13  14
ATOM     14  C   UNL     1      -3.204  -9.210 -13.445  1.00  0.00     0.004 C 
BRANCH  14  15
ATOM     15  C   UNL     1      -2.141 -10.135 -14.062  1.00  0.00     0.000 C 
BRANCH  15  16
ATOM     16  C   UNL     1      -0.929  -9.361 -14.606  1.00  0.00    -0.000 C 
BRANCH  16  17
ATOM     17  C   UNL     1      -0.788  -9.477 -16.131  1.00  0.00    -0.003 C 
ATOM     18  C   UNL     1      -0.673  -8.099 -16.778  1.00  0.00     0.004 C 
ENDBRANCH  16  17
ENDBRANCH  15  16
ENDBRANCH  14  15
ENDBRANCH  13  14
ENDBRANCH  12  13
ENDBRANCH  10  11
ENDBRANCH   1  10
TORSDOF 13
ENDMDL
