MODEL 1
REMARK VINA RESULT:    -5.213      0.000      0.000
REMARK INTER + INTRA:          -9.327
REMARK INTER:                  -8.108
REMARK INTRA:                  -1.219
REMARK UNBOUND:                -1.219
REMARK SMILES COc1cc(CNC(=O)CCCCC=CC(C)C)ccc1O
REMARK SMILES IDX 11 1 12 2 13 3 14 4 15 5 16 6 17 7 18 8 10 9 8 10 9 11 7 12
REMARK SMILES IDX 6 14 5 15 4 16 19 17 3 18 20 19 21 20 2 21 1 22 22 23
REMARK H PARENT 7 13 22 24
REMARK Flexibility Score: inf
ROOT
ATOM      1  C   UNL     1       2.461 -19.188 170.804  1.00  0.00     0.010 C 
ENDROOT
BRANCH   1   2
ATOM      2  C   UNL     1       2.740 -19.108 172.319  1.00  0.00     0.005 C 
BRANCH   2   3
ATOM      3  C   UNL     1       4.233 -19.125 172.690  1.00  0.00     0.027 C 
BRANCH   3   4
ATOM      4  C   UNL     1       4.738 -17.766 173.102  1.00  0.00    -0.031 C 
ATOM      5  C   UNL     1       5.314 -16.873 172.277  1.00  0.00    -0.028 C 
BRANCH   5   6
ATOM      6  C   UNL     1       5.525 -17.063 170.789  1.00  0.00     0.005 C 
ATOM      7  C   UNL     1       7.013 -16.922 170.458  1.00  0.00     0.012 C 
ATOM      8  C   UNL     1       4.699 -16.032 170.017  1.00  0.00     0.012 C 
ENDBRANCH   5   6
ENDBRANCH   3   4
ENDBRANCH   2   3
ENDBRANCH   1   2
BRANCH   1   9
ATOM      9  C   UNL     1       1.512 -18.102 170.265  1.00  0.00     0.100 C 
BRANCH   9  10
ATOM     10  C   UNL     1       0.272 -17.969 171.100  1.00  0.00     0.220 C 
ATOM     11  O   UNL     1       0.071 -16.906 171.748  1.00  0.00    -0.275 OA
ATOM     12  N   UNL     1      -0.659 -19.056 171.188  1.00  0.00    -0.352 N 
ATOM     13  H   UNL     1      -0.583 -19.849 170.511  1.00  0.00     0.163 HD
BRANCH  12  14
ATOM     14  C   UNL     1      -1.588 -19.192 172.306  1.00  0.00     0.151 C 
BRANCH  14  15
ATOM     15  C   UNL     1      -2.140 -20.591 172.337  1.00  0.00    -0.025 A 
ATOM     16  C   UNL     1      -1.302 -21.680 172.050  1.00  0.00     0.056 A 
ATOM     17  C   UNL     1      -3.464 -20.825 172.733  1.00  0.00     0.009 A 
ATOM     18  C   UNL     1      -1.780 -23.002 172.157  1.00  0.00     0.160 A 
ATOM     19  C   UNL     1      -3.946 -22.132 172.833  1.00  0.00     0.050 A 
ATOM     20  C   UNL     1      -3.113 -23.218 172.550  1.00  0.00     0.157 A 
BRANCH  18  21
ATOM     21  O   UNL     1      -0.962 -24.111 171.889  1.00  0.00    -0.493 OA
ATOM     22  C   UNL     1      -0.250 -24.316 170.672  1.00  0.00     0.278 C 
ENDBRANCH  18  21
BRANCH  20  23
ATOM     23  O   UNL     1      -3.627 -24.510 172.671  1.00  0.00    -0.504 OA
ATOM     24  H   UNL     1      -3.839 -24.924 173.570  1.00  0.00     0.293 HD
ENDBRANCH  20  23
ENDBRANCH  14  15
ENDBRANCH  12  14
ENDBRANCH   9  10
ENDBRANCH   1   9
TORSDOF 10
ENDMDL
MODEL 2
REMARK VINA RESULT:    -5.149      1.527      2.659
REMARK INTER + INTRA:          -9.227
REMARK INTER:                  -8.202
REMARK INTRA:                  -1.025
REMARK UNBOUND:                -1.219
REMARK SMILES COc1cc(CNC(=O)CCCCC=CC(C)C)ccc1O
REMARK SMILES IDX 11 1 12 2 13 3 14 4 15 5 16 6 17 7 18 8 10 9 8 10 9 11 7 12
REMARK SMILES IDX 6 14 5 15 4 16 19 17 3 18 20 19 21 20 2 21 1 22 22 23
REMARK H PARENT 7 13 22 24
REMARK Flexibility Score: inf
ROOT
ATOM      1  C   UNL     1       2.751 -19.641 173.685  1.00  0.00     0.010 C 
ENDROOT
BRANCH   1   2
ATOM      2  C   UNL     1       4.212 -19.178 173.512  1.00  0.00     0.005 C 
BRANCH   2   3
ATOM      3  C   UNL     1       4.363 -17.719 173.044  1.00  0.00     0.027 C 
BRANCH   3   4
ATOM      4  C   UNL     1       4.373 -17.597 171.541  1.00  0.00    -0.031 C 
ATOM      5  C   UNL     1       5.358 -17.031 170.820  1.00  0.00    -0.028 C 
BRANCH   5   6
ATOM      6  C   UNL     1       6.638 -16.451 171.387  1.00  0.00     0.005 C 
ATOM      7  C   UNL     1       6.425 -14.975 171.734  1.00  0.00     0.012 C 
ATOM      8  C   UNL     1       7.769 -16.609 170.368  1.00  0.00     0.012 C 
ENDBRANCH   5   6
ENDBRANCH   3   4
ENDBRANCH   2   3
ENDBRANCH   1   2
BRANCH   1   9
ATOM      9  C   UNL     1       1.740 -18.508 173.931  1.00  0.00     0.100 C 
BRANCH   9  10
ATOM     10  C   UNL     1       0.620 -18.522 172.931  1.00  0.00     0.220 C 
ATOM     11  O   UNL     1      -0.527 -18.129 173.278  1.00  0.00    -0.275 OA
ATOM     12  N   UNL     1       0.845 -19.013 171.603  1.00  0.00    -0.352 N 
ATOM     13  H   UNL     1       1.825 -19.159 171.272  1.00  0.00     0.163 HD
BRANCH  12  14
ATOM     14  C   UNL     1      -0.245 -19.501 170.762  1.00  0.00     0.151 C 
BRANCH  14  15
ATOM     15  C   UNL     1      -0.366 -20.993 170.907  1.00  0.00    -0.025 A 
ATOM     16  C   UNL     1      -1.128 -21.534 171.955  1.00  0.00     0.056 A 
ATOM     17  C   UNL     1       0.204 -21.849 169.955  1.00  0.00     0.009 A 
ATOM     18  C   UNL     1      -1.323 -22.926 172.056  1.00  0.00     0.160 A 
ATOM     19  C   UNL     1       0.021 -23.230 170.054  1.00  0.00     0.050 A 
ATOM     20  C   UNL     1      -0.739 -23.771 171.096  1.00  0.00     0.157 A 
BRANCH  18  21
ATOM     21  O   UNL     1      -2.089 -23.496 173.086  1.00  0.00    -0.493 OA
ATOM     22  C   UNL     1      -3.505 -23.645 173.051  1.00  0.00     0.278 C 
ENDBRANCH  18  21
BRANCH  20  23
ATOM     23  O   UNL     1      -0.907 -25.155 171.157  1.00  0.00    -0.504 OA
ATOM     24  H   UNL     1      -1.787 -25.580 171.425  1.00  0.00     0.293 HD
ENDBRANCH  20  23
ENDBRANCH  14  15
ENDBRANCH  12  14
ENDBRANCH   9  10
ENDBRANCH   1   9
TORSDOF 10
ENDMDL
MODEL 3
REMARK VINA RESULT:    -5.148      4.540      6.465
REMARK INTER + INTRA:          -9.226
REMARK INTER:                  -8.501
REMARK INTRA:                  -0.725
REMARK UNBOUND:                -1.219
REMARK SMILES COc1cc(CNC(=O)CCCCC=CC(C)C)ccc1O
REMARK SMILES IDX 11 1 12 2 13 3 14 4 15 5 16 6 17 7 18 8 10 9 8 10 9 11 7 12
REMARK SMILES IDX 6 14 5 15 4 16 19 17 3 18 20 19 21 20 2 21 1 22 22 23
REMARK H PARENT 7 13 22 24
REMARK Flexibility Score: inf
ROOT
ATOM      1  C   UNL     1      -0.028 -15.941 167.239  1.00  0.00     0.010 C 
ENDROOT
BRANCH   1   2
ATOM      2  C   UNL     1      -1.456 -15.555 166.801  1.00  0.00     0.005 C 
BRANCH   2   3
ATOM      3  C   UNL     1      -1.703 -15.655 165.286  1.00  0.00     0.027 C 
BRANCH   3   4
ATOM      4  C   UNL     1      -2.432 -16.918 164.905  1.00  0.00    -0.031 C 
ATOM      5  C   UNL     1      -2.309 -17.555 163.726  1.00  0.00    -0.028 C 
BRANCH   5   6
ATOM      6  C   UNL     1      -1.394 -17.136 162.594  1.00  0.00     0.005 C 
ATOM      7  C   UNL     1      -2.185 -17.091 161.283  1.00  0.00     0.012 C 
ATOM      8  C   UNL     1      -0.225 -18.117 162.487  1.00  0.00     0.012 C 
ENDBRANCH   5   6
ENDBRANCH   3   4
ENDBRANCH   2   3
ENDBRANCH   1   2
BRANCH   1   9
ATOM      9  C   UNL     1       0.139 -17.409 167.670  1.00  0.00     0.100 C 
BRANCH   9  10
ATOM     10  C   UNL     1      -0.051 -17.591 169.148  1.00  0.00     0.220 C 
ATOM     11  O   UNL     1       0.280 -16.664 169.935  1.00  0.00    -0.275 OA
ATOM     12  N   UNL     1      -0.573 -18.824 169.661  1.00  0.00    -0.352 N 
ATOM     13  H   UNL     1      -1.014 -19.505 169.003  1.00  0.00     0.163 HD
BRANCH  12  14
ATOM     14  C   UNL     1      -0.339 -19.250 171.038  1.00  0.00     0.151 C 
BRANCH  14  15
ATOM     15  C   UNL     1      -0.456 -20.747 171.131  1.00  0.00    -0.025 A 
ATOM     16  C   UNL     1      -1.143 -21.329 172.206  1.00  0.00     0.056 A 
ATOM     17  C   UNL     1       0.043 -21.564 170.107  1.00  0.00     0.009 A 
ATOM     18  C   UNL     1      -1.336 -22.725 172.265  1.00  0.00     0.160 A 
ATOM     19  C   UNL     1      -0.138 -22.948 170.162  1.00  0.00     0.050 A 
ATOM     20  C   UNL     1      -0.825 -23.530 171.232  1.00  0.00     0.157 A 
BRANCH  18  21
ATOM     21  O   UNL     1      -2.031 -23.335 173.322  1.00  0.00    -0.493 OA
ATOM     22  C   UNL     1      -3.443 -23.513 173.365  1.00  0.00     0.278 C 
ENDBRANCH  18  21
BRANCH  20  23
ATOM     23  O   UNL     1      -0.993 -24.915 171.249  1.00  0.00    -0.504 OA
ATOM     24  H   UNL     1      -1.892 -25.347 171.426  1.00  0.00     0.293 HD
ENDBRANCH  20  23
ENDBRANCH  14  15
ENDBRANCH  12  14
ENDBRANCH   9  10
ENDBRANCH   1   9
TORSDOF 10
ENDMDL
MODEL 4
REMARK VINA RESULT:    -5.143      1.233      1.980
REMARK INTER + INTRA:          -9.218
REMARK INTER:                  -8.026
REMARK INTRA:                  -1.192
REMARK UNBOUND:                -1.219
REMARK SMILES COc1cc(CNC(=O)CCCCC=CC(C)C)ccc1O
REMARK SMILES IDX 11 1 12 2 13 3 14 4 15 5 16 6 17 7 18 8 10 9 8 10 9 11 7 12
REMARK SMILES IDX 6 14 5 15 4 16 19 17 3 18 20 19 21 20 2 21 1 22 22 23
REMARK H PARENT 7 13 22 24
REMARK Flexibility Score: inf
ROOT
ATOM      1  C   UNL     1       2.602 -18.437 170.388  1.00  0.00     0.010 C 
ENDROOT
BRANCH   1   2
ATOM      2  C   UNL     1       2.882 -18.759 171.870  1.00  0.00     0.005 C 
BRANCH   2   3
ATOM      3  C   UNL     1       4.375 -18.780 172.243  1.00  0.00     0.027 C 
BRANCH   3   4
ATOM      4  C   UNL     1       4.866 -17.438 172.723  1.00  0.00    -0.031 C 
ATOM      5  C   UNL     1       5.746 -16.658 172.069  1.00  0.00    -0.028 C 
BRANCH   5   6
ATOM      6  C   UNL     1       6.368 -16.976 170.724  1.00  0.00     0.005 C 
ATOM      7  C   UNL     1       7.793 -16.419 170.672  1.00  0.00     0.012 C 
ATOM      8  C   UNL     1       5.512 -16.376 169.607  1.00  0.00     0.012 C 
ENDBRANCH   5   6
ENDBRANCH   3   4
ENDBRANCH   2   3
ENDBRANCH   1   2
BRANCH   1   9
ATOM      9  C   UNL     1       1.474 -17.416 170.151  1.00  0.00     0.100 C 
BRANCH   9  10
ATOM     10  C   UNL     1       0.443 -17.449 171.241  1.00  0.00     0.220 C 
ATOM     11  O   UNL     1       0.400 -16.513 172.083  1.00  0.00    -0.275 OA
ATOM     12  N   UNL     1      -0.463 -18.555 171.343  1.00  0.00    -0.352 N 
ATOM     13  H   UNL     1      -0.545 -19.224 170.544  1.00  0.00     0.163 HD
BRANCH  12  14
ATOM     14  C   UNL     1      -1.134 -18.894 172.595  1.00  0.00     0.151 C 
BRANCH  14  15
ATOM     15  C   UNL     1      -0.861 -20.332 172.942  1.00  0.00    -0.025 A 
ATOM     16  C   UNL     1      -1.701 -21.342 172.448  1.00  0.00     0.056 A 
ATOM     17  C   UNL     1       0.276 -20.682 173.683  1.00  0.00     0.009 A 
ATOM     18  C   UNL     1      -1.412 -22.700 172.692  1.00  0.00     0.160 A 
ATOM     19  C   UNL     1       0.564 -22.025 173.935  1.00  0.00     0.050 A 
ATOM     20  C   UNL     1      -0.270 -23.033 173.443  1.00  0.00     0.157 A 
BRANCH  18  21
ATOM     21  O   UNL     1      -2.227 -23.733 172.200  1.00  0.00    -0.493 OA
ATOM     22  C   UNL     1      -3.584 -23.942 172.579  1.00  0.00     0.278 C 
ENDBRANCH  18  21
BRANCH  20  23
ATOM     23  O   UNL     1       0.055 -24.364 173.707  1.00  0.00    -0.504 OA
ATOM     24  H   UNL     1       0.550 -24.941 173.037  1.00  0.00     0.293 HD
ENDBRANCH  20  23
ENDBRANCH  14  15
ENDBRANCH  12  14
ENDBRANCH   9  10
ENDBRANCH   1   9
TORSDOF 10
ENDMDL
MODEL 5
REMARK VINA RESULT:    -5.060      2.398      5.695
REMARK INTER + INTRA:          -9.088
REMARK INTER:                  -7.090
REMARK INTRA:                  -1.999
REMARK UNBOUND:                -1.219
REMARK SMILES COc1cc(CNC(=O)CCCCC=CC(C)C)ccc1O
REMARK SMILES IDX 11 1 12 2 13 3 14 4 15 5 16 6 17 7 18 8 10 9 8 10 9 11 7 12
REMARK SMILES IDX 6 14 5 15 4 16 19 17 3 18 20 19 21 20 2 21 1 22 22 23
REMARK H PARENT 7 13 22 24
REMARK Flexibility Score: inf
ROOT
ATOM      1  C   UNL     1      -1.425 -22.610 169.567  1.00  0.00     0.010 C 
ENDROOT
BRANCH   1   2
ATOM      2  C   UNL     1      -0.884 -21.214 169.195  1.00  0.00     0.005 C 
BRANCH   2   3
ATOM      3  C   UNL     1      -0.706 -20.264 170.392  1.00  0.00     0.027 C 
BRANCH   3   4
ATOM      4  C   UNL     1       0.717 -19.789 170.542  1.00  0.00    -0.031 C 
ATOM      5  C   UNL     1       1.134 -18.525 170.344  1.00  0.00    -0.028 C 
BRANCH   5   6
ATOM      6  C   UNL     1       0.245 -17.356 169.972  1.00  0.00     0.005 C 
ATOM      7  C   UNL     1       0.090 -17.292 168.450  1.00  0.00     0.012 C 
ATOM      8  C   UNL     1       0.851 -16.058 170.510  1.00  0.00     0.012 C 
ENDBRANCH   5   6
ENDBRANCH   3   4
ENDBRANCH   2   3
ENDBRANCH   1   2
BRANCH   1   9
ATOM      9  C   UNL     1      -0.476 -23.460 170.430  1.00  0.00     0.100 C 
BRANCH   9  10
ATOM     10  C   UNL     1      -0.782 -23.341 171.895  1.00  0.00     0.220 C 
ATOM     11  O   UNL     1      -1.962 -23.523 172.299  1.00  0.00    -0.275 OA
ATOM     12  N   UNL     1       0.254 -22.987 172.822  1.00  0.00    -0.352 N 
ATOM     13  H   UNL     1       1.250 -23.021 172.511  1.00  0.00     0.163 HD
BRANCH  12  14
ATOM     14  C   UNL     1      -0.041 -22.394 174.123  1.00  0.00     0.151 C 
BRANCH  14  15
ATOM     15  C   UNL     1       0.367 -20.947 174.124  1.00  0.00    -0.025 A 
ATOM     16  C   UNL     1       1.727 -20.604 174.091  1.00  0.00     0.056 A 
ATOM     17  C   UNL     1      -0.601 -19.935 174.069  1.00  0.00     0.009 A 
ATOM     18  C   UNL     1       2.126 -19.254 174.005  1.00  0.00     0.160 A 
ATOM     19  C   UNL     1      -0.213 -18.595 173.992  1.00  0.00     0.050 A 
ATOM     20  C   UNL     1       1.142 -18.251 173.957  1.00  0.00     0.157 A 
BRANCH  18  21
ATOM     21  O   UNL     1       3.479 -18.881 173.959  1.00  0.00    -0.493 OA
ATOM     22  C   UNL     1       4.196 -18.589 172.764  1.00  0.00     0.278 C 
ENDBRANCH  18  21
BRANCH  20  23
ATOM     23  O   UNL     1       1.491 -16.903 173.870  1.00  0.00    -0.504 OA
ATOM     24  H   UNL     1       2.456 -16.598 173.827  1.00  0.00     0.293 HD
ENDBRANCH  20  23
ENDBRANCH  14  15
ENDBRANCH  12  14
ENDBRANCH   9  10
ENDBRANCH   1   9
TORSDOF 10
ENDMDL
MODEL 6
REMARK VINA RESULT:    -4.988      2.475      7.227
REMARK INTER + INTRA:          -8.978
REMARK INTER:                  -7.588
REMARK INTRA:                  -1.390
REMARK UNBOUND:                -1.219
REMARK SMILES COc1cc(CNC(=O)CCCCC=CC(C)C)ccc1O
REMARK SMILES IDX 11 1 12 2 13 3 14 4 15 5 16 6 17 7 18 8 10 9 8 10 9 11 7 12
REMARK SMILES IDX 6 14 5 15 4 16 19 17 3 18 20 19 21 20 2 21 1 22 22 23
REMARK H PARENT 7 13 22 24
REMARK Flexibility Score: inf
ROOT
ATOM      1  C   UNL     1      -3.889 -21.100 172.807  1.00  0.00     0.010 C 
ENDROOT
BRANCH   1   2
ATOM      2  C   UNL     1      -4.343 -22.502 173.265  1.00  0.00     0.005 C 
BRANCH   2   3
ATOM      3  C   UNL     1      -3.376 -23.637 172.882  1.00  0.00     0.027 C 
BRANCH   3   4
ATOM      4  C   UNL     1      -1.961 -23.358 173.320  1.00  0.00    -0.031 C 
ATOM      5  C   UNL     1      -0.883 -23.389 172.515  1.00  0.00    -0.028 C 
BRANCH   5   6
ATOM      6  C   UNL     1      -0.908 -23.675 171.028  1.00  0.00     0.005 C 
ATOM      7  C   UNL     1      -0.114 -24.951 170.736  1.00  0.00     0.012 C 
ATOM      8  C   UNL     1      -0.319 -22.486 170.266  1.00  0.00     0.012 C 
ENDBRANCH   5   6
ENDBRANCH   3   4
ENDBRANCH   2   3
ENDBRANCH   1   2
BRANCH   1   9
ATOM      9  C   UNL     1      -3.443 -20.163 173.944  1.00  0.00     0.100 C 
BRANCH   9  10
ATOM     10  C   UNL     1      -2.220 -19.373 173.579  1.00  0.00     0.220 C 
ATOM     11  O   UNL     1      -2.032 -18.243 174.104  1.00  0.00    -0.275 OA
ATOM     12  N   UNL     1      -1.291 -19.886 172.615  1.00  0.00    -0.352 N 
ATOM     13  H   UNL     1      -1.354 -20.889 172.329  1.00  0.00     0.163 HD
BRANCH  12  14
ATOM     14  C   UNL     1      -0.385 -19.015 171.872  1.00  0.00     0.151 C 
BRANCH  14  15
ATOM     15  C   UNL     1       1.010 -19.153 172.418  1.00  0.00    -0.025 A 
ATOM     16  C   UNL     1       2.035 -18.327 171.933  1.00  0.00     0.056 A 
ATOM     17  C   UNL     1       1.278 -20.041 173.468  1.00  0.00     0.009 A 
ATOM     18  C   UNL     1       3.328 -18.384 172.491  1.00  0.00     0.160 A 
ATOM     19  C   UNL     1       2.559 -20.109 174.021  1.00  0.00     0.050 A 
ATOM     20  C   UNL     1       3.582 -19.285 173.541  1.00  0.00     0.157 A 
BRANCH  18  21
ATOM     21  O   UNL     1       4.372 -17.562 172.036  1.00  0.00    -0.493 OA
ATOM     22  C   UNL     1       4.413 -16.944 170.753  1.00  0.00     0.278 C 
ENDBRANCH  18  21
BRANCH  20  23
ATOM     23  O   UNL     1       4.846 -19.373 174.125  1.00  0.00    -0.504 OA
ATOM     24  H   UNL     1       5.336 -20.255 174.218  1.00  0.00     0.293 HD
ENDBRANCH  20  23
ENDBRANCH  14  15
ENDBRANCH  12  14
ENDBRANCH   9  10
ENDBRANCH   1   9
TORSDOF 10
ENDMDL
MODEL 7
REMARK VINA RESULT:    -4.960      4.071      8.038
REMARK INTER + INTRA:          -8.934
REMARK INTER:                  -7.874
REMARK INTRA:                  -1.059
REMARK UNBOUND:                -1.219
REMARK SMILES COc1cc(CNC(=O)CCCCC=CC(C)C)ccc1O
REMARK SMILES IDX 11 1 12 2 13 3 14 4 15 5 16 6 17 7 18 8 10 9 8 10 9 11 7 12
REMARK SMILES IDX 6 14 5 15 4 16 19 17 3 18 20 19 21 20 2 21 1 22 22 23
REMARK H PARENT 7 13 22 24
REMARK Flexibility Score: inf
ROOT
ATOM      1  C   UNL     1      -0.192 -20.153 172.627  1.00  0.00     0.010 C 
ENDROOT
BRANCH   1   2
ATOM      2  C   UNL     1      -1.131 -20.710 173.716  1.00  0.00     0.005 C 
BRANCH   2   3
ATOM      3  C   UNL     1      -1.076 -22.239 173.879  1.00  0.00     0.027 C 
BRANCH   3   4
ATOM      4  C   UNL     1      -2.103 -22.945 173.030  1.00  0.00    -0.031 C 
ATOM      5  C   UNL     1      -1.871 -23.464 171.811  1.00  0.00    -0.028 C 
BRANCH   5   6
ATOM      6  C   UNL     1      -0.535 -23.460 171.096  1.00  0.00     0.005 C 
ATOM      7  C   UNL     1      -0.637 -22.619 169.820  1.00  0.00     0.012 C 
ATOM      8  C   UNL     1      -0.125 -24.897 170.765  1.00  0.00     0.012 C 
ENDBRANCH   5   6
ENDBRANCH   3   4
ENDBRANCH   2   3
ENDBRANCH   1   2
BRANCH   1   9
ATOM      9  C   UNL     1      -0.873 -19.241 171.592  1.00  0.00     0.100 C 
BRANCH   9  10
ATOM     10  C   UNL     1      -0.002 -18.992 170.396  1.00  0.00     0.220 C 
ATOM     11  O   UNL     1       1.120 -19.561 170.315  1.00  0.00    -0.275 OA
ATOM     12  N   UNL     1      -0.427 -18.085 169.369  1.00  0.00    -0.352 N 
ATOM     13  H   UNL     1      -1.422 -17.767 169.350  1.00  0.00     0.163 HD
BRANCH  12  14
ATOM     14  C   UNL     1       0.520 -17.438 168.466  1.00  0.00     0.151 C 
BRANCH  14  15
ATOM     15  C   UNL     1      -0.196 -16.408 167.636  1.00  0.00    -0.025 A 
ATOM     16  C   UNL     1      -0.819 -16.786 166.437  1.00  0.00     0.056 A 
ATOM     17  C   UNL     1      -0.322 -15.089 168.093  1.00  0.00     0.009 A 
ATOM     18  C   UNL     1      -1.566 -15.853 165.690  1.00  0.00     0.160 A 
ATOM     19  C   UNL     1      -1.055 -14.157 167.354  1.00  0.00     0.050 A 
ATOM     20  C   UNL     1      -1.678 -14.532 166.159  1.00  0.00     0.157 A 
BRANCH  18  21
ATOM     21  O   UNL     1      -2.210 -16.205 164.492  1.00  0.00    -0.493 OA
ATOM     22  C   UNL     1      -2.302 -17.532 163.983  1.00  0.00     0.278 C 
ENDBRANCH  18  21
BRANCH  20  23
ATOM     23  O   UNL     1      -2.409 -13.576 165.453  1.00  0.00    -0.504 OA
ATOM     24  H   UNL     1      -2.418 -13.544 164.441  1.00  0.00     0.293 HD
ENDBRANCH  20  23
ENDBRANCH  14  15
ENDBRANCH  12  14
ENDBRANCH   9  10
ENDBRANCH   1   9
TORSDOF 10
ENDMDL
MODEL 8
REMARK VINA RESULT:    -4.900      3.394      7.986
REMARK INTER + INTRA:          -8.841
REMARK INTER:                  -7.584
REMARK INTRA:                  -1.256
REMARK UNBOUND:                -1.219
REMARK SMILES COc1cc(CNC(=O)CCCCC=CC(C)C)ccc1O
REMARK SMILES IDX 11 1 12 2 13 3 14 4 15 5 16 6 17 7 18 8 10 9 8 10 9 11 7 12
REMARK SMILES IDX 6 14 5 15 4 16 19 17 3 18 20 19 21 20 2 21 1 22 22 23
REMARK H PARENT 7 13 22 24
REMARK Flexibility Score: inf
ROOT
ATOM      1  C   UNL     1      -3.267 -20.060 172.749  1.00  0.00     0.010 C 
ENDROOT
BRANCH   1   2
ATOM      2  C   UNL     1      -3.809 -20.932 173.900  1.00  0.00     0.005 C 
BRANCH   2   3
ATOM      3  C   UNL     1      -3.041 -22.249 174.113  1.00  0.00     0.027 C 
BRANCH   3   4
ATOM      4  C   UNL     1      -3.562 -23.364 173.243  1.00  0.00    -0.031 C 
ATOM      5  C   UNL     1      -3.003 -23.768 172.087  1.00  0.00    -0.028 C 
BRANCH   5   6
ATOM      6  C   UNL     1      -1.738 -23.197 171.480  1.00  0.00     0.005 C 
ATOM      7  C   UNL     1      -2.020 -22.729 170.049  1.00  0.00     0.012 C 
ATOM      8  C   UNL     1      -0.637 -24.260 171.493  1.00  0.00     0.012 C 
ENDBRANCH   5   6
ENDBRANCH   3   4
ENDBRANCH   2   3
ENDBRANCH   1   2
BRANCH   1   9
ATOM      9  C   UNL     1      -1.927 -19.362 173.044  1.00  0.00     0.100 C 
BRANCH   9  10
ATOM     10  C   UNL     1      -0.871 -19.716 172.038  1.00  0.00     0.220 C 
ATOM     11  O   UNL     1       0.161 -20.336 172.413  1.00  0.00    -0.275 OA
ATOM     12  N   UNL     1      -1.018 -19.320 170.668  1.00  0.00    -0.352 N 
ATOM     13  H   UNL     1      -1.947 -18.978 170.333  1.00  0.00     0.163 HD
BRANCH  12  14
ATOM     14  C   UNL     1       0.126 -19.194 169.770  1.00  0.00     0.151 C 
BRANCH  14  15
ATOM     15  C   UNL     1       0.219 -17.780 169.265  1.00  0.00    -0.025 A 
ATOM     16  C   UNL     1      -0.239 -17.467 167.976  1.00  0.00     0.056 A 
ATOM     17  C   UNL     1       0.679 -16.754 170.102  1.00  0.00     0.009 A 
ATOM     18  C   UNL     1      -0.239 -16.134 167.518  1.00  0.00     0.160 A 
ATOM     19  C   UNL     1       0.689 -15.432 169.652  1.00  0.00     0.050 A 
ATOM     20  C   UNL     1       0.232 -15.117 168.368  1.00  0.00     0.157 A 
BRANCH  18  21
ATOM     21  O   UNL     1      -0.702 -15.788 166.238  1.00  0.00    -0.493 OA
ATOM     22  C   UNL     1      -1.359 -16.684 165.346  1.00  0.00     0.278 C 
ENDBRANCH  18  21
BRANCH  20  23
ATOM     23  O   UNL     1       0.249 -13.784 167.957  1.00  0.00    -0.504 OA
ATOM     24  H   UNL     1      -0.595 -13.226 167.904  1.00  0.00     0.293 HD
ENDBRANCH  20  23
ENDBRANCH  14  15
ENDBRANCH  12  14
ENDBRANCH   9  10
ENDBRANCH   1   9
TORSDOF 10
ENDMDL
