MODEL 1
REMARK VINA RESULT:    -0.120      0.000      0.000
REMARK INTER + INTRA:          -0.808
REMARK INTER:                  -0.155
REMARK INTRA:                  -0.653
REMARK UNBOUND:                -0.653
REMARK SMILES C=CC(=O)CCCCC
REMARK SMILES IDX 6 1 7 2 8 3 9 4 5 5 3 6 4 7 2 8 1 9
REMARK H PARENT
REMARK Flexibility Score: inf
ROOT
ATOM      1  C   UNL     1     136.536 137.842 139.656  1.00  0.00     0.008 C 
ENDROOT
BRANCH   1   2
ATOM      2  C   UNL     1     136.595 139.127 138.815  1.00  0.00     0.000 C 
BRANCH   2   3
ATOM      3  C   UNL     1     137.787 139.147 137.847  1.00  0.00    -0.003 C 
ATOM      4  C   UNL     1     138.459 137.778 137.773  1.00  0.00     0.004 C 
ENDBRANCH   2   3
ENDBRANCH   1   2
BRANCH   1   5
ATOM      5  C   UNL     1     136.545 138.123 141.169  1.00  0.00     0.080 C 
BRANCH   5   6
ATOM      6  C   UNL     1     137.749 138.920 141.614  1.00  0.00     0.155 C 
ATOM      7  O   UNL     1     137.598 140.063 142.125  1.00  0.00    -0.295 OA
BRANCH   6   8
ATOM      8  C   UNL     1     139.124 138.394 141.486  1.00  0.00     0.039 C 
ATOM      9  C   UNL     1     140.117 139.062 140.898  1.00  0.00     0.012 C 
ENDBRANCH   6   8
ENDBRANCH   5   6
ENDBRANCH   1   5
TORSDOF 5
ENDMDL
MODEL 2
REMARK VINA RESULT:    -0.062      2.167      3.033
REMARK INTER + INTRA:          -0.733
REMARK INTER:                  -0.120
REMARK INTRA:                  -0.613
REMARK UNBOUND:                -0.653
REMARK SMILES C=CC(=O)CCCCC
REMARK SMILES IDX 6 1 7 2 8 3 9 4 5 5 3 6 4 7 2 8 1 9
REMARK H PARENT
REMARK Flexibility Score: inf
ROOT
ATOM      1  C   UNL     1     138.559 137.268 137.947  1.00  0.00     0.008 C 
ENDROOT
BRANCH   1   2
ATOM      2  C   UNL     1     138.660 135.851 138.533  1.00  0.00     0.000 C 
BRANCH   2   3
ATOM      3  C   UNL     1     140.094 135.478 138.937  1.00  0.00    -0.003 C 
ATOM      4  C   UNL     1     140.118 134.762 140.285  1.00  0.00     0.004 C 
ENDBRANCH   2   3
ENDBRANCH   1   2
BRANCH   1   5
ATOM      5  C   UNL     1     138.932 138.359 138.965  1.00  0.00     0.080 C 
BRANCH   5   6
ATOM      6  C   UNL     1     138.056 138.341 140.197  1.00  0.00     0.155 C 
ATOM      7  O   UNL     1     136.813 138.525 140.091  1.00  0.00    -0.295 OA
BRANCH   6   8
ATOM      8  C   UNL     1     138.609 138.094 141.544  1.00  0.00     0.039 C 
ATOM      9  C   UNL     1     139.907 138.180 141.835  1.00  0.00     0.012 C 
ENDBRANCH   6   8
ENDBRANCH   5   6
ENDBRANCH   1   5
TORSDOF 5
ENDMDL
MODEL 3
REMARK VINA RESULT:    -0.050     22.187     23.863
REMARK INTER + INTRA:          -0.717
REMARK INTER:                  -0.087
REMARK INTRA:                  -0.630
REMARK UNBOUND:                -0.653
REMARK SMILES C=CC(=O)CCCCC
REMARK SMILES IDX 6 1 7 2 8 3 9 4 5 5 3 6 4 7 2 8 1 9
REMARK H PARENT
REMARK Flexibility Score: inf
ROOT
ATOM      1  C   UNL     1     136.256 121.018 124.786  1.00  0.00     0.008 C 
ENDROOT
BRANCH   1   2
ATOM      2  C   UNL     1     136.216 122.210 123.816  1.00  0.00     0.000 C 
BRANCH   2   3
ATOM      3  C   UNL     1     136.783 123.496 124.434  1.00  0.00    -0.003 C 
ATOM      4  C   UNL     1     138.068 123.924 123.731  1.00  0.00     0.004 C 
ENDBRANCH   2   3
ENDBRANCH   1   2
BRANCH   1   5
ATOM      5  C   UNL     1     137.175 119.885 124.295  1.00  0.00     0.080 C 
BRANCH   5   6
ATOM      6  C   UNL     1     138.635 120.276 124.278  1.00  0.00     0.155 C 
ATOM      7  O   UNL     1     139.195 120.675 125.335  1.00  0.00    -0.295 OA
BRANCH   6   8
ATOM      8  C   UNL     1     139.452 120.191 123.050  1.00  0.00     0.039 C 
ATOM      9  C   UNL     1     139.121 120.786 121.903  1.00  0.00     0.012 C 
ENDBRANCH   6   8
ENDBRANCH   5   6
ENDBRANCH   1   5
TORSDOF 5
ENDMDL
MODEL 4
REMARK VINA RESULT:    -0.041     20.771     22.323
REMARK INTER + INTRA:          -0.706
REMARK INTER:                  -0.079
REMARK INTRA:                  -0.627
REMARK UNBOUND:                -0.653
REMARK SMILES C=CC(=O)CCCCC
REMARK SMILES IDX 6 1 7 2 8 3 9 4 5 5 3 6 4 7 2 8 1 9
REMARK H PARENT
REMARK Flexibility Score: inf
ROOT
ATOM      1  C   UNL     1     121.774 137.391 126.593  1.00  0.00     0.008 C 
ENDROOT
BRANCH   1   2
ATOM      2  C   UNL     1     122.667 136.495 125.720  1.00  0.00     0.000 C 
BRANCH   2   3
ATOM      3  C   UNL     1     123.889 137.240 125.163  1.00  0.00    -0.003 C 
ATOM      4  C   UNL     1     123.961 138.664 125.708  1.00  0.00     0.004 C 
ENDBRANCH   2   3
ENDBRANCH   1   2
BRANCH   1   5
ATOM      5  C   UNL     1     120.366 137.581 126.002  1.00  0.00     0.080 C 
BRANCH   5   6
ATOM      6  C   UNL     1     120.292 138.719 125.010  1.00  0.00     0.155 C 
ATOM      7  O   UNL     1     120.240 139.911 125.418  1.00  0.00    -0.295 OA
BRANCH   6   8
ATOM      8  C   UNL     1     120.295 138.484 123.552  1.00  0.00     0.039 C 
ATOM      9  C   UNL     1     121.363 138.676 122.777  1.00  0.00     0.012 C 
ENDBRANCH   6   8
ENDBRANCH   5   6
ENDBRANCH   1   5
TORSDOF 5
ENDMDL
MODEL 5
REMARK VINA RESULT:    -0.037     20.622     22.367
REMARK INTER + INTRA:          -0.700
REMARK INTER:                  -0.056
REMARK INTRA:                  -0.644
REMARK UNBOUND:                -0.653
REMARK SMILES C=CC(=O)CCCCC
REMARK SMILES IDX 6 1 7 2 8 3 9 4 5 5 3 6 4 7 2 8 1 9
REMARK H PARENT
REMARK Flexibility Score: inf
ROOT
ATOM      1  C   UNL     1     137.235 121.876 123.627  1.00  0.00     0.008 C 
ENDROOT
BRANCH   1   2
ATOM      2  C   UNL     1     138.295 120.803 123.925  1.00  0.00     0.000 C 
BRANCH   2   3
ATOM      3  C   UNL     1     139.654 121.405 124.311  1.00  0.00    -0.003 C 
ATOM      4  C   UNL     1     140.025 121.049 125.748  1.00  0.00     0.004 C 
ENDBRANCH   2   3
ENDBRANCH   1   2
BRANCH   1   5
ATOM      5  C   UNL     1     136.100 121.892 124.666  1.00  0.00     0.080 C 
BRANCH   5   6
ATOM      6  C   UNL     1     136.531 122.459 125.999  1.00  0.00     0.155 C 
ATOM      7  O   UNL     1     136.569 121.718 127.019  1.00  0.00    -0.295 OA
BRANCH   6   8
ATOM      8  C   UNL     1     136.932 123.873 126.153  1.00  0.00     0.039 C 
ATOM      9  C   UNL     1     138.181 124.259 126.416  1.00  0.00     0.012 C 
ENDBRANCH   6   8
ENDBRANCH   5   6
ENDBRANCH   1   5
TORSDOF 5
ENDMDL
MODEL 6
REMARK VINA RESULT:    -0.034     21.292     22.963
REMARK INTER + INTRA:          -0.697
REMARK INTER:                  -0.083
REMARK INTRA:                  -0.614
REMARK UNBOUND:                -0.653
REMARK SMILES C=CC(=O)CCCCC
REMARK SMILES IDX 6 1 7 2 8 3 9 4 5 5 3 6 4 7 2 8 1 9
REMARK H PARENT
REMARK Flexibility Score: inf
ROOT
ATOM      1  C   UNL     1     137.857 122.507 126.706  1.00  0.00     0.008 C 
ENDROOT
BRANCH   1   2
ATOM      2  C   UNL     1     136.792 121.477 126.297  1.00  0.00     0.000 C 
BRANCH   2   3
ATOM      3  C   UNL     1     136.494 121.500 124.791  1.00  0.00    -0.003 C 
ATOM      4  C   UNL     1     136.376 120.084 124.233  1.00  0.00     0.004 C 
ENDBRANCH   2   3
ENDBRANCH   1   2
BRANCH   1   5
ATOM      5  C   UNL     1     139.218 122.251 126.035  1.00  0.00     0.080 C 
BRANCH   5   6
ATOM      6  C   UNL     1     139.808 120.907 126.394  1.00  0.00     0.155 C 
ATOM      7  O   UNL     1     140.069 120.632 127.597  1.00  0.00    -0.295 OA
BRANCH   6   8
ATOM      8  C   UNL     1     140.081 119.875 125.372  1.00  0.00     0.039 C 
ATOM      9  C   UNL     1     140.123 120.128 124.064  1.00  0.00     0.012 C 
ENDBRANCH   6   8
ENDBRANCH   5   6
ENDBRANCH   1   5
TORSDOF 5
ENDMDL
MODEL 7
REMARK VINA RESULT:    -0.033     22.463     23.674
REMARK INTER + INTRA:          -0.696
REMARK INTER:                  -0.051
REMARK INTRA:                  -0.645
REMARK UNBOUND:                -0.653
REMARK SMILES C=CC(=O)CCCCC
REMARK SMILES IDX 6 1 7 2 8 3 9 4 5 5 3 6 4 7 2 8 1 9
REMARK H PARENT
REMARK Flexibility Score: inf
ROOT
ATOM      1  C   UNL     1     135.739 122.408 123.900  1.00  0.00     0.008 C 
ENDROOT
BRANCH   1   2
ATOM      2  C   UNL     1     135.564 121.234 122.923  1.00  0.00     0.000 C 
BRANCH   2   3
ATOM      3  C   UNL     1     136.684 121.164 121.875  1.00  0.00    -0.003 C 
ATOM      4  C   UNL     1     137.490 119.875 122.016  1.00  0.00     0.004 C 
ENDBRANCH   2   3
ENDBRANCH   1   2
BRANCH   1   5
ATOM      5  C   UNL     1     136.038 121.945 125.336  1.00  0.00     0.080 C 
BRANCH   5   6
ATOM      6  C   UNL     1     137.424 121.362 125.492  1.00  0.00     0.155 C 
ATOM      7  O   UNL     1     137.570 120.135 125.741  1.00  0.00    -0.295 OA
BRANCH   6   8
ATOM      8  C   UNL     1     138.639 122.189 125.342  1.00  0.00     0.039 C 
ATOM      9  C   UNL     1     139.486 122.076 124.320  1.00  0.00     0.012 C 
ENDBRANCH   6   8
ENDBRANCH   5   6
ENDBRANCH   1   5
TORSDOF 5
ENDMDL
MODEL 8
REMARK VINA RESULT:     0.076     22.286     23.587
REMARK INTER + INTRA:          -0.554
REMARK INTER:                   0.097
REMARK INTRA:                  -0.651
REMARK UNBOUND:                -0.653
REMARK SMILES C=CC(=O)CCCCC
REMARK SMILES IDX 6 1 7 2 8 3 9 4 5 5 3 6 4 7 2 8 1 9
REMARK H PARENT
REMARK Flexibility Score: inf
ROOT
ATOM      1  C   UNL     1     121.538 120.987 138.188  1.00  0.00     0.008 C 
ENDROOT
BRANCH   1   2
ATOM      2  C   UNL     1     120.704 122.093 138.853  1.00  0.00     0.000 C 
BRANCH   2   3
ATOM      3  C   UNL     1     119.875 121.578 140.039  1.00  0.00    -0.003 C 
ATOM      4  C   UNL     1     119.889 120.053 140.098  1.00  0.00     0.004 C 
ENDBRANCH   2   3
ENDBRANCH   1   2
BRANCH   1   5
ATOM      5  C   UNL     1     123.039 121.321 138.145  1.00  0.00     0.080 C 
BRANCH   5   6
ATOM      6  C   UNL     1     123.630 121.555 139.516  1.00  0.00     0.155 C 
ATOM      7  O   UNL     1     124.137 122.674 139.804  1.00  0.00    -0.295 OA
BRANCH   6   8
ATOM      8  C   UNL     1     123.620 120.509 140.560  1.00  0.00     0.039 C 
ATOM      9  C   UNL     1     123.160 120.705 141.795  1.00  0.00     0.012 C 
ENDBRANCH   6   8
ENDBRANCH   5   6
ENDBRANCH   1   5
TORSDOF 5
ENDMDL
