MODEL 1
REMARK VINA RESULT:    -5.531      0.000      0.000
REMARK INTER + INTRA:         -12.551
REMARK INTER:                 -10.382
REMARK INTRA:                  -2.169
REMARK UNBOUND:                -2.169
REMARK SMILES O=C([O-])CCCCCCCCCCCCCCC(=O)[O-]
REMARK SMILES IDX 10 1 9 2 8 3 7 4 6 5 5 6 4 7 2 8 1 9 3 10 11 11 12 12 13 13
REMARK SMILES IDX 14 14 15 15 16 16 17 17 18 18 19 19 20 20
REMARK H PARENT
REMARK Flexibility Score: inf
ROOT
ATOM      1  C   UNL     1      14.005  22.378  17.722  1.00  0.00     0.000 C 
ENDROOT
BRANCH   1   2
ATOM      2  C   UNL     1      15.183  23.077  17.019  1.00  0.00     0.000 C 
BRANCH   2   3
ATOM      3  C   UNL     1      15.470  22.580  15.588  1.00  0.00     0.000 C 
BRANCH   3   4
ATOM      4  C   UNL     1      14.568  21.429  15.098  1.00  0.00     0.000 C 
BRANCH   4   5
ATOM      5  C   UNL     1      14.674  21.112  13.596  1.00  0.00     0.000 C 
BRANCH   5   6
ATOM      6  C   UNL     1      15.828  21.861  12.909  1.00  0.00     0.006 C 
BRANCH   6   7
ATOM      7  C   UNL     1      15.950  21.499  11.423  1.00  0.00     0.053 C 
BRANCH   7   8
ATOM      8  C   UNL     1      17.285  20.899  11.102  1.00  0.00     0.041 C 
ATOM      9  O   UNL     1      17.678  20.832   9.908  1.00  0.00    -0.550 OA
ATOM     10  O   UNL     1      18.080  20.387  12.119  1.00  0.00    -0.550 OA
ENDBRANCH   7   8
ENDBRANCH   6   7
ENDBRANCH   5   6
ENDBRANCH   4   5
ENDBRANCH   3   4
ENDBRANCH   2   3
ENDBRANCH   1   2
BRANCH   1  11
ATOM     11  C   UNL     1      14.279  22.101  19.211  1.00  0.00     0.000 C 
BRANCH  11  12
ATOM     12  C   UNL     1      14.784  20.671  19.470  1.00  0.00     0.000 C 
BRANCH  12  13
ATOM     13  C   UNL     1      14.786  19.751  18.235  1.00  0.00     0.000 C 
BRANCH  13  14
ATOM     14  C   UNL     1      16.200  19.288  17.837  1.00  0.00     0.000 C 
BRANCH  14  15
ATOM     15  C   UNL     1      17.302  20.172  18.440  1.00  0.00     0.000 C 
BRANCH  15  16
ATOM     16  C   UNL     1      18.213  20.790  17.366  1.00  0.00     0.006 C 
BRANCH  16  17
ATOM     17  C   UNL     1      18.089  20.071  16.017  1.00  0.00     0.053 C 
BRANCH  17  18
ATOM     18  C   UNL     1      19.418  19.598  15.515  1.00  0.00     0.041 C 
ATOM     19  O   UNL     1      20.475  20.190  15.862  1.00  0.00    -0.550 OA
ATOM     20  O   UNL     1      19.493  18.485  14.686  1.00  0.00    -0.550 OA
ENDBRANCH  17  18
ENDBRANCH  16  17
ENDBRANCH  15  16
ENDBRANCH  14  15
ENDBRANCH  13  14
ENDBRANCH  12  13
ENDBRANCH  11  12
ENDBRANCH   1  11
TORSDOF 15
ENDMDL
MODEL 2
REMARK VINA RESULT:    -5.426      2.731      5.871
REMARK INTER + INTRA:         -12.353
REMARK INTER:                 -10.814
REMARK INTRA:                  -1.539
REMARK UNBOUND:                -2.169
REMARK SMILES O=C([O-])CCCCCCCCCCCCCCC(=O)[O-]
REMARK SMILES IDX 10 1 9 2 8 3 7 4 6 5 5 6 4 7 2 8 1 9 3 10 11 11 12 12 13 13
REMARK SMILES IDX 14 14 15 15 16 16 17 17 18 18 19 19 20 20
REMARK H PARENT
REMARK Flexibility Score: inf
ROOT
ATOM      1  C   UNL     1      16.939  21.482  11.498  1.00  0.00     0.000 C 
ENDROOT
BRANCH   1   2
ATOM      2  C   UNL     1      17.880  20.301  11.796  1.00  0.00     0.000 C 
BRANCH   2   3
ATOM      3  C   UNL     1      17.633  19.600  13.147  1.00  0.00     0.000 C 
BRANCH   3   4
ATOM      4  C   UNL     1      18.860  18.885  13.750  1.00  0.00     0.000 C 
BRANCH   4   5
ATOM      5  C   UNL     1      19.422  19.524  15.032  1.00  0.00     0.000 C 
BRANCH   5   6
ATOM      6  C   UNL     1      18.320  19.966  16.009  1.00  0.00     0.006 C 
BRANCH   6   7
ATOM      7  C   UNL     1      18.330  19.142  17.304  1.00  0.00     0.053 C 
BRANCH   7   8
ATOM      8  C   UNL     1      17.518  17.890  17.174  1.00  0.00     0.041 C 
ATOM      9  O   UNL     1      16.261  17.941  17.240  1.00  0.00    -0.550 OA
ATOM     10  O   UNL     1      18.150  16.663  17.011  1.00  0.00    -0.550 OA
ENDBRANCH   7   8
ENDBRANCH   6   7
ENDBRANCH   5   6
ENDBRANCH   4   5
ENDBRANCH   3   4
ENDBRANCH   2   3
ENDBRANCH   1   2
BRANCH   1  11
ATOM     11  C   UNL     1      15.595  21.375  12.239  1.00  0.00     0.000 C 
BRANCH  11  12
ATOM     12  C   UNL     1      15.365  22.529  13.230  1.00  0.00     0.000 C 
BRANCH  12  13
ATOM     13  C   UNL     1      14.510  22.167  14.458  1.00  0.00     0.000 C 
BRANCH  13  14
ATOM     14  C   UNL     1      15.357  21.722  15.665  1.00  0.00     0.000 C 
BRANCH  14  15
ATOM     15  C   UNL     1      15.307  22.730  16.824  1.00  0.00     0.000 C 
BRANCH  15  16
ATOM     16  C   UNL     1      14.303  22.320  17.916  1.00  0.00     0.006 C 
BRANCH  16  17
ATOM     17  C   UNL     1      14.522  20.879  18.393  1.00  0.00     0.053 C 
BRANCH  17  18
ATOM     18  C   UNL     1      15.142  20.833  19.755  1.00  0.00     0.041 C 
ATOM     19  O   UNL     1      14.896  21.739  20.596  1.00  0.00    -0.550 OA
ATOM     20  O   UNL     1      15.970  19.774  20.107  1.00  0.00    -0.550 OA
ENDBRANCH  17  18
ENDBRANCH  16  17
ENDBRANCH  15  16
ENDBRANCH  14  15
ENDBRANCH  13  14
ENDBRANCH  12  13
ENDBRANCH  11  12
ENDBRANCH   1  11
TORSDOF 15
ENDMDL
MODEL 3
REMARK VINA RESULT:    -5.423      1.672      2.116
REMARK INTER + INTRA:         -12.348
REMARK INTER:                 -10.795
REMARK INTRA:                  -1.553
REMARK UNBOUND:                -2.169
REMARK SMILES O=C([O-])CCCCCCCCCCCCCCC(=O)[O-]
REMARK SMILES IDX 10 1 9 2 8 3 7 4 6 5 5 6 4 7 2 8 1 9 3 10 11 11 12 12 13 13
REMARK SMILES IDX 14 14 15 15 16 16 17 17 18 18 19 19 20 20
REMARK H PARENT
REMARK Flexibility Score: inf
ROOT
ATOM      1  C   UNL     1      15.352  22.980  17.153  1.00  0.00     0.000 C 
ENDROOT
BRANCH   1   2
ATOM      2  C   UNL     1      15.805  21.607  16.626  1.00  0.00     0.000 C 
BRANCH   2   3
ATOM      3  C   UNL     1      15.023  21.092  15.401  1.00  0.00     0.000 C 
BRANCH   3   4
ATOM      4  C   UNL     1      14.376  22.186  14.527  1.00  0.00     0.000 C 
BRANCH   4   5
ATOM      5  C   UNL     1      15.234  22.670  13.346  1.00  0.00     0.000 C 
BRANCH   5   6
ATOM      6  C   UNL     1      16.251  21.616  12.878  1.00  0.00     0.006 C 
BRANCH   6   7
ATOM      7  C   UNL     1      16.275  21.471  11.350  1.00  0.00     0.053 C 
BRANCH   7   8
ATOM      8  C   UNL     1      17.523  20.794  10.873  1.00  0.00     0.041 C 
ATOM      9  O   UNL     1      17.751  20.684   9.639  1.00  0.00    -0.550 OA
ATOM     10  O   UNL     1      18.418  20.257  11.789  1.00  0.00    -0.550 OA
ENDBRANCH   7   8
ENDBRANCH   6   7
ENDBRANCH   5   6
ENDBRANCH   4   5
ENDBRANCH   3   4
ENDBRANCH   2   3
ENDBRANCH   1   2
BRANCH   1  11
ATOM     11  C   UNL     1      14.124  22.888  18.076  1.00  0.00     0.000 C 
BRANCH  11  12
ATOM     12  C   UNL     1      14.041  21.549  18.830  1.00  0.00     0.000 C 
BRANCH  12  13
ATOM     13  C   UNL     1      14.837  21.497  20.147  1.00  0.00     0.000 C 
BRANCH  13  14
ATOM     14  C   UNL     1      15.876  20.362  20.174  1.00  0.00     0.000 C 
BRANCH  14  15
ATOM     15  C   UNL     1      15.303  19.026  19.676  1.00  0.00     0.000 C 
BRANCH  15  16
ATOM     16  C   UNL     1      16.355  18.168  18.953  1.00  0.00     0.006 C 
BRANCH  16  17
ATOM     17  C   UNL     1      16.030  17.983  17.466  1.00  0.00     0.053 C 
BRANCH  17  18
ATOM     18  C   UNL     1      17.271  17.839  16.639  1.00  0.00     0.041 C 
ATOM     19  O   UNL     1      17.484  18.619  15.673  1.00  0.00    -0.550 OA
ATOM     20  O   UNL     1      18.207  16.862  16.955  1.00  0.00    -0.550 OA
ENDBRANCH  17  18
ENDBRANCH  16  17
ENDBRANCH  15  16
ENDBRANCH  14  15
ENDBRANCH  13  14
ENDBRANCH  12  13
ENDBRANCH  11  12
ENDBRANCH   1  11
TORSDOF 15
ENDMDL
MODEL 4
REMARK VINA RESULT:    -5.379      1.750      5.098
REMARK INTER + INTRA:         -12.264
REMARK INTER:                 -10.660
REMARK INTRA:                  -1.605
REMARK UNBOUND:                -2.169
REMARK SMILES O=C([O-])CCCCCCCCCCCCCCC(=O)[O-]
REMARK SMILES IDX 10 1 9 2 8 3 7 4 6 5 5 6 4 7 2 8 1 9 3 10 11 11 12 12 13 13
REMARK SMILES IDX 14 14 15 15 16 16 17 17 18 18 19 19 20 20
REMARK H PARENT
REMARK Flexibility Score: inf
ROOT
ATOM      1  C   UNL     1      15.218  23.013  17.058  1.00  0.00     0.000 C 
ENDROOT
BRANCH   1   2
ATOM      2  C   UNL     1      14.007  22.526  17.872  1.00  0.00     0.000 C 
BRANCH   2   3
ATOM      3  C   UNL     1      14.348  21.958  19.265  1.00  0.00     0.000 C 
BRANCH   3   4
ATOM      4  C   UNL     1      14.264  20.423  19.388  1.00  0.00     0.000 C 
BRANCH   4   5
ATOM      5  C   UNL     1      15.602  19.681  19.227  1.00  0.00     0.000 C 
BRANCH   5   6
ATOM      6  C   UNL     1      15.741  18.995  17.858  1.00  0.00     0.006 C 
BRANCH   6   7
ATOM      7  C   UNL     1      16.618  17.737  17.927  1.00  0.00     0.053 C 
BRANCH   7   8
ATOM      8  C   UNL     1      17.983  17.977  17.358  1.00  0.00     0.041 C 
ATOM      9  O   UNL     1      18.528  19.106  17.475  1.00  0.00    -0.550 OA
ATOM     10  O   UNL     1      18.640  16.962  16.674  1.00  0.00    -0.550 OA
ENDBRANCH   7   8
ENDBRANCH   6   7
ENDBRANCH   5   6
ENDBRANCH   4   5
ENDBRANCH   3   4
ENDBRANCH   2   3
ENDBRANCH   1   2
BRANCH   1  11
ATOM     11  C   UNL     1      15.522  22.116  15.846  1.00  0.00     0.000 C 
BRANCH  11  12
ATOM     12  C   UNL     1      14.286  21.868  14.961  1.00  0.00     0.000 C 
BRANCH  12  13
ATOM     13  C   UNL     1      14.593  21.288  13.569  1.00  0.00     0.000 C 
BRANCH  13  14
ATOM     14  C   UNL     1      15.523  22.190  12.737  1.00  0.00     0.000 C 
BRANCH  14  15
ATOM     15  C   UNL     1      16.088  21.475  11.500  1.00  0.00     0.000 C 
BRANCH  15  16
ATOM     16  C   UNL     1      17.561  21.068  11.677  1.00  0.00     0.006 C 
BRANCH  16  17
ATOM     17  C   UNL     1      17.714  19.582  12.024  1.00  0.00     0.053 C 
BRANCH  17  18
ATOM     18  C   UNL     1      17.911  19.372  13.494  1.00  0.00     0.041 C 
ATOM     19  O   UNL     1      19.046  19.542  14.013  1.00  0.00    -0.550 OA
ATOM     20  O   UNL     1      16.833  19.015  14.296  1.00  0.00    -0.550 OA
ENDBRANCH  17  18
ENDBRANCH  16  17
ENDBRANCH  15  16
ENDBRANCH  14  15
ENDBRANCH  13  14
ENDBRANCH  12  13
ENDBRANCH  11  12
ENDBRANCH   1  11
TORSDOF 15
ENDMDL
MODEL 5
REMARK VINA RESULT:    -5.308      1.787      2.864
REMARK INTER + INTRA:         -12.132
REMARK INTER:                 -10.708
REMARK INTRA:                  -1.423
REMARK UNBOUND:                -2.169
REMARK SMILES O=C([O-])CCCCCCCCCCCCCCC(=O)[O-]
REMARK SMILES IDX 10 1 9 2 8 3 7 4 6 5 5 6 4 7 2 8 1 9 3 10 11 11 12 12 13 13
REMARK SMILES IDX 14 14 15 15 16 16 17 17 18 18 19 19 20 20
REMARK H PARENT
REMARK Flexibility Score: inf
ROOT
ATOM      1  C   UNL     1      15.014  21.692  16.204  1.00  0.00     0.000 C 
ENDROOT
BRANCH   1   2
ATOM      2  C   UNL     1      14.230  21.797  14.883  1.00  0.00     0.000 C 
BRANCH   2   3
ATOM      3  C   UNL     1      15.067  22.241  13.666  1.00  0.00     0.000 C 
BRANCH   3   4
ATOM      4  C   UNL     1      15.104  21.239  12.493  1.00  0.00     0.000 C 
BRANCH   4   5
ATOM      5  C   UNL     1      16.229  21.475  11.470  1.00  0.00     0.000 C 
BRANCH   5   6
ATOM      6  C   UNL     1      17.154  20.257  11.311  1.00  0.00     0.006 C 
BRANCH   6   7
ATOM      7  C   UNL     1      18.395  20.352  12.209  1.00  0.00     0.053 C 
BRANCH   7   8
ATOM      8  C   UNL     1      18.285  19.462  13.409  1.00  0.00     0.041 C 
ATOM      9  O   UNL     1      17.490  19.753  14.341  1.00  0.00    -0.550 OA
ATOM     10  O   UNL     1      19.082  18.329  13.512  1.00  0.00    -0.550 OA
ENDBRANCH   7   8
ENDBRANCH   6   7
ENDBRANCH   5   6
ENDBRANCH   4   5
ENDBRANCH   3   4
ENDBRANCH   2   3
ENDBRANCH   1   2
BRANCH   1  11
ATOM     11  C   UNL     1      14.990  22.998  17.016  1.00  0.00     0.000 C 
BRANCH  11  12
ATOM     12  C   UNL     1      14.211  22.867  18.337  1.00  0.00     0.000 C 
BRANCH  12  13
ATOM     13  C   UNL     1      14.127  21.436  18.899  1.00  0.00     0.000 C 
BRANCH  13  14
ATOM     14  C   UNL     1      14.874  21.273  20.235  1.00  0.00     0.000 C 
BRANCH  14  15
ATOM     15  C   UNL     1      15.764  20.021  20.265  1.00  0.00     0.000 C 
BRANCH  15  16
ATOM     16  C   UNL     1      16.708  19.941  19.053  1.00  0.00     0.006 C 
BRANCH  16  17
ATOM     17  C   UNL     1      16.508  18.652  18.247  1.00  0.00     0.053 C 
BRANCH  17  18
ATOM     18  C   UNL     1      17.768  18.225  17.560  1.00  0.00     0.041 C 
ATOM     19  O   UNL     1      17.889  17.049  17.127  1.00  0.00    -0.550 OA
ATOM     20  O   UNL     1      18.800  19.137  17.371  1.00  0.00    -0.550 OA
ENDBRANCH  17  18
ENDBRANCH  16  17
ENDBRANCH  15  16
ENDBRANCH  14  15
ENDBRANCH  13  14
ENDBRANCH  12  13
ENDBRANCH  11  12
ENDBRANCH   1  11
TORSDOF 15
ENDMDL
MODEL 6
REMARK VINA RESULT:    -5.301      2.831      6.734
REMARK INTER + INTRA:         -12.119
REMARK INTER:                 -10.575
REMARK INTRA:                  -1.544
REMARK UNBOUND:                -2.169
REMARK SMILES O=C([O-])CCCCCCCCCCCCCCC(=O)[O-]
REMARK SMILES IDX 10 1 9 2 8 3 7 4 6 5 5 6 4 7 2 8 1 9 3 10 11 11 12 12 13 13
REMARK SMILES IDX 14 14 15 15 16 16 17 17 18 18 19 19 20 20
REMARK H PARENT
REMARK Flexibility Score: inf
ROOT
ATOM      1  C   UNL     1      19.041  18.594  14.047  1.00  0.00     0.000 C 
ENDROOT
BRANCH   1   2
ATOM      2  C   UNL     1      19.102  19.628  15.185  1.00  0.00     0.000 C 
BRANCH   2   3
ATOM      3  C   UNL     1      18.882  19.051  16.598  1.00  0.00     0.000 C 
BRANCH   3   4
ATOM      4  C   UNL     1      18.395  17.588  16.643  1.00  0.00     0.000 C 
BRANCH   4   5
ATOM      5  C   UNL     1      16.903  17.408  16.971  1.00  0.00     0.000 C 
BRANCH   5   6
ATOM      6  C   UNL     1      16.569  17.755  18.431  1.00  0.00     0.006 C 
BRANCH   6   7
ATOM      7  C   UNL     1      15.226  18.489  18.559  1.00  0.00     0.053 C 
BRANCH   7   8
ATOM      8  C   UNL     1      15.396  19.868  19.120  1.00  0.00     0.041 C 
ATOM      9  O   UNL     1      14.393  20.610  19.288  1.00  0.00    -0.550 OA
ATOM     10  O   UNL     1      16.664  20.343  19.429  1.00  0.00    -0.550 OA
ENDBRANCH   7   8
ENDBRANCH   6   7
ENDBRANCH   5   6
ENDBRANCH   4   5
ENDBRANCH   3   4
ENDBRANCH   2   3
ENDBRANCH   1   2
BRANCH   1  11
ATOM     11  C   UNL     1      17.998  18.949  12.974  1.00  0.00     0.000 C 
BRANCH  11  12
ATOM     12  C   UNL     1      18.304  20.277  12.259  1.00  0.00     0.000 C 
BRANCH  12  13
ATOM     13  C   UNL     1      17.586  20.467  10.910  1.00  0.00     0.000 C 
BRANCH  13  14
ATOM     14  C   UNL     1      16.186  21.091  11.060  1.00  0.00     0.000 C 
BRANCH  14  15
ATOM     15  C   UNL     1      16.035  21.894  12.361  1.00  0.00     0.000 C 
BRANCH  15  16
ATOM     16  C   UNL     1      14.928  21.336  13.272  1.00  0.00     0.006 C 
BRANCH  16  17
ATOM     17  C   UNL     1      14.691  22.219  14.503  1.00  0.00     0.053 C 
BRANCH  17  18
ATOM     18  C   UNL     1      15.385  21.679  15.716  1.00  0.00     0.041 C 
ATOM     19  O   UNL     1      15.750  20.474  15.755  1.00  0.00    -0.550 OA
ATOM     20  O   UNL     1      15.655  22.515  16.792  1.00  0.00    -0.550 OA
ENDBRANCH  17  18
ENDBRANCH  16  17
ENDBRANCH  15  16
ENDBRANCH  14  15
ENDBRANCH  13  14
ENDBRANCH  12  13
ENDBRANCH  11  12
ENDBRANCH   1  11
TORSDOF 15
ENDMDL
MODEL 7
REMARK VINA RESULT:    -5.271      1.018      4.620
REMARK INTER + INTRA:         -12.063
REMARK INTER:                 -10.138
REMARK INTRA:                  -1.925
REMARK UNBOUND:                -2.169
REMARK SMILES O=C([O-])CCCCCCCCCCCCCCC(=O)[O-]
REMARK SMILES IDX 10 1 9 2 8 3 7 4 6 5 5 6 4 7 2 8 1 9 3 10 11 11 12 12 13 13
REMARK SMILES IDX 14 14 15 15 16 16 17 17 18 18 19 19 20 20
REMARK H PARENT
REMARK Flexibility Score: inf
ROOT
ATOM      1  C   UNL     1      15.572  20.530  19.138  1.00  0.00     0.000 C 
ENDROOT
BRANCH   1   2
ATOM      2  C   UNL     1      14.592  19.362  18.925  1.00  0.00     0.000 C 
BRANCH   2   3
ATOM      3  C   UNL     1      15.136  18.210  18.056  1.00  0.00     0.000 C 
BRANCH   3   4
ATOM      4  C   UNL     1      16.599  17.809  18.336  1.00  0.00     0.000 C 
BRANCH   4   5
ATOM      5  C   UNL     1      17.486  17.668  17.087  1.00  0.00     0.000 C 
BRANCH   5   6
ATOM      6  C   UNL     1      17.094  18.644  15.965  1.00  0.00     0.006 C 
BRANCH   6   7
ATOM      7  C   UNL     1      18.088  19.807  15.836  1.00  0.00     0.053 C 
BRANCH   7   8
ATOM      8  C   UNL     1      19.394  19.363  15.251  1.00  0.00     0.041 C 
ATOM      9  O   UNL     1      19.412  18.541  14.297  1.00  0.00    -0.550 OA
ATOM     10  O   UNL     1      20.589  19.832  15.779  1.00  0.00    -0.550 OA
ENDBRANCH   7   8
ENDBRANCH   6   7
ENDBRANCH   5   6
ENDBRANCH   4   5
ENDBRANCH   3   4
ENDBRANCH   2   3
ENDBRANCH   1   2
BRANCH   1  11
ATOM     11  C   UNL     1      15.527  21.560  17.996  1.00  0.00     0.000 C 
BRANCH  11  12
ATOM     12  C   UNL     1      14.094  21.889  17.543  1.00  0.00     0.000 C 
BRANCH  12  13
ATOM     13  C   UNL     1      13.877  21.873  16.019  1.00  0.00     0.000 C 
BRANCH  13  14
ATOM     14  C   UNL     1      15.194  21.958  15.227  1.00  0.00     0.000 C 
BRANCH  14  15
ATOM     15  C   UNL     1      15.121  21.221  13.880  1.00  0.00     0.000 C 
BRANCH  15  16
ATOM     16  C   UNL     1      15.674  22.065  12.719  1.00  0.00     0.006 C 
BRANCH  16  17
ATOM     17  C   UNL     1      15.794  21.255  11.421  1.00  0.00     0.053 C 
BRANCH  17  18
ATOM     18  C   UNL     1      17.211  20.854  11.147  1.00  0.00     0.041 C 
ATOM     19  O   UNL     1      17.975  20.533  12.095  1.00  0.00    -0.550 OA
ATOM     20  O   UNL     1      17.679  20.806   9.839  1.00  0.00    -0.550 OA
ENDBRANCH  17  18
ENDBRANCH  16  17
ENDBRANCH  15  16
ENDBRANCH  14  15
ENDBRANCH  13  14
ENDBRANCH  12  13
ENDBRANCH  11  12
ENDBRANCH   1  11
TORSDOF 15
ENDMDL
MODEL 8
REMARK VINA RESULT:    -5.252      1.147      4.549
REMARK INTER + INTRA:         -12.027
REMARK INTER:                 -10.016
REMARK INTRA:                  -2.012
REMARK UNBOUND:                -2.169
REMARK SMILES O=C([O-])CCCCCCCCCCCCCCC(=O)[O-]
REMARK SMILES IDX 10 1 9 2 8 3 7 4 6 5 5 6 4 7 2 8 1 9 3 10 11 11 12 12 13 13
REMARK SMILES IDX 14 14 15 15 16 16 17 17 18 18 19 19 20 20
REMARK H PARENT
REMARK Flexibility Score: inf
ROOT
ATOM      1  C   UNL     1      14.611  20.343  19.919  1.00  0.00     0.000 C 
ENDROOT
BRANCH   1   2
ATOM      2  C   UNL     1      14.089  19.494  18.746  1.00  0.00     0.000 C 
BRANCH   2   3
ATOM      3  C   UNL     1      15.121  18.518  18.143  1.00  0.00     0.000 C 
BRANCH   3   4
ATOM      4  C   UNL     1      16.338  19.182  17.467  1.00  0.00     0.000 C 
BRANCH   4   5
ATOM      5  C   UNL     1      16.740  18.579  16.110  1.00  0.00     0.000 C 
BRANCH   5   6
ATOM      6  C   UNL     1      17.584  19.541  15.258  1.00  0.00     0.006 C 
BRANCH   6   7
ATOM      7  C   UNL     1      18.905  18.905  14.804  1.00  0.00     0.053 C 
BRANCH   7   8
ATOM      8  C   UNL     1      20.022  19.197  15.759  1.00  0.00     0.041 C 
ATOM      9  O   UNL     1      20.201  20.368  16.184  1.00  0.00    -0.550 OA
ATOM     10  O   UNL     1      20.884  18.181  16.155  1.00  0.00    -0.550 OA
ENDBRANCH   7   8
ENDBRANCH   6   7
ENDBRANCH   5   6
ENDBRANCH   4   5
ENDBRANCH   3   4
ENDBRANCH   2   3
ENDBRANCH   1   2
BRANCH   1  11
ATOM     11  C   UNL     1      14.616  21.850  19.608  1.00  0.00     0.000 C 
BRANCH  11  12
ATOM     12  C   UNL     1      14.027  22.177  18.224  1.00  0.00     0.000 C 
BRANCH  12  13
ATOM     13  C   UNL     1      14.887  23.118  17.360  1.00  0.00     0.000 C 
BRANCH  13  14
ATOM     14  C   UNL     1      15.357  22.463  16.049  1.00  0.00     0.000 C 
BRANCH  14  15
ATOM     15  C   UNL     1      14.208  21.795  15.278  1.00  0.00     0.000 C 
BRANCH  15  16
ATOM     16  C   UNL     1      14.653  21.260  13.906  1.00  0.00     0.006 C 
BRANCH  16  17
ATOM     17  C   UNL     1      15.713  22.156  13.251  1.00  0.00     0.053 C 
BRANCH  17  18
ATOM     18  C   UNL     1      16.320  21.507  12.046  1.00  0.00     0.041 C 
ATOM     19  O   UNL     1      15.709  21.515  10.945  1.00  0.00    -0.550 OA
ATOM     20  O   UNL     1      17.576  20.918  12.132  1.00  0.00    -0.550 OA
ENDBRANCH  17  18
ENDBRANCH  16  17
ENDBRANCH  15  16
ENDBRANCH  14  15
ENDBRANCH  13  14
ENDBRANCH  12  13
ENDBRANCH  11  12
ENDBRANCH   1  11
TORSDOF 15
ENDMDL
MODEL 9
REMARK VINA RESULT:    -5.226      2.005      5.357
REMARK INTER + INTRA:         -11.978
REMARK INTER:                 -10.378
REMARK INTRA:                  -1.601
REMARK UNBOUND:                -2.169
REMARK SMILES O=C([O-])CCCCCCCCCCCCCCC(=O)[O-]
REMARK SMILES IDX 10 1 9 2 8 3 7 4 6 5 5 6 4 7 2 8 1 9 3 10 11 11 12 12 13 13
REMARK SMILES IDX 14 14 15 15 16 16 17 17 18 18 19 19 20 20
REMARK H PARENT
REMARK Flexibility Score: inf
ROOT
ATOM      1  C   UNL     1      14.996  21.049  15.403  1.00  0.00     0.000 C 
ENDROOT
BRANCH   1   2
ATOM      2  C   UNL     1      14.013  21.842  16.281  1.00  0.00     0.000 C 
BRANCH   2   3
ATOM      3  C   UNL     1      14.661  22.608  17.453  1.00  0.00     0.000 C 
BRANCH   3   4
ATOM      4  C   UNL     1      14.080  22.292  18.846  1.00  0.00     0.000 C 
BRANCH   4   5
ATOM      5  C   UNL     1      14.977  21.425  19.746  1.00  0.00     0.000 C 
BRANCH   5   6
ATOM      6  C   UNL     1      14.827  19.921  19.463  1.00  0.00     0.006 C 
BRANCH   6   7
ATOM      7  C   UNL     1      16.032  19.351  18.701  1.00  0.00     0.053 C 
BRANCH   7   8
ATOM      8  C   UNL     1      15.668  18.132  17.911  1.00  0.00     0.041 C 
ATOM      9  O   UNL     1      14.558  17.566  18.097  1.00  0.00    -0.550 OA
ATOM     10  O   UNL     1      16.566  17.603  16.993  1.00  0.00    -0.550 OA
ENDBRANCH   7   8
ENDBRANCH   6   7
ENDBRANCH   5   6
ENDBRANCH   4   5
ENDBRANCH   3   4
ENDBRANCH   2   3
ENDBRANCH   1   2
BRANCH   1  11
ATOM     11  C   UNL     1      14.716  21.210  13.899  1.00  0.00     0.000 C 
BRANCH  11  12
ATOM     12  C   UNL     1      15.611  22.272  13.234  1.00  0.00     0.000 C 
BRANCH  12  13
ATOM     13  C   UNL     1      16.159  21.881  11.850  1.00  0.00     0.000 C 
BRANCH  13  14
ATOM     14  C   UNL     1      16.591  20.405  11.773  1.00  0.00     0.000 C 
BRANCH  14  15
ATOM     15  C   UNL     1      17.929  20.144  12.481  1.00  0.00     0.000 C 
BRANCH  15  16
ATOM     16  C   UNL     1      17.794  19.148  13.646  1.00  0.00     0.006 C 
BRANCH  16  17
ATOM     17  C   UNL     1      19.151  18.790  14.263  1.00  0.00     0.053 C 
BRANCH  17  18
ATOM     18  C   UNL     1      19.457  19.637  15.460  1.00  0.00     0.041 C 
ATOM     19  O   UNL     1      20.643  19.751  15.871  1.00  0.00    -0.550 OA
ATOM     20  O   UNL     1      18.437  20.324  16.105  1.00  0.00    -0.550 OA
ENDBRANCH  17  18
ENDBRANCH  16  17
ENDBRANCH  15  16
ENDBRANCH  14  15
ENDBRANCH  13  14
ENDBRANCH  12  13
ENDBRANCH  11  12
ENDBRANCH   1  11
TORSDOF 15
ENDMDL
