MODEL 1
REMARK VINA RESULT:    -3.753      0.000      0.000
REMARK INTER + INTRA:          -7.471
REMARK INTER:                  -6.605
REMARK INTRA:                  -0.866
REMARK UNBOUND:                -0.866
REMARK SMILES CCCCCCCCCCCCCCC(=O)[O-]
REMARK SMILES IDX 9 1 10 2 11 3 12 4 13 5 14 6 15 7 16 8 17 9 8 10 7 11 6 12
REMARK SMILES IDX 5 13 4 14 3 15 2 16 1 17
REMARK H PARENT
REMARK Flexibility Score: inf
ROOT
ATOM      1  C   UNL     1      -9.846  -7.940  -5.682  1.00  0.00     0.000 C 
ENDROOT
BRANCH   1   2
ATOM      2  C   UNL     1     -11.042  -8.843  -6.016  1.00  0.00     0.000 C 
BRANCH   2   3
ATOM      3  C   UNL     1     -11.806  -8.314  -7.239  1.00  0.00     0.000 C 
BRANCH   3   4
ATOM      4  C   UNL     1     -13.014  -7.446  -6.854  1.00  0.00     0.000 C 
BRANCH   4   5
ATOM      5  C   UNL     1     -14.110  -8.245  -6.130  1.00  0.00     0.006 C 
BRANCH   5   6
ATOM      6  C   UNL     1     -15.477  -7.549  -6.200  1.00  0.00     0.053 C 
BRANCH   6   7
ATOM      7  C   UNL     1     -16.214  -7.897  -7.457  1.00  0.00     0.041 C 
ATOM      8  O   UNL     1     -16.187  -7.117  -8.445  1.00  0.00    -0.550 OA
ATOM      9  O   UNL     1     -16.953  -9.070  -7.526  1.00  0.00    -0.550 OA
ENDBRANCH   6   7
ENDBRANCH   5   6
ENDBRANCH   4   5
ENDBRANCH   3   4
ENDBRANCH   2   3
ENDBRANCH   1   2
BRANCH   1  10
ATOM     10  C   UNL     1      -8.523  -8.610  -6.085  1.00  0.00     0.000 C 
BRANCH  10  11
ATOM     11  C   UNL     1      -8.675 -10.118  -6.340  1.00  0.00    -0.000 C 
BRANCH  11  12
ATOM     12  C   UNL     1      -7.750 -10.623  -7.460  1.00  0.00    -0.000 C 
BRANCH  12  13
ATOM     13  C   UNL     1      -6.256 -10.472  -7.117  1.00  0.00    -0.000 C 
BRANCH  13  14
ATOM     14  C   UNL     1      -5.340 -10.147  -8.311  1.00  0.00    -0.000 C 
BRANCH  14  15
ATOM     15  C   UNL     1      -4.649  -8.782  -8.182  1.00  0.00    -0.000 C 
BRANCH  15  16
ATOM     16  C   UNL     1      -4.748  -8.250  -6.748  1.00  0.00    -0.003 C 
ATOM     17  C   UNL     1      -3.850  -7.032  -6.548  1.00  0.00     0.004 C 
ENDBRANCH  15  16
ENDBRANCH  14  15
ENDBRANCH  13  14
ENDBRANCH  12  13
ENDBRANCH  11  12
ENDBRANCH  10  11
ENDBRANCH   1  10
TORSDOF 13
ENDMDL
MODEL 2
REMARK VINA RESULT:    -3.681      0.752      1.532
REMARK INTER + INTRA:          -7.345
REMARK INTER:                  -6.449
REMARK INTRA:                  -0.896
REMARK UNBOUND:                -0.866
REMARK SMILES CCCCCCCCCCCCCCC(=O)[O-]
REMARK SMILES IDX 9 1 10 2 11 3 12 4 13 5 14 6 15 7 16 8 17 9 8 10 7 11 6 12
REMARK SMILES IDX 5 13 4 14 3 15 2 16 1 17
REMARK H PARENT
REMARK Flexibility Score: inf
ROOT
ATOM      1  C   UNL     1      -9.900  -7.894  -5.681  1.00  0.00     0.000 C 
ENDROOT
BRANCH   1   2
ATOM      2  C   UNL     1     -11.262  -8.601  -5.713  1.00  0.00     0.000 C 
BRANCH   2   3
ATOM      3  C   UNL     1     -12.108  -8.112  -6.900  1.00  0.00     0.000 C 
BRANCH   3   4
ATOM      4  C   UNL     1     -13.341  -7.310  -6.459  1.00  0.00     0.000 C 
BRANCH   4   5
ATOM      5  C   UNL     1     -14.480  -8.208  -5.946  1.00  0.00     0.006 C 
BRANCH   5   6
ATOM      6  C   UNL     1     -15.861  -7.576  -6.167  1.00  0.00     0.053 C 
BRANCH   6   7
ATOM      7  C   UNL     1     -16.374  -7.833  -7.551  1.00  0.00     0.041 C 
ATOM      8  O   UNL     1     -16.843  -8.962  -7.854  1.00  0.00    -0.550 OA
ATOM      9  O   UNL     1     -16.310  -6.834  -8.513  1.00  0.00    -0.550 OA
ENDBRANCH   6   7
ENDBRANCH   5   6
ENDBRANCH   4   5
ENDBRANCH   3   4
ENDBRANCH   2   3
ENDBRANCH   1   2
BRANCH   1  10
ATOM     10  C   UNL     1      -8.969  -8.445  -6.772  1.00  0.00     0.000 C 
BRANCH  10  11
ATOM     11  C   UNL     1      -8.988  -9.981  -6.848  1.00  0.00    -0.000 C 
BRANCH  11  12
ATOM     12  C   UNL     1      -7.575 -10.588  -6.847  1.00  0.00    -0.000 C 
BRANCH  12  13
ATOM     13  C   UNL     1      -6.622  -9.885  -5.863  1.00  0.00    -0.000 C 
BRANCH  13  14
ATOM     14  C   UNL     1      -5.128  -9.960  -6.231  1.00  0.00    -0.000 C 
BRANCH  14  15
ATOM     15  C   UNL     1      -4.609  -8.677  -6.896  1.00  0.00    -0.000 C 
BRANCH  15  16
ATOM     16  C   UNL     1      -4.806  -8.728  -8.416  1.00  0.00    -0.003 C 
ATOM     17  C   UNL     1      -4.424 -10.094  -8.976  1.00  0.00     0.004 C 
ENDBRANCH  15  16
ENDBRANCH  14  15
ENDBRANCH  13  14
ENDBRANCH  12  13
ENDBRANCH  11  12
ENDBRANCH  10  11
ENDBRANCH   1  10
TORSDOF 13
ENDMDL
MODEL 3
REMARK VINA RESULT:    -3.674      4.463      8.758
REMARK INTER + INTRA:          -7.333
REMARK INTER:                  -6.290
REMARK INTRA:                  -1.043
REMARK UNBOUND:                -0.866
REMARK SMILES CCCCCCCCCCCCCCC(=O)[O-]
REMARK SMILES IDX 9 1 10 2 11 3 12 4 13 5 14 6 15 7 16 8 17 9 8 10 7 11 6 12
REMARK SMILES IDX 5 13 4 14 3 15 2 16 1 17
REMARK H PARENT
REMARK Flexibility Score: inf
ROOT
ATOM      1  C   UNL     1      -8.737  -8.486  -6.474  1.00  0.00     0.000 C 
ENDROOT
BRANCH   1   2
ATOM      2  C   UNL     1      -8.718  -9.988  -6.787  1.00  0.00     0.000 C 
BRANCH   2   3
ATOM      3  C   UNL     1      -7.324 -10.584  -6.539  1.00  0.00     0.000 C 
BRANCH   3   4
ATOM      4  C   UNL     1      -6.561 -10.871  -7.841  1.00  0.00     0.000 C 
BRANCH   4   5
ATOM      5  C   UNL     1      -5.123 -10.326  -7.817  1.00  0.00     0.006 C 
BRANCH   5   6
ATOM      6  C   UNL     1      -5.086  -8.792  -7.825  1.00  0.00     0.053 C 
BRANCH   6   7
ATOM      7  C   UNL     1      -4.212  -8.252  -6.734  1.00  0.00     0.041 C 
ATOM      8  O   UNL     1      -3.871  -8.988  -5.771  1.00  0.00    -0.550 OA
ATOM      9  O   UNL     1      -3.796  -6.928  -6.769  1.00  0.00    -0.550 OA
ENDBRANCH   6   7
ENDBRANCH   5   6
ENDBRANCH   4   5
ENDBRANCH   3   4
ENDBRANCH   2   3
ENDBRANCH   1   2
BRANCH   1  10
ATOM     10  C   UNL     1     -10.048  -8.085  -5.780  1.00  0.00     0.000 C 
BRANCH  10  11
ATOM     11  C   UNL     1     -10.969  -9.288  -5.512  1.00  0.00    -0.000 C 
BRANCH  11  12
ATOM     12  C   UNL     1     -12.250  -9.250  -6.361  1.00  0.00    -0.000 C 
BRANCH  12  13
ATOM     13  C   UNL     1     -12.269  -8.084  -7.366  1.00  0.00    -0.000 C 
BRANCH  13  14
ATOM     14  C   UNL     1     -13.494  -7.156  -7.270  1.00  0.00    -0.000 C 
BRANCH  14  15
ATOM     15  C   UNL     1     -14.466  -7.560  -6.152  1.00  0.00    -0.000 C 
BRANCH  15  16
ATOM     16  C   UNL     1     -15.782  -8.091  -6.734  1.00  0.00    -0.003 C 
ATOM     17  C   UNL     1     -16.185  -7.315  -7.985  1.00  0.00     0.004 C 
ENDBRANCH  15  16
ENDBRANCH  14  15
ENDBRANCH  13  14
ENDBRANCH  12  13
ENDBRANCH  11  12
ENDBRANCH  10  11
ENDBRANCH   1  10
TORSDOF 13
ENDMDL
MODEL 4
REMARK VINA RESULT:    -3.669      2.291      4.190
REMARK INTER + INTRA:          -7.323
REMARK INTER:                  -6.282
REMARK INTRA:                  -1.041
REMARK UNBOUND:                -0.866
REMARK SMILES CCCCCCCCCCCCCCC(=O)[O-]
REMARK SMILES IDX 9 1 10 2 11 3 12 4 13 5 14 6 15 7 16 8 17 9 8 10 7 11 6 12
REMARK SMILES IDX 5 13 4 14 3 15 2 16 1 17
REMARK H PARENT
REMARK Flexibility Score: inf
ROOT
ATOM      1  C   UNL     1      -6.480 -10.768  -7.840  1.00  0.00     0.000 C 
ENDROOT
BRANCH   1   2
ATOM      2  C   UNL     1      -7.423 -10.171  -6.787  1.00  0.00     0.000 C 
BRANCH   2   3
ATOM      3  C   UNL     1      -7.018  -8.731  -6.439  1.00  0.00     0.000 C 
BRANCH   3   4
ATOM      4  C   UNL     1      -8.220  -7.776  -6.369  1.00  0.00     0.000 C 
BRANCH   4   5
ATOM      5  C   UNL     1      -9.542  -8.510  -6.086  1.00  0.00     0.006 C 
BRANCH   5   6
ATOM      6  C   UNL     1     -10.490  -8.479  -7.293  1.00  0.00     0.053 C 
BRANCH   6   7
ATOM      7  C   UNL     1     -11.921  -8.636  -6.879  1.00  0.00     0.041 C 
ATOM      8  O   UNL     1     -12.671  -7.628  -6.795  1.00  0.00    -0.550 OA
ATOM      9  O   UNL     1     -12.418  -9.893  -6.561  1.00  0.00    -0.550 OA
ENDBRANCH   6   7
ENDBRANCH   5   6
ENDBRANCH   4   5
ENDBRANCH   3   4
ENDBRANCH   2   3
ENDBRANCH   1   2
BRANCH   1  10
ATOM     10  C   UNL     1      -5.333  -9.799  -8.163  1.00  0.00     0.000 C 
BRANCH  10  11
ATOM     11  C   UNL     1      -4.218 -10.455  -8.995  1.00  0.00    -0.000 C 
BRANCH  11  12
ATOM     12  C   UNL     1      -3.095 -11.037  -8.119  1.00  0.00    -0.000 C 
BRANCH  12  13
ATOM     13  C   UNL     1      -3.232 -10.651  -6.635  1.00  0.00    -0.000 C 
BRANCH  13  14
ATOM     14  C   UNL     1      -2.065  -9.824  -6.063  1.00  0.00    -0.000 C 
BRANCH  14  15
ATOM     15  C   UNL     1      -2.533  -8.602  -5.261  1.00  0.00    -0.000 C 
BRANCH  15  16
ATOM     16  C   UNL     1      -3.495  -7.738  -6.087  1.00  0.00    -0.003 C 
ATOM     17  C   UNL     1      -3.143  -6.258  -5.973  1.00  0.00     0.004 C 
ENDBRANCH  15  16
ENDBRANCH  14  15
ENDBRANCH  13  14
ENDBRANCH  12  13
ENDBRANCH  11  12
ENDBRANCH  10  11
ENDBRANCH   1  10
TORSDOF 13
ENDMDL
MODEL 5
REMARK VINA RESULT:    -3.597      4.344      9.199
REMARK INTER + INTRA:          -7.197
REMARK INTER:                  -6.617
REMARK INTRA:                  -0.580
REMARK UNBOUND:                -0.866
REMARK SMILES CCCCCCCCCCCCCCC(=O)[O-]
REMARK SMILES IDX 9 1 10 2 11 3 12 4 13 5 14 6 15 7 16 8 17 9 8 10 7 11 6 12
REMARK SMILES IDX 5 13 4 14 3 15 2 16 1 17
REMARK H PARENT
REMARK Flexibility Score: inf
ROOT
ATOM      1  C   UNL     1     -10.575  -8.522  -6.974  1.00  0.00     0.000 C 
ENDROOT
BRANCH   1   2
ATOM      2  C   UNL     1      -9.427  -9.516  -6.755  1.00  0.00     0.000 C 
BRANCH   2   3
ATOM      3  C   UNL     1      -8.134  -8.785  -6.365  1.00  0.00     0.000 C 
BRANCH   3   4
ATOM      4  C   UNL     1      -6.938  -9.737  -6.205  1.00  0.00     0.000 C 
BRANCH   4   5
ATOM      5  C   UNL     1      -6.678 -10.577  -7.467  1.00  0.00     0.006 C 
BRANCH   5   6
ATOM      6  C   UNL     1      -5.187 -10.883  -7.661  1.00  0.00     0.053 C 
BRANCH   6   7
ATOM      7  C   UNL     1      -4.577 -10.021  -8.725  1.00  0.00     0.041 C 
ATOM      8  O   UNL     1      -3.963 -10.545  -9.691  1.00  0.00    -0.550 OA
ATOM      9  O   UNL     1      -4.665  -8.638  -8.633  1.00  0.00    -0.550 OA
ENDBRANCH   6   7
ENDBRANCH   5   6
ENDBRANCH   4   5
ENDBRANCH   3   4
ENDBRANCH   2   3
ENDBRANCH   1   2
BRANCH   1  10
ATOM     10  C   UNL     1     -11.654  -8.680  -5.891  1.00  0.00     0.000 C 
BRANCH  10  11
ATOM     11  C   UNL     1     -11.848  -7.403  -5.057  1.00  0.00    -0.000 C 
BRANCH  11  12
ATOM     12  C   UNL     1     -13.199  -6.720  -5.330  1.00  0.00    -0.000 C 
BRANCH  12  13
ATOM     13  C   UNL     1     -13.965  -7.357  -6.504  1.00  0.00    -0.000 C 
BRANCH  13  14
ATOM     14  C   UNL     1     -15.456  -7.635  -6.239  1.00  0.00    -0.000 C 
BRANCH  14  15
ATOM     15  C   UNL     1     -16.268  -7.831  -7.528  1.00  0.00    -0.000 C 
BRANCH  15  16
ATOM     16  C   UNL     1     -16.900  -9.228  -7.570  1.00  0.00    -0.003 C 
ATOM     17  C   UNL     1     -17.403  -9.647  -6.192  1.00  0.00     0.004 C 
ENDBRANCH  15  16
ENDBRANCH  14  15
ENDBRANCH  13  14
ENDBRANCH  12  13
ENDBRANCH  11  12
ENDBRANCH  10  11
ENDBRANCH   1  10
TORSDOF 13
ENDMDL
MODEL 6
REMARK VINA RESULT:    -3.538      5.085      8.648
REMARK INTER + INTRA:          -7.093
REMARK INTER:                  -5.564
REMARK INTRA:                  -1.529
REMARK UNBOUND:                -0.866
REMARK SMILES CCCCCCCCCCCCCCC(=O)[O-]
REMARK SMILES IDX 9 1 10 2 11 3 12 4 13 5 14 6 15 7 16 8 17 9 8 10 7 11 6 12
REMARK SMILES IDX 5 13 4 14 3 15 2 16 1 17
REMARK H PARENT
REMARK Flexibility Score: inf
ROOT
ATOM      1  C   UNL     1      -6.933 -11.124  -7.881  1.00  0.00     0.000 C 
ENDROOT
BRANCH   1   2
ATOM      2  C   UNL     1      -5.513 -10.897  -7.344  1.00  0.00     0.000 C 
BRANCH   2   3
ATOM      3  C   UNL     1      -4.671 -10.087  -8.342  1.00  0.00     0.000 C 
BRANCH   3   4
ATOM      4  C   UNL     1      -4.922  -8.574  -8.238  1.00  0.00     0.000 C 
BRANCH   4   5
ATOM      5  C   UNL     1      -4.924  -8.073  -6.785  1.00  0.00     0.006 C 
BRANCH   5   6
ATOM      6  C   UNL     1      -3.666  -7.259  -6.451  1.00  0.00     0.053 C 
BRANCH   6   7
ATOM      7  C   UNL     1      -2.711  -8.037  -5.600  1.00  0.00     0.041 C 
ATOM      8  O   UNL     1      -3.008  -9.197  -5.209  1.00  0.00    -0.550 OA
ATOM      9  O   UNL     1      -1.503  -7.470  -5.215  1.00  0.00    -0.550 OA
ENDBRANCH   6   7
ENDBRANCH   5   6
ENDBRANCH   4   5
ENDBRANCH   3   4
ENDBRANCH   2   3
ENDBRANCH   1   2
BRANCH   1  10
ATOM     10  C   UNL     1      -7.984 -10.573  -6.905  1.00  0.00     0.000 C 
BRANCH  10  11
ATOM     11  C   UNL     1      -7.362 -10.027  -5.609  1.00  0.00    -0.000 C 
BRANCH  11  12
ATOM     12  C   UNL     1      -8.246  -8.967  -4.931  1.00  0.00    -0.000 C 
BRANCH  12  13
ATOM     13  C   UNL     1      -8.922  -8.019  -5.939  1.00  0.00    -0.000 C 
BRANCH  13  14
ATOM     14  C   UNL     1     -10.453  -7.913  -5.812  1.00  0.00    -0.000 C 
BRANCH  14  15
ATOM     15  C   UNL     1     -11.198  -8.536  -7.001  1.00  0.00    -0.000 C 
BRANCH  15  16
ATOM     16  C   UNL     1     -12.171  -9.623  -6.530  1.00  0.00    -0.003 C 
ATOM     17  C   UNL     1     -11.523 -10.530  -5.488  1.00  0.00     0.004 C 
ENDBRANCH  15  16
ENDBRANCH  14  15
ENDBRANCH  13  14
ENDBRANCH  12  13
ENDBRANCH  11  12
ENDBRANCH  10  11
ENDBRANCH   1  10
TORSDOF 13
ENDMDL
MODEL 7
REMARK VINA RESULT:    -3.478      4.342      8.754
REMARK INTER + INTRA:          -6.987
REMARK INTER:                  -6.049
REMARK INTRA:                  -0.938
REMARK UNBOUND:                -0.866
REMARK SMILES CCCCCCCCCCCCCCC(=O)[O-]
REMARK SMILES IDX 9 1 10 2 11 3 12 4 13 5 14 6 15 7 16 8 17 9 8 10 7 11 6 12
REMARK SMILES IDX 5 13 4 14 3 15 2 16 1 17
REMARK H PARENT
REMARK Flexibility Score: inf
ROOT
ATOM      1  C   UNL     1     -10.025  -8.950  -6.812  1.00  0.00     0.000 C 
ENDROOT
BRANCH   1   2
ATOM      2  C   UNL     1      -9.061 -10.134  -6.663  1.00  0.00     0.000 C 
BRANCH   2   3
ATOM      3  C   UNL     1      -8.180  -9.973  -5.415  1.00  0.00     0.000 C 
BRANCH   3   4
ATOM      4  C   UNL     1      -6.784 -10.589  -5.589  1.00  0.00     0.000 C 
BRANCH   4   5
ATOM      5  C   UNL     1      -5.894  -9.778  -6.546  1.00  0.00     0.006 C 
BRANCH   5   6
ATOM      6  C   UNL     1      -5.597 -10.538  -7.846  1.00  0.00     0.053 C 
BRANCH   6   7
ATOM      7  C   UNL     1      -4.678  -9.767  -8.743  1.00  0.00     0.041 C 
ATOM      8  O   UNL     1      -3.905 -10.373  -9.531  1.00  0.00    -0.550 OA
ATOM      9  O   UNL     1      -4.658  -8.380  -8.690  1.00  0.00    -0.550 OA
ENDBRANCH   6   7
ENDBRANCH   5   6
ENDBRANCH   4   5
ENDBRANCH   3   4
ENDBRANCH   2   3
ENDBRANCH   1   2
BRANCH   1  10
ATOM     10  C   UNL     1      -9.582  -7.767  -5.937  1.00  0.00     0.000 C 
BRANCH  10  11
ATOM     11  C   UNL     1     -10.628  -7.391  -4.875  1.00  0.00    -0.000 C 
BRANCH  11  12
ATOM     12  C   UNL     1     -12.003  -8.024  -5.151  1.00  0.00    -0.000 C 
BRANCH  12  13
ATOM     13  C   UNL     1     -13.057  -6.995  -5.597  1.00  0.00    -0.000 C 
BRANCH  13  14
ATOM     14  C   UNL     1     -13.574  -7.170  -7.037  1.00  0.00    -0.000 C 
BRANCH  14  15
ATOM     15  C   UNL     1     -15.089  -7.408  -7.106  1.00  0.00    -0.000 C 
BRANCH  15  16
ATOM     16  C   UNL     1     -15.665  -7.688  -5.713  1.00  0.00    -0.003 C 
ATOM     17  C   UNL     1     -17.029  -7.027  -5.536  1.00  0.00     0.004 C 
ENDBRANCH  15  16
ENDBRANCH  14  15
ENDBRANCH  13  14
ENDBRANCH  12  13
ENDBRANCH  11  12
ENDBRANCH  10  11
ENDBRANCH   1  10
TORSDOF 13
ENDMDL
MODEL 8
REMARK VINA RESULT:    -3.178      4.341      8.837
REMARK INTER + INTRA:          -6.460
REMARK INTER:                  -5.579
REMARK INTRA:                  -0.881
REMARK UNBOUND:                -0.866
REMARK SMILES CCCCCCCCCCCCCCC(=O)[O-]
REMARK SMILES IDX 9 1 10 2 11 3 12 4 13 5 14 6 15 7 16 8 17 9 8 10 7 11 6 12
REMARK SMILES IDX 5 13 4 14 3 15 2 16 1 17
REMARK H PARENT
REMARK Flexibility Score: inf
ROOT
ATOM      1  C   UNL     1     -11.881  -8.414  -6.770  1.00  0.00     0.000 C 
ENDROOT
BRANCH   1   2
ATOM      2  C   UNL     1     -10.455  -8.588  -7.311  1.00  0.00     0.000 C 
BRANCH   2   3
ATOM      3  C   UNL     1      -9.594  -9.405  -6.336  1.00  0.00     0.000 C 
BRANCH   3   4
ATOM      4  C   UNL     1      -8.087  -9.197  -6.557  1.00  0.00     0.000 C 
BRANCH   4   5
ATOM      5  C   UNL     1      -7.298 -10.517  -6.536  1.00  0.00     0.006 C 
BRANCH   5   6
ATOM      6  C   UNL     1      -6.708 -10.860  -7.911  1.00  0.00     0.053 C 
BRANCH   6   7
ATOM      7  C   UNL     1      -5.305 -10.356  -8.056  1.00  0.00     0.041 C 
ATOM      8  O   UNL     1      -4.330 -11.124  -7.845  1.00  0.00    -0.550 OA
ATOM      9  O   UNL     1      -5.076  -9.030  -8.397  1.00  0.00    -0.550 OA
ENDBRANCH   6   7
ENDBRANCH   5   6
ENDBRANCH   4   5
ENDBRANCH   3   4
ENDBRANCH   2   3
ENDBRANCH   1   2
BRANCH   1  10
ATOM     10  C   UNL     1     -12.015  -9.023  -5.366  1.00  0.00     0.000 C 
BRANCH  10  11
ATOM     11  C   UNL     1     -13.479  -9.212  -4.938  1.00  0.00    -0.000 C 
BRANCH  11  12
ATOM     12  C   UNL     1     -13.934 -10.679  -5.022  1.00  0.00    -0.000 C 
BRANCH  12  13
ATOM     13  C   UNL     1     -15.065 -10.897  -6.044  1.00  0.00    -0.000 C 
BRANCH  13  14
ATOM     14  C   UNL     1     -16.305 -10.006  -5.848  1.00  0.00    -0.000 C 
BRANCH  14  15
ATOM     15  C   UNL     1     -16.666  -9.197  -7.102  1.00  0.00    -0.000 C 
BRANCH  15  16
ATOM     16  C   UNL     1     -16.135  -7.762  -7.001  1.00  0.00    -0.003 C 
ATOM     17  C   UNL     1     -16.164  -7.066  -8.359  1.00  0.00     0.004 C 
ENDBRANCH  15  16
ENDBRANCH  14  15
ENDBRANCH  13  14
ENDBRANCH  12  13
ENDBRANCH  11  12
ENDBRANCH  10  11
ENDBRANCH   1  10
TORSDOF 13
ENDMDL
MODEL 9
REMARK VINA RESULT:    -3.109      1.586      2.706
REMARK INTER + INTRA:          -6.337
REMARK INTER:                  -5.731
REMARK INTRA:                  -0.606
REMARK UNBOUND:                -0.866
REMARK SMILES CCCCCCCCCCCCCCC(=O)[O-]
REMARK SMILES IDX 9 1 10 2 11 3 12 4 13 5 14 6 15 7 16 8 17 9 8 10 7 11 6 12
REMARK SMILES IDX 5 13 4 14 3 15 2 16 1 17
REMARK H PARENT
REMARK Flexibility Score: inf
ROOT
ATOM      1  C   UNL     1     -12.690  -8.630  -6.281  1.00  0.00     0.000 C 
ENDROOT
BRANCH   1   2
ATOM      2  C   UNL     1     -13.561  -9.429  -5.302  1.00  0.00     0.000 C 
BRANCH   2   3
ATOM      3  C   UNL     1     -14.334 -10.538  -6.033  1.00  0.00     0.000 C 
BRANCH   3   4
ATOM      4  C   UNL     1     -15.705 -10.822  -5.400  1.00  0.00     0.000 C 
BRANCH   4   5
ATOM      5  C   UNL     1     -16.747  -9.742  -5.736  1.00  0.00     0.006 C 
BRANCH   5   6
ATOM      6  C   UNL     1     -16.662  -9.290  -7.201  1.00  0.00     0.053 C 
BRANCH   6   7
ATOM      7  C   UNL     1     -16.381  -7.823  -7.314  1.00  0.00     0.041 C 
ATOM      8  O   UNL     1     -16.100  -7.316  -8.432  1.00  0.00    -0.550 OA
ATOM      9  O   UNL     1     -16.403  -7.022  -6.181  1.00  0.00    -0.550 OA
ENDBRANCH   6   7
ENDBRANCH   5   6
ENDBRANCH   4   5
ENDBRANCH   3   4
ENDBRANCH   2   3
ENDBRANCH   1   2
BRANCH   1  10
ATOM     10  C   UNL     1     -11.252  -8.499  -5.756  1.00  0.00     0.000 C 
BRANCH  10  11
ATOM     11  C   UNL     1     -10.207  -9.034  -6.749  1.00  0.00    -0.000 C 
BRANCH  11  12
ATOM     12  C   UNL     1      -8.776  -8.594  -6.393  1.00  0.00    -0.000 C 
BRANCH  12  13
ATOM     13  C   UNL     1      -7.713  -9.629  -6.803  1.00  0.00    -0.000 C 
BRANCH  13  14
ATOM     14  C   UNL     1      -6.255  -9.209  -6.540  1.00  0.00    -0.000 C 
BRANCH  14  15
ATOM     15  C   UNL     1      -5.406  -9.153  -7.818  1.00  0.00    -0.000 C 
BRANCH  15  16
ATOM     16  C   UNL     1      -4.884 -10.546  -8.192  1.00  0.00    -0.003 C 
ATOM     17  C   UNL     1      -3.960 -10.481  -9.404  1.00  0.00     0.004 C 
ENDBRANCH  15  16
ENDBRANCH  14  15
ENDBRANCH  13  14
ENDBRANCH  12  13
ENDBRANCH  11  12
ENDBRANCH  10  11
ENDBRANCH   1  10
TORSDOF 13
ENDMDL
