MODEL 1
REMARK VINA RESULT:    -4.438      0.000      0.000
REMARK INTER + INTRA:          -6.629
REMARK INTER:                  -6.254
REMARK INTRA:                  -0.375
REMARK UNBOUND:                -0.375
REMARK SMILES CCCCCCCCC(=O)[O-]
REMARK SMILES IDX 6 1 7 2 8 3 9 4 10 5 11 6 5 7 4 8 3 9 2 10 1 11
REMARK H PARENT
REMARK Flexibility Score: inf
ROOT
ATOM      1  C   UNL     1      -3.327  37.838  18.335  1.00  0.00     0.000 C 
ENDROOT
BRANCH   1   2
ATOM      2  C   UNL     1      -3.505  37.858  19.860  1.00  0.00     0.006 C 
BRANCH   2   3
ATOM      3  C   UNL     1      -4.982  37.857  20.273  1.00  0.00     0.053 C 
BRANCH   3   4
ATOM      4  C   UNL     1      -5.452  36.486  20.652  1.00  0.00     0.041 C 
ATOM      5  O   UNL     1      -5.921  35.711  19.778  1.00  0.00    -0.550 OA
ATOM      6  O   UNL     1      -5.339  36.052  21.967  1.00  0.00    -0.550 OA
ENDBRANCH   3   4
ENDBRANCH   2   3
ENDBRANCH   1   2
BRANCH   1   7
ATOM      7  C   UNL     1      -1.842  37.858  17.953  1.00  0.00     0.000 C 
BRANCH   7   8
ATOM      8  C   UNL     1      -1.625  37.264  16.553  1.00  0.00    -0.000 C 
BRANCH   8   9
ATOM      9  C   UNL     1      -2.922  36.721  15.932  1.00  0.00    -0.000 C 
BRANCH   9  10
ATOM     10  C   UNL     1      -3.061  37.079  14.446  1.00  0.00    -0.003 C 
ATOM     11  C   UNL     1      -3.883  38.351  14.262  1.00  0.00     0.004 C 
ENDBRANCH   9  10
ENDBRANCH   8   9
ENDBRANCH   7   8
ENDBRANCH   1   7
TORSDOF 7
ENDMDL
MODEL 2
REMARK VINA RESULT:    -4.314      2.042      3.106
REMARK INTER + INTRA:          -6.454
REMARK INTER:                  -6.140
REMARK INTRA:                  -0.314
REMARK UNBOUND:                -0.375
REMARK SMILES CCCCCCCCC(=O)[O-]
REMARK SMILES IDX 6 1 7 2 8 3 9 4 10 5 11 6 5 7 4 8 3 9 2 10 1 11
REMARK H PARENT
REMARK Flexibility Score: inf
ROOT
ATOM      1  C   UNL     1      -4.429  36.040  19.958  1.00  0.00     0.000 C 
ENDROOT
BRANCH   1   2
ATOM      2  C   UNL     1      -4.264  35.970  21.483  1.00  0.00     0.006 C 
BRANCH   2   3
ATOM      3  C   UNL     1      -5.595  36.153  22.222  1.00  0.00     0.053 C 
BRANCH   3   4
ATOM      4  C   UNL     1      -5.547  35.579  23.605  1.00  0.00     0.041 C 
ATOM      5  O   UNL     1      -5.245  36.309  24.585  1.00  0.00    -0.550 OA
ATOM      6  O   UNL     1      -5.869  34.244  23.814  1.00  0.00    -0.550 OA
ENDBRANCH   3   4
ENDBRANCH   2   3
ENDBRANCH   1   2
BRANCH   1   7
ATOM      7  C   UNL     1      -4.171  37.460  19.441  1.00  0.00     0.000 C 
BRANCH   7   8
ATOM      8  C   UNL     1      -2.718  37.884  19.698  1.00  0.00    -0.000 C 
BRANCH   8   9
ATOM      9  C   UNL     1      -1.901  38.018  18.404  1.00  0.00    -0.000 C 
BRANCH   9  10
ATOM     10  C   UNL     1      -2.723  37.688  17.149  1.00  0.00    -0.003 C 
ATOM     11  C   UNL     1      -1.833  37.134  16.040  1.00  0.00     0.004 C 
ENDBRANCH   9  10
ENDBRANCH   8   9
ENDBRANCH   7   8
ENDBRANCH   1   7
TORSDOF 7
ENDMDL
MODEL 3
REMARK VINA RESULT:    -4.253      3.020      6.046
REMARK INTER + INTRA:          -6.369
REMARK INTER:                  -6.130
REMARK INTRA:                  -0.240
REMARK UNBOUND:                -0.375
REMARK SMILES CCCCCCCCC(=O)[O-]
REMARK SMILES IDX 6 1 7 2 8 3 9 4 10 5 11 6 5 7 4 8 3 9 2 10 1 11
REMARK H PARENT
REMARK Flexibility Score: inf
ROOT
ATOM      1  C   UNL     1      -2.759  37.841  19.704  1.00  0.00     0.000 C 
ENDROOT
BRANCH   1   2
ATOM      2  C   UNL     1      -2.186  37.910  18.280  1.00  0.00     0.006 C 
BRANCH   2   3
ATOM      3  C   UNL     1      -3.168  37.374  17.232  1.00  0.00     0.053 C 
BRANCH   3   4
ATOM      4  C   UNL     1      -2.459  36.875  16.010  1.00  0.00     0.041 C 
ATOM      5  O   UNL     1      -1.321  36.347  16.108  1.00  0.00    -0.550 OA
ATOM      6  O   UNL     1      -3.071  36.966  14.766  1.00  0.00    -0.550 OA
ENDBRANCH   3   4
ENDBRANCH   2   3
ENDBRANCH   1   2
BRANCH   1   7
ATOM      7  C   UNL     1      -3.856  36.774  19.804  1.00  0.00     0.000 C 
BRANCH   7   8
ATOM      8  C   UNL     1      -5.012  37.256  20.694  1.00  0.00    -0.000 C 
BRANCH   8   9
ATOM      9  C   UNL     1      -5.750  36.100  21.386  1.00  0.00    -0.000 C 
BRANCH   9  10
ATOM     10  C   UNL     1      -5.914  36.322  22.896  1.00  0.00    -0.003 C 
ATOM     11  C   UNL     1      -6.033  34.994  23.637  1.00  0.00     0.004 C 
ENDBRANCH   9  10
ENDBRANCH   8   9
ENDBRANCH   7   8
ENDBRANCH   1   7
TORSDOF 7
ENDMDL
MODEL 4
REMARK VINA RESULT:    -4.235      2.964      6.327
REMARK INTER + INTRA:          -6.343
REMARK INTER:                  -6.128
REMARK INTRA:                  -0.215
REMARK UNBOUND:                -0.375
REMARK SMILES CCCCCCCCC(=O)[O-]
REMARK SMILES IDX 6 1 7 2 8 3 9 4 10 5 11 6 5 7 4 8 3 9 2 10 1 11
REMARK H PARENT
REMARK Flexibility Score: inf
ROOT
ATOM      1  C   UNL     1      -3.706  37.226  20.039  1.00  0.00     0.000 C 
ENDROOT
BRANCH   1   2
ATOM      2  C   UNL     1      -3.680  37.798  18.614  1.00  0.00     0.006 C 
BRANCH   2   3
ATOM      3  C   UNL     1      -2.268  37.809  18.017  1.00  0.00     0.053 C 
BRANCH   3   4
ATOM      4  C   UNL     1      -2.278  37.458  16.560  1.00  0.00     0.041 C 
ATOM      5  O   UNL     1      -1.565  36.514  16.130  1.00  0.00    -0.550 OA
ATOM      6  O   UNL     1      -3.100  38.155  15.684  1.00  0.00    -0.550 OA
ENDBRANCH   3   4
ENDBRANCH   2   3
ENDBRANCH   1   2
BRANCH   1   7
ATOM      7  C   UNL     1      -5.050  37.505  20.720  1.00  0.00     0.000 C 
BRANCH   7   8
ATOM      8  C   UNL     1      -5.662  36.213  21.282  1.00  0.00    -0.000 C 
BRANCH   8   9
ATOM      9  C   UNL     1      -4.816  35.597  22.407  1.00  0.00    -0.000 C 
BRANCH   9  10
ATOM     10  C   UNL     1      -5.661  35.170  23.616  1.00  0.00    -0.003 C 
ATOM     11  C   UNL     1      -5.899  36.344  24.561  1.00  0.00     0.004 C 
ENDBRANCH   9  10
ENDBRANCH   8   9
ENDBRANCH   7   8
ENDBRANCH   1   7
TORSDOF 7
ENDMDL
MODEL 5
REMARK VINA RESULT:    -4.194      2.344      3.683
REMARK INTER + INTRA:          -6.286
REMARK INTER:                  -5.965
REMARK INTRA:                  -0.321
REMARK UNBOUND:                -0.375
REMARK SMILES CCCCCCCCC(=O)[O-]
REMARK SMILES IDX 6 1 7 2 8 3 9 4 10 5 11 6 5 7 4 8 3 9 2 10 1 11
REMARK H PARENT
REMARK Flexibility Score: inf
ROOT
ATOM      1  C   UNL     1      -5.387  36.397  20.049  1.00  0.00     0.000 C 
ENDROOT
BRANCH   1   2
ATOM      2  C   UNL     1      -6.011  35.798  21.318  1.00  0.00     0.006 C 
BRANCH   2   3
ATOM      3  C   UNL     1      -5.768  36.672  22.554  1.00  0.00     0.053 C 
BRANCH   3   4
ATOM      4  C   UNL     1      -5.608  35.847  23.795  1.00  0.00     0.041 C 
ATOM      5  O   UNL     1      -5.234  36.384  24.870  1.00  0.00    -0.550 OA
ATOM      6  O   UNL     1      -5.904  34.490  23.770  1.00  0.00    -0.550 OA
ENDBRANCH   3   4
ENDBRANCH   2   3
ENDBRANCH   1   2
BRANCH   1   7
ATOM      7  C   UNL     1      -4.758  37.765  20.339  1.00  0.00     0.000 C 
BRANCH   7   8
ATOM      8  C   UNL     1      -3.324  37.838  19.795  1.00  0.00    -0.000 C 
BRANCH   8   9
ATOM      9  C   UNL     1      -3.256  37.638  18.273  1.00  0.00    -0.000 C 
BRANCH   9  10
ATOM     10  C   UNL     1      -1.830  37.779  17.720  1.00  0.00    -0.003 C 
ATOM     11  C   UNL     1      -0.863  38.235  18.809  1.00  0.00     0.004 C 
ENDBRANCH   9  10
ENDBRANCH   8   9
ENDBRANCH   7   8
ENDBRANCH   1   7
TORSDOF 7
ENDMDL
MODEL 6
REMARK VINA RESULT:    -4.164      1.465      2.381
REMARK INTER + INTRA:          -6.244
REMARK INTER:                  -6.017
REMARK INTRA:                  -0.227
REMARK UNBOUND:                -0.375
REMARK SMILES CCCCCCCCC(=O)[O-]
REMARK SMILES IDX 6 1 7 2 8 3 9 4 10 5 11 6 5 7 4 8 3 9 2 10 1 11
REMARK H PARENT
REMARK Flexibility Score: inf
ROOT
ATOM      1  C   UNL     1      -4.832  37.674  19.934  1.00  0.00     0.000 C 
ENDROOT
BRANCH   1   2
ATOM      2  C   UNL     1      -5.359  36.382  20.574  1.00  0.00     0.006 C 
BRANCH   2   3
ATOM      3  C   UNL     1      -4.559  35.981  21.819  1.00  0.00     0.053 C 
BRANCH   3   4
ATOM      4  C   UNL     1      -5.444  35.797  23.014  1.00  0.00     0.041 C 
ATOM      5  O   UNL     1      -6.124  36.760  23.454  1.00  0.00    -0.550 OA
ATOM      6  O   UNL     1      -5.541  34.551  23.620  1.00  0.00    -0.550 OA
ENDBRANCH   3   4
ENDBRANCH   2   3
ENDBRANCH   1   2
BRANCH   1   7
ATOM      7  C   UNL     1      -3.388  37.499  19.450  1.00  0.00     0.000 C 
BRANCH   7   8
ATOM      8  C   UNL     1      -3.258  37.863  17.963  1.00  0.00    -0.000 C 
BRANCH   8   9
ATOM      9  C   UNL     1      -1.886  37.491  17.379  1.00  0.00    -0.000 C 
BRANCH   9  10
ATOM     10  C   UNL     1      -1.994  36.789  16.017  1.00  0.00    -0.003 C 
ATOM     11  C   UNL     1      -3.113  37.393  15.175  1.00  0.00     0.004 C 
ENDBRANCH   9  10
ENDBRANCH   8   9
ENDBRANCH   7   8
ENDBRANCH   1   7
TORSDOF 7
ENDMDL
MODEL 7
REMARK VINA RESULT:    -3.598      2.849      5.928
REMARK INTER + INTRA:          -5.446
REMARK INTER:                  -5.290
REMARK INTRA:                  -0.156
REMARK UNBOUND:                -0.375
REMARK SMILES CCCCCCCCC(=O)[O-]
REMARK SMILES IDX 6 1 7 2 8 3 9 4 10 5 11 6 5 7 4 8 3 9 2 10 1 11
REMARK H PARENT
REMARK Flexibility Score: inf
ROOT
ATOM      1  C   UNL     1      -4.249  36.556  19.266  1.00  0.00     0.000 C 
ENDROOT
BRANCH   1   2
ATOM      2  C   UNL     1      -3.325  36.807  18.065  1.00  0.00     0.006 C 
BRANCH   2   3
ATOM      3  C   UNL     1      -2.600  38.155  18.160  1.00  0.00     0.053 C 
BRANCH   3   4
ATOM      4  C   UNL     1      -1.392  38.074  19.042  1.00  0.00     0.041 C 
ATOM      5  O   UNL     1      -1.505  37.705  20.240  1.00  0.00    -0.550 OA
ATOM      6  O   UNL     1      -0.137  38.376  18.530  1.00  0.00    -0.550 OA
ENDBRANCH   3   4
ENDBRANCH   2   3
ENDBRANCH   1   2
BRANCH   1   7
ATOM      7  C   UNL     1      -4.972  37.843  19.682  1.00  0.00     0.000 C 
BRANCH   7   8
ATOM      8  C   UNL     1      -5.373  37.794  21.164  1.00  0.00    -0.000 C 
BRANCH   8   9
ATOM      9  C   UNL     1      -5.668  36.367  21.651  1.00  0.00    -0.000 C 
BRANCH   9  10
ATOM     10  C   UNL     1      -6.121  36.325  23.118  1.00  0.00    -0.003 C 
ATOM     11  C   UNL     1      -5.823  34.966  23.745  1.00  0.00     0.004 C 
ENDBRANCH   9  10
ENDBRANCH   8   9
ENDBRANCH   7   8
ENDBRANCH   1   7
TORSDOF 7
ENDMDL
MODEL 8
REMARK VINA RESULT:    -3.451      3.114      5.347
REMARK INTER + INTRA:          -5.238
REMARK INTER:                  -4.886
REMARK INTRA:                  -0.352
REMARK UNBOUND:                -0.375
REMARK SMILES CCCCCCCCC(=O)[O-]
REMARK SMILES IDX 6 1 7 2 8 3 9 4 10 5 11 6 5 7 4 8 3 9 2 10 1 11
REMARK H PARENT
REMARK Flexibility Score: inf
ROOT
ATOM      1  C   UNL     1      -2.750  38.249  18.475  1.00  0.00     0.000 C 
ENDROOT
BRANCH   1   2
ATOM      2  C   UNL     1      -2.089  37.251  17.512  1.00  0.00     0.006 C 
BRANCH   2   3
ATOM      3  C   UNL     1      -3.084  36.679  16.495  1.00  0.00     0.053 C 
BRANCH   3   4
ATOM      4  C   UNL     1      -2.965  37.352  15.162  1.00  0.00     0.041 C 
ATOM      5  O   UNL     1      -2.393  36.768  14.205  1.00  0.00    -0.550 OA
ATOM      6  O   UNL     1      -3.515  38.613  14.969  1.00  0.00    -0.550 OA
ENDBRANCH   3   4
ENDBRANCH   2   3
ENDBRANCH   1   2
BRANCH   1   7
ATOM      7  C   UNL     1      -2.762  37.704  19.909  1.00  0.00     0.000 C 
BRANCH   7   8
ATOM      8  C   UNL     1      -3.623  36.436  20.008  1.00  0.00    -0.000 C 
BRANCH   8   9
ATOM      9  C   UNL     1      -4.469  36.392  21.290  1.00  0.00    -0.000 C 
BRANCH   9  10
ATOM     10  C   UNL     1      -5.930  36.006  21.023  1.00  0.00    -0.003 C 
ATOM     11  C   UNL     1      -6.124  35.557  19.577  1.00  0.00     0.004 C 
ENDBRANCH   9  10
ENDBRANCH   8   9
ENDBRANCH   7   8
ENDBRANCH   1   7
TORSDOF 7
ENDMDL
MODEL 9
REMARK VINA RESULT:    -3.245      3.021      5.715
REMARK INTER + INTRA:          -4.948
REMARK INTER:                  -4.721
REMARK INTRA:                  -0.228
REMARK UNBOUND:                -0.375
REMARK SMILES CCCCCCCCC(=O)[O-]
REMARK SMILES IDX 6 1 7 2 8 3 9 4 10 5 11 6 5 7 4 8 3 9 2 10 1 11
REMARK H PARENT
REMARK Flexibility Score: inf
ROOT
ATOM      1  C   UNL     1      -3.234  37.213  19.845  1.00  0.00     0.000 C 
ENDROOT
BRANCH   1   2
ATOM      2  C   UNL     1      -3.479  36.956  18.350  1.00  0.00     0.006 C 
BRANCH   2   3
ATOM      3  C   UNL     1      -2.752  37.970  17.459  1.00  0.00     0.053 C 
BRANCH   3   4
ATOM      4  C   UNL     1      -2.487  37.419  16.092  1.00  0.00     0.041 C 
ATOM      5  O   UNL     1      -1.613  36.529  15.924  1.00  0.00    -0.550 OA
ATOM      6  O   UNL     1      -3.231  37.866  15.007  1.00  0.00    -0.550 OA
ENDBRANCH   3   4
ENDBRANCH   2   3
ENDBRANCH   1   2
BRANCH   1   7
ATOM      7  C   UNL     1      -4.307  36.533  20.703  1.00  0.00     0.000 C 
BRANCH   7   8
ATOM      8  C   UNL     1      -5.389  37.537  21.128  1.00  0.00    -0.000 C 
BRANCH   8   9
ATOM      9  C   UNL     1      -5.135  38.950  20.581  1.00  0.00    -0.000 C 
BRANCH   9  10
ATOM     10  C   UNL     1      -6.050  40.005  21.219  1.00  0.00    -0.003 C 
ATOM     11  C   UNL     1      -5.393  40.632  22.445  1.00  0.00     0.004 C 
ENDBRANCH   9  10
ENDBRANCH   8   9
ENDBRANCH   7   8
ENDBRANCH   1   7
TORSDOF 7
ENDMDL
