MODEL 1
REMARK VINA RESULT:    -0.966      0.000      0.000
REMARK INTER + INTRA:          -0.966
REMARK INTER:                  -0.966
REMARK INTRA:                   0.000
REMARK UNBOUND:                 0.000
REMARK SMILES CC(=O)[O-]
REMARK SMILES IDX 1 1 2 2 3 3 4 4
REMARK H PARENT
REMARK Flexibility Score: inf
ROOT
ATOM      1  C   UNL     1     104.268 104.186 102.314  1.00  0.00     0.063 C 
ATOM      2  C   UNL     1     103.355 103.018 102.467  1.00  0.00     0.038 C 
ATOM      3  O   UNL     1     102.108 103.189 102.487  1.00  0.00    -0.550 OA
ATOM      4  O   UNL     1     103.875 101.732 102.532  1.00  0.00    -0.550 OA
ENDROOT
TORSDOF 0
ENDMDL
MODEL 2
REMARK VINA RESULT:    -0.961      2.842      3.470
REMARK INTER + INTRA:          -0.961
REMARK INTER:                  -0.961
REMARK INTRA:                   0.000
REMARK UNBOUND:                 0.000
REMARK SMILES CC(=O)[O-]
REMARK SMILES IDX 1 1 2 2 3 3 4 4
REMARK H PARENT
REMARK Flexibility Score: inf
ROOT
ATOM      1  C   UNL     1     103.728 104.092 102.315  1.00  0.00     0.063 C 
ATOM      2  C   UNL     1     104.637 105.264 102.465  1.00  0.00     0.038 C 
ATOM      3  O   UNL     1     105.884 105.097 102.497  1.00  0.00    -0.550 OA
ATOM      4  O   UNL     1     104.113 106.550 102.514  1.00  0.00    -0.550 OA
ENDROOT
TORSDOF 0
ENDMDL
MODEL 3
REMARK VINA RESULT:    -0.959      4.760      4.760
REMARK INTER + INTRA:          -0.959
REMARK INTER:                  -0.959
REMARK INTRA:                   0.000
REMARK UNBOUND:                 0.000
REMARK SMILES CC(=O)[O-]
REMARK SMILES IDX 1 1 2 2 3 3 4 4
REMARK H PARENT
REMARK Flexibility Score: inf
ROOT
ATOM      1  C   UNL     1     104.262 104.219 107.120  1.00  0.00     0.063 C 
ATOM      2  C   UNL     1     103.351 103.045 107.226  1.00  0.00     0.038 C 
ATOM      3  O   UNL     1     102.103 103.211 107.232  1.00  0.00    -0.550 OA
ATOM      4  O   UNL     1     103.874 101.758 107.262  1.00  0.00    -0.550 OA
ENDROOT
TORSDOF 0
ENDMDL
MODEL 4
REMARK VINA RESULT:    -0.957      5.555      5.880
REMARK INTER + INTRA:          -0.957
REMARK INTER:                  -0.957
REMARK INTRA:                   0.000
REMARK UNBOUND:                 0.000
REMARK SMILES CC(=O)[O-]
REMARK SMILES IDX 1 1 2 2 3 3 4 4
REMARK H PARENT
REMARK Flexibility Score: inf
ROOT
ATOM      1  C   UNL     1     103.726 104.058 107.117  1.00  0.00     0.063 C 
ATOM      2  C   UNL     1     104.643 105.228 107.228  1.00  0.00     0.038 C 
ATOM      3  O   UNL     1     105.890 105.056 107.233  1.00  0.00    -0.550 OA
ATOM      4  O   UNL     1     104.125 106.517 107.269  1.00  0.00    -0.550 OA
ENDROOT
TORSDOF 0
ENDMDL
MODEL 5
REMARK VINA RESULT:    -0.896      4.730      4.730
REMARK INTER + INTRA:          -0.896
REMARK INTER:                  -0.896
REMARK INTRA:                   0.000
REMARK UNBOUND:                 0.000
REMARK SMILES CC(=O)[O-]
REMARK SMILES IDX 1 1 2 2 3 3 4 4
REMARK H PARENT
REMARK Flexibility Score: inf
ROOT
ATOM      1  C   UNL     1     104.266 104.212  97.657  1.00  0.00     0.063 C 
ATOM      2  C   UNL     1     103.371 103.022  97.736  1.00  0.00     0.038 C 
ATOM      3  O   UNL     1     102.121 103.170  97.729  1.00  0.00    -0.550 OA
ATOM      4  O   UNL     1     103.913 101.744  97.762  1.00  0.00    -0.550 OA
ENDROOT
TORSDOF 0
ENDMDL
MODEL 6
REMARK VINA RESULT:    -0.893      5.533      5.860
REMARK INTER + INTRA:          -0.893
REMARK INTER:                  -0.893
REMARK INTRA:                   0.000
REMARK UNBOUND:                 0.000
REMARK SMILES CC(=O)[O-]
REMARK SMILES IDX 1 1 2 2 3 3 4 4
REMARK H PARENT
REMARK Flexibility Score: inf
ROOT
ATOM      1  C   UNL     1     103.744 104.068  97.636  1.00  0.00     0.063 C 
ATOM      2  C   UNL     1     104.642 105.253  97.740  1.00  0.00     0.038 C 
ATOM      3  O   UNL     1     105.891 105.102  97.742  1.00  0.00    -0.550 OA
ATOM      4  O   UNL     1     104.103 106.533  97.779  1.00  0.00    -0.550 OA
ENDROOT
TORSDOF 0
ENDMDL
MODEL 7
REMARK VINA RESULT:    -0.860      4.938      5.201
REMARK INTER + INTRA:          -0.860
REMARK INTER:                  -0.860
REMARK INTRA:                   0.000
REMARK UNBOUND:                 0.000
REMARK SMILES CC(=O)[O-]
REMARK SMILES IDX 1 1 2 2 3 3 4 4
REMARK H PARENT
REMARK Flexibility Score: inf
ROOT
ATOM      1  C   UNL     1     103.737 101.704 107.263  1.00  0.00     0.063 C 
ATOM      2  C   UNL     1     103.270 103.119 107.211  1.00  0.00     0.038 C 
ATOM      3  O   UNL     1     104.104 104.057 107.124  1.00  0.00    -0.550 OA
ATOM      4  O   UNL     1     101.910 103.403 107.204  1.00  0.00    -0.550 OA
ENDROOT
TORSDOF 0
ENDMDL
MODEL 8
REMARK VINA RESULT:    -0.855      5.420      5.508
REMARK INTER + INTRA:          -0.855
REMARK INTER:                  -0.855
REMARK INTRA:                   0.000
REMARK UNBOUND:                 0.000
REMARK SMILES CC(=O)[O-]
REMARK SMILES IDX 1 1 2 2 3 3 4 4
REMARK H PARENT
REMARK Flexibility Score: inf
ROOT
ATOM      1  C   UNL     1     104.274 106.568 107.274  1.00  0.00     0.063 C 
ATOM      2  C   UNL     1     104.735 105.152 107.210  1.00  0.00     0.038 C 
ATOM      3  O   UNL     1     103.896 104.215 107.167  1.00  0.00    -0.550 OA
ATOM      4  O   UNL     1     106.092 104.864 107.141  1.00  0.00    -0.550 OA
ENDROOT
TORSDOF 0
ENDMDL
MODEL 9
REMARK VINA RESULT:    -0.828      9.506      9.506
REMARK INTER + INTRA:          -0.828
REMARK INTER:                  -0.828
REMARK INTRA:                   0.000
REMARK UNBOUND:                 0.000
REMARK SMILES CC(=O)[O-]
REMARK SMILES IDX 1 1 2 2 3 3 4 4
REMARK H PARENT
REMARK Flexibility Score: inf
ROOT
ATOM      1  C   UNL     1     104.259 104.209 111.854  1.00  0.00     0.063 C 
ATOM      2  C   UNL     1     103.330 103.049 111.972  1.00  0.00     0.038 C 
ATOM      3  O   UNL     1     102.085 103.235 111.984  1.00  0.00    -0.550 OA
ATOM      4  O   UNL     1     103.833 101.755 112.012  1.00  0.00    -0.550 OA
ENDROOT
TORSDOF 0
ENDMDL
