MODEL 1
REMARK VINA RESULT:    -4.882      0.000      0.000
REMARK INTER + INTRA:          -4.882
REMARK INTER:                  -4.882
REMARK INTRA:                   0.000
REMARK UNBOUND:                 0.000
REMARK SMILES CC1=CC=CC(C)(C)[C@@H]1C
REMARK SMILES IDX 10 1 9 2 2 3 3 4 4 5 5 6 6 7 7 8 8 9 1 10
REMARK H PARENT
REMARK Flexibility Score: inf
ROOT
ATOM      1  C   UNL     1      -1.371   1.132  11.634  1.00  0.00     0.013 C 
ATOM      2  C   UNL     1      -0.766   1.193  13.050  1.00  0.00     0.021 C 
ATOM      3  C   UNL     1      -1.677   0.421  13.993  1.00  0.00    -0.070 C 
ATOM      4  C   UNL     1      -2.682   1.053  14.621  1.00  0.00    -0.001 C 
ATOM      5  C   UNL     1      -2.843   2.514  14.507  1.00  0.00    -0.004 C 
ATOM      6  C   UNL     1      -1.873   3.270  13.980  1.00  0.00    -0.020 C 
ATOM      7  C   UNL     1      -0.544   2.659  13.574  1.00  0.00    -0.011 C 
ATOM      8  C   UNL     1       0.373   2.624  14.818  1.00  0.00     0.016 C 
ATOM      9  C   UNL     1       0.130   3.554  12.512  1.00  0.00     0.016 C 
ATOM     10  C   UNL     1      -1.515  -1.063  14.160  1.00  0.00     0.040 C 
ENDROOT
TORSDOF 0
ENDMDL
MODEL 2
REMARK VINA RESULT:    -4.306      1.230      3.391
REMARK INTER + INTRA:          -4.306
REMARK INTER:                  -4.306
REMARK INTRA:                   0.000
REMARK UNBOUND:                 0.000
REMARK SMILES CC1=CC=CC(C)(C)[C@@H]1C
REMARK SMILES IDX 10 1 9 2 2 3 3 4 4 5 5 6 6 7 7 8 8 9 1 10
REMARK H PARENT
REMARK Flexibility Score: inf
ROOT
ATOM      1  C   UNL     1      -0.653   1.265  11.911  1.00  0.00     0.013 C 
ATOM      2  C   UNL     1      -1.619   2.165  12.706  1.00  0.00     0.021 C 
ATOM      3  C   UNL     1      -1.227   3.616  12.468  1.00  0.00    -0.070 C 
ATOM      4  C   UNL     1      -0.336   4.210  13.278  1.00  0.00    -0.001 C 
ATOM      5  C   UNL     1       0.178   3.518  14.473  1.00  0.00    -0.004 C 
ATOM      6  C   UNL     1      -0.395   2.391  14.910  1.00  0.00    -0.020 C 
ATOM      7  C   UNL     1      -1.648   1.847  14.246  1.00  0.00    -0.011 C 
ATOM      8  C   UNL     1      -2.873   2.535  14.889  1.00  0.00     0.016 C 
ATOM      9  C   UNL     1      -1.757   0.331  14.519  1.00  0.00     0.016 C 
ATOM     10  C   UNL     1      -1.764   4.361  11.279  1.00  0.00     0.040 C 
ENDROOT
TORSDOF 0
ENDMDL
MODEL 3
REMARK VINA RESULT:    -4.249      1.330      3.781
REMARK INTER + INTRA:          -4.249
REMARK INTER:                  -4.249
REMARK INTRA:                   0.000
REMARK UNBOUND:                 0.000
REMARK SMILES CC1=CC=CC(C)(C)[C@@H]1C
REMARK SMILES IDX 10 1 9 2 2 3 3 4 4 5 5 6 6 7 7 8 8 9 1 10
REMARK H PARENT
REMARK Flexibility Score: inf
ROOT
ATOM      1  C   UNL     1      -2.932   4.373  12.907  1.00  0.00     0.013 C 
ATOM      2  C   UNL     1      -1.654   4.024  13.695  1.00  0.00     0.021 C 
ATOM      3  C   UNL     1      -0.460   4.183  12.764  1.00  0.00    -0.070 C 
ATOM      4  C   UNL     1      -0.042   3.141  12.028  1.00  0.00    -0.001 C 
ATOM      5  C   UNL     1      -0.644   1.806  12.197  1.00  0.00    -0.004 C 
ATOM      6  C   UNL     1      -1.445   1.544  13.237  1.00  0.00    -0.020 C 
ATOM      7  C   UNL     1      -1.678   2.581  14.320  1.00  0.00    -0.011 C 
ATOM      8  C   UNL     1      -0.543   2.456  15.362  1.00  0.00     0.016 C 
ATOM      9  C   UNL     1      -3.014   2.286  15.035  1.00  0.00     0.016 C 
ATOM     10  C   UNL     1       0.199   5.522  12.598  1.00  0.00     0.040 C 
ENDROOT
TORSDOF 0
ENDMDL
MODEL 4
REMARK VINA RESULT:    -4.223      1.492      2.652
REMARK INTER + INTRA:          -4.223
REMARK INTER:                  -4.223
REMARK INTRA:                   0.000
REMARK UNBOUND:                 0.000
REMARK SMILES CC1=CC=CC(C)(C)[C@@H]1C
REMARK SMILES IDX 10 1 9 2 2 3 3 4 4 5 5 6 6 7 7 8 8 9 1 10
REMARK H PARENT
REMARK Flexibility Score: inf
ROOT
ATOM      1  C   UNL     1      -2.778   4.289  13.032  1.00  0.00     0.013 C 
ATOM      2  C   UNL     1      -1.316   3.806  13.071  1.00  0.00     0.021 C 
ATOM      3  C   UNL     1      -1.272   2.371  12.566  1.00  0.00    -0.070 C 
ATOM      4  C   UNL     1      -1.414   1.352  13.429  1.00  0.00    -0.001 C 
ATOM      5  C   UNL     1      -1.488   1.597  14.881  1.00  0.00    -0.004 C 
ATOM      6  C   UNL     1      -1.183   2.796  15.388  1.00  0.00    -0.020 C 
ATOM      7  C   UNL     1      -0.660   3.908  14.497  1.00  0.00    -0.011 C 
ATOM      8  C   UNL     1       0.872   3.745  14.369  1.00  0.00     0.016 C 
ATOM      9  C   UNL     1      -0.939   5.273  15.162  1.00  0.00     0.016 C 
ATOM     10  C   UNL     1      -1.160   2.088  11.095  1.00  0.00     0.040 C 
ENDROOT
TORSDOF 0
ENDMDL
MODEL 5
REMARK VINA RESULT:    -4.211      1.143      2.787
REMARK INTER + INTRA:          -4.211
REMARK INTER:                  -4.211
REMARK INTRA:                   0.000
REMARK UNBOUND:                 0.000
REMARK SMILES CC1=CC=CC(C)(C)[C@@H]1C
REMARK SMILES IDX 10 1 9 2 2 3 3 4 4 5 5 6 6 7 7 8 8 9 1 10
REMARK H PARENT
REMARK Flexibility Score: inf
ROOT
ATOM      1  C   UNL     1      -0.251   2.491  15.411  1.00  0.00     0.013 C 
ATOM      2  C   UNL     1      -1.459   2.619  14.464  1.00  0.00     0.021 C 
ATOM      3  C   UNL     1      -1.518   1.374  13.591  1.00  0.00    -0.070 C 
ATOM      4  C   UNL     1      -0.864   1.347  12.418  1.00  0.00    -0.001 C 
ATOM      5  C   UNL     1      -0.191   2.551  11.901  1.00  0.00    -0.004 C 
ATOM      6  C   UNL     1      -0.406   3.748  12.458  1.00  0.00    -0.020 C 
ATOM      7  C   UNL     1      -1.422   3.915  13.573  1.00  0.00    -0.011 C 
ATOM      8  C   UNL     1      -2.811   4.136  12.933  1.00  0.00     0.016 C 
ATOM      9  C   UNL     1      -1.074   5.172  14.400  1.00  0.00     0.016 C 
ATOM     10  C   UNL     1      -2.230   0.142  14.074  1.00  0.00     0.040 C 
ENDROOT
TORSDOF 0
ENDMDL
MODEL 6
REMARK VINA RESULT:    -4.184      2.000      3.146
REMARK INTER + INTRA:          -4.184
REMARK INTER:                  -4.184
REMARK INTRA:                   0.000
REMARK UNBOUND:                 0.000
REMARK SMILES CC1=CC=CC(C)(C)[C@@H]1C
REMARK SMILES IDX 10 1 9 2 2 3 3 4 4 5 5 6 6 7 7 8 8 9 1 10
REMARK H PARENT
REMARK Flexibility Score: inf
ROOT
ATOM      1  C   UNL     1      -3.144   4.872  12.745  1.00  0.00     0.013 C 
ATOM      2  C   UNL     1      -2.128   3.721  12.871  1.00  0.00     0.021 C 
ATOM      3  C   UNL     1      -1.977   3.375  14.346  1.00  0.00    -0.070 C 
ATOM      4  C   UNL     1      -1.049   3.999  15.088  1.00  0.00    -0.001 C 
ATOM      5  C   UNL     1      -0.086   4.928  14.470  1.00  0.00    -0.004 C 
ATOM      6  C   UNL     1       0.042   4.994  13.140  1.00  0.00    -0.020 C 
ATOM      7  C   UNL     1      -0.727   4.049  12.236  1.00  0.00    -0.011 C 
ATOM      8  C   UNL     1       0.089   2.744  12.094  1.00  0.00     0.016 C 
ATOM      9  C   UNL     1      -0.864   4.679  10.833  1.00  0.00     0.016 C 
ATOM     10  C   UNL     1      -2.920   2.403  14.996  1.00  0.00     0.040 C 
ENDROOT
TORSDOF 0
ENDMDL
MODEL 7
REMARK VINA RESULT:    -4.053      1.789      3.510
REMARK INTER + INTRA:          -4.053
REMARK INTER:                  -4.053
REMARK INTRA:                   0.000
REMARK UNBOUND:                 0.000
REMARK SMILES CC1=CC=CC(C)(C)[C@@H]1C
REMARK SMILES IDX 10 1 9 2 2 3 3 4 4 5 5 6 6 7 7 8 8 9 1 10
REMARK H PARENT
REMARK Flexibility Score: inf
ROOT
ATOM      1  C   UNL     1       0.507   4.513  13.122  1.00  0.00     0.013 C 
ATOM      2  C   UNL     1      -1.005   4.309  12.900  1.00  0.00     0.021 C 
ATOM      3  C   UNL     1      -1.429   3.045  13.634  1.00  0.00    -0.070 C 
ATOM      4  C   UNL     1      -1.387   1.859  13.005  1.00  0.00    -0.001 C 
ATOM      5  C   UNL     1      -1.053   1.776  11.572  1.00  0.00    -0.004 C 
ATOM      6  C   UNL     1      -1.015   2.877  10.813  1.00  0.00    -0.020 C 
ATOM      7  C   UNL     1      -1.409   4.227  11.382  1.00  0.00    -0.011 C 
ATOM      8  C   UNL     1      -2.942   4.378  11.253  1.00  0.00     0.016 C 
ATOM      9  C   UNL     1      -0.749   5.348  10.549  1.00  0.00     0.016 C 
ATOM     10  C   UNL     1      -1.812   3.103  15.085  1.00  0.00     0.040 C 
ENDROOT
TORSDOF 0
ENDMDL
MODEL 8
REMARK VINA RESULT:    -4.033      1.909      3.808
REMARK INTER + INTRA:          -4.033
REMARK INTER:                  -4.033
REMARK INTRA:                   0.000
REMARK UNBOUND:                 0.000
REMARK SMILES CC1=CC=CC(C)(C)[C@@H]1C
REMARK SMILES IDX 10 1 9 2 2 3 3 4 4 5 5 6 6 7 7 8 8 9 1 10
REMARK H PARENT
REMARK Flexibility Score: inf
ROOT
ATOM      1  C   UNL     1      -2.470   2.839  14.295  1.00  0.00     0.013 C 
ATOM      2  C   UNL     1      -1.653   4.001  13.697  1.00  0.00     0.021 C 
ATOM      3  C   UNL     1      -2.339   4.459  12.418  1.00  0.00    -0.070 C 
ATOM      4  C   UNL     1      -2.010   3.897  11.244  1.00  0.00    -0.001 C 
ATOM      5  C   UNL     1      -0.904   2.927  11.154  1.00  0.00    -0.004 C 
ATOM      6  C   UNL     1      -0.057   2.760  12.175  1.00  0.00    -0.020 C 
ATOM      7  C   UNL     1      -0.151   3.631  13.415  1.00  0.00    -0.011 C 
ATOM      8  C   UNL     1       0.656   4.924  13.160  1.00  0.00     0.016 C 
ATOM      9  C   UNL     1       0.495   2.895  14.609  1.00  0.00     0.016 C 
ATOM     10  C   UNL     1      -3.445   5.475  12.472  1.00  0.00     0.040 C 
ENDROOT
TORSDOF 0
ENDMDL
MODEL 9
REMARK VINA RESULT:    -3.889      2.285      4.019
REMARK INTER + INTRA:          -3.889
REMARK INTER:                  -3.889
REMARK INTRA:                   0.000
REMARK UNBOUND:                 0.000
REMARK SMILES CC1=CC=CC(C)(C)[C@@H]1C
REMARK SMILES IDX 10 1 9 2 2 3 3 4 4 5 5 6 6 7 7 8 8 9 1 10
REMARK H PARENT
REMARK Flexibility Score: inf
ROOT
ATOM      1  C   UNL     1      -0.032   2.405  13.377  1.00  0.00     0.013 C 
ATOM      2  C   UNL     1       0.068   3.672  12.505  1.00  0.00     0.021 C 
ATOM      3  C   UNL     1       0.148   4.881  13.425  1.00  0.00    -0.070 C 
ATOM      4  C   UNL     1      -0.978   5.495  13.824  1.00  0.00    -0.001 C 
ATOM      5  C   UNL     1      -2.289   5.093  13.284  1.00  0.00    -0.004 C 
ATOM      6  C   UNL     1      -2.373   4.280  12.225  1.00  0.00    -0.020 C 
ATOM      7  C   UNL     1      -1.123   3.829  11.490  1.00  0.00    -0.011 C 
ATOM      8  C   UNL     1      -0.764   4.905  10.441  1.00  0.00     0.016 C 
ATOM      9  C   UNL     1      -1.417   2.512  10.739  1.00  0.00     0.016 C 
ATOM     10  C   UNL     1       1.474   5.339  13.962  1.00  0.00     0.040 C 
ENDROOT
TORSDOF 0
ENDMDL
