MODEL 1
REMARK VINA RESULT:    -3.944      0.000      0.000
REMARK INTER + INTRA:          -4.059
REMARK INTER:                  -4.059
REMARK INTRA:                   0.000
REMARK UNBOUND:                 0.000
REMARK SMILES Cc1ccccc1O
REMARK SMILES IDX 1 1 2 2 3 3 4 4 5 5 6 6 7 7 8 8
REMARK H PARENT 8 9
REMARK Flexibility Score: inf
ROOT
ATOM      1  C   UNL     1     171.228 177.609 151.960  1.00  0.00     0.048 C 
ATOM      2  C   UNL     1     172.714 177.788 152.086  1.00  0.00    -0.009 A 
ATOM      3  C   UNL     1     173.528 177.792 150.940  1.00  0.00     0.007 A 
ATOM      4  C   UNL     1     174.911 177.959 151.058  1.00  0.00     0.001 A 
ATOM      5  C   UNL     1     175.492 178.125 152.317  1.00  0.00     0.004 A 
ATOM      6  C   UNL     1     174.693 178.123 153.462  1.00  0.00     0.046 A 
ATOM      7  C   UNL     1     173.303 177.956 153.354  1.00  0.00     0.118 A 
ENDROOT
BRANCH   7   8
ATOM      8  O   UNL     1     172.509 177.955 154.501  1.00  0.00    -0.508 OA
ATOM      9  H   UNL     1     172.804 177.488 155.351  1.00  0.00     0.293 HD
ENDBRANCH   7   8
TORSDOF 1
ENDMDL
MODEL 2
REMARK VINA RESULT:    -3.867     13.026     13.411
REMARK INTER + INTRA:          -3.980
REMARK INTER:                  -3.980
REMARK INTRA:                   0.000
REMARK UNBOUND:                 0.000
REMARK SMILES Cc1ccccc1O
REMARK SMILES IDX 1 1 2 2 3 3 4 4 5 5 6 6 7 7 8 8
REMARK H PARENT 8 9
REMARK Flexibility Score: inf
ROOT
ATOM      1  C   UNL     1     160.389 178.123 154.394  1.00  0.00     0.048 C 
ATOM      2  C   UNL     1     160.425 177.417 153.069  1.00  0.00    -0.009 A 
ATOM      3  C   UNL     1     160.755 178.121 151.899  1.00  0.00     0.007 A 
ATOM      4  C   UNL     1     160.790 177.463 150.665  1.00  0.00     0.001 A 
ATOM      5  C   UNL     1     160.498 176.100 150.590  1.00  0.00     0.004 A 
ATOM      6  C   UNL     1     160.169 175.390 151.747  1.00  0.00     0.046 A 
ATOM      7  C   UNL     1     160.132 176.042 152.990  1.00  0.00     0.118 A 
ENDROOT
BRANCH   7   8
ATOM      8  O   UNL     1     159.804 175.328 154.143  1.00  0.00    -0.508 OA
ATOM      9  H   UNL     1     160.303 175.468 155.014  1.00  0.00     0.293 HD
ENDBRANCH   7   8
TORSDOF 1
ENDMDL
MODEL 3
REMARK VINA RESULT:    -3.830     12.941     13.396
REMARK INTER + INTRA:          -3.942
REMARK INTER:                  -3.942
REMARK INTRA:                   0.000
REMARK UNBOUND:                 0.000
REMARK SMILES Cc1ccccc1O
REMARK SMILES IDX 1 1 2 2 3 3 4 4 5 5 6 6 7 7 8 8
REMARK H PARENT 8 9
REMARK Flexibility Score: inf
ROOT
ATOM      1  C   UNL     1     159.798 173.946 151.884  1.00  0.00     0.048 C 
ATOM      2  C   UNL     1     160.167 175.402 151.867  1.00  0.00    -0.009 A 
ATOM      3  C   UNL     1     160.495 176.036 150.657  1.00  0.00     0.007 A 
ATOM      4  C   UNL     1     160.839 177.392 150.641  1.00  0.00     0.001 A 
ATOM      5  C   UNL     1     160.856 178.124 151.830  1.00  0.00     0.004 A 
ATOM      6  C   UNL     1     160.532 177.503 153.038  1.00  0.00     0.046 A 
ATOM      7  C   UNL     1     160.186 176.143 153.064  1.00  0.00     0.118 A 
ENDROOT
BRANCH   7   8
ATOM      8  O   UNL     1     159.862 175.528 154.274  1.00  0.00    -0.508 OA
ATOM      9  H   UNL     1     158.900 175.354 154.540  1.00  0.00     0.293 HD
ENDBRANCH   7   8
TORSDOF 1
ENDMDL
MODEL 4
REMARK VINA RESULT:    -3.770      9.550     11.798
REMARK INTER + INTRA:          -3.880
REMARK INTER:                  -3.880
REMARK INTRA:                   0.000
REMARK UNBOUND:                 0.000
REMARK SMILES Cc1ccccc1O
REMARK SMILES IDX 1 1 2 2 3 3 4 4 5 5 6 6 7 7 8 8
REMARK H PARENT 8 9
REMARK Flexibility Score: inf
ROOT
ATOM      1  C   UNL     1     164.284 177.715 151.194  1.00  0.00     0.048 C 
ATOM      2  C   UNL     1     162.842 177.561 151.583  1.00  0.00    -0.009 A 
ATOM      3  C   UNL     1     161.882 177.206 150.620  1.00  0.00     0.007 A 
ATOM      4  C   UNL     1     160.539 177.062 150.982  1.00  0.00     0.001 A 
ATOM      5  C   UNL     1     160.144 177.270 152.305  1.00  0.00     0.004 A 
ATOM      6  C   UNL     1     161.090 177.624 153.270  1.00  0.00     0.046 A 
ATOM      7  C   UNL     1     162.440 177.770 152.916  1.00  0.00     0.118 A 
ENDROOT
BRANCH   7   8
ATOM      8  O   UNL     1     163.381 178.122 153.884  1.00  0.00    -0.508 OA
ATOM      9  H   UNL     1     163.685 179.082 154.005  1.00  0.00     0.293 HD
ENDBRANCH   7   8
TORSDOF 1
ENDMDL
MODEL 5
REMARK VINA RESULT:    -3.685      2.402      3.166
REMARK INTER + INTRA:          -3.793
REMARK INTER:                  -3.793
REMARK INTRA:                   0.000
REMARK UNBOUND:                 0.000
REMARK SMILES Cc1ccccc1O
REMARK SMILES IDX 1 1 2 2 3 3 4 4 5 5 6 6 7 7 8 8
REMARK H PARENT 8 9
REMARK Flexibility Score: inf
ROOT
ATOM      1  C   UNL     1     176.245 174.602 151.260  1.00  0.00     0.048 C 
ATOM      2  C   UNL     1     175.470 175.830 151.644  1.00  0.00    -0.009 A 
ATOM      3  C   UNL     1     174.729 176.531 150.678  1.00  0.00     0.007 A 
ATOM      4  C   UNL     1     174.007 177.674 151.035  1.00  0.00     0.001 A 
ATOM      5  C   UNL     1     174.018 178.125 152.357  1.00  0.00     0.004 A 
ATOM      6  C   UNL     1     174.751 177.435 153.324  1.00  0.00     0.046 A 
ATOM      7  C   UNL     1     175.479 176.287 152.975  1.00  0.00     0.118 A 
ENDROOT
BRANCH   7   8
ATOM      8  O   UNL     1     176.210 175.601 153.946  1.00  0.00    -0.508 OA
ATOM      9  H   UNL     1     175.869 174.739 154.357  1.00  0.00     0.293 HD
ENDBRANCH   7   8
TORSDOF 1
ENDMDL
MODEL 6
REMARK VINA RESULT:    -3.618     10.635     11.887
REMARK INTER + INTRA:          -3.724
REMARK INTER:                  -3.724
REMARK INTRA:                   0.000
REMARK UNBOUND:                 0.000
REMARK SMILES Cc1ccccc1O
REMARK SMILES IDX 1 1 2 2 3 3 4 4 5 5 6 6 7 7 8 8
REMARK H PARENT 8 9
REMARK Flexibility Score: inf
ROOT
ATOM      1  C   UNL     1     161.987 178.125 154.810  1.00  0.00     0.048 C 
ATOM      2  C   UNL     1     161.798 177.861 153.343  1.00  0.00    -0.009 A 
ATOM      3  C   UNL     1     160.505 177.766 152.801  1.00  0.00     0.007 A 
ATOM      4  C   UNL     1     160.329 177.521 151.436  1.00  0.00     0.001 A 
ATOM      5  C   UNL     1     161.439 177.371 150.602  1.00  0.00     0.004 A 
ATOM      6  C   UNL     1     162.728 177.464 151.130  1.00  0.00     0.046 A 
ATOM      7  C   UNL     1     162.915 177.710 152.500  1.00  0.00     0.118 A 
ENDROOT
BRANCH   7   8
ATOM      8  O   UNL     1     164.205 177.803 153.023  1.00  0.00    -0.508 OA
ATOM      9  H   UNL     1     164.976 178.167 152.474  1.00  0.00     0.293 HD
ENDBRANCH   7   8
TORSDOF 1
ENDMDL
MODEL 7
REMARK VINA RESULT:    -3.608     11.100     12.270
REMARK INTER + INTRA:          -3.713
REMARK INTER:                  -3.713
REMARK INTRA:                   0.000
REMARK UNBOUND:                 0.000
REMARK SMILES Cc1ccccc1O
REMARK SMILES IDX 1 1 2 2 3 3 4 4 5 5 6 6 7 7 8 8
REMARK H PARENT 8 9
REMARK Flexibility Score: inf
ROOT
ATOM      1  C   UNL     1     162.949 177.759 154.494  1.00  0.00     0.048 C 
ATOM      2  C   UNL     1     162.209 177.690 153.189  1.00  0.00    -0.009 A 
ATOM      3  C   UNL     1     162.903 177.439 151.993  1.00  0.00     0.007 A 
ATOM      4  C   UNL     1     162.214 177.375 150.777  1.00  0.00     0.001 A 
ATOM      5  C   UNL     1     160.830 177.559 150.746  1.00  0.00     0.004 A 
ATOM      6  C   UNL     1     160.131 177.809 151.929  1.00  0.00     0.046 A 
ATOM      7  C   UNL     1     160.814 177.875 153.153  1.00  0.00     0.118 A 
ENDROOT
BRANCH   7   8
ATOM      8  O   UNL     1     160.110 178.124 154.332  1.00  0.00    -0.508 OA
ATOM      9  H   UNL     1     160.586 178.379 155.190  1.00  0.00     0.293 HD
ENDBRANCH   7   8
TORSDOF 1
ENDMDL
MODEL 8
REMARK VINA RESULT:    -3.542     22.300     22.976
REMARK INTER + INTRA:          -3.646
REMARK INTER:                  -3.646
REMARK INTRA:                   0.000
REMARK UNBOUND:                 0.000
REMARK SMILES Cc1ccccc1O
REMARK SMILES IDX 1 1 2 2 3 3 4 4 5 5 6 6 7 7 8 8
REMARK H PARENT 8 9
REMARK Flexibility Score: inf
ROOT
ATOM      1  C   UNL     1     177.740 158.460 166.864  1.00  0.00     0.048 C 
ATOM      2  C   UNL     1     176.724 159.046 165.925  1.00  0.00    -0.009 A 
ATOM      3  C   UNL     1     175.729 159.912 166.409  1.00  0.00     0.007 A 
ATOM      4  C   UNL     1     174.783 160.459 165.536  1.00  0.00     0.001 A 
ATOM      5  C   UNL     1     174.824 160.147 164.175  1.00  0.00     0.004 A 
ATOM      6  C   UNL     1     175.809 159.287 163.684  1.00  0.00     0.046 A 
ATOM      7  C   UNL     1     176.762 158.734 164.553  1.00  0.00     0.118 A 
ENDROOT
BRANCH   7   8
ATOM      8  O   UNL     1     177.744 157.876 164.057  1.00  0.00    -0.508 OA
ATOM      9  H   UNL     1     178.262 157.253 164.666  1.00  0.00     0.293 HD
ENDBRANCH   7   8
TORSDOF 1
ENDMDL
