MODEL 1
REMARK VINA RESULT:    -3.605      0.000      0.000
REMARK INTER + INTRA:          -4.345
REMARK INTER:                  -4.343
REMARK INTRA:                  -0.002
REMARK UNBOUND:                -0.002
REMARK SMILES OCC(O)CO
REMARK SMILES IDX 3 1 5 2 6 3 2 5 1 6 4 8
REMARK H PARENT 6 4 1 7 4 9
REMARK Flexibility Score: inf
ROOT
ATOM      1  C   UNL     1      21.050   4.207   1.337  1.00  0.00     0.165 C 
ENDROOT
BRANCH   1   2
ATOM      2  C   UNL     1      20.221   4.340   2.627  1.00  0.00     0.190 C 
BRANCH   2   3
ATOM      3  O   UNL     1      18.905   3.900   2.418  1.00  0.00    -0.394 OA
ATOM      4  H   UNL     1      18.625   4.239   1.528  1.00  0.00     0.210 HD
ENDBRANCH   2   3
ENDBRANCH   1   2
BRANCH   1   5
ATOM      5  C   UNL     1      22.115   5.309   1.222  1.00  0.00     0.190 C 
BRANCH   5   6
ATOM      6  O   UNL     1      22.180   5.766  -0.099  1.00  0.00    -0.394 OA
ATOM      7  H   UNL     1      22.618   5.043  -0.620  1.00  0.00     0.210 HD
ENDBRANCH   5   6
ENDBRANCH   1   5
BRANCH   1   8
ATOM      8  O   UNL     1      20.204   4.221   0.214  1.00  0.00    -0.388 OA
ATOM      9  H   UNL     1      19.332   4.599   0.499  1.00  0.00     0.211 HD
ENDBRANCH   1   8
TORSDOF 5
ENDMDL
MODEL 2
REMARK VINA RESULT:    -3.604     10.378     11.230
REMARK INTER + INTRA:          -4.343
REMARK INTER:                  -4.127
REMARK INTRA:                  -0.216
REMARK UNBOUND:                -0.002
REMARK SMILES OCC(O)CO
REMARK SMILES IDX 3 1 5 2 6 3 2 5 1 6 4 8
REMARK H PARENT 6 4 1 7 4 9
REMARK Flexibility Score: inf
ROOT
ATOM      1  C   UNL     1      26.058   9.423  -7.910  1.00  0.00     0.165 C 
ENDROOT
BRANCH   1   2
ATOM      2  C   UNL     1      26.270   7.916  -7.682  1.00  0.00     0.190 C 
BRANCH   2   3
ATOM      3  O   UNL     1      25.489   7.462  -6.608  1.00  0.00    -0.394 OA
ATOM      4  H   UNL     1      26.105   7.323  -5.842  1.00  0.00     0.210 HD
ENDBRANCH   2   3
ENDBRANCH   1   2
BRANCH   1   5
ATOM      5  C   UNL     1      24.812   9.945  -7.178  1.00  0.00     0.190 C 
BRANCH   5   6
ATOM      6  O   UNL     1      23.665   9.340  -7.707  1.00  0.00    -0.394 OA
ATOM      7  H   UNL     1      22.894   9.859  -7.360  1.00  0.00     0.210 HD
ENDBRANCH   5   6
ENDBRANCH   1   5
BRANCH   1   8
ATOM      8  O   UNL     1      25.972   9.698  -9.286  1.00  0.00    -0.388 OA
ATOM      9  H   UNL     1      26.543   9.037  -9.760  1.00  0.00     0.211 HD
ENDBRANCH   1   8
TORSDOF 5
ENDMDL
MODEL 3
REMARK VINA RESULT:    -3.508     10.365     11.196
REMARK INTER + INTRA:          -4.229
REMARK INTER:                  -4.009
REMARK INTRA:                  -0.220
REMARK UNBOUND:                -0.002
REMARK SMILES OCC(O)CO
REMARK SMILES IDX 3 1 5 2 6 3 2 5 1 6 4 8
REMARK H PARENT 6 4 1 7 4 9
REMARK Flexibility Score: inf
ROOT
ATOM      1  C   UNL     1      26.176   8.526  -7.160  1.00  0.00     0.165 C 
ENDROOT
BRANCH   1   2
ATOM      2  C   UNL     1      25.180   9.699  -7.184  1.00  0.00     0.190 C 
BRANCH   2   3
ATOM      3  O   UNL     1      23.939   9.286  -7.693  1.00  0.00    -0.394 OA
ATOM      4  H   UNL     1      24.122   8.802  -8.540  1.00  0.00     0.210 HD
ENDBRANCH   2   3
ENDBRANCH   1   2
BRANCH   1   5
ATOM      5  C   UNL     1      26.785   8.260  -8.545  1.00  0.00     0.190 C 
BRANCH   5   6
ATOM      6  O   UNL     1      26.386   9.264  -9.436  1.00  0.00    -0.394 OA
ATOM      7  H   UNL     1      27.216   9.732  -9.714  1.00  0.00     0.210 HD
ENDBRANCH   5   6
ENDBRANCH   1   5
BRANCH   1   8
ATOM      8  O   UNL     1      25.550   7.368  -6.666  1.00  0.00    -0.388 OA
ATOM      9  H   UNL     1      26.107   7.020  -5.921  1.00  0.00     0.211 HD
ENDBRANCH   1   8
TORSDOF 5
ENDMDL
MODEL 4
REMARK VINA RESULT:    -3.500     15.727     16.333
REMARK INTER + INTRA:          -4.219
REMARK INTER:                  -3.996
REMARK INTRA:                  -0.223
REMARK UNBOUND:                -0.002
REMARK SMILES OCC(O)CO
REMARK SMILES IDX 3 1 5 2 6 3 2 5 1 6 4 8
REMARK H PARENT 6 4 1 7 4 9
REMARK Flexibility Score: inf
ROOT
ATOM      1  C   UNL     1      16.401  19.888   0.343  1.00  0.00     0.165 C 
ENDROOT
BRANCH   1   2
ATOM      2  C   UNL     1      15.883  20.936  -0.657  1.00  0.00     0.190 C 
BRANCH   2   3
ATOM      3  O   UNL     1      16.169  20.549  -1.975  1.00  0.00    -0.394 OA
ATOM      4  H   UNL     1      15.395  20.826  -2.532  1.00  0.00     0.210 HD
ENDBRANCH   2   3
ENDBRANCH   1   2
BRANCH   1   5
ATOM      5  C   UNL     1      15.343  18.820   0.657  1.00  0.00     0.190 C 
BRANCH   5   6
ATOM      6  O   UNL     1      14.716  18.413  -0.527  1.00  0.00    -0.394 OA
ATOM      7  H   UNL     1      14.689  17.422  -0.498  1.00  0.00     0.210 HD
ENDBRANCH   5   6
ENDBRANCH   1   5
BRANCH   1   8
ATOM      8  O   UNL     1      16.833  20.517   1.524  1.00  0.00    -0.388 OA
ATOM      9  H   UNL     1      17.471  21.233   1.267  1.00  0.00     0.211 HD
ENDBRANCH   1   8
TORSDOF 5
ENDMDL
MODEL 5
REMARK VINA RESULT:    -3.498     15.482     15.704
REMARK INTER + INTRA:          -4.216
REMARK INTER:                  -3.993
REMARK INTRA:                  -0.224
REMARK UNBOUND:                -0.002
REMARK SMILES OCC(O)CO
REMARK SMILES IDX 3 1 5 2 6 3 2 5 1 6 4 8
REMARK H PARENT 6 4 1 7 4 9
REMARK Flexibility Score: inf
ROOT
ATOM      1  C   UNL     1      15.275  18.804   0.563  1.00  0.00     0.165 C 
ENDROOT
BRANCH   1   2
ATOM      2  C   UNL     1      14.175  19.132   1.587  1.00  0.00     0.190 C 
BRANCH   2   3
ATOM      3  O   UNL     1      14.674  19.050   2.895  1.00  0.00    -0.394 OA
ATOM      4  H   UNL     1      15.593  19.424   2.878  1.00  0.00     0.210 HD
ENDBRANCH   2   3
ENDBRANCH   1   2
BRANCH   1   5
ATOM      5  C   UNL     1      16.161  20.023   0.261  1.00  0.00     0.190 C 
BRANCH   5   6
ATOM      6  O   UNL     1      16.808  20.438   1.432  1.00  0.00    -0.394 OA
ATOM      7  H   UNL     1      16.371  19.948   2.177  1.00  0.00     0.210 HD
ENDBRANCH   5   6
ENDBRANCH   1   5
BRANCH   1   8
ATOM      8  O   UNL     1      14.704  18.306  -0.621  1.00  0.00    -0.388 OA
ATOM      9  H   UNL     1      15.286  18.585  -1.376  1.00  0.00     0.211 HD
ENDBRANCH   1   8
TORSDOF 5
ENDMDL
MODEL 6
REMARK VINA RESULT:    -3.482     10.459     11.683
REMARK INTER + INTRA:          -4.197
REMARK INTER:                  -4.190
REMARK INTRA:                  -0.008
REMARK UNBOUND:                -0.002
REMARK SMILES OCC(O)CO
REMARK SMILES IDX 3 1 5 2 6 3 2 5 1 6 4 8
REMARK H PARENT 6 4 1 7 4 9
REMARK Flexibility Score: inf
ROOT
ATOM      1  C   UNL     1      25.327   9.557  -7.532  1.00  0.00     0.165 C 
ENDROOT
BRANCH   1   2
ATOM      2  C   UNL     1      25.806  10.530  -8.624  1.00  0.00     0.190 C 
BRANCH   2   3
ATOM      3  O   UNL     1      26.150   9.834  -9.793  1.00  0.00    -0.394 OA
ATOM      4  H   UNL     1      26.266  10.512 -10.509  1.00  0.00     0.210 HD
ENDBRANCH   2   3
ENDBRANCH   1   2
BRANCH   1   5
ATOM      5  C   UNL     1      26.116   8.239  -7.551  1.00  0.00     0.190 C 
BRANCH   5   6
ATOM      6  O   UNL     1      25.524   7.323  -6.672  1.00  0.00    -0.394 OA
ATOM      7  H   UNL     1      24.572   7.590  -6.595  1.00  0.00     0.210 HD
ENDBRANCH   5   6
ENDBRANCH   1   5
BRANCH   1   8
ATOM      8  O   UNL     1      23.950   9.310  -7.673  1.00  0.00    -0.388 OA
ATOM      9  H   UNL     1      23.713   9.468  -8.624  1.00  0.00     0.211 HD
ENDBRANCH   1   8
TORSDOF 5
ENDMDL
MODEL 7
REMARK VINA RESULT:    -3.477     10.557     11.061
REMARK INTER + INTRA:          -4.190
REMARK INTER:                  -4.179
REMARK INTRA:                  -0.011
REMARK UNBOUND:                -0.002
REMARK SMILES OCC(O)CO
REMARK SMILES IDX 3 1 5 2 6 3 2 5 1 6 4 8
REMARK H PARENT 6 4 1 7 4 9
REMARK Flexibility Score: inf
ROOT
ATOM      1  C   UNL     1      27.053   8.912   8.169  1.00  0.00     0.165 C 
ENDROOT
BRANCH   1   2
ATOM      2  C   UNL     1      25.782   9.653   8.621  1.00  0.00     0.190 C 
BRANCH   2   3
ATOM      3  O   UNL     1      25.967  11.042   8.552  1.00  0.00    -0.394 OA
ATOM      4  H   UNL     1      25.852  11.394   9.473  1.00  0.00     0.210 HD
ENDBRANCH   2   3
ENDBRANCH   1   2
BRANCH   1   5
ATOM      5  C   UNL     1      27.854   8.365   9.360  1.00  0.00     0.190 C 
BRANCH   5   6
ATOM      6  O   UNL     1      29.171   8.838   9.300  1.00  0.00    -0.394 OA
ATOM      7  H   UNL     1      29.739   8.122   9.686  1.00  0.00     0.210 HD
ENDBRANCH   5   6
ENDBRANCH   1   5
BRANCH   1   8
ATOM      8  O   UNL     1      27.854   9.758   7.382  1.00  0.00    -0.388 OA
ATOM      9  H   UNL     1      28.739   9.833   7.828  1.00  0.00     0.211 HD
ENDBRANCH   1   8
TORSDOF 5
ENDMDL
MODEL 8
REMARK VINA RESULT:    -3.443      9.359     10.180
REMARK INTER + INTRA:          -4.150
REMARK INTER:                  -3.990
REMARK INTRA:                  -0.161
REMARK UNBOUND:                -0.002
REMARK SMILES OCC(O)CO
REMARK SMILES IDX 3 1 5 2 6 3 2 5 1 6 4 8
REMARK H PARENT 6 4 1 7 4 9
REMARK Flexibility Score: inf
ROOT
ATOM      1  C   UNL     1      25.614   9.847   8.558  1.00  0.00     0.165 C 
ENDROOT
BRANCH   1   2
ATOM      2  C   UNL     1      26.949   9.099   8.401  1.00  0.00     0.190 C 
BRANCH   2   3
ATOM      3  O   UNL     1      27.739   9.697   7.407  1.00  0.00    -0.394 OA
ATOM      4  H   UNL     1      28.138  10.513   7.808  1.00  0.00     0.210 HD
ENDBRANCH   2   3
ENDBRANCH   1   2
BRANCH   1   5
ATOM      5  C   UNL     1      24.584   9.411   7.505  1.00  0.00     0.190 C 
BRANCH   5   6
ATOM      6  O   UNL     1      24.751  10.169   6.340  1.00  0.00    -0.394 OA
ATOM      7  H   UNL     1      25.063   9.536   5.642  1.00  0.00     0.210 HD
ENDBRANCH   5   6
ENDBRANCH   1   5
BRANCH   1   8
ATOM      8  O   UNL     1      25.826  11.235   8.496  1.00  0.00    -0.388 OA
ATOM      9  H   UNL     1      26.357  11.494   9.293  1.00  0.00     0.211 HD
ENDBRANCH   1   8
TORSDOF 5
ENDMDL
MODEL 9
REMARK VINA RESULT:    -3.395     15.627     16.096
REMARK INTER + INTRA:          -4.092
REMARK INTER:                  -3.872
REMARK INTRA:                  -0.220
REMARK UNBOUND:                -0.002
REMARK SMILES OCC(O)CO
REMARK SMILES IDX 3 1 5 2 6 3 2 5 1 6 4 8
REMARK H PARENT 6 4 1 7 4 9
REMARK Flexibility Score: inf
ROOT
ATOM      1  C   UNL     1      15.417  19.450   0.503  1.00  0.00     0.165 C 
ENDROOT
BRANCH   1   2
ATOM      2  C   UNL     1      15.863  20.859   0.927  1.00  0.00     0.190 C 
BRANCH   2   3
ATOM      3  O   UNL     1      16.957  20.791   1.804  1.00  0.00    -0.394 OA
ATOM      4  H   UNL     1      17.768  20.995   1.269  1.00  0.00     0.210 HD
ENDBRANCH   2   3
ENDBRANCH   1   2
BRANCH   1   5
ATOM      5  C   UNL     1      14.322  18.891   1.424  1.00  0.00     0.190 C 
BRANCH   5   6
ATOM      6  O   UNL     1      14.706  19.046   2.761  1.00  0.00    -0.394 OA
ATOM      7  H   UNL     1      15.688  19.187   2.752  1.00  0.00     0.210 HD
ENDBRANCH   5   6
ENDBRANCH   1   5
BRANCH   1   8
ATOM      8  O   UNL     1      16.522  18.580   0.469  1.00  0.00    -0.388 OA
ATOM      9  H   UNL     1      16.173  17.655   0.378  1.00  0.00     0.211 HD
ENDBRANCH   1   8
TORSDOF 5
ENDMDL
