MODEL 1
REMARK VINA RESULT:    -0.507      0.000      0.000
REMARK INTER + INTRA:          -0.672
REMARK INTER:                  -0.626
REMARK INTRA:                  -0.047
REMARK UNBOUND:                -0.047
REMARK SMILES CCCCCC(=O)[O-]
REMARK SMILES IDX 4 1 5 2 6 3 7 4 8 5 3 6 2 7 1 8
REMARK H PARENT
REMARK Flexibility Score: inf
ROOT
ATOM      1  C   UNL     1      -5.964   8.119  30.737  1.00  0.00     0.006 C 
ENDROOT
BRANCH   1   2
ATOM      2  C   UNL     1      -5.774   6.963  31.724  1.00  0.00     0.053 C 
BRANCH   2   3
ATOM      3  C   UNL     1      -4.659   7.265  32.675  1.00  0.00     0.041 C 
ATOM      4  O   UNL     1      -3.890   6.347  33.061  1.00  0.00    -0.550 OA
ATOM      5  O   UNL     1      -4.439   8.570  33.097  1.00  0.00    -0.550 OA
ENDBRANCH   2   3
ENDBRANCH   1   2
BRANCH   1   6
ATOM      6  C   UNL     1      -5.979   7.607  29.288  1.00  0.00     0.000 C 
BRANCH   6   7
ATOM      7  C   UNL     1      -6.125   8.742  28.263  1.00  0.00    -0.003 C 
ATOM      8  C   UNL     1      -6.092   8.242  26.819  1.00  0.00     0.004 C 
ENDBRANCH   6   7
ENDBRANCH   1   6
TORSDOF 4
ENDMDL
MODEL 2
REMARK VINA RESULT:    -0.260      2.389      3.838
REMARK INTER + INTRA:          -0.368
REMARK INTER:                  -0.443
REMARK INTRA:                   0.075
REMARK UNBOUND:                -0.047
REMARK SMILES CCCCCC(=O)[O-]
REMARK SMILES IDX 4 1 5 2 6 3 7 4 8 5 3 6 2 7 1 8
REMARK H PARENT
REMARK Flexibility Score: inf
ROOT
ATOM      1  C   UNL     1      -5.630   6.630  32.638  1.00  0.00     0.006 C 
ENDROOT
BRANCH   1   2
ATOM      2  C   UNL     1      -6.089   6.700  31.179  1.00  0.00     0.053 C 
BRANCH   2   3
ATOM      3  C   UNL     1      -6.119   8.119  30.707  1.00  0.00     0.041 C 
ATOM      4  O   UNL     1      -6.103   9.064  31.539  1.00  0.00    -0.550 OA
ATOM      5  O   UNL     1      -6.116   8.400  29.346  1.00  0.00    -0.550 OA
ENDBRANCH   2   3
ENDBRANCH   1   2
BRANCH   1   6
ATOM      6  C   UNL     1      -4.188   6.110  32.737  1.00  0.00     0.000 C 
BRANCH   6   7
ATOM      7  C   UNL     1      -3.396   6.317  31.437  1.00  0.00    -0.003 C 
ATOM      8  C   UNL     1      -2.714   7.683  31.371  1.00  0.00     0.004 C 
ENDBRANCH   6   7
ENDBRANCH   1   6
TORSDOF 4
ENDMDL
MODEL 3
REMARK VINA RESULT:     1.770     16.454     16.829
REMARK INTER + INTRA:           2.137
REMARK INTER:                   2.196
REMARK INTRA:                  -0.059
REMARK UNBOUND:                -0.047
REMARK SMILES CCCCCC(=O)[O-]
REMARK SMILES IDX 4 1 5 2 6 3 7 4 8 5 3 6 2 7 1 8
REMARK H PARENT
REMARK Flexibility Score: inf
ROOT
ATOM      1  C   UNL     1       8.308  17.457  30.119  1.00  0.00     0.006 C 
ENDROOT
BRANCH   1   2
ATOM      2  C   UNL     1       9.056  17.498  31.455  1.00  0.00     0.053 C 
BRANCH   2   3
ATOM      3  C   UNL     1       8.094  17.413  32.597  1.00  0.00     0.041 C 
ATOM      4  O   UNL     1       7.820  16.298  33.114  1.00  0.00    -0.550 OA
ATOM      5  O   UNL     1       7.536  18.571  33.125  1.00  0.00    -0.550 OA
ENDBRANCH   2   3
ENDBRANCH   1   2
BRANCH   1   6
ATOM      6  C   UNL     1       9.247  17.796  28.952  1.00  0.00     0.000 C 
BRANCH   6   7
ATOM      7  C   UNL     1       8.892  17.033  27.667  1.00  0.00    -0.003 C 
ATOM      8  C   UNL     1       7.495  17.370  27.146  1.00  0.00     0.004 C 
ENDBRANCH   6   7
ENDBRANCH   1   6
TORSDOF 4
ENDMDL
MODEL 4
REMARK VINA RESULT:     2.486     16.724     17.472
REMARK INTER + INTRA:           3.020
REMARK INTER:                   3.077
REMARK INTRA:                  -0.057
REMARK UNBOUND:                -0.047
REMARK SMILES CCCCCC(=O)[O-]
REMARK SMILES IDX 4 1 5 2 6 3 7 4 8 5 3 6 2 7 1 8
REMARK H PARENT
REMARK Flexibility Score: inf
ROOT
ATOM      1  C   UNL     1       8.282  17.496  30.232  1.00  0.00     0.006 C 
ENDROOT
BRANCH   1   2
ATOM      2  C   UNL     1       9.254  17.873  29.110  1.00  0.00     0.053 C 
BRANCH   2   3
ATOM      3  C   UNL     1       8.862  17.204  27.831  1.00  0.00     0.041 C 
ATOM      4  O   UNL     1       9.632  16.366  27.292  1.00  0.00    -0.550 OA
ATOM      5  O   UNL     1       7.625  17.468  27.258  1.00  0.00    -0.550 OA
ENDBRANCH   2   3
ENDBRANCH   1   2
BRANCH   1   6
ATOM      6  C   UNL     1       8.869  17.845  31.608  1.00  0.00     0.000 C 
BRANCH   6   7
ATOM      7  C   UNL     1       7.878  17.594  32.754  1.00  0.00    -0.003 C 
ATOM      8  C   UNL     1       7.764  16.116  33.125  1.00  0.00     0.004 C 
ENDBRANCH   6   7
ENDBRANCH   1   6
TORSDOF 4
ENDMDL
