MODEL 1
REMARK VINA RESULT:    -2.391      0.000      0.000
REMARK INTER + INTRA:          -2.299
REMARK INTER:                  -3.230
REMARK INTRA:                   0.931
REMARK UNBOUND:                 0.931
REMARK SMILES C=C1C(=O)O[C@H]2[C@@H]1CCC(C)=CCC[C@@]1(C)O[C@@H]21
REMARK SMILES IDX 6 1 7 2 2 3 1 4 3 5 4 6 5 7 8 8 9 9 10 10 11 11 12 12 18 14
REMARK SMILES IDX 15 15 17 16 16 17 14 18 13 19
REMARK H PARENT
REMARK Flexibility Score: 70.00
ROOT
ATOM      1  C   UNL     1     -25.119  57.047  37.475  1.00  0.00     0.216 C 
ATOM      2  C   UNL     1     -26.637  56.685  37.344  1.00  0.00     0.070 C 
ATOM      3  C   UNL     1     -27.321  57.875  37.951  1.00  0.00     0.037 C 
ATOM      4  C   UNL     1     -28.621  57.981  38.220  1.00  0.00     0.021 C 
ATOM      5  C   UNL     1     -26.315  58.882  38.204  1.00  0.00     0.334 C 
ATOM      6  O   UNL     1     -26.532  60.037  38.654  1.00  0.00    -0.247 OA
ATOM      7  O   UNL     1     -25.061  58.417  37.865  1.00  0.00    -0.455 OA
ENDROOT
BRANCH   2   8
ATOM      8  C   UNL     1     -27.140  56.360  35.916  1.00  0.00     0.017 C 
BRANCH   8   9
ATOM      9  C   UNL     1     -27.509  57.584  35.041  1.00  0.00     0.031 C 
BRANCH   9  10
ATOM     10  C   UNL     1     -27.334  57.277  33.569  1.00  0.00    -0.077 C 
ATOM     11  C   UNL     1     -28.311  56.338  32.910  1.00  0.00     0.039 C 
ATOM     12  C   UNL     1     -26.331  57.782  32.816  1.00  0.00    -0.028 CG0
ATOM     13  G   UNL     1     -25.312  58.812  33.257  1.00  0.00     0.000 G0
ENDBRANCH   9  10
ENDBRANCH   8   9
ENDBRANCH   2   8
BRANCH   1  14
ATOM     14  C   UNL     1     -24.197  56.668  36.288  1.00  0.00     0.192 C 
ATOM     15  C   UNL     1     -23.981  57.442  35.019  1.00  0.00     0.096 C 
ATOM     16  O   UNL     1     -23.176  57.633  36.161  1.00  0.00    -0.362 OA
ATOM     17  C   UNL     1     -23.158  56.758  33.919  1.00  0.00     0.045 C 
BRANCH  15  18
ATOM     18  C   UNL     1     -24.737  58.740  34.661  1.00  0.00     0.042 C 
BRANCH  18  19
ATOM     19  C   UNL     1     -25.287  58.815  33.218  1.00  0.00     0.030 CG0
ATOM     20  G   UNL     1     -26.334  57.791  32.832  1.00  0.00     0.000 G0
ENDBRANCH  18  19
ENDBRANCH  15  18
ENDBRANCH   1  14
TORSDOF 0
ENDMDL
MODEL 2
REMARK VINA RESULT:    -2.365      8.033      9.411
REMARK INTER + INTRA:          -2.263
REMARK INTER:                  -3.264
REMARK INTRA:                   1.001
REMARK UNBOUND:                 0.931
REMARK SMILES C=C1C(=O)O[C@H]2[C@@H]1CCC(C)=CCC[C@@]1(C)O[C@@H]21
REMARK SMILES IDX 6 1 7 2 2 3 1 4 3 5 4 6 5 7 8 8 9 9 10 10 11 11 12 12 18 14
REMARK SMILES IDX 15 15 17 16 16 17 14 18 13 19
REMARK H PARENT
REMARK Flexibility Score: 70.00
ROOT
ATOM      1  C   UNL     1     -26.392  51.181  43.348  1.00  0.00     0.216 C 
ATOM      2  C   UNL     1     -26.640  52.721  43.213  1.00  0.00     0.070 C 
ATOM      3  C   UNL     1     -26.216  53.250  44.552  1.00  0.00     0.037 C 
ATOM      4  C   UNL     1     -26.383  54.495  44.993  1.00  0.00     0.021 C 
ATOM      5  C   UNL     1     -25.605  52.163  45.283  1.00  0.00     0.334 C 
ATOM      6  O   UNL     1     -25.077  52.252  46.422  1.00  0.00    -0.247 OA
ATOM      7  O   UNL     1     -25.654  50.993  44.554  1.00  0.00    -0.455 OA
ENDROOT
BRANCH   2   8
ATOM      8  C   UNL     1     -25.929  53.426  42.031  1.00  0.00     0.017 C 
BRANCH   8   9
ATOM      9  C   UNL     1     -24.464  53.857  42.291  1.00  0.00     0.031 C 
BRANCH   9  10
ATOM     10  C   UNL     1     -23.690  53.976  40.995  1.00  0.00    -0.077 C 
ATOM     11  C   UNL     1     -23.979  55.147  40.092  1.00  0.00     0.039 C 
ATOM     12  C   UNL     1     -22.768  53.073  40.593  1.00  0.00    -0.028 CG0
ATOM     13  G   UNL     1     -22.264  51.890  41.392  1.00  0.00     0.000 G0
ENDBRANCH   9  10
ENDBRANCH   8   9
ENDBRANCH   2   8
BRANCH   1  14
ATOM     14  C   UNL     1     -25.818  50.446  42.111  1.00  0.00     0.192 C 
ATOM     15  C   UNL     1     -24.385  50.397  41.664  1.00  0.00     0.096 C 
ATOM     16  O   UNL     1     -24.932  49.434  42.536  1.00  0.00    -0.362 OA
ATOM     17  C   UNL     1     -24.103  49.755  40.300  1.00  0.00     0.045 C 
BRANCH  15  18
ATOM     18  C   UNL     1     -23.240  51.171  42.353  1.00  0.00     0.042 C 
BRANCH  18  19
ATOM     19  C   UNL     1     -22.244  51.876  41.404  1.00  0.00     0.030 CG0
ATOM     20  G   UNL     1     -22.772  53.056  40.616  1.00  0.00     0.000 G0
ENDBRANCH  18  19
ENDBRANCH  15  18
ENDBRANCH   1  14
TORSDOF 0
ENDMDL
MODEL 3
REMARK VINA RESULT:    -2.332      9.869     11.814
REMARK INTER + INTRA:          -2.219
REMARK INTER:                  -3.487
REMARK INTRA:                   1.269
REMARK UNBOUND:                 0.931
REMARK SMILES C=C1C(=O)O[C@H]2[C@@H]1CCC(C)=CCC[C@@]1(C)O[C@@H]21
REMARK SMILES IDX 6 1 7 2 2 3 1 4 3 5 4 6 5 7 8 8 9 9 10 10 11 11 12 12 18 14
REMARK SMILES IDX 15 15 17 16 16 17 14 18 13 19
REMARK H PARENT
REMARK Flexibility Score: 70.00
ROOT
ATOM      1  C   UNL     1     -26.343  54.860  44.628  1.00  0.00     0.216 C 
ATOM      2  C   UNL     1     -26.639  53.515  43.883  1.00  0.00     0.070 C 
ATOM      3  C   UNL     1     -25.668  53.542  42.739  1.00  0.00     0.037 C 
ATOM      4  C   UNL     1     -25.632  52.688  41.718  1.00  0.00     0.021 C 
ATOM      5  C   UNL     1     -24.786  54.672  42.935  1.00  0.00     0.334 C 
ATOM      6  O   UNL     1     -23.807  54.972  42.202  1.00  0.00    -0.247 OA
ATOM      7  O   UNL     1     -25.144  55.383  44.060  1.00  0.00    -0.455 OA
ENDROOT
BRANCH   2   8
ATOM      8  C   UNL     1     -26.533  52.225  44.735  1.00  0.00     0.017 C 
BRANCH   8   9
ATOM      9  C   UNL     1     -25.115  51.616  44.856  1.00  0.00     0.031 C 
BRANCH   9  10
ATOM     10  C   UNL     1     -25.007  50.714  46.067  1.00  0.00    -0.077 C 
ATOM     11  C   UNL     1     -25.649  49.352  46.006  1.00  0.00     0.039 C 
ATOM     12  C   UNL     1     -24.386  51.075  47.212  1.00  0.00    -0.028 CG0
ATOM     13  G   UNL     1     -23.600  52.348  47.443  1.00  0.00     0.000 G0
ENDBRANCH   9  10
ENDBRANCH   8   9
ENDBRANCH   2   8
BRANCH   1  14
ATOM     14  C   UNL     1     -26.373  54.831  46.177  1.00  0.00     0.192 C 
ATOM     15  C   UNL     1     -25.321  54.282  47.098  1.00  0.00     0.096 C 
ATOM     16  O   UNL     1     -25.323  55.628  46.681  1.00  0.00    -0.362 OA
ATOM     17  C   UNL     1     -25.674  54.205  48.589  1.00  0.00     0.045 C 
BRANCH  15  18
ATOM     18  C   UNL     1     -24.042  53.563  46.616  1.00  0.00     0.042 C 
BRANCH  18  19
ATOM     19  C   UNL     1     -23.612  52.333  47.450  1.00  0.00     0.030 CG0
ATOM     20  G   UNL     1     -24.385  51.051  47.224  1.00  0.00     0.000 G0
ENDBRANCH  18  19
ENDBRANCH  15  18
ENDBRANCH   1  14
TORSDOF 0
ENDMDL
MODEL 4
REMARK VINA RESULT:    -2.320      8.632     10.213
REMARK INTER + INTRA:          -2.203
REMARK INTER:                  -3.074
REMARK INTRA:                   0.871
REMARK UNBOUND:                 0.931
REMARK SMILES C=C1C(=O)O[C@H]2[C@@H]1CCC(C)=CCC[C@@]1(C)O[C@@H]21
REMARK SMILES IDX 6 1 7 2 2 3 1 4 3 5 4 6 5 7 8 8 9 9 10 10 11 11 12 12 18 14
REMARK SMILES IDX 15 15 17 16 16 17 14 18 13 19
REMARK H PARENT
REMARK Flexibility Score: 70.00
ROOT
ATOM      1  C   UNL     1     -26.534  52.280  44.382  1.00  0.00     0.216 C 
ATOM      2  C   UNL     1     -26.344  53.784  44.772  1.00  0.00     0.070 C 
ATOM      3  C   UNL     1     -25.592  53.704  46.068  1.00  0.00     0.037 C 
ATOM      4  C   UNL     1     -25.325  54.721  46.885  1.00  0.00     0.021 C 
ATOM      5  C   UNL     1     -25.220  52.323  46.279  1.00  0.00     0.334 C 
ATOM      6  O   UNL     1     -24.526  51.889  47.236  1.00  0.00    -0.247 OA
ATOM      7  O   UNL     1     -25.712  51.524  45.268  1.00  0.00    -0.455 OA
ENDROOT
BRANCH   2   8
ATOM      8  C   UNL     1     -25.642  54.679  43.720  1.00  0.00     0.017 C 
BRANCH   8   9
ATOM      9  C   UNL     1     -24.120  54.883  43.921  1.00  0.00     0.031 C 
BRANCH   9  10
ATOM     10  C   UNL     1     -23.347  54.497  42.679  1.00  0.00    -0.077 C 
ATOM     11  C   UNL     1     -23.050  55.565  41.658  1.00  0.00     0.039 C 
ATOM     12  C   UNL     1     -22.927  53.237  42.423  1.00  0.00    -0.028 CG0
ATOM     13  G   UNL     1     -23.034  52.050  43.357  1.00  0.00     0.000 G0
ENDBRANCH   9  10
ENDBRANCH   8   9
ENDBRANCH   2   8
BRANCH   1  14
ATOM     14  C   UNL     1     -26.386  51.914  42.884  1.00  0.00     0.192 C 
ATOM     15  C   UNL     1     -25.223  51.230  42.223  1.00  0.00     0.096 C 
ATOM     16  O   UNL     1     -26.316  50.511  42.748  1.00  0.00    -0.362 OA
ATOM     17  C   UNL     1     -25.242  51.149  40.691  1.00  0.00     0.045 C 
BRANCH  15  18
ATOM     18  C   UNL     1     -23.917  50.851  42.955  1.00  0.00     0.042 C 
BRANCH  18  19
ATOM     19  C   UNL     1     -23.013  52.036  43.366  1.00  0.00     0.030 CG0
ATOM     20  G   UNL     1     -22.939  53.204  42.405  1.00  0.00     0.000 G0
ENDBRANCH  18  19
ENDBRANCH  15  18
ENDBRANCH   1  14
TORSDOF 0
ENDMDL
MODEL 5
REMARK VINA RESULT:    -2.289      9.624     11.685
REMARK INTER + INTRA:          -2.161
REMARK INTER:                  -3.123
REMARK INTRA:                   0.962
REMARK UNBOUND:                 0.931
REMARK SMILES C=C1C(=O)O[C@H]2[C@@H]1CCC(C)=CCC[C@@]1(C)O[C@@H]21
REMARK SMILES IDX 6 1 7 2 2 3 1 4 3 5 4 6 5 7 8 8 9 9 10 10 11 11 12 12 18 14
REMARK SMILES IDX 15 15 17 16 16 17 14 18 13 19
REMARK H PARENT
REMARK Flexibility Score: 70.00
ROOT
ATOM      1  C   UNL     1     -26.710  53.116  43.827  1.00  0.00     0.216 C 
ATOM      2  C   UNL     1     -26.309  51.602  43.851  1.00  0.00     0.070 C 
ATOM      3  C   UNL     1     -25.463  51.458  42.619  1.00  0.00     0.037 C 
ATOM      4  C   UNL     1     -25.008  50.316  42.108  1.00  0.00     0.021 C 
ATOM      5  C   UNL     1     -25.242  52.781  42.078  1.00  0.00     0.334 C 
ATOM      6  O   UNL     1     -24.525  53.053  41.080  1.00  0.00    -0.247 OA
ATOM      7  O   UNL     1     -25.910  53.732  42.820  1.00  0.00    -0.455 OA
ENDROOT
BRANCH   2   8
ATOM      8  C   UNL     1     -25.599  51.104  45.134  1.00  0.00     0.017 C 
BRANCH   8   9
ATOM      9  C   UNL     1     -24.077  51.381  45.208  1.00  0.00     0.031 C 
BRANCH   9  10
ATOM     10  C   UNL     1     -23.614  51.512  46.643  1.00  0.00    -0.077 C 
ATOM     11  C   UNL     1     -23.601  50.279  47.509  1.00  0.00     0.039 C 
ATOM     12  C   UNL     1     -23.232  52.684  47.199  1.00  0.00    -0.028 CG0
ATOM     13  G   UNL     1     -23.078  54.008  46.481  1.00  0.00     0.000 G0
ENDBRANCH   9  10
ENDBRANCH   8   9
ENDBRANCH   2   8
BRANCH   1  14
ATOM     14  C   UNL     1     -26.736  53.861  45.186  1.00  0.00     0.192 C 
ATOM     15  C   UNL     1     -25.574  54.485  45.905  1.00  0.00     0.096 C 
ATOM     16  O   UNL     1     -26.365  55.208  44.989  1.00  0.00    -0.362 OA
ATOM     17  C   UNL     1     -25.832  55.001  47.326  1.00  0.00     0.045 C 
BRANCH  15  18
ATOM     18  C   UNL     1     -24.112  54.400  45.417  1.00  0.00     0.042 C 
BRANCH  18  19
ATOM     19  C   UNL     1     -23.066  54.038  46.498  1.00  0.00     0.030 CG0
ATOM     20  G   UNL     1     -23.226  52.695  47.179  1.00  0.00     0.000 G0
ENDBRANCH  18  19
ENDBRANCH  15  18
ENDBRANCH   1  14
TORSDOF 0
ENDMDL
MODEL 6
REMARK VINA RESULT:    -2.233      9.880     11.165
REMARK INTER + INTRA:          -2.085
REMARK INTER:                  -3.073
REMARK INTRA:                   0.988
REMARK UNBOUND:                 0.931
REMARK SMILES C=C1C(=O)O[C@H]2[C@@H]1CCC(C)=CCC[C@@]1(C)O[C@@H]21
REMARK SMILES IDX 6 1 7 2 2 3 1 4 3 5 4 6 5 7 8 8 9 9 10 10 11 11 12 12 18 14
REMARK SMILES IDX 15 15 17 16 16 17 14 18 13 19
REMARK H PARENT
REMARK Flexibility Score: 70.00
ROOT
ATOM      1  C   UNL     1     -26.458  54.802  44.877  1.00  0.00     0.216 C 
ATOM      2  C   UNL     1     -25.372  55.929  44.949  1.00  0.00     0.070 C 
ATOM      3  C   UNL     1     -25.279  56.214  46.420  1.00  0.00     0.037 C 
ATOM      4  C   UNL     1     -24.602  57.212  46.985  1.00  0.00     0.021 C 
ATOM      5  C   UNL     1     -26.068  55.220  47.113  1.00  0.00     0.334 C 
ATOM      6  O   UNL     1     -26.173  55.110  48.363  1.00  0.00    -0.247 OA
ATOM      7  O   UNL     1     -26.687  54.374  46.217  1.00  0.00    -0.455 OA
ENDROOT
BRANCH   2   8
ATOM      8  C   UNL     1     -24.001  55.599  44.308  1.00  0.00     0.017 C 
BRANCH   8   9
ATOM      9  C   UNL     1     -23.001  54.845  45.219  1.00  0.00     0.031 C 
BRANCH   9  10
ATOM     10  C   UNL     1     -22.485  53.592  44.545  1.00  0.00    -0.077 C 
ATOM     11  C   UNL     1     -21.441  53.734  43.467  1.00  0.00     0.039 C 
ATOM     12  C   UNL     1     -22.928  52.349  44.841  1.00  0.00    -0.028 CG0
ATOM     13  G   UNL     1     -23.891  51.983  45.951  1.00  0.00     0.000 G0
ENDBRANCH   9  10
ENDBRANCH   8   9
ENDBRANCH   2   8
BRANCH   1  14
ATOM     14  C   UNL     1     -26.222  53.659  43.858  1.00  0.00     0.192 C 
ATOM     15  C   UNL     1     -25.773  52.256  44.151  1.00  0.00     0.096 C 
ATOM     16  O   UNL     1     -27.136  52.613  44.107  1.00  0.00    -0.362 OA
ATOM     17  C   UNL     1     -25.435  51.368  42.946  1.00  0.00     0.045 C 
BRANCH  15  18
ATOM     18  C   UNL     1     -25.386  51.750  45.557  1.00  0.00     0.042 C 
BRANCH  18  19
ATOM     19  C   UNL     1     -23.907  51.961  45.959  1.00  0.00     0.030 CG0
ATOM     20  G   UNL     1     -22.950  52.357  44.855  1.00  0.00     0.000 G0
ENDBRANCH  18  19
ENDBRANCH  15  18
ENDBRANCH   1  14
TORSDOF 0
ENDMDL
MODEL 7
REMARK VINA RESULT:    -2.214      2.249      3.394
REMARK INTER + INTRA:          -2.059
REMARK INTER:                  -2.943
REMARK INTRA:                   0.884
REMARK UNBOUND:                 0.931
REMARK SMILES C=C1C(=O)O[C@H]2[C@@H]1CCC(C)=CCC[C@@]1(C)O[C@@H]21
REMARK SMILES IDX 6 1 7 2 2 3 1 4 3 5 4 6 5 7 8 8 9 9 10 10 11 11 12 12 18 14
REMARK SMILES IDX 15 15 17 16 16 17 14 18 13 19
REMARK H PARENT
REMARK Flexibility Score: 70.00
ROOT
ATOM      1  C   UNL     1     -26.779  56.004  35.481  1.00  0.00     0.216 C 
ATOM      2  C   UNL     1     -27.304  57.472  35.338  1.00  0.00     0.070 C 
ATOM      3  C   UNL     1     -26.105  58.297  35.706  1.00  0.00     0.037 C 
ATOM      4  C   UNL     1     -26.085  59.615  35.889  1.00  0.00     0.021 C 
ATOM      5  C   UNL     1     -24.977  57.402  35.839  1.00  0.00     0.334 C 
ATOM      6  O   UNL     1     -23.792  57.749  36.081  1.00  0.00    -0.247 OA
ATOM      7  O   UNL     1     -25.365  56.093  35.643  1.00  0.00    -0.455 OA
ENDROOT
BRANCH   2   8
ATOM      8  C   UNL     1     -27.899  57.852  33.959  1.00  0.00     0.017 C 
BRANCH   8   9
ATOM      9  C   UNL     1     -26.905  58.473  32.947  1.00  0.00     0.031 C 
BRANCH   9  10
ATOM     10  C   UNL     1     -26.911  57.715  31.638  1.00  0.00    -0.077 C 
ATOM     11  C   UNL     1     -27.938  58.085  30.599  1.00  0.00     0.039 C 
ATOM     12  C   UNL     1     -26.057  56.704  31.358  1.00  0.00    -0.028 CG0
ATOM     13  G   UNL     1     -24.897  56.247  32.217  1.00  0.00     0.000 G0
ENDBRANCH   9  10
ENDBRANCH   8   9
ENDBRANCH   2   8
BRANCH   1  14
ATOM     14  C   UNL     1     -27.250  54.978  34.420  1.00  0.00     0.192 C 
ATOM     15  C   UNL     1     -26.456  54.424  33.272  1.00  0.00     0.096 C 
ATOM     16  O   UNL     1     -26.484  53.799  34.535  1.00  0.00    -0.362 OA
ATOM     17  C   UNL     1     -27.213  53.562  32.254  1.00  0.00     0.045 C 
BRANCH  15  18
ATOM     18  C   UNL     1     -25.022  54.876  32.918  1.00  0.00     0.042 C 
BRANCH  18  19
ATOM     19  C   UNL     1     -24.908  56.255  32.228  1.00  0.00     0.030 CG0
ATOM     20  G   UNL     1     -26.072  56.682  31.358  1.00  0.00     0.000 G0
ENDBRANCH  18  19
ENDBRANCH  15  18
ENDBRANCH   1  14
TORSDOF 0
ENDMDL
MODEL 8
REMARK VINA RESULT:    -2.213      8.927     10.877
REMARK INTER + INTRA:          -2.058
REMARK INTER:                  -2.950
REMARK INTRA:                   0.892
REMARK UNBOUND:                 0.931
REMARK SMILES C=C1C(=O)O[C@H]2[C@@H]1CCC(C)=CCC[C@@]1(C)O[C@@H]21
REMARK SMILES IDX 6 1 7 2 2 3 1 4 3 5 4 6 5 7 8 8 9 9 10 10 11 11 12 12 18 14
REMARK SMILES IDX 15 15 17 16 16 17 14 18 13 19
REMARK H PARENT
REMARK Flexibility Score: 70.00
ROOT
ATOM      1  C   UNL     1     -26.534  52.106  44.598  1.00  0.00     0.216 C 
ATOM      2  C   UNL     1     -25.666  50.820  44.811  1.00  0.00     0.070 C 
ATOM      3  C   UNL     1     -25.649  50.195  43.446  1.00  0.00     0.037 C 
ATOM      4  C   UNL     1     -25.168  48.992  43.140  1.00  0.00     0.021 C 
ATOM      5  C   UNL     1     -26.261  51.127  42.526  1.00  0.00     0.334 C 
ATOM      6  O   UNL     1     -26.366  50.965  41.282  1.00  0.00    -0.247 OA
ATOM      7  O   UNL     1     -26.707  52.250  43.190  1.00  0.00    -0.455 OA
ENDROOT
BRANCH   2   8
ATOM      8  C   UNL     1     -24.248  51.042  45.392  1.00  0.00     0.017 C 
BRANCH   8   9
ATOM      9  C   UNL     1     -23.126  51.277  44.351  1.00  0.00     0.031 C 
BRANCH   9  10
ATOM     10  C   UNL     1     -22.373  52.559  44.637  1.00  0.00    -0.077 C 
ATOM     11  C   UNL     1     -21.268  52.529  45.661  1.00  0.00     0.039 C 
ATOM     12  C   UNL     1     -22.655  53.738  44.038  1.00  0.00    -0.028 CG0
ATOM     13  G   UNL     1     -23.651  53.960  42.919  1.00  0.00     0.000 G0
ENDBRANCH   9  10
ENDBRANCH   8   9
ENDBRANCH   2   8
BRANCH   1  14
ATOM     14  C   UNL     1     -26.084  53.392  45.335  1.00  0.00     0.192 C 
ATOM     15  C   UNL     1     -25.406  54.594  44.739  1.00  0.00     0.096 C 
ATOM     16  O   UNL     1     -26.810  54.496  44.839  1.00  0.00    -0.362 OA
ATOM     17  C   UNL     1     -24.896  55.660  45.717  1.00  0.00     0.045 C 
BRANCH  15  18
ATOM     18  C   UNL     1     -24.969  54.693  43.262  1.00  0.00     0.042 C 
BRANCH  18  19
ATOM     19  C   UNL     1     -23.638  53.989  42.911  1.00  0.00     0.030 CG0
ATOM     20  G   UNL     1     -22.670  53.751  44.050  1.00  0.00     0.000 G0
ENDBRANCH  18  19
ENDBRANCH  15  18
ENDBRANCH   1  14
TORSDOF 0
ENDMDL
MODEL 9
REMARK VINA RESULT:    -2.065      7.004      8.400
REMARK INTER + INTRA:          -1.858
REMARK INTER:                  -3.262
REMARK INTRA:                   1.404
REMARK UNBOUND:                 0.931
REMARK SMILES C=C1C(=O)O[C@H]2[C@@H]1CCC(C)=CCC[C@@]1(C)O[C@@H]21
REMARK SMILES IDX 6 1 7 2 2 3 1 4 3 5 4 6 5 7 8 8 9 9 10 10 11 11 12 12 18 14
REMARK SMILES IDX 15 15 17 16 16 17 14 18 13 19
REMARK H PARENT
REMARK Flexibility Score: 70.00
ROOT
ATOM      1  C   UNL     1     -24.483  55.024  43.172  1.00  0.00     0.216 C 
ATOM      2  C   UNL     1     -25.184  53.623  43.161  1.00  0.00     0.070 C 
ATOM      3  C   UNL     1     -26.080  53.684  44.364  1.00  0.00     0.037 C 
ATOM      4  C   UNL     1     -26.774  52.671  44.878  1.00  0.00     0.021 C 
ATOM      5  C   UNL     1     -26.043  55.037  44.873  1.00  0.00     0.334 C 
ATOM      6  O   UNL     1     -26.721  55.474  45.840  1.00  0.00    -0.247 OA
ATOM      7  O   UNL     1     -25.172  55.814  44.139  1.00  0.00    -0.455 OA
ENDROOT
BRANCH   2   8
ATOM      8  C   UNL     1     -25.940  53.248  41.862  1.00  0.00     0.017 C 
BRANCH   8   9
ATOM      9  C   UNL     1     -25.408  52.001  41.113  1.00  0.00     0.031 C 
BRANCH   9  10
ATOM     10  C   UNL     1     -24.179  51.437  41.793  1.00  0.00    -0.077 C 
ATOM     11  C   UNL     1     -24.364  50.354  42.826  1.00  0.00     0.039 C 
ATOM     12  C   UNL     1     -22.923  51.869  41.541  1.00  0.00    -0.028 CG0
ATOM     13  G   UNL     1     -22.516  52.868  40.479  1.00  0.00     0.000 G0
ENDBRANCH   9  10
ENDBRANCH   8   9
ENDBRANCH   2   8
BRANCH   1  14
ATOM     14  C   UNL     1     -24.263  55.714  41.802  1.00  0.00     0.192 C 
ATOM     15  C   UNL     1     -23.228  55.376  40.767  1.00  0.00     0.096 C 
ATOM     16  O   UNL     1     -24.510  54.789  40.766  1.00  0.00    -0.362 OA
ATOM     17  C   UNL     1     -23.099  56.332  39.575  1.00  0.00     0.045 C 
BRANCH  15  18
ATOM     18  C   UNL     1     -22.136  54.301  40.959  1.00  0.00     0.042 C 
BRANCH  18  19
ATOM     19  C   UNL     1     -22.505  52.880  40.474  1.00  0.00     0.030 CG0
ATOM     20  G   UNL     1     -22.918  51.883  41.536  1.00  0.00     0.000 G0
ENDBRANCH  18  19
ENDBRANCH  15  18
ENDBRANCH   1  14
TORSDOF 0
ENDMDL
