MODEL 1
REMARK VINA RESULT:    -4.896      0.000      0.000
REMARK INTER + INTRA:         -11.309
REMARK INTER:                  -9.476
REMARK INTRA:                  -1.834
REMARK UNBOUND:                -1.834
REMARK SMILES CCCCCCCCCCCCCCCCCC(=O)[O-]
REMARK SMILES IDX 10 1 11 2 12 3 13 4 14 5 15 6 16 7 17 8 18 9 19 10 20 11
REMARK SMILES IDX 9 12 8 13 7 14 6 15 5 16 4 17 3 18 2 19 1 20
REMARK H PARENT
REMARK Flexibility Score: inf
ROOT
ATOM      1  C   UNL     1       1.254 -36.258  19.954  1.00  0.00     0.000 C 
ENDROOT
BRANCH   1   2
ATOM      2  C   UNL     1       0.349 -36.280  21.198  1.00  0.00     0.000 C 
BRANCH   2   3
ATOM      3  C   UNL     1      -0.469 -37.579  21.326  1.00  0.00     0.000 C 
BRANCH   3   4
ATOM      4  C   UNL     1      -1.973 -37.374  21.583  1.00  0.00     0.000 C 
BRANCH   4   5
ATOM      5  C   UNL     1      -2.442 -35.939  21.291  1.00  0.00     0.000 C 
BRANCH   5   6
ATOM      6  C   UNL     1      -2.975 -35.226  22.544  1.00  0.00     0.000 C 
BRANCH   6   7
ATOM      7  C   UNL     1      -2.062 -34.072  22.998  1.00  0.00     0.006 C 
BRANCH   7   8
ATOM      8  C   UNL     1      -2.810 -33.036  23.847  1.00  0.00     0.053 C 
BRANCH   8   9
ATOM      9  C   UNL     1      -1.912 -31.919  24.287  1.00  0.00     0.041 C 
ATOM     10  O   UNL     1      -2.381 -30.764  24.469  1.00  0.00    -0.550 OA
ATOM     11  O   UNL     1      -0.552 -32.149  24.474  1.00  0.00    -0.550 OA
ENDBRANCH   8   9
ENDBRANCH   7   8
ENDBRANCH   6   7
ENDBRANCH   5   6
ENDBRANCH   4   5
ENDBRANCH   3   4
ENDBRANCH   2   3
ENDBRANCH   1   2
BRANCH   1  12
ATOM     12  C   UNL     1       1.384 -37.648  19.292  1.00  0.00     0.000 C 
BRANCH  12  13
ATOM     13  C   UNL     1       2.724 -37.863  18.563  1.00  0.00    -0.000 C 
BRANCH  13  14
ATOM     14  C   UNL     1       3.407 -36.573  18.072  1.00  0.00    -0.000 C 
BRANCH  14  15
ATOM     15  C   UNL     1       4.766 -36.259  18.733  1.00  0.00    -0.000 C 
BRANCH  15  16
ATOM     16  C   UNL     1       5.600 -37.493  19.121  1.00  0.00    -0.000 C 
BRANCH  16  17
ATOM     17  C   UNL     1       5.954 -37.526  20.618  1.00  0.00    -0.000 C 
BRANCH  17  18
ATOM     18  C   UNL     1       4.733 -37.802  21.514  1.00  0.00    -0.000 C 
BRANCH  18  19
ATOM     19  C   UNL     1       4.567 -36.828  22.696  1.00  0.00    -0.003 C 
ATOM     20  C   UNL     1       3.909 -35.507  22.296  1.00  0.00     0.004 C 
ENDBRANCH  18  19
ENDBRANCH  17  18
ENDBRANCH  16  17
ENDBRANCH  15  16
ENDBRANCH  14  15
ENDBRANCH  13  14
ENDBRANCH  12  13
ENDBRANCH   1  12
TORSDOF 16
ENDMDL
MODEL 2
REMARK VINA RESULT:    -4.814     20.840     22.220
REMARK INTER + INTRA:         -11.151
REMARK INTER:                  -8.622
REMARK INTRA:                  -2.529
REMARK UNBOUND:                -1.834
REMARK SMILES CCCCCCCCCCCCCCCCCC(=O)[O-]
REMARK SMILES IDX 10 1 11 2 12 3 13 4 14 5 15 6 16 7 17 8 18 9 19 10 20 11
REMARK SMILES IDX 9 12 8 13 7 14 6 15 5 16 4 17 3 18 2 19 1 20
REMARK H PARENT
REMARK Flexibility Score: inf
ROOT
ATOM      1  C   UNL     1      -8.776 -20.478  33.263  1.00  0.00     0.000 C 
ENDROOT
BRANCH   1   2
ATOM      2  C   UNL     1      -9.920 -21.207  33.990  1.00  0.00     0.000 C 
BRANCH   2   3
ATOM      3  C   UNL     1     -11.118 -20.289  34.299  1.00  0.00     0.000 C 
BRANCH   3   4
ATOM      4  C   UNL     1     -11.928 -19.845  33.067  1.00  0.00     0.000 C 
BRANCH   4   5
ATOM      5  C   UNL     1     -11.932 -18.320  32.870  1.00  0.00     0.000 C 
BRANCH   5   6
ATOM      6  C   UNL     1     -11.051 -17.875  31.690  1.00  0.00     0.000 C 
BRANCH   6   7
ATOM      7  C   UNL     1     -10.838 -18.998  30.659  1.00  0.00     0.006 C 
BRANCH   7   8
ATOM      8  C   UNL     1      -9.793 -18.627  29.599  1.00  0.00     0.053 C 
BRANCH   8   9
ATOM      9  C   UNL     1      -9.840 -19.549  28.418  1.00  0.00     0.041 C 
ATOM     10  O   UNL     1      -9.580 -19.115  27.265  1.00  0.00    -0.550 OA
ATOM     11  O   UNL     1     -10.192 -20.885  28.590  1.00  0.00    -0.550 OA
ENDBRANCH   8   9
ENDBRANCH   7   8
ENDBRANCH   6   7
ENDBRANCH   5   6
ENDBRANCH   4   5
ENDBRANCH   3   4
ENDBRANCH   2   3
ENDBRANCH   1   2
BRANCH   1  12
ATOM     12  C   UNL     1      -8.450 -19.107  33.896  1.00  0.00     0.000 C 
BRANCH  12  13
ATOM     13  C   UNL     1      -7.592 -18.199  32.996  1.00  0.00    -0.000 C 
BRANCH  13  14
ATOM     14  C   UNL     1      -6.740 -18.943  31.951  1.00  0.00    -0.000 C 
BRANCH  14  15
ATOM     15  C   UNL     1      -5.336 -19.366  32.431  1.00  0.00    -0.000 C 
BRANCH  15  16
ATOM     16  C   UNL     1      -4.716 -18.458  33.508  1.00  0.00    -0.000 C 
BRANCH  16  17
ATOM     17  C   UNL     1      -3.955 -19.247  34.587  1.00  0.00    -0.000 C 
BRANCH  17  18
ATOM     18  C   UNL     1      -4.839 -19.612  35.794  1.00  0.00    -0.000 C 
BRANCH  18  19
ATOM     19  C   UNL     1      -4.964 -21.123  36.068  1.00  0.00    -0.003 C 
ATOM     20  C   UNL     1      -5.923 -21.829  35.108  1.00  0.00     0.004 C 
ENDBRANCH  18  19
ENDBRANCH  17  18
ENDBRANCH  16  17
ENDBRANCH  15  16
ENDBRANCH  14  15
ENDBRANCH  13  14
ENDBRANCH  12  13
ENDBRANCH   1  12
TORSDOF 16
ENDMDL
MODEL 3
REMARK VINA RESULT:    -4.719     20.941     22.594
REMARK INTER + INTRA:         -10.966
REMARK INTER:                  -8.221
REMARK INTRA:                  -2.745
REMARK UNBOUND:                -1.834
REMARK SMILES CCCCCCCCCCCCCCCCCC(=O)[O-]
REMARK SMILES IDX 10 1 11 2 12 3 13 4 14 5 15 6 16 7 17 8 18 9 19 10 20 11
REMARK SMILES IDX 9 12 8 13 7 14 6 15 5 16 4 17 3 18 2 19 1 20
REMARK H PARENT
REMARK Flexibility Score: inf
ROOT
ATOM      1  C   UNL     1      -9.185 -18.631  29.796  1.00  0.00     0.000 C 
ENDROOT
BRANCH   1   2
ATOM      2  C   UNL     1     -10.623 -18.637  30.344  1.00  0.00     0.000 C 
BRANCH   2   3
ATOM      3  C   UNL     1     -11.166 -20.057  30.596  1.00  0.00     0.000 C 
BRANCH   3   4
ATOM      4  C   UNL     1     -12.081 -20.191  31.827  1.00  0.00     0.000 C 
BRANCH   4   5
ATOM      5  C   UNL     1     -12.120 -18.917  32.688  1.00  0.00     0.000 C 
BRANCH   5   6
ATOM      6  C   UNL     1     -12.569 -19.193  34.132  1.00  0.00     0.000 C 
BRANCH   6   7
ATOM      7  C   UNL     1     -12.548 -20.693  34.478  1.00  0.00     0.006 C 
BRANCH   7   8
ATOM      8  C   UNL     1     -11.359 -21.070  35.371  1.00  0.00     0.053 C 
BRANCH   8   9
ATOM      9  C   UNL     1     -11.324 -22.539  35.669  1.00  0.00     0.041 C 
ATOM     10  O   UNL     1     -10.227 -23.155  35.688  1.00  0.00    -0.550 OA
ATOM     11  O   UNL     1     -12.509 -23.231  35.905  1.00  0.00    -0.550 OA
ENDBRANCH   8   9
ENDBRANCH   7   8
ENDBRANCH   6   7
ENDBRANCH   5   6
ENDBRANCH   4   5
ENDBRANCH   3   4
ENDBRANCH   2   3
ENDBRANCH   1   2
BRANCH   1  12
ATOM     12  C   UNL     1      -8.124 -18.660  30.918  1.00  0.00     0.000 C 
BRANCH  12  13
ATOM     13  C   UNL     1      -8.559 -17.923  32.199  1.00  0.00    -0.000 C 
BRANCH  13  14
ATOM     14  C   UNL     1      -8.672 -18.813  33.451  1.00  0.00    -0.000 C 
BRANCH  14  15
ATOM     15  C   UNL     1      -8.527 -20.327  33.193  1.00  0.00    -0.000 C 
BRANCH  15  16
ATOM     16  C   UNL     1      -7.728 -21.095  34.262  1.00  0.00    -0.000 C 
BRANCH  16  17
ATOM     17  C   UNL     1      -6.257 -21.311  33.865  1.00  0.00    -0.000 C 
BRANCH  17  18
ATOM     18  C   UNL     1      -5.273 -20.583  34.800  1.00  0.00    -0.000 C 
BRANCH  18  19
ATOM     19  C   UNL     1      -5.142 -19.070  34.544  1.00  0.00    -0.003 C 
ATOM     20  C   UNL     1      -4.938 -18.726  33.069  1.00  0.00     0.004 C 
ENDBRANCH  18  19
ENDBRANCH  17  18
ENDBRANCH  16  17
ENDBRANCH  15  16
ENDBRANCH  14  15
ENDBRANCH  13  14
ENDBRANCH  12  13
ENDBRANCH   1  12
TORSDOF 16
ENDMDL
MODEL 4
REMARK VINA RESULT:    -4.688     21.098     22.883
REMARK INTER + INTRA:         -10.907
REMARK INTER:                  -8.856
REMARK INTRA:                  -2.051
REMARK UNBOUND:                -1.834
REMARK SMILES CCCCCCCCCCCCCCCCCC(=O)[O-]
REMARK SMILES IDX 10 1 11 2 12 3 13 4 14 5 15 6 16 7 17 8 18 9 19 10 20 11
REMARK SMILES IDX 9 12 8 13 7 14 6 15 5 16 4 17 3 18 2 19 1 20
REMARK H PARENT
REMARK Flexibility Score: inf
ROOT
ATOM      1  C   UNL     1      -8.060 -19.017  31.081  1.00  0.00     0.000 C 
ENDROOT
BRANCH   1   2
ATOM      2  C   UNL     1      -7.818 -18.054  32.256  1.00  0.00     0.000 C 
BRANCH   2   3
ATOM      3  C   UNL     1      -8.014 -18.720  33.632  1.00  0.00     0.000 C 
BRANCH   3   4
ATOM      4  C   UNL     1      -7.892 -20.255  33.630  1.00  0.00     0.000 C 
BRANCH   4   5
ATOM      5  C   UNL     1      -6.439 -20.741  33.765  1.00  0.00     0.000 C 
BRANCH   5   6
ATOM      6  C   UNL     1      -6.130 -21.297  35.165  1.00  0.00     0.000 C 
BRANCH   6   7
ATOM      7  C   UNL     1      -5.194 -20.378  35.970  1.00  0.00     0.006 C 
BRANCH   7   8
ATOM      8  C   UNL     1      -3.739 -20.863  35.949  1.00  0.00     0.053 C 
BRANCH   8   9
ATOM      9  C   UNL     1      -2.911 -20.113  34.950  1.00  0.00     0.041 C 
ATOM     10  O   UNL     1      -3.404 -19.137  34.324  1.00  0.00    -0.550 OA
ATOM     11  O   UNL     1      -1.600 -20.505  34.695  1.00  0.00    -0.550 OA
ENDBRANCH   8   9
ENDBRANCH   7   8
ENDBRANCH   6   7
ENDBRANCH   5   6
ENDBRANCH   4   5
ENDBRANCH   3   4
ENDBRANCH   2   3
ENDBRANCH   1   2
BRANCH   1  12
ATOM     12  C   UNL     1      -9.180 -18.527  30.136  1.00  0.00     0.000 C 
BRANCH  12  13
ATOM     13  C   UNL     1     -10.585 -18.576  30.765  1.00  0.00    -0.000 C 
BRANCH  13  14
ATOM     14  C   UNL     1     -11.177 -19.989  30.916  1.00  0.00    -0.000 C 
BRANCH  14  15
ATOM     15  C   UNL     1     -11.547 -20.393  32.360  1.00  0.00    -0.000 C 
BRANCH  15  16
ATOM     16  C   UNL     1     -11.550 -19.238  33.377  1.00  0.00    -0.000 C 
BRANCH  16  17
ATOM     17  C   UNL     1     -11.579 -19.728  34.835  1.00  0.00    -0.000 C 
BRANCH  17  18
ATOM     18  C   UNL     1     -12.329 -21.063  35.001  1.00  0.00    -0.000 C 
BRANCH  18  19
ATOM     19  C   UNL     1     -11.622 -22.093  35.902  1.00  0.00    -0.003 C 
ATOM     20  C   UNL     1     -10.311 -22.609  35.309  1.00  0.00     0.004 C 
ENDBRANCH  18  19
ENDBRANCH  17  18
ENDBRANCH  16  17
ENDBRANCH  15  16
ENDBRANCH  14  15
ENDBRANCH  13  14
ENDBRANCH  12  13
ENDBRANCH   1  12
TORSDOF 16
ENDMDL
MODEL 5
REMARK VINA RESULT:    -4.641     21.098     23.053
REMARK INTER + INTRA:         -10.815
REMARK INTER:                  -9.087
REMARK INTRA:                  -1.728
REMARK UNBOUND:                -1.834
REMARK SMILES CCCCCCCCCCCCCCCCCC(=O)[O-]
REMARK SMILES IDX 10 1 11 2 12 3 13 4 14 5 15 6 16 7 17 8 18 9 19 10 20 11
REMARK SMILES IDX 9 12 8 13 7 14 6 15 5 16 4 17 3 18 2 19 1 20
REMARK H PARENT
REMARK Flexibility Score: inf
ROOT
ATOM      1  C   UNL     1      -9.873 -20.298  30.498  1.00  0.00     0.000 C 
ENDROOT
BRANCH   1   2
ATOM      2  C   UNL     1      -9.224 -18.989  30.015  1.00  0.00     0.000 C 
BRANCH   2   3
ATOM      3  C   UNL     1      -7.953 -18.620  30.803  1.00  0.00     0.000 C 
BRANCH   3   4
ATOM      4  C   UNL     1      -8.208 -17.963  32.173  1.00  0.00     0.000 C 
BRANCH   4   5
ATOM      5  C   UNL     1      -7.279 -18.497  33.276  1.00  0.00     0.000 C 
BRANCH   5   6
ATOM      6  C   UNL     1      -6.056 -19.237  32.711  1.00  0.00     0.000 C 
BRANCH   6   7
ATOM      7  C   UNL     1      -4.732 -18.526  33.045  1.00  0.00     0.006 C 
BRANCH   7   8
ATOM      8  C   UNL     1      -4.326 -18.708  34.513  1.00  0.00     0.053 C 
BRANCH   8   9
ATOM      9  C   UNL     1      -3.648 -20.024  34.749  1.00  0.00     0.041 C 
ATOM     10  O   UNL     1      -2.391 -20.104  34.720  1.00  0.00    -0.550 OA
ATOM     11  O   UNL     1      -4.407 -21.168  34.979  1.00  0.00    -0.550 OA
ENDBRANCH   8   9
ENDBRANCH   7   8
ENDBRANCH   6   7
ENDBRANCH   5   6
ENDBRANCH   4   5
ENDBRANCH   3   4
ENDBRANCH   2   3
ENDBRANCH   1   2
BRANCH   1  12
ATOM     12  C   UNL     1     -11.365 -20.121  30.859  1.00  0.00     0.000 C 
BRANCH  12  13
ATOM     13  C   UNL     1     -11.594 -19.487  32.244  1.00  0.00    -0.000 C 
BRANCH  13  14
ATOM     14  C   UNL     1     -12.671 -20.177  33.101  1.00  0.00    -0.000 C 
BRANCH  14  15
ATOM     15  C   UNL     1     -12.953 -19.506  34.463  1.00  0.00    -0.000 C 
BRANCH  15  16
ATOM     16  C   UNL     1     -12.761 -20.417  35.688  1.00  0.00    -0.000 C 
BRANCH  16  17
ATOM     17  C   UNL     1     -12.424 -21.869  35.304  1.00  0.00    -0.000 C 
BRANCH  17  18
ATOM     18  C   UNL     1     -11.156 -22.392  36.004  1.00  0.00    -0.000 C 
BRANCH  18  19
ATOM     19  C   UNL     1     -10.008 -22.781  35.053  1.00  0.00    -0.003 C 
ATOM     20  C   UNL     1      -9.404 -21.583  34.320  1.00  0.00     0.004 C 
ENDBRANCH  18  19
ENDBRANCH  17  18
ENDBRANCH  16  17
ENDBRANCH  15  16
ENDBRANCH  14  15
ENDBRANCH  13  14
ENDBRANCH  12  13
ENDBRANCH   1  12
TORSDOF 16
ENDMDL
MODEL 6
REMARK VINA RESULT:    -4.594      2.281      7.140
REMARK INTER + INTRA:         -10.725
REMARK INTER:                  -8.731
REMARK INTRA:                  -1.994
REMARK UNBOUND:                -1.834
REMARK SMILES CCCCCCCCCCCCCCCCCC(=O)[O-]
REMARK SMILES IDX 10 1 11 2 12 3 13 4 14 5 15 6 16 7 17 8 18 9 19 10 20 11
REMARK SMILES IDX 9 12 8 13 7 14 6 15 5 16 4 17 3 18 2 19 1 20
REMARK H PARENT
REMARK Flexibility Score: inf
ROOT
ATOM      1  C   UNL     1       0.668 -36.196  20.778  1.00  0.00     0.000 C 
ENDROOT
BRANCH   1   2
ATOM      2  C   UNL     1       1.661 -35.928  19.633  1.00  0.00     0.000 C 
BRANCH   2   3
ATOM      3  C   UNL     1       1.925 -37.170  18.761  1.00  0.00     0.000 C 
BRANCH   3   4
ATOM      4  C   UNL     1       3.143 -37.058  17.826  1.00  0.00     0.000 C 
BRANCH   4   5
ATOM      5  C   UNL     1       4.386 -36.484  18.527  1.00  0.00     0.000 C 
BRANCH   5   6
ATOM      6  C   UNL     1       5.361 -37.579  18.990  1.00  0.00     0.000 C 
BRANCH   6   7
ATOM      7  C   UNL     1       5.190 -37.928  20.479  1.00  0.00     0.006 C 
BRANCH   7   8
ATOM      8  C   UNL     1       5.201 -36.684  21.376  1.00  0.00     0.053 C 
BRANCH   8   9
ATOM      9  C   UNL     1       4.065 -36.687  22.354  1.00  0.00     0.041 C 
ATOM     10  O   UNL     1       3.605 -37.777  22.788  1.00  0.00    -0.550 OA
ATOM     11  O   UNL     1       3.499 -35.485  22.771  1.00  0.00    -0.550 OA
ENDBRANCH   8   9
ENDBRANCH   7   8
ENDBRANCH   6   7
ENDBRANCH   5   6
ENDBRANCH   4   5
ENDBRANCH   3   4
ENDBRANCH   2   3
ENDBRANCH   1   2
BRANCH   1  12
ATOM     12  C   UNL     1       0.526 -37.701  21.098  1.00  0.00     0.000 C 
BRANCH  12  13
ATOM     13  C   UNL     1      -0.912 -38.124  21.454  1.00  0.00    -0.000 C 
BRANCH  13  14
ATOM     14  C   UNL     1      -1.932 -37.976  20.310  1.00  0.00    -0.000 C 
BRANCH  14  15
ATOM     15  C   UNL     1      -2.998 -36.880  20.521  1.00  0.00    -0.000 C 
BRANCH  15  16
ATOM     16  C   UNL     1      -3.638 -36.856  21.920  1.00  0.00    -0.000 C 
BRANCH  16  17
ATOM     17  C   UNL     1      -3.559 -35.473  22.588  1.00  0.00    -0.000 C 
BRANCH  17  18
ATOM     18  C   UNL     1      -2.228 -34.750  22.309  1.00  0.00    -0.000 C 
BRANCH  18  19
ATOM     19  C   UNL     1      -1.791 -33.758  23.403  1.00  0.00    -0.003 C 
ATOM     20  C   UNL     1      -2.830 -32.670  23.675  1.00  0.00     0.004 C 
ENDBRANCH  18  19
ENDBRANCH  17  18
ENDBRANCH  16  17
ENDBRANCH  15  16
ENDBRANCH  14  15
ENDBRANCH  13  14
ENDBRANCH  12  13
ENDBRANCH   1  12
TORSDOF 16
ENDMDL
MODEL 7
REMARK VINA RESULT:    -4.586     20.840     22.826
REMARK INTER + INTRA:         -10.708
REMARK INTER:                  -8.795
REMARK INTRA:                  -1.913
REMARK UNBOUND:                -1.834
REMARK SMILES CCCCCCCCCCCCCCCCCC(=O)[O-]
REMARK SMILES IDX 10 1 11 2 12 3 13 4 14 5 15 6 16 7 17 8 18 9 19 10 20 11
REMARK SMILES IDX 9 12 8 13 7 14 6 15 5 16 4 17 3 18 2 19 1 20
REMARK H PARENT
REMARK Flexibility Score: inf
ROOT
ATOM      1  C   UNL     1      -8.678 -21.613  34.243  1.00  0.00     0.000 C 
ENDROOT
BRANCH   1   2
ATOM      2  C   UNL     1      -8.726 -20.793  32.941  1.00  0.00     0.000 C 
BRANCH   2   3
ATOM      3  C   UNL     1      -8.196 -19.356  33.114  1.00  0.00     0.000 C 
BRANCH   3   4
ATOM      4  C   UNL     1      -7.101 -18.946  32.112  1.00  0.00     0.000 C 
BRANCH   4   5
ATOM      5  C   UNL     1      -5.679 -19.183  32.648  1.00  0.00     0.000 C 
BRANCH   5   6
ATOM      6  C   UNL     1      -5.203 -18.054  33.578  1.00  0.00     0.000 C 
BRANCH   6   7
ATOM      7  C   UNL     1      -4.652 -18.584  34.914  1.00  0.00     0.006 C 
BRANCH   7   8
ATOM      8  C   UNL     1      -5.471 -19.761  35.458  1.00  0.00     0.053 C 
BRANCH   8   9
ATOM      9  C   UNL     1      -4.627 -20.982  35.667  1.00  0.00     0.041 C 
ATOM     10  O   UNL     1      -5.132 -22.130  35.545  1.00  0.00    -0.550 OA
ATOM     11  O   UNL     1      -3.287 -20.852  36.019  1.00  0.00    -0.550 OA
ENDBRANCH   8   9
ENDBRANCH   7   8
ENDBRANCH   6   7
ENDBRANCH   5   6
ENDBRANCH   4   5
ENDBRANCH   3   4
ENDBRANCH   2   3
ENDBRANCH   1   2
BRANCH   1  12
ATOM     12  C   UNL     1     -10.063 -22.167  34.645  1.00  0.00     0.000 C 
BRANCH  12  13
ATOM     13  C   UNL     1     -11.085 -21.073  35.006  1.00  0.00    -0.000 C 
BRANCH  13  14
ATOM     14  C   UNL     1     -12.156 -20.809  33.931  1.00  0.00    -0.000 C 
BRANCH  14  15
ATOM     15  C   UNL     1     -12.084 -19.420  33.261  1.00  0.00    -0.000 C 
BRANCH  15  16
ATOM     16  C   UNL     1     -11.721 -19.439  31.765  1.00  0.00    -0.000 C 
BRANCH  16  17
ATOM     17  C   UNL     1     -11.041 -18.139  31.301  1.00  0.00    -0.000 C 
BRANCH  17  18
ATOM     18  C   UNL     1     -10.696 -18.149  29.800  1.00  0.00    -0.000 C 
BRANCH  18  19
ATOM     19  C   UNL     1      -9.696 -19.240  29.375  1.00  0.00    -0.003 C 
ATOM     20  C   UNL     1      -9.710 -19.515  27.871  1.00  0.00     0.004 C 
ENDBRANCH  18  19
ENDBRANCH  17  18
ENDBRANCH  16  17
ENDBRANCH  15  16
ENDBRANCH  14  15
ENDBRANCH  13  14
ENDBRANCH  12  13
ENDBRANCH   1  12
TORSDOF 16
ENDMDL
MODEL 8
REMARK VINA RESULT:    -4.514     20.746     22.486
REMARK INTER + INTRA:         -10.569
REMARK INTER:                  -8.908
REMARK INTRA:                  -1.661
REMARK UNBOUND:                -1.834
REMARK SMILES CCCCCCCCCCCCCCCCCC(=O)[O-]
REMARK SMILES IDX 10 1 11 2 12 3 13 4 14 5 15 6 16 7 17 8 18 9 19 10 20 11
REMARK SMILES IDX 9 12 8 13 7 14 6 15 5 16 4 17 3 18 2 19 1 20
REMARK H PARENT
REMARK Flexibility Score: inf
ROOT
ATOM      1  C   UNL     1      -8.186 -21.118  34.068  1.00  0.00     0.000 C 
ENDROOT
BRANCH   1   2
ATOM      2  C   UNL     1      -6.921 -21.975  34.245  1.00  0.00     0.000 C 
BRANCH   2   3
ATOM      3  C   UNL     1      -6.302 -21.853  35.651  1.00  0.00     0.000 C 
BRANCH   3   4
ATOM      4  C   UNL     1      -4.769 -21.711  35.673  1.00  0.00     0.000 C 
BRANCH   4   5
ATOM      5  C   UNL     1      -4.304 -20.283  36.003  1.00  0.00     0.000 C 
BRANCH   5   6
ATOM      6  C   UNL     1      -5.432 -19.248  35.865  1.00  0.00     0.000 C 
BRANCH   6   7
ATOM      7  C   UNL     1      -4.926 -17.891  35.341  1.00  0.00     0.006 C 
BRANCH   7   8
ATOM      8  C   UNL     1      -4.418 -17.976  33.897  1.00  0.00     0.053 C 
BRANCH   8   9
ATOM      9  C   UNL     1      -5.417 -18.627  32.988  1.00  0.00     0.041 C 
ATOM     10  O   UNL     1      -6.538 -18.090  32.791  1.00  0.00    -0.550 OA
ATOM     11  O   UNL     1      -5.115 -19.839  32.374  1.00  0.00    -0.550 OA
ENDBRANCH   8   9
ENDBRANCH   7   8
ENDBRANCH   6   7
ENDBRANCH   5   6
ENDBRANCH   4   5
ENDBRANCH   3   4
ENDBRANCH   2   3
ENDBRANCH   1   2
BRANCH   1  12
ATOM     12  C   UNL     1      -9.481 -21.904  34.370  1.00  0.00     0.000 C 
BRANCH  12  13
ATOM     13  C   UNL     1     -10.705 -21.005  34.625  1.00  0.00    -0.000 C 
BRANCH  13  14
ATOM     14  C   UNL     1     -10.899 -19.871  33.601  1.00  0.00    -0.000 C 
BRANCH  14  15
ATOM     15  C   UNL     1     -11.786 -20.228  32.389  1.00  0.00    -0.000 C 
BRANCH  15  16
ATOM     16  C   UNL     1     -11.070 -20.190  31.027  1.00  0.00    -0.000 C 
BRANCH  16  17
ATOM     17  C   UNL     1      -9.595 -19.767  31.140  1.00  0.00    -0.000 C 
BRANCH  17  18
ATOM     18  C   UNL     1      -9.130 -18.901  29.955  1.00  0.00    -0.000 C 
BRANCH  18  19
ATOM     19  C   UNL     1     -10.165 -18.744  28.825  1.00  0.00    -0.003 C 
ATOM     20  C   UNL     1      -9.609 -19.108  27.448  1.00  0.00     0.004 C 
ENDBRANCH  18  19
ENDBRANCH  17  18
ENDBRANCH  16  17
ENDBRANCH  15  16
ENDBRANCH  14  15
ENDBRANCH  13  14
ENDBRANCH  12  13
ENDBRANCH   1  12
TORSDOF 16
ENDMDL
MODEL 9
REMARK VINA RESULT:    -4.499      1.111      2.536
REMARK INTER + INTRA:         -10.541
REMARK INTER:                  -8.917
REMARK INTRA:                  -1.624
REMARK UNBOUND:                -1.834
REMARK SMILES CCCCCCCCCCCCCCCCCC(=O)[O-]
REMARK SMILES IDX 10 1 11 2 12 3 13 4 14 5 15 6 16 7 17 8 18 9 19 10 20 11
REMARK SMILES IDX 9 12 8 13 7 14 6 15 5 16 4 17 3 18 2 19 1 20
REMARK H PARENT
REMARK Flexibility Score: inf
ROOT
ATOM      1  C   UNL     1       0.550 -36.268  21.226  1.00  0.00     0.000 C 
ENDROOT
BRANCH   1   2
ATOM      2  C   UNL     1      -0.188 -37.616  21.312  1.00  0.00     0.000 C 
BRANCH   2   3
ATOM      3  C   UNL     1      -1.418 -37.690  20.387  1.00  0.00     0.000 C 
BRANCH   3   4
ATOM      4  C   UNL     1      -2.723 -38.125  21.078  1.00  0.00     0.000 C 
BRANCH   4   5
ATOM      5  C   UNL     1      -3.565 -36.937  21.572  1.00  0.00     0.000 C 
BRANCH   5   6
ATOM      6  C   UNL     1      -2.793 -35.608  21.530  1.00  0.00     0.000 C 
BRANCH   6   7
ATOM      7  C   UNL     1      -2.861 -34.844  22.865  1.00  0.00     0.006 C 
BRANCH   7   8
ATOM      8  C   UNL     1      -1.720 -33.830  23.015  1.00  0.00     0.053 C 
BRANCH   8   9
ATOM      9  C   UNL     1      -2.108 -32.677  23.892  1.00  0.00     0.041 C 
ATOM     10  O   UNL     1      -3.281 -32.220  23.857  1.00  0.00    -0.550 OA
ATOM     11  O   UNL     1      -1.164 -32.092  24.733  1.00  0.00    -0.550 OA
ENDBRANCH   8   9
ENDBRANCH   7   8
ENDBRANCH   6   7
ENDBRANCH   5   6
ENDBRANCH   4   5
ENDBRANCH   3   4
ENDBRANCH   2   3
ENDBRANCH   1   2
BRANCH   1  12
ATOM     12  C   UNL     1       2.066 -36.406  21.489  1.00  0.00     0.000 C 
BRANCH  12  13
ATOM     13  C   UNL     1       2.498 -37.833  21.879  1.00  0.00    -0.000 C 
BRANCH  13  14
ATOM     14  C   UNL     1       3.958 -37.960  22.353  1.00  0.00    -0.000 C 
BRANCH  14  15
ATOM     15  C   UNL     1       4.836 -36.714  22.110  1.00  0.00    -0.000 C 
BRANCH  15  16
ATOM     16  C   UNL     1       5.989 -36.916  21.111  1.00  0.00    -0.000 C 
BRANCH  16  17
ATOM     17  C   UNL     1       5.574 -37.741  19.881  1.00  0.00    -0.000 C 
BRANCH  17  18
ATOM     18  C   UNL     1       4.692 -36.947  18.899  1.00  0.00    -0.000 C 
BRANCH  18  19
ATOM     19  C   UNL     1       3.614 -37.781  18.181  1.00  0.00    -0.003 C 
ATOM     20  C   UNL     1       2.358 -36.976  17.843  1.00  0.00     0.004 C 
ENDBRANCH  18  19
ENDBRANCH  17  18
ENDBRANCH  16  17
ENDBRANCH  15  16
ENDBRANCH  14  15
ENDBRANCH  13  14
ENDBRANCH  12  13
ENDBRANCH   1  12
TORSDOF 16
ENDMDL
