MODEL 1
REMARK VINA RESULT:     0.483      0.000      0.000
REMARK INTER + INTRA:          -0.577
REMARK INTER:                   1.217
REMARK INTRA:                  -1.794
REMARK UNBOUND:                -1.794
REMARK SMILES CCCCCCCCCCCCCCCCCCCCCCCCCCCC(=O)[O-]
REMARK SMILES IDX 15 1 16 2 17 3 18 4 19 5 20 6 21 7 22 8 23 9 24 10 25 11
REMARK SMILES IDX 26 12 27 13 28 14 29 15 30 16 14 17 13 18 12 19 11 20 10 21
REMARK SMILES IDX 9 22 8 23 7 24 6 25 5 26 4 27 3 28 2 29 1 30
REMARK H PARENT
REMARK Flexibility Score: inf
ROOT
ATOM      1  C   UNL     1      53.802  80.264  37.105  1.00  0.00     0.000 C 
ENDROOT
BRANCH   1   2
ATOM      2  C   UNL     1      53.326  79.059  36.267  1.00  0.00     0.000 C 
BRANCH   2   3
ATOM      3  C   UNL     1      53.140  79.344  34.766  1.00  0.00     0.000 C 
BRANCH   3   4
ATOM      4  C   UNL     1      53.868  80.618  34.306  1.00  0.00     0.000 C 
BRANCH   4   5
ATOM      5  C   UNL     1      53.395  81.094  32.923  1.00  0.00     0.000 C 
BRANCH   5   6
ATOM      6  C   UNL     1      54.288  82.210  32.351  1.00  0.00     0.000 C 
BRANCH   6   7
ATOM      7  C   UNL     1      54.928  81.821  31.007  1.00  0.00     0.000 C 
BRANCH   7   8
ATOM      8  C   UNL     1      53.935  81.107  30.073  1.00  0.00     0.000 C 
BRANCH   8   9
ATOM      9  C   UNL     1      52.990  82.087  29.359  1.00  0.00     0.000 C 
BRANCH   9  10
ATOM     10  C   UNL     1      51.531  81.952  29.825  1.00  0.00     0.000 C 
BRANCH  10  11
ATOM     11  C   UNL     1      50.799  83.312  29.842  1.00  0.00     0.000 C 
BRANCH  11  12
ATOM     12  C   UNL     1      51.007  84.109  31.142  1.00  0.00     0.006 C 
BRANCH  12  13
ATOM     13  C   UNL     1      49.691  84.574  31.775  1.00  0.00     0.053 C 
BRANCH  13  14
ATOM     14  C   UNL     1      49.893  84.912  33.218  1.00  0.00     0.041 C 
ATOM     15  O   UNL     1      48.906  84.970  33.999  1.00  0.00    -0.550 OA
ATOM     16  O   UNL     1      51.175  85.120  33.712  1.00  0.00    -0.550 OA
ENDBRANCH  13  14
ENDBRANCH  12  13
ENDBRANCH  11  12
ENDBRANCH  10  11
ENDBRANCH   9  10
ENDBRANCH   8   9
ENDBRANCH   7   8
ENDBRANCH   6   7
ENDBRANCH   5   6
ENDBRANCH   4   5
ENDBRANCH   3   4
ENDBRANCH   2   3
ENDBRANCH   1   2
BRANCH   1  17
ATOM     17  C   UNL     1      52.857  80.675  38.250  1.00  0.00     0.000 C 
BRANCH  17  18
ATOM     18  C   UNL     1      51.406  80.176  38.103  1.00  0.00     0.000 C 
BRANCH  18  19
ATOM     19  C   UNL     1      50.565  80.233  39.393  1.00  0.00     0.000 C 
BRANCH  19  20
ATOM     20  C   UNL     1      49.140  79.663  39.273  1.00  0.00     0.000 C 
BRANCH  20  21
ATOM     21  C   UNL     1      48.085  80.540  39.969  1.00  0.00     0.000 C 
BRANCH  21  22
ATOM     22  C   UNL     1      48.581  81.126  41.304  1.00  0.00    -0.000 C 
BRANCH  22  23
ATOM     23  C   UNL     1      48.635  82.666  41.369  1.00  0.00    -0.000 C 
BRANCH  23  24
ATOM     24  C   UNL     1      48.550  83.266  42.784  1.00  0.00    -0.000 C 
BRANCH  24  25
ATOM     25  C   UNL     1      48.222  82.217  43.857  1.00  0.00    -0.000 C 
BRANCH  25  26
ATOM     26  C   UNL     1      48.652  82.702  45.250  1.00  0.00    -0.000 C 
BRANCH  26  27
ATOM     27  C   UNL     1      48.097  81.806  46.378  1.00  0.00    -0.000 C 
BRANCH  27  28
ATOM     28  C   UNL     1      48.510  80.330  46.252  1.00  0.00    -0.000 C 
BRANCH  28  29
ATOM     29  C   UNL     1      48.423  79.570  47.582  1.00  0.00    -0.003 C 
ATOM     30  C   UNL     1      49.399  80.140  48.608  1.00  0.00     0.004 C 
ENDBRANCH  28  29
ENDBRANCH  27  28
ENDBRANCH  26  27
ENDBRANCH  25  26
ENDBRANCH  24  25
ENDBRANCH  23  24
ENDBRANCH  22  23
ENDBRANCH  21  22
ENDBRANCH  20  21
ENDBRANCH  19  20
ENDBRANCH  18  19
ENDBRANCH  17  18
ENDBRANCH   1  17
TORSDOF 26
ENDMDL
MODEL 2
REMARK VINA RESULT:     0.532      1.788      2.927
REMARK INTER + INTRA:          -0.453
REMARK INTER:                   1.473
REMARK INTRA:                  -1.927
REMARK UNBOUND:                -1.794
REMARK SMILES CCCCCCCCCCCCCCCCCCCCCCCCCCCC(=O)[O-]
REMARK SMILES IDX 15 1 16 2 17 3 18 4 19 5 20 6 21 7 22 8 23 9 24 10 25 11
REMARK SMILES IDX 26 12 27 13 28 14 29 15 30 16 14 17 13 18 12 19 11 20 10 21
REMARK SMILES IDX 9 22 8 23 7 24 6 25 5 26 4 27 3 28 2 29 1 30
REMARK H PARENT
REMARK Flexibility Score: inf
ROOT
ATOM      1  C   UNL     1      51.863  80.893  38.764  1.00  0.00     0.000 C 
ENDROOT
BRANCH   1   2
ATOM      2  C   UNL     1      53.227  80.308  38.345  1.00  0.00     0.000 C 
BRANCH   2   3
ATOM      3  C   UNL     1      53.631  80.583  36.885  1.00  0.00     0.000 C 
BRANCH   3   4
ATOM      4  C   UNL     1      53.469  79.351  35.979  1.00  0.00     0.000 C 
BRANCH   4   5
ATOM      5  C   UNL     1      53.244  79.734  34.508  1.00  0.00     0.000 C 
BRANCH   5   6
ATOM      6  C   UNL     1      53.941  81.055  34.133  1.00  0.00     0.000 C 
BRANCH   6   7
ATOM      7  C   UNL     1      53.818  81.380  32.635  1.00  0.00     0.000 C 
BRANCH   7   8
ATOM      8  C   UNL     1      55.174  81.748  32.004  1.00  0.00     0.000 C 
BRANCH   8   9
ATOM      9  C   UNL     1      55.721  83.086  32.525  1.00  0.00     0.000 C 
BRANCH   9  10
ATOM     10  C   UNL     1      56.279  83.978  31.403  1.00  0.00     0.000 C 
BRANCH  10  11
ATOM     11  C   UNL     1      55.306  85.115  31.027  1.00  0.00     0.000 C 
BRANCH  11  12
ATOM     12  C   UNL     1      54.114  84.651  30.172  1.00  0.00     0.006 C 
BRANCH  12  13
ATOM     13  C   UNL     1      52.810  84.547  30.970  1.00  0.00     0.053 C 
BRANCH  13  14
ATOM     14  C   UNL     1      51.745  83.887  30.153  1.00  0.00     0.041 C 
ATOM     15  O   UNL     1      50.795  84.568  29.682  1.00  0.00    -0.550 OA
ATOM     16  O   UNL     1      51.823  82.528  29.874  1.00  0.00    -0.550 OA
ENDBRANCH  13  14
ENDBRANCH  12  13
ENDBRANCH  11  12
ENDBRANCH  10  11
ENDBRANCH   9  10
ENDBRANCH   8   9
ENDBRANCH   7   8
ENDBRANCH   6   7
ENDBRANCH   5   6
ENDBRANCH   4   5
ENDBRANCH   3   4
ENDBRANCH   2   3
ENDBRANCH   1   2
BRANCH   1  17
ATOM     17  C   UNL     1      50.658  79.955  38.554  1.00  0.00     0.000 C 
BRANCH  17  18
ATOM     18  C   UNL     1      49.744  79.791  39.784  1.00  0.00     0.000 C 
BRANCH  18  19
ATOM     19  C   UNL     1      48.877  81.022  40.118  1.00  0.00     0.000 C 
BRANCH  19  20
ATOM     20  C   UNL     1      47.876  80.827  41.272  1.00  0.00     0.000 C 
BRANCH  20  21
ATOM     21  C   UNL     1      48.154  81.755  42.467  1.00  0.00     0.000 C 
BRANCH  21  22
ATOM     22  C   UNL     1      48.724  83.121  42.043  1.00  0.00    -0.000 C 
BRANCH  22  23
ATOM     23  C   UNL     1      49.063  84.081  43.202  1.00  0.00    -0.000 C 
BRANCH  23  24
ATOM     24  C   UNL     1      50.339  83.734  43.989  1.00  0.00    -0.000 C 
BRANCH  24  25
ATOM     25  C   UNL     1      50.073  83.503  45.484  1.00  0.00    -0.000 C 
BRANCH  25  26
ATOM     26  C   UNL     1      48.579  83.261  45.747  1.00  0.00    -0.000 C 
BRANCH  26  27
ATOM     27  C   UNL     1      48.292  81.813  46.199  1.00  0.00    -0.000 C 
BRANCH  27  28
ATOM     28  C   UNL     1      49.413  81.201  47.056  1.00  0.00    -0.000 C 
BRANCH  28  29
ATOM     29  C   UNL     1      49.084  79.786  47.550  1.00  0.00    -0.003 C 
ATOM     30  C   UNL     1      49.077  78.788  46.396  1.00  0.00     0.004 C 
ENDBRANCH  28  29
ENDBRANCH  27  28
ENDBRANCH  26  27
ENDBRANCH  25  26
ENDBRANCH  24  25
ENDBRANCH  23  24
ENDBRANCH  22  23
ENDBRANCH  21  22
ENDBRANCH  20  21
ENDBRANCH  19  20
ENDBRANCH  18  19
ENDBRANCH  17  18
ENDBRANCH   1  17
TORSDOF 26
ENDMDL
MODEL 3
REMARK VINA RESULT:     0.574      1.561      2.143
REMARK INTER + INTRA:          -0.347
REMARK INTER:                   1.833
REMARK INTRA:                  -2.180
REMARK UNBOUND:                -1.794
REMARK SMILES CCCCCCCCCCCCCCCCCCCCCCCCCCCC(=O)[O-]
REMARK SMILES IDX 15 1 16 2 17 3 18 4 19 5 20 6 21 7 22 8 23 9 24 10 25 11
REMARK SMILES IDX 26 12 27 13 28 14 29 15 30 16 14 17 13 18 12 19 11 20 10 21
REMARK SMILES IDX 9 22 8 23 7 24 6 25 5 26 4 27 3 28 2 29 1 30
REMARK H PARENT
REMARK Flexibility Score: inf
ROOT
ATOM      1  C   UNL     1      53.400  79.197  36.258  1.00  0.00     0.000 C 
ENDROOT
BRANCH   1   2
ATOM      2  C   UNL     1      53.470  79.458  34.739  1.00  0.00     0.000 C 
BRANCH   2   3
ATOM      3  C   UNL     1      53.953  80.864  34.343  1.00  0.00     0.000 C 
BRANCH   3   4
ATOM      4  C   UNL     1      53.740  81.171  32.851  1.00  0.00     0.000 C 
BRANCH   4   5
ATOM      5  C   UNL     1      55.044  81.579  32.147  1.00  0.00     0.000 C 
BRANCH   5   6
ATOM      6  C   UNL     1      55.519  82.983  32.562  1.00  0.00     0.000 C 
BRANCH   6   7
ATOM      7  C   UNL     1      56.162  83.755  31.397  1.00  0.00     0.000 C 
BRANCH   7   8
ATOM      8  C   UNL     1      56.080  82.981  30.069  1.00  0.00     0.000 C 
BRANCH   8   9
ATOM      9  C   UNL     1      55.004  83.543  29.127  1.00  0.00     0.000 C 
BRANCH   9  10
ATOM     10  C   UNL     1      54.275  84.762  29.716  1.00  0.00     0.000 C 
BRANCH  10  11
ATOM     11  C   UNL     1      52.758  84.516  29.864  1.00  0.00     0.000 C 
BRANCH  11  12
ATOM     12  C   UNL     1      52.383  83.028  29.985  1.00  0.00     0.006 C 
BRANCH  12  13
ATOM     13  C   UNL     1      50.929  82.744  29.591  1.00  0.00     0.053 C 
BRANCH  13  14
ATOM     14  C   UNL     1      50.038  82.806  30.790  1.00  0.00     0.041 C 
ATOM     15  O   UNL     1      48.809  83.051  30.653  1.00  0.00    -0.550 OA
ATOM     16  O   UNL     1      50.553  82.549  32.055  1.00  0.00    -0.550 OA
ENDBRANCH  13  14
ENDBRANCH  12  13
ENDBRANCH  11  12
ENDBRANCH  10  11
ENDBRANCH   9  10
ENDBRANCH   8   9
ENDBRANCH   7   8
ENDBRANCH   6   7
ENDBRANCH   5   6
ENDBRANCH   4   5
ENDBRANCH   3   4
ENDBRANCH   2   3
ENDBRANCH   1   2
BRANCH   1  17
ATOM     17  C   UNL     1      53.312  80.461  37.134  1.00  0.00     0.000 C 
BRANCH  17  18
ATOM     18  C   UNL     1      52.594  80.263  38.484  1.00  0.00     0.000 C 
BRANCH  18  19
ATOM     19  C   UNL     1      51.120  80.712  38.509  1.00  0.00     0.000 C 
BRANCH  19  20
ATOM     20  C   UNL     1      50.178  79.830  39.347  1.00  0.00     0.000 C 
BRANCH  20  21
ATOM     21  C   UNL     1      48.846  80.524  39.679  1.00  0.00     0.000 C 
BRANCH  21  22
ATOM     22  C   UNL     1      48.544  80.548  41.188  1.00  0.00    -0.000 C 
BRANCH  22  23
ATOM     23  C   UNL     1      47.916  81.855  41.715  1.00  0.00    -0.000 C 
BRANCH  23  24
ATOM     24  C   UNL     1      48.846  83.081  41.699  1.00  0.00    -0.000 C 
BRANCH  24  25
ATOM     25  C   UNL     1      48.609  84.024  42.889  1.00  0.00    -0.000 C 
BRANCH  25  26
ATOM     26  C   UNL     1      49.425  83.581  44.113  1.00  0.00    -0.000 C 
BRANCH  26  27
ATOM     27  C   UNL     1      48.576  83.552  45.402  1.00  0.00    -0.000 C 
BRANCH  27  28
ATOM     28  C   UNL     1      47.883  82.203  45.654  1.00  0.00    -0.000 C 
BRANCH  28  29
ATOM     29  C   UNL     1      48.868  81.083  46.017  1.00  0.00    -0.003 C 
ATOM     30  C   UNL     1      49.474  81.309  47.400  1.00  0.00     0.004 C 
ENDBRANCH  28  29
ENDBRANCH  27  28
ENDBRANCH  26  27
ENDBRANCH  25  26
ENDBRANCH  24  25
ENDBRANCH  23  24
ENDBRANCH  22  23
ENDBRANCH  21  22
ENDBRANCH  20  21
ENDBRANCH  19  20
ENDBRANCH  18  19
ENDBRANCH  17  18
ENDBRANCH   1  17
TORSDOF 26
ENDMDL
MODEL 4
REMARK VINA RESULT:     0.594      1.970      3.077
REMARK INTER + INTRA:          -0.297
REMARK INTER:                   1.617
REMARK INTRA:                  -1.913
REMARK UNBOUND:                -1.794
REMARK SMILES CCCCCCCCCCCCCCCCCCCCCCCCCCCC(=O)[O-]
REMARK SMILES IDX 15 1 16 2 17 3 18 4 19 5 20 6 21 7 22 8 23 9 24 10 25 11
REMARK SMILES IDX 26 12 27 13 28 14 29 15 30 16 14 17 13 18 12 19 11 20 10 21
REMARK SMILES IDX 9 22 8 23 7 24 6 25 5 26 4 27 3 28 2 29 1 30
REMARK H PARENT
REMARK Flexibility Score: inf
ROOT
ATOM      1  C   UNL     1      52.796  80.862  37.883  1.00  0.00     0.000 C 
ENDROOT
BRANCH   1   2
ATOM      2  C   UNL     1      53.935  80.219  37.066  1.00  0.00     0.000 C 
BRANCH   2   3
ATOM      3  C   UNL     1      53.480  79.201  36.005  1.00  0.00     0.000 C 
BRANCH   3   4
ATOM      4  C   UNL     1      53.000  79.868  34.705  1.00  0.00     0.000 C 
BRANCH   4   5
ATOM      5  C   UNL     1      54.136  80.596  33.968  1.00  0.00     0.000 C 
BRANCH   5   6
ATOM      6  C   UNL     1      53.615  81.709  33.041  1.00  0.00     0.000 C 
BRANCH   6   7
ATOM      7  C   UNL     1      52.770  81.159  31.880  1.00  0.00     0.000 C 
BRANCH   7   8
ATOM      8  C   UNL     1      52.272  82.273  30.942  1.00  0.00     0.000 C 
BRANCH   8   9
ATOM      9  C   UNL     1      53.145  82.416  29.685  1.00  0.00     0.000 C 
BRANCH   9  10
ATOM     10  C   UNL     1      54.146  81.260  29.520  1.00  0.00     0.000 C 
BRANCH  10  11
ATOM     11  C   UNL     1      55.606  81.758  29.477  1.00  0.00     0.000 C 
BRANCH  11  12
ATOM     12  C   UNL     1      55.739  83.289  29.552  1.00  0.00     0.006 C 
BRANCH  12  13
ATOM     13  C   UNL     1      56.719  83.753  30.635  1.00  0.00     0.053 C 
BRANCH  13  14
ATOM     14  C   UNL     1      55.988  84.092  31.895  1.00  0.00     0.041 C 
ATOM     15  O   UNL     1      56.445  83.724  33.010  1.00  0.00    -0.550 OA
ATOM     16  O   UNL     1      54.827  84.853  31.843  1.00  0.00    -0.550 OA
ENDBRANCH  13  14
ENDBRANCH  12  13
ENDBRANCH  11  12
ENDBRANCH  10  11
ENDBRANCH   9  10
ENDBRANCH   8   9
ENDBRANCH   7   8
ENDBRANCH   6   7
ENDBRANCH   5   6
ENDBRANCH   4   5
ENDBRANCH   3   4
ENDBRANCH   2   3
ENDBRANCH   1   2
BRANCH   1  17
ATOM     17  C   UNL     1      51.649  79.908  38.266  1.00  0.00     0.000 C 
BRANCH  17  18
ATOM     18  C   UNL     1      50.498  80.565  39.055  1.00  0.00     0.000 C 
BRANCH  18  19
ATOM     19  C   UNL     1      49.320  79.627  39.388  1.00  0.00     0.000 C 
BRANCH  19  20
ATOM     20  C   UNL     1      48.062  80.324  39.938  1.00  0.00     0.000 C 
BRANCH  20  21
ATOM     21  C   UNL     1      48.178  80.675  41.431  1.00  0.00     0.000 C 
BRANCH  21  22
ATOM     22  C   UNL     1      48.469  82.168  41.673  1.00  0.00    -0.000 C 
BRANCH  22  23
ATOM     23  C   UNL     1      48.339  82.636  43.137  1.00  0.00    -0.000 C 
BRANCH  23  24
ATOM     24  C   UNL     1      48.374  84.161  43.343  1.00  0.00    -0.000 C 
BRANCH  24  25
ATOM     25  C   UNL     1      49.012  84.567  44.680  1.00  0.00    -0.000 C 
BRANCH  25  26
ATOM     26  C   UNL     1      49.871  83.428  45.249  1.00  0.00    -0.000 C 
BRANCH  26  27
ATOM     27  C   UNL     1      49.244  82.796  46.510  1.00  0.00    -0.000 C 
BRANCH  27  28
ATOM     28  C   UNL     1      49.675  81.339  46.750  1.00  0.00    -0.000 C 
BRANCH  28  29
ATOM     29  C   UNL     1      48.486  80.377  46.873  1.00  0.00    -0.003 C 
ATOM     30  C   UNL     1      48.897  78.947  46.530  1.00  0.00     0.004 C 
ENDBRANCH  28  29
ENDBRANCH  27  28
ENDBRANCH  26  27
ENDBRANCH  25  26
ENDBRANCH  24  25
ENDBRANCH  23  24
ENDBRANCH  22  23
ENDBRANCH  21  22
ENDBRANCH  20  21
ENDBRANCH  19  20
ENDBRANCH  18  19
ENDBRANCH  17  18
ENDBRANCH   1  17
TORSDOF 26
ENDMDL
MODEL 5
REMARK VINA RESULT:     0.854      1.392      2.389
REMARK INTER + INTRA:           0.357
REMARK INTER:                   1.956
REMARK INTRA:                  -1.599
REMARK UNBOUND:                -1.794
REMARK SMILES CCCCCCCCCCCCCCCCCCCCCCCCCCCC(=O)[O-]
REMARK SMILES IDX 15 1 16 2 17 3 18 4 19 5 20 6 21 7 22 8 23 9 24 10 25 11
REMARK SMILES IDX 26 12 27 13 28 14 29 15 30 16 14 17 13 18 12 19 11 20 10 21
REMARK SMILES IDX 9 22 8 23 7 24 6 25 5 26 4 27 3 28 2 29 1 30
REMARK H PARENT
REMARK Flexibility Score: inf
ROOT
ATOM      1  C   UNL     1      53.113  79.187  36.223  1.00  0.00     0.000 C 
ENDROOT
BRANCH   1   2
ATOM      2  C   UNL     1      53.480  79.426  34.744  1.00  0.00     0.000 C 
BRANCH   2   3
ATOM      3  C   UNL     1      53.913  80.864  34.406  1.00  0.00     0.000 C 
BRANCH   3   4
ATOM      4  C   UNL     1      53.768  81.196  32.911  1.00  0.00     0.000 C 
BRANCH   4   5
ATOM      5  C   UNL     1      55.044  81.821  32.326  1.00  0.00     0.000 C 
BRANCH   5   6
ATOM      6  C   UNL     1      55.089  81.731  30.789  1.00  0.00     0.000 C 
BRANCH   6   7
ATOM      7  C   UNL     1      53.756  81.251  30.189  1.00  0.00     0.000 C 
BRANCH   7   8
ATOM      8  C   UNL     1      53.078  82.335  29.331  1.00  0.00     0.000 C 
BRANCH   8   9
ATOM      9  C   UNL     1      53.629  83.741  29.618  1.00  0.00     0.000 C 
BRANCH   9  10
ATOM     10  C   UNL     1      52.569  84.842  29.443  1.00  0.00     0.000 C 
BRANCH  10  11
ATOM     11  C   UNL     1      51.184  84.263  29.080  1.00  0.00     0.000 C 
BRANCH  11  12
ATOM     12  C   UNL     1      50.416  83.696  30.287  1.00  0.00     0.006 C 
BRANCH  12  13
ATOM     13  C   UNL     1      49.724  84.781  31.119  1.00  0.00     0.053 C 
BRANCH  13  14
ATOM     14  C   UNL     1      49.544  84.325  32.532  1.00  0.00     0.041 C 
ATOM     15  O   UNL     1      49.030  83.200  32.774  1.00  0.00    -0.550 OA
ATOM     16  O   UNL     1      49.984  85.122  33.583  1.00  0.00    -0.550 OA
ENDBRANCH  13  14
ENDBRANCH  12  13
ENDBRANCH  11  12
ENDBRANCH  10  11
ENDBRANCH   9  10
ENDBRANCH   8   9
ENDBRANCH   7   8
ENDBRANCH   6   7
ENDBRANCH   5   6
ENDBRANCH   4   5
ENDBRANCH   3   4
ENDBRANCH   2   3
ENDBRANCH   1   2
BRANCH   1  17
ATOM     17  C   UNL     1      53.474  80.339  37.180  1.00  0.00     0.000 C 
BRANCH  17  18
ATOM     18  C   UNL     1      52.659  80.372  38.488  1.00  0.00     0.000 C 
BRANCH  18  19
ATOM     19  C   UNL     1      51.129  80.386  38.301  1.00  0.00     0.000 C 
BRANCH  19  20
ATOM     20  C   UNL     1      50.314  79.922  39.521  1.00  0.00     0.000 C 
BRANCH  20  21
ATOM     21  C   UNL     1      48.806  79.830  39.233  1.00  0.00     0.000 C 
BRANCH  21  22
ATOM     22  C   UNL     1      47.953  80.600  40.257  1.00  0.00    -0.000 C 
BRANCH  22  23
ATOM     23  C   UNL     1      48.724  81.613  41.129  1.00  0.00    -0.000 C 
BRANCH  23  24
ATOM     24  C   UNL     1      47.932  82.193  42.314  1.00  0.00    -0.000 C 
BRANCH  24  25
ATOM     25  C   UNL     1      48.035  81.328  43.580  1.00  0.00    -0.000 C 
BRANCH  25  26
ATOM     26  C   UNL     1      48.446  82.176  44.794  1.00  0.00    -0.000 C 
BRANCH  26  27
ATOM     27  C   UNL     1      48.959  83.573  44.384  1.00  0.00    -0.000 C 
BRANCH  27  28
ATOM     28  C   UNL     1      49.940  84.191  45.395  1.00  0.00    -0.000 C 
BRANCH  28  29
ATOM     29  C   UNL     1      51.362  84.332  44.838  1.00  0.00    -0.003 C 
ATOM     30  C   UNL     1      51.394  84.069  43.335  1.00  0.00     0.004 C 
ENDBRANCH  28  29
ENDBRANCH  27  28
ENDBRANCH  26  27
ENDBRANCH  25  26
ENDBRANCH  24  25
ENDBRANCH  23  24
ENDBRANCH  22  23
ENDBRANCH  21  22
ENDBRANCH  20  21
ENDBRANCH  19  20
ENDBRANCH  18  19
ENDBRANCH  17  18
ENDBRANCH   1  17
TORSDOF 26
ENDMDL
MODEL 6
REMARK VINA RESULT:     0.929      3.486     11.675
REMARK INTER + INTRA:           0.546
REMARK INTER:                   2.805
REMARK INTRA:                  -2.258
REMARK UNBOUND:                -1.794
REMARK SMILES CCCCCCCCCCCCCCCCCCCCCCCCCCCC(=O)[O-]
REMARK SMILES IDX 15 1 16 2 17 3 18 4 19 5 20 6 21 7 22 8 23 9 24 10 25 11
REMARK SMILES IDX 26 12 27 13 28 14 29 15 30 16 14 17 13 18 12 19 11 20 10 21
REMARK SMILES IDX 9 22 8 23 7 24 6 25 5 26 4 27 3 28 2 29 1 30
REMARK H PARENT
REMARK Flexibility Score: inf
ROOT
ATOM      1  C   UNL     1      54.052  80.298  34.480  1.00  0.00     0.000 C 
ENDROOT
BRANCH   1   2
ATOM      2  C   UNL     1      53.152  79.859  35.654  1.00  0.00     0.000 C 
BRANCH   2   3
ATOM      3  C   UNL     1      53.726  80.141  37.054  1.00  0.00     0.000 C 
BRANCH   3   4
ATOM      4  C   UNL     1      52.728  80.864  37.974  1.00  0.00     0.000 C 
BRANCH   4   5
ATOM      5  C   UNL     1      51.642  79.920  38.513  1.00  0.00     0.000 C 
BRANCH   5   6
ATOM      6  C   UNL     1      50.453  80.684  39.126  1.00  0.00     0.000 C 
BRANCH   6   7
ATOM      7  C   UNL     1      49.275  79.758  39.471  1.00  0.00     0.000 C 
BRANCH   7   8
ATOM      8  C   UNL     1      47.991  80.543  39.795  1.00  0.00     0.000 C 
BRANCH   8   9
ATOM      9  C   UNL     1      47.963  81.051  41.245  1.00  0.00     0.000 C 
BRANCH   9  10
ATOM     10  C   UNL     1      47.875  82.584  41.336  1.00  0.00     0.000 C 
BRANCH  10  11
ATOM     11  C   UNL     1      49.253  83.230  41.595  1.00  0.00     0.000 C 
BRANCH  11  12
ATOM     12  C   UNL     1      49.385  83.867  42.990  1.00  0.00     0.006 C 
BRANCH  12  13
ATOM     13  C   UNL     1      48.210  83.531  43.915  1.00  0.00     0.053 C 
BRANCH  13  14
ATOM     14  C   UNL     1      48.664  82.667  45.048  1.00  0.00     0.041 C 
ATOM     15  O   UNL     1      48.107  81.556  45.260  1.00  0.00    -0.550 OA
ATOM     16  O   UNL     1      49.731  83.065  45.844  1.00  0.00    -0.550 OA
ENDBRANCH  13  14
ENDBRANCH  12  13
ENDBRANCH  11  12
ENDBRANCH  10  11
ENDBRANCH   9  10
ENDBRANCH   8   9
ENDBRANCH   7   8
ENDBRANCH   6   7
ENDBRANCH   5   6
ENDBRANCH   4   5
ENDBRANCH   3   4
ENDBRANCH   2   3
ENDBRANCH   1   2
BRANCH   1  17
ATOM     17  C   UNL     1      53.395  81.273  33.484  1.00  0.00     0.000 C 
BRANCH  17  18
ATOM     18  C   UNL     1      54.279  81.661  32.282  1.00  0.00     0.000 C 
BRANCH  18  19
ATOM     19  C   UNL     1      55.672  82.210  32.649  1.00  0.00     0.000 C 
BRANCH  19  20
ATOM     20  C   UNL     1      55.810  83.741  32.590  1.00  0.00     0.000 C 
BRANCH  20  21
ATOM     21  C   UNL     1      56.526  84.228  31.319  1.00  0.00     0.000 C 
BRANCH  21  22
ATOM     22  C   UNL     1      56.424  83.227  30.154  1.00  0.00    -0.000 C 
BRANCH  22  23
ATOM     23  C   UNL     1      55.348  83.552  29.097  1.00  0.00    -0.000 C 
BRANCH  23  24
ATOM     24  C   UNL     1      54.845  85.007  29.100  1.00  0.00    -0.000 C 
BRANCH  24  25
ATOM     25  C   UNL     1      53.320  85.111  29.246  1.00  0.00    -0.000 C 
BRANCH  25  26
ATOM     26  C   UNL     1      52.739  83.835  29.875  1.00  0.00    -0.000 C 
BRANCH  26  27
ATOM     27  C   UNL     1      51.359  84.079  30.522  1.00  0.00    -0.000 C 
BRANCH  27  28
ATOM     28  C   UNL     1      51.425  84.340  32.036  1.00  0.00    -0.000 C 
BRANCH  28  29
ATOM     29  C   UNL     1      50.048  84.606  32.659  1.00  0.00    -0.003 C 
ATOM     30  C   UNL     1      49.196  83.340  32.672  1.00  0.00     0.004 C 
ENDBRANCH  28  29
ENDBRANCH  27  28
ENDBRANCH  26  27
ENDBRANCH  25  26
ENDBRANCH  24  25
ENDBRANCH  23  24
ENDBRANCH  22  23
ENDBRANCH  21  22
ENDBRANCH  20  21
ENDBRANCH  19  20
ENDBRANCH  18  19
ENDBRANCH  17  18
ENDBRANCH   1  17
TORSDOF 26
ENDMDL
MODEL 7
REMARK VINA RESULT:     1.132      3.866     12.005
REMARK INTER + INTRA:           1.060
REMARK INTER:                   3.106
REMARK INTRA:                  -2.046
REMARK UNBOUND:                -1.794
REMARK SMILES CCCCCCCCCCCCCCCCCCCCCCCCCCCC(=O)[O-]
REMARK SMILES IDX 15 1 16 2 17 3 18 4 19 5 20 6 21 7 22 8 23 9 24 10 25 11
REMARK SMILES IDX 26 12 27 13 28 14 29 15 30 16 14 17 13 18 12 19 11 20 10 21
REMARK SMILES IDX 9 22 8 23 7 24 6 25 5 26 4 27 3 28 2 29 1 30
REMARK H PARENT
REMARK Flexibility Score: inf
ROOT
ATOM      1  C   UNL     1      53.685  79.613  35.065  1.00  0.00     0.000 C 
ENDROOT
BRANCH   1   2
ATOM      2  C   UNL     1      53.114  79.438  36.488  1.00  0.00     0.000 C 
BRANCH   2   3
ATOM      3  C   UNL     1      53.513  80.538  37.488  1.00  0.00     0.000 C 
BRANCH   3   4
ATOM      4  C   UNL     1      52.379  80.900  38.461  1.00  0.00     0.000 C 
BRANCH   4   5
ATOM      5  C   UNL     1      51.155  79.985  38.298  1.00  0.00     0.000 C 
BRANCH   5   6
ATOM      6  C   UNL     1      50.314  79.895  39.584  1.00  0.00     0.000 C 
BRANCH   6   7
ATOM      7  C   UNL     1      48.849  80.303  39.358  1.00  0.00     0.000 C 
BRANCH   7   8
ATOM      8  C   UNL     1      48.163  80.761  40.658  1.00  0.00     0.000 C 
BRANCH   8   9
ATOM      9  C   UNL     1      48.582  82.179  41.075  1.00  0.00     0.000 C 
BRANCH   9  10
ATOM     10  C   UNL     1      47.886  82.652  42.363  1.00  0.00     0.000 C 
BRANCH  10  11
ATOM     11  C   UNL     1      48.258  81.776  43.579  1.00  0.00     0.000 C 
BRANCH  11  12
ATOM     12  C   UNL     1      48.082  82.490  44.930  1.00  0.00     0.006 C 
BRANCH  12  13
ATOM     13  C   UNL     1      49.372  82.531  45.758  1.00  0.00     0.053 C 
BRANCH  13  14
ATOM     14  C   UNL     1      49.105  82.114  47.169  1.00  0.00     0.041 C 
ATOM     15  O   UNL     1      49.355  80.936  47.539  1.00  0.00    -0.550 OA
ATOM     16  O   UNL     1      48.622  83.037  48.089  1.00  0.00    -0.550 OA
ENDBRANCH  13  14
ENDBRANCH  12  13
ENDBRANCH  11  12
ENDBRANCH  10  11
ENDBRANCH   9  10
ENDBRANCH   8   9
ENDBRANCH   7   8
ENDBRANCH   6   7
ENDBRANCH   5   6
ENDBRANCH   4   5
ENDBRANCH   3   4
ENDBRANCH   2   3
ENDBRANCH   1   2
BRANCH   1  17
ATOM     17  C   UNL     1      53.509  81.018  34.459  1.00  0.00     0.000 C 
BRANCH  17  18
ATOM     18  C   UNL     1      53.969  81.152  32.994  1.00  0.00     0.000 C 
BRANCH  18  19
ATOM     19  C   UNL     1      55.289  81.923  32.794  1.00  0.00     0.000 C 
BRANCH  19  20
ATOM     20  C   UNL     1      55.386  82.730  31.487  1.00  0.00     0.000 C 
BRANCH  20  21
ATOM     21  C   UNL     1      54.194  83.680  31.281  1.00  0.00     0.000 C 
BRANCH  21  22
ATOM     22  C   UNL     1      53.581  83.573  29.873  1.00  0.00    -0.000 C 
BRANCH  22  23
ATOM     23  C   UNL     1      53.433  82.139  29.325  1.00  0.00    -0.000 C 
BRANCH  23  24
ATOM     24  C   UNL     1      52.238  81.345  29.882  1.00  0.00    -0.000 C 
BRANCH  24  25
ATOM     25  C   UNL     1      51.134  82.249  30.450  1.00  0.00    -0.000 C 
BRANCH  25  26
ATOM     26  C   UNL     1      50.194  82.736  29.337  1.00  0.00    -0.000 C 
BRANCH  26  27
ATOM     27  C   UNL     1      49.654  84.157  29.608  1.00  0.00    -0.000 C 
BRANCH  27  28
ATOM     28  C   UNL     1      50.015  84.698  31.001  1.00  0.00    -0.000 C 
BRANCH  28  29
ATOM     29  C   UNL     1      48.798  84.826  31.927  1.00  0.00    -0.003 C 
ATOM     30  C   UNL     1      48.774  83.706  32.964  1.00  0.00     0.004 C 
ENDBRANCH  28  29
ENDBRANCH  27  28
ENDBRANCH  26  27
ENDBRANCH  25  26
ENDBRANCH  24  25
ENDBRANCH  23  24
ENDBRANCH  22  23
ENDBRANCH  21  22
ENDBRANCH  20  21
ENDBRANCH  19  20
ENDBRANCH  18  19
ENDBRANCH  17  18
ENDBRANCH   1  17
TORSDOF 26
ENDMDL
MODEL 8
REMARK VINA RESULT:     1.693      2.167      3.287
REMARK INTER + INTRA:           2.471
REMARK INTER:                   4.497
REMARK INTRA:                  -2.026
REMARK UNBOUND:                -1.794
REMARK SMILES CCCCCCCCCCCCCCCCCCCCCCCCCCCC(=O)[O-]
REMARK SMILES IDX 15 1 16 2 17 3 18 4 19 5 20 6 21 7 22 8 23 9 24 10 25 11
REMARK SMILES IDX 26 12 27 13 28 14 29 15 30 16 14 17 13 18 12 19 11 20 10 21
REMARK SMILES IDX 9 22 8 23 7 24 6 25 5 26 4 27 3 28 2 29 1 30
REMARK H PARENT
REMARK Flexibility Score: inf
ROOT
ATOM      1  C   UNL     1      53.500  80.162  34.498  1.00  0.00     0.000 C 
ENDROOT
BRANCH   1   2
ATOM      2  C   UNL     1      53.741  81.053  33.262  1.00  0.00     0.000 C 
BRANCH   2   3
ATOM      3  C   UNL     1      55.086  81.801  33.252  1.00  0.00     0.000 C 
BRANCH   3   4
ATOM      4  C   UNL     1      55.436  82.380  31.871  1.00  0.00     0.000 C 
BRANCH   4   5
ATOM      5  C   UNL     1      56.168  83.728  31.972  1.00  0.00     0.000 C 
BRANCH   5   6
ATOM      6  C   UNL     1      56.911  84.090  30.673  1.00  0.00     0.000 C 
BRANCH   6   7
ATOM      7  C   UNL     1      56.146  83.646  29.415  1.00  0.00     0.000 C 
BRANCH   7   8
ATOM      8  C   UNL     1      55.037  84.640  29.025  1.00  0.00     0.000 C 
BRANCH   8   9
ATOM      9  C   UNL     1      53.632  84.029  29.143  1.00  0.00     0.000 C 
BRANCH   9  10
ATOM     10  C   UNL     1      52.619  84.987  29.793  1.00  0.00     0.000 C 
BRANCH  10  11
ATOM     11  C   UNL     1      52.789  85.059  31.325  1.00  0.00     0.000 C 
BRANCH  11  12
ATOM     12  C   UNL     1      51.667  84.353  32.106  1.00  0.00     0.006 C 
BRANCH  12  13
ATOM     13  C   UNL     1      50.443  84.034  31.239  1.00  0.00     0.053 C 
BRANCH  13  14
ATOM     14  C   UNL     1      49.246  83.773  32.096  1.00  0.00     0.041 C 
ATOM     15  O   UNL     1      48.334  83.004  31.691  1.00  0.00    -0.550 OA
ATOM     16  O   UNL     1      49.156  84.342  33.361  1.00  0.00    -0.550 OA
ENDBRANCH  13  14
ENDBRANCH  12  13
ENDBRANCH  11  12
ENDBRANCH  10  11
ENDBRANCH   9  10
ENDBRANCH   8   9
ENDBRANCH   7   8
ENDBRANCH   6   7
ENDBRANCH   5   6
ENDBRANCH   4   5
ENDBRANCH   3   4
ENDBRANCH   2   3
ENDBRANCH   1   2
BRANCH   1  17
ATOM     17  C   UNL     1      53.577  80.892  35.853  1.00  0.00     0.000 C 
BRANCH  17  18
ATOM     18  C   UNL     1      53.519  79.970  37.088  1.00  0.00     0.000 C 
BRANCH  18  19
ATOM     19  C   UNL     1      52.849  80.589  38.330  1.00  0.00     0.000 C 
BRANCH  19  20
ATOM     20  C   UNL     1      51.312  80.659  38.282  1.00  0.00     0.000 C 
BRANCH  20  21
ATOM     21  C   UNL     1      50.642  79.889  39.433  1.00  0.00     0.000 C 
BRANCH  21  22
ATOM     22  C   UNL     1      49.108  79.847  39.311  1.00  0.00    -0.000 C 
BRANCH  22  23
ATOM     23  C   UNL     1      48.335  80.105  40.622  1.00  0.00    -0.000 C 
BRANCH  23  24
ATOM     24  C   UNL     1      47.875  81.558  40.836  1.00  0.00    -0.000 C 
BRANCH  24  25
ATOM     25  C   UNL     1      49.041  82.557  40.845  1.00  0.00    -0.000 C 
BRANCH  25  26
ATOM     26  C   UNL     1      48.682  83.815  41.651  1.00  0.00    -0.000 C 
BRANCH  26  27
ATOM     27  C   UNL     1      48.252  83.481  43.095  1.00  0.00    -0.000 C 
BRANCH  27  28
ATOM     28  C   UNL     1      49.240  83.977  44.164  1.00  0.00    -0.000 C 
BRANCH  28  29
ATOM     29  C   UNL     1      50.683  84.067  43.649  1.00  0.00    -0.003 C 
ATOM     30  C   UNL     1      51.666  84.272  44.797  1.00  0.00     0.004 C 
ENDBRANCH  28  29
ENDBRANCH  27  28
ENDBRANCH  26  27
ENDBRANCH  25  26
ENDBRANCH  24  25
ENDBRANCH  23  24
ENDBRANCH  22  23
ENDBRANCH  21  22
ENDBRANCH  20  21
ENDBRANCH  19  20
ENDBRANCH  18  19
ENDBRANCH  17  18
ENDBRANCH   1  17
TORSDOF 26
ENDMDL
MODEL 9
REMARK VINA RESULT:     1.910      3.378     11.230
REMARK INTER + INTRA:           3.018
REMARK INTER:                   4.520
REMARK INTRA:                  -1.502
REMARK UNBOUND:                -1.794
REMARK SMILES CCCCCCCCCCCCCCCCCCCCCCCCCCCC(=O)[O-]
REMARK SMILES IDX 15 1 16 2 17 3 18 4 19 5 20 6 21 7 22 8 23 9 24 10 25 11
REMARK SMILES IDX 26 12 27 13 28 14 29 15 30 16 14 17 13 18 12 19 11 20 10 21
REMARK SMILES IDX 9 22 8 23 7 24 6 25 5 26 4 27 3 28 2 29 1 30
REMARK H PARENT
REMARK Flexibility Score: inf
ROOT
ATOM      1  C   UNL     1      53.651  79.540  35.117  1.00  0.00     0.000 C 
ENDROOT
BRANCH   1   2
ATOM      2  C   UNL     1      53.423  79.391  36.635  1.00  0.00     0.000 C 
BRANCH   2   3
ATOM      3  C   UNL     1      52.937  80.666  37.347  1.00  0.00     0.000 C 
BRANCH   3   4
ATOM      4  C   UNL     1      52.246  80.372  38.689  1.00  0.00     0.000 C 
BRANCH   4   5
ATOM      5  C   UNL     1      50.737  80.663  38.645  1.00  0.00     0.000 C 
BRANCH   5   6
ATOM      6  C   UNL     1      49.915  79.613  39.415  1.00  0.00     0.000 C 
BRANCH   6   7
ATOM      7  C   UNL     1      48.420  79.968  39.479  1.00  0.00     0.000 C 
BRANCH   7   8
ATOM      8  C   UNL     1      48.074  80.815  40.717  1.00  0.00     0.000 C 
BRANCH   8   9
ATOM      9  C   UNL     1      48.019  82.318  40.405  1.00  0.00     0.000 C 
BRANCH   9  10
ATOM     10  C   UNL     1      49.135  83.112  41.106  1.00  0.00     0.000 C 
BRANCH  10  11
ATOM     11  C   UNL     1      48.590  83.986  42.256  1.00  0.00     0.000 C 
BRANCH  11  12
ATOM     12  C   UNL     1      48.019  83.175  43.432  1.00  0.00     0.006 C 
BRANCH  12  13
ATOM     13  C   UNL     1      48.051  83.940  44.759  1.00  0.00     0.053 C 
BRANCH  13  14
ATOM     14  C   UNL     1      49.462  84.167  45.201  1.00  0.00     0.041 C 
ATOM     15  O   UNL     1      50.417  83.655  44.559  1.00  0.00    -0.550 OA
ATOM     16  O   UNL     1      49.726  84.982  46.296  1.00  0.00    -0.550 OA
ENDBRANCH  13  14
ENDBRANCH  12  13
ENDBRANCH  11  12
ENDBRANCH  10  11
ENDBRANCH   9  10
ENDBRANCH   8   9
ENDBRANCH   7   8
ENDBRANCH   6   7
ENDBRANCH   5   6
ENDBRANCH   4   5
ENDBRANCH   3   4
ENDBRANCH   2   3
ENDBRANCH   1   2
BRANCH   1  17
ATOM     17  C   UNL     1      53.729  80.992  34.608  1.00  0.00     0.000 C 
BRANCH  17  18
ATOM     18  C   UNL     1      53.703  81.141  33.074  1.00  0.00     0.000 C 
BRANCH  18  19
ATOM     19  C   UNL     1      55.031  81.605  32.443  1.00  0.00     0.000 C 
BRANCH  19  20
ATOM     20  C   UNL     1      55.047  83.061  31.943  1.00  0.00     0.000 C 
BRANCH  20  21
ATOM     21  C   UNL     1      53.662  83.552  31.489  1.00  0.00     0.000 C 
BRANCH  21  22
ATOM     22  C   UNL     1      53.429  83.372  29.977  1.00  0.00    -0.000 C 
BRANCH  22  23
ATOM     23  C   UNL     1      53.059  84.657  29.209  1.00  0.00    -0.000 C 
BRANCH  23  24
ATOM     24  C   UNL     1      51.562  84.821  28.891  1.00  0.00    -0.000 C 
BRANCH  24  25
ATOM     25  C   UNL     1      50.688  83.752  29.564  1.00  0.00    -0.000 C 
BRANCH  25  26
ATOM     26  C   UNL     1      49.570  84.399  30.396  1.00  0.00    -0.000 C 
BRANCH  26  27
ATOM     27  C   UNL     1      50.115  85.124  31.645  1.00  0.00    -0.000 C 
BRANCH  27  28
ATOM     28  C   UNL     1      49.721  84.451  32.971  1.00  0.00    -0.000 C 
BRANCH  28  29
ATOM     29  C   UNL     1      48.279  83.927  32.970  1.00  0.00    -0.003 C 
ATOM     30  C   UNL     1      47.876  83.420  34.352  1.00  0.00     0.004 C 
ENDBRANCH  28  29
ENDBRANCH  27  28
ENDBRANCH  26  27
ENDBRANCH  25  26
ENDBRANCH  24  25
ENDBRANCH  23  24
ENDBRANCH  22  23
ENDBRANCH  21  22
ENDBRANCH  20  21
ENDBRANCH  19  20
ENDBRANCH  18  19
ENDBRANCH  17  18
ENDBRANCH   1  17
TORSDOF 26
ENDMDL
