MODEL 1
REMARK VINA RESULT:    -4.154      0.000      0.000
REMARK INTER + INTRA:         -15.532
REMARK INTER:                 -10.468
REMARK INTRA:                  -5.065
REMARK UNBOUND:                -5.065
REMARK SMILES CCCCCCCCCCCCCCCCCCCCCCCCCCCC(=O)[O-]
REMARK SMILES IDX 15 1 16 2 17 3 18 4 19 5 20 6 21 7 22 8 23 9 24 10 25 11
REMARK SMILES IDX 26 12 27 13 28 14 29 15 30 16 14 17 13 18 12 19 11 20 10 21
REMARK SMILES IDX 9 22 8 23 7 24 6 25 5 26 4 27 3 28 2 29 1 30
REMARK H PARENT
REMARK Flexibility Score: inf
ROOT
ATOM      1  C   UNL     1      -7.168   0.092   8.066  1.00  0.00     0.000 C 
ENDROOT
BRANCH   1   2
ATOM      2  C   UNL     1      -5.943  -0.221   8.944  1.00  0.00     0.000 C 
BRANCH   2   3
ATOM      3  C   UNL     1      -5.081  -1.410   8.471  1.00  0.00     0.000 C 
BRANCH   3   4
ATOM      4  C   UNL     1      -4.996  -2.595   9.456  1.00  0.00     0.000 C 
BRANCH   4   5
ATOM      5  C   UNL     1      -4.829  -3.978   8.798  1.00  0.00     0.000 C 
BRANCH   5   6
ATOM      6  C   UNL     1      -3.719  -4.851   9.411  1.00  0.00     0.000 C 
BRANCH   6   7
ATOM      7  C   UNL     1      -2.474  -4.998   8.505  1.00  0.00     0.000 C 
BRANCH   7   8
ATOM      8  C   UNL     1      -1.414  -3.908   8.733  1.00  0.00     0.000 C 
BRANCH   8   9
ATOM      9  C   UNL     1      -1.256  -3.547  10.220  1.00  0.00     0.000 C 
BRANCH   9  10
ATOM     10  C   UNL     1      -1.572  -2.070  10.513  1.00  0.00     0.000 C 
BRANCH  10  11
ATOM     11  C   UNL     1      -2.218  -1.800  11.884  1.00  0.00     0.000 C 
BRANCH  11  12
ATOM     12  C   UNL     1      -2.497  -3.087  12.678  1.00  0.00     0.006 C 
BRANCH  12  13
ATOM     13  C   UNL     1      -1.815  -3.079  14.052  1.00  0.00     0.053 C 
BRANCH  13  14
ATOM     14  C   UNL     1      -0.546  -3.875  14.050  1.00  0.00     0.041 C 
ATOM     15  O   UNL     1       0.448  -3.482  13.386  1.00  0.00    -0.550 OA
ATOM     16  O   UNL     1      -0.456  -5.041  14.802  1.00  0.00    -0.550 OA
ENDBRANCH  13  14
ENDBRANCH  12  13
ENDBRANCH  11  12
ENDBRANCH  10  11
ENDBRANCH   9  10
ENDBRANCH   8   9
ENDBRANCH   7   8
ENDBRANCH   6   7
ENDBRANCH   5   6
ENDBRANCH   4   5
ENDBRANCH   3   4
ENDBRANCH   2   3
ENDBRANCH   1   2
BRANCH   1  17
ATOM     17  C   UNL     1      -8.496  -0.026   8.832  1.00  0.00     0.000 C 
BRANCH  17  18
ATOM     18  C   UNL     1      -8.482  -1.141   9.895  1.00  0.00     0.000 C 
BRANCH  18  19
ATOM     19  C   UNL     1      -9.325  -2.387   9.560  1.00  0.00     0.000 C 
BRANCH  19  20
ATOM     20  C   UNL     1      -8.485  -3.552   9.011  1.00  0.00     0.000 C 
BRANCH  20  21
ATOM     21  C   UNL     1      -8.213  -3.441   7.499  1.00  0.00     0.000 C 
BRANCH  21  22
ATOM     22  C   UNL     1      -9.403  -2.959   6.650  1.00  0.00    -0.000 C 
BRANCH  22  23
ATOM     23  C   UNL     1      -8.971  -2.246   5.358  1.00  0.00    -0.000 C 
BRANCH  23  24
ATOM     24  C   UNL     1      -8.052  -3.119   4.473  1.00  0.00    -0.000 C 
BRANCH  24  25
ATOM     25  C   UNL     1      -6.900  -2.336   3.817  1.00  0.00    -0.000 C 
BRANCH  25  26
ATOM     26  C   UNL     1      -5.809  -1.862   4.795  1.00  0.00    -0.000 C 
BRANCH  26  27
ATOM     27  C   UNL     1      -4.970  -3.014   5.394  1.00  0.00    -0.000 C 
BRANCH  27  28
ATOM     28  C   UNL     1      -3.501  -2.978   4.937  1.00  0.00    -0.000 C 
BRANCH  28  29
ATOM     29  C   UNL     1      -2.880  -1.578   5.058  1.00  0.00    -0.003 C 
ATOM     30  C   UNL     1      -1.861  -1.480   6.194  1.00  0.00     0.004 C 
ENDBRANCH  28  29
ENDBRANCH  27  28
ENDBRANCH  26  27
ENDBRANCH  25  26
ENDBRANCH  24  25
ENDBRANCH  23  24
ENDBRANCH  22  23
ENDBRANCH  21  22
ENDBRANCH  20  21
ENDBRANCH  19  20
ENDBRANCH  18  19
ENDBRANCH  17  18
ENDBRANCH   1  17
TORSDOF 26
ENDMDL
MODEL 2
REMARK VINA RESULT:    -4.146      3.586      7.228
REMARK INTER + INTRA:         -15.513
REMARK INTER:                  -9.857
REMARK INTRA:                  -5.656
REMARK UNBOUND:                -5.065
REMARK SMILES CCCCCCCCCCCCCCCCCCCCCCCCCCCC(=O)[O-]
REMARK SMILES IDX 15 1 16 2 17 3 18 4 19 5 20 6 21 7 22 8 23 9 24 10 25 11
REMARK SMILES IDX 26 12 27 13 28 14 29 15 30 16 14 17 13 18 12 19 11 20 10 21
REMARK SMILES IDX 9 22 8 23 7 24 6 25 5 26 4 27 3 28 2 29 1 30
REMARK H PARENT
REMARK Flexibility Score: inf
ROOT
ATOM      1  C   UNL     1      -8.438  -1.616   8.257  1.00  0.00     0.000 C 
ENDROOT
BRANCH   1   2
ATOM      2  C   UNL     1      -7.633  -0.566   7.469  1.00  0.00     0.000 C 
BRANCH   2   3
ATOM      3  C   UNL     1      -8.443   0.249   6.441  1.00  0.00     0.000 C 
BRANCH   3   4
ATOM      4  C   UNL     1      -7.749   0.468   5.080  1.00  0.00     0.000 C 
BRANCH   4   5
ATOM      5  C   UNL     1      -8.607   0.123   3.849  1.00  0.00     0.000 C 
BRANCH   5   6
ATOM      6  C   UNL     1      -9.942  -0.574   4.171  1.00  0.00     0.000 C 
BRANCH   6   7
ATOM      7  C   UNL     1      -9.965  -2.073   3.791  1.00  0.00     0.000 C 
BRANCH   7   8
ATOM      8  C   UNL     1      -9.570  -3.009   4.946  1.00  0.00     0.000 C 
BRANCH   8   9
ATOM      9  C   UNL     1      -8.441  -3.978   4.553  1.00  0.00     0.000 C 
BRANCH   9  10
ATOM     10  C   UNL     1      -7.118  -3.682   5.282  1.00  0.00     0.000 C 
BRANCH  10  11
ATOM     11  C   UNL     1      -6.114  -2.828   4.488  1.00  0.00     0.000 C 
BRANCH  11  12
ATOM     12  C   UNL     1      -4.999  -2.241   5.370  1.00  0.00     0.006 C 
BRANCH  12  13
ATOM     13  C   UNL     1      -3.620  -2.811   5.014  1.00  0.00     0.053 C 
BRANCH  13  14
ATOM     14  C   UNL     1      -3.147  -2.332   3.676  1.00  0.00     0.041 C 
ATOM     15  O   UNL     1      -2.821  -3.159   2.785  1.00  0.00    -0.550 OA
ATOM     16  O   UNL     1      -3.089  -0.969   3.405  1.00  0.00    -0.550 OA
ENDBRANCH  13  14
ENDBRANCH  12  13
ENDBRANCH  11  12
ENDBRANCH  10  11
ENDBRANCH   9  10
ENDBRANCH   8   9
ENDBRANCH   7   8
ENDBRANCH   6   7
ENDBRANCH   5   6
ENDBRANCH   4   5
ENDBRANCH   3   4
ENDBRANCH   2   3
ENDBRANCH   1   2
BRANCH   1  17
ATOM     17  C   UNL     1      -7.545  -2.544   9.099  1.00  0.00     0.000 C 
BRANCH  17  18
ATOM     18  C   UNL     1      -7.793  -4.038   8.817  1.00  0.00     0.000 C 
BRANCH  18  19
ATOM     19  C   UNL     1      -6.527  -4.907   8.692  1.00  0.00     0.000 C 
BRANCH  19  20
ATOM     20  C   UNL     1      -5.250  -4.082   8.462  1.00  0.00     0.000 C 
BRANCH  20  21
ATOM     21  C   UNL     1      -4.018  -4.662   9.180  1.00  0.00     0.000 C 
BRANCH  21  22
ATOM     22  C   UNL     1      -2.771  -4.854   8.297  1.00  0.00    -0.000 C 
BRANCH  22  23
ATOM     23  C   UNL     1      -1.563  -4.029   8.773  1.00  0.00    -0.000 C 
BRANCH  23  24
ATOM     24  C   UNL     1      -1.354  -2.742   7.943  1.00  0.00    -0.000 C 
BRANCH  24  25
ATOM     25  C   UNL     1      -1.773  -1.457   8.678  1.00  0.00    -0.000 C 
BRANCH  25  26
ATOM     26  C   UNL     1      -2.891  -0.656   7.985  1.00  0.00    -0.000 C 
BRANCH  26  27
ATOM     27  C   UNL     1      -4.204  -0.593   8.798  1.00  0.00    -0.000 C 
BRANCH  27  28
ATOM     28  C   UNL     1      -4.018  -1.033  10.260  1.00  0.00    -0.000 C 
BRANCH  28  29
ATOM     29  C   UNL     1      -4.299   0.102  11.258  1.00  0.00    -0.003 C 
ATOM     30  C   UNL     1      -3.400   1.319  11.036  1.00  0.00     0.004 C 
ENDBRANCH  28  29
ENDBRANCH  27  28
ENDBRANCH  26  27
ENDBRANCH  25  26
ENDBRANCH  24  25
ENDBRANCH  23  24
ENDBRANCH  22  23
ENDBRANCH  21  22
ENDBRANCH  20  21
ENDBRANCH  19  20
ENDBRANCH  18  19
ENDBRANCH  17  18
ENDBRANCH   1  17
TORSDOF 26
ENDMDL
MODEL 3
REMARK VINA RESULT:    -4.101      4.004      7.205
REMARK INTER + INTRA:         -15.398
REMARK INTER:                 -10.220
REMARK INTRA:                  -5.178
REMARK UNBOUND:                -5.065
REMARK SMILES CCCCCCCCCCCCCCCCCCCCCCCCCCCC(=O)[O-]
REMARK SMILES IDX 15 1 16 2 17 3 18 4 19 5 20 6 21 7 22 8 23 9 24 10 25 11
REMARK SMILES IDX 26 12 27 13 28 14 29 15 30 16 14 17 13 18 12 19 11 20 10 21
REMARK SMILES IDX 9 22 8 23 7 24 6 25 5 26 4 27 3 28 2 29 1 30
REMARK H PARENT
REMARK Flexibility Score: inf
ROOT
ATOM      1  C   UNL     1      -9.441  -2.663  10.167  1.00  0.00     0.000 C 
ENDROOT
BRANCH   1   2
ATOM      2  C   UNL     1      -9.398  -1.142  10.405  1.00  0.00     0.000 C 
BRANCH   2   3
ATOM      3  C   UNL     1      -8.012  -0.488  10.234  1.00  0.00     0.000 C 
BRANCH   3   4
ATOM      4  C   UNL     1      -7.943   0.646   9.190  1.00  0.00     0.000 C 
BRANCH   4   5
ATOM      5  C   UNL     1      -7.182   0.295   7.897  1.00  0.00     0.000 C 
BRANCH   5   6
ATOM      6  C   UNL     1      -8.078  -0.140   6.723  1.00  0.00     0.000 C 
BRANCH   6   7
ATOM      7  C   UNL     1      -7.459  -1.259   5.852  1.00  0.00     0.000 C 
BRANCH   7   8
ATOM      8  C   UNL     1      -5.992  -1.568   6.198  1.00  0.00     0.000 C 
BRANCH   8   9
ATOM      9  C   UNL     1      -5.570  -2.977   5.746  1.00  0.00     0.000 C 
BRANCH   9  10
ATOM     10  C   UNL     1      -4.135  -3.021   5.190  1.00  0.00     0.000 C 
BRANCH  10  11
ATOM     11  C   UNL     1      -3.772  -1.876   4.229  1.00  0.00     0.000 C 
BRANCH  11  12
ATOM     12  C   UNL     1      -3.673  -2.331   2.764  1.00  0.00     0.006 C 
BRANCH  12  13
ATOM     13  C   UNL     1      -4.747  -1.683   1.882  1.00  0.00     0.053 C 
BRANCH  13  14
ATOM     14  C   UNL     1      -4.936  -0.233   2.208  1.00  0.00     0.041 C 
ATOM     15  O   UNL     1      -6.020   0.170   2.706  1.00  0.00    -0.550 OA
ATOM     16  O   UNL     1      -3.903   0.670   1.982  1.00  0.00    -0.550 OA
ENDBRANCH  13  14
ENDBRANCH  12  13
ENDBRANCH  11  12
ENDBRANCH  10  11
ENDBRANCH   9  10
ENDBRANCH   8   9
ENDBRANCH   7   8
ENDBRANCH   6   7
ENDBRANCH   5   6
ENDBRANCH   4   5
ENDBRANCH   3   4
ENDBRANCH   2   3
ENDBRANCH   1   2
BRANCH   1  17
ATOM     17  C   UNL     1      -9.527  -3.030   8.676  1.00  0.00     0.000 C 
BRANCH  17  18
ATOM     18  C   UNL     1      -8.307  -3.830   8.181  1.00  0.00     0.000 C 
BRANCH  18  19
ATOM     19  C   UNL     1      -7.047  -3.731   9.063  1.00  0.00     0.000 C 
BRANCH  19  20
ATOM     20  C   UNL     1      -5.993  -4.800   8.731  1.00  0.00     0.000 C 
BRANCH  20  21
ATOM     21  C   UNL     1      -4.595  -4.461   9.278  1.00  0.00     0.000 C 
BRANCH  21  22
ATOM     22  C   UNL     1      -3.435  -4.654   8.285  1.00  0.00    -0.000 C 
BRANCH  22  23
ATOM     23  C   UNL     1      -2.056  -4.676   8.966  1.00  0.00    -0.000 C 
BRANCH  23  24
ATOM     24  C   UNL     1      -1.286  -3.346   8.797  1.00  0.00    -0.000 C 
BRANCH  24  25
ATOM     25  C   UNL     1      -1.592  -2.619   7.476  1.00  0.00    -0.000 C 
BRANCH  25  26
ATOM     26  C   UNL     1      -1.405  -1.091   7.526  1.00  0.00    -0.000 C 
BRANCH  26  27
ATOM     27  C   UNL     1      -2.059  -0.426   8.759  1.00  0.00    -0.000 C 
BRANCH  27  28
ATOM     28  C   UNL     1      -3.589  -0.320   8.634  1.00  0.00    -0.000 C 
BRANCH  28  29
ATOM     29  C   UNL     1      -4.325  -1.017   9.789  1.00  0.00    -0.003 C 
ATOM     30  C   UNL     1      -3.885  -0.508  11.162  1.00  0.00     0.004 C 
ENDBRANCH  28  29
ENDBRANCH  27  28
ENDBRANCH  26  27
ENDBRANCH  25  26
ENDBRANCH  24  25
ENDBRANCH  23  24
ENDBRANCH  22  23
ENDBRANCH  21  22
ENDBRANCH  20  21
ENDBRANCH  19  20
ENDBRANCH  18  19
ENDBRANCH  17  18
ENDBRANCH   1  17
TORSDOF 26
ENDMDL
MODEL 4
REMARK VINA RESULT:    -4.089      3.718      7.843
REMARK INTER + INTRA:         -15.370
REMARK INTER:                 -10.008
REMARK INTRA:                  -5.362
REMARK UNBOUND:                -5.065
REMARK SMILES CCCCCCCCCCCCCCCCCCCCCCCCCCCC(=O)[O-]
REMARK SMILES IDX 15 1 16 2 17 3 18 4 19 5 20 6 21 7 22 8 23 9 24 10 25 11
REMARK SMILES IDX 26 12 27 13 28 14 29 15 30 16 14 17 13 18 12 19 11 20 10 21
REMARK SMILES IDX 9 22 8 23 7 24 6 25 5 26 4 27 3 28 2 29 1 30
REMARK H PARENT
REMARK Flexibility Score: inf
ROOT
ATOM      1  C   UNL     1      -2.997  -4.500   7.697  1.00  0.00     0.000 C 
ENDROOT
BRANCH   1   2
ATOM      2  C   UNL     1      -3.984  -4.852   8.825  1.00  0.00     0.000 C 
BRANCH   2   3
ATOM      3  C   UNL     1      -5.324  -4.088   8.789  1.00  0.00     0.000 C 
BRANCH   3   4
ATOM      4  C   UNL     1      -6.580  -4.968   8.620  1.00  0.00     0.000 C 
BRANCH   4   5
ATOM      5  C   UNL     1      -7.899  -4.193   8.445  1.00  0.00     0.000 C 
BRANCH   5   6
ATOM      6  C   UNL     1      -8.080  -3.007   9.411  1.00  0.00     0.000 C 
BRANCH   6   7
ATOM      7  C   UNL     1      -8.947  -1.864   8.833  1.00  0.00     0.000 C 
BRANCH   7   8
ATOM      8  C   UNL     1      -8.743  -1.637   7.325  1.00  0.00     0.000 C 
BRANCH   8   9
ATOM      9  C   UNL     1      -7.552  -0.709   7.030  1.00  0.00     0.000 C 
BRANCH   9  10
ATOM     10  C   UNL     1      -6.910  -0.979   5.657  1.00  0.00     0.000 C 
BRANCH  10  11
ATOM     11  C   UNL     1      -5.711  -1.943   5.675  1.00  0.00     0.000 C 
BRANCH  11  12
ATOM     12  C   UNL     1      -6.090  -3.377   5.270  1.00  0.00     0.006 C 
BRANCH  12  13
ATOM     13  C   UNL     1      -7.278  -3.410   4.300  1.00  0.00     0.053 C 
BRANCH  13  14
ATOM     14  C   UNL     1      -8.339  -4.367   4.750  1.00  0.00     0.041 C 
ATOM     15  O   UNL     1      -9.549  -4.020   4.747  1.00  0.00    -0.550 OA
ATOM     16  O   UNL     1      -7.991  -5.652   5.149  1.00  0.00    -0.550 OA
ENDBRANCH  13  14
ENDBRANCH  12  13
ENDBRANCH  11  12
ENDBRANCH  10  11
ENDBRANCH   9  10
ENDBRANCH   8   9
ENDBRANCH   7   8
ENDBRANCH   6   7
ENDBRANCH   5   6
ENDBRANCH   4   5
ENDBRANCH   3   4
ENDBRANCH   2   3
ENDBRANCH   1   2
BRANCH   1  17
ATOM     17  C   UNL     1      -2.123  -3.279   8.030  1.00  0.00     0.000 C 
BRANCH  17  18
ATOM     18  C   UNL     1      -2.569  -2.000   7.295  1.00  0.00     0.000 C 
BRANCH  18  19
ATOM     19  C   UNL     1      -2.724  -0.748   8.179  1.00  0.00     0.000 C 
BRANCH  19  20
ATOM     20  C   UNL     1      -4.152  -0.565   8.719  1.00  0.00     0.000 C 
BRANCH  20  21
ATOM     21  C   UNL     1      -4.275  -0.883  10.221  1.00  0.00     0.000 C 
BRANCH  21  22
ATOM     22  C   UNL     1      -2.949  -1.191  10.939  1.00  0.00    -0.000 C 
BRANCH  22  23
ATOM     23  C   UNL     1      -2.901  -2.609  11.533  1.00  0.00    -0.000 C 
BRANCH  23  24
ATOM     24  C   UNL     1      -1.533  -2.944  12.170  1.00  0.00    -0.000 C 
BRANCH  24  25
ATOM     25  C   UNL     1      -0.377  -3.005  11.154  1.00  0.00    -0.000 C 
BRANCH  25  26
ATOM     26  C   UNL     1       0.842  -2.137  11.516  1.00  0.00    -0.000 C 
BRANCH  26  27
ATOM     27  C   UNL     1       0.762  -0.695  10.964  1.00  0.00    -0.000 C 
BRANCH  27  28
ATOM     28  C   UNL     1       0.461  -0.653   9.456  1.00  0.00    -0.000 C 
BRANCH  28  29
ATOM     29  C   UNL     1       0.681   0.743   8.850  1.00  0.00    -0.003 C 
ATOM     30  C   UNL     1      -0.274   1.791   9.422  1.00  0.00     0.004 C 
ENDBRANCH  28  29
ENDBRANCH  27  28
ENDBRANCH  26  27
ENDBRANCH  25  26
ENDBRANCH  24  25
ENDBRANCH  23  24
ENDBRANCH  22  23
ENDBRANCH  21  22
ENDBRANCH  20  21
ENDBRANCH  19  20
ENDBRANCH  18  19
ENDBRANCH  17  18
ENDBRANCH   1  17
TORSDOF 26
ENDMDL
MODEL 5
REMARK VINA RESULT:    -4.033      1.313      3.427
REMARK INTER + INTRA:         -15.228
REMARK INTER:                  -9.638
REMARK INTRA:                  -5.590
REMARK UNBOUND:                -5.065
REMARK SMILES CCCCCCCCCCCCCCCCCCCCCCCCCCCC(=O)[O-]
REMARK SMILES IDX 15 1 16 2 17 3 18 4 19 5 20 6 21 7 22 8 23 9 24 10 25 11
REMARK SMILES IDX 26 12 27 13 28 14 29 15 30 16 14 17 13 18 12 19 11 20 10 21
REMARK SMILES IDX 9 22 8 23 7 24 6 25 5 26 4 27 3 28 2 29 1 30
REMARK H PARENT
REMARK Flexibility Score: inf
ROOT
ATOM      1  C   UNL     1      -5.510  -4.149   8.516  1.00  0.00     0.000 C 
ENDROOT
BRANCH   1   2
ATOM      2  C   UNL     1      -4.571  -4.876   9.497  1.00  0.00     0.000 C 
BRANCH   2   3
ATOM      3  C   UNL     1      -3.078  -4.508   9.374  1.00  0.00     0.000 C 
BRANCH   3   4
ATOM      4  C   UNL     1      -2.623  -4.062   7.969  1.00  0.00     0.000 C 
BRANCH   4   5
ATOM      5  C   UNL     1      -1.329  -3.226   7.939  1.00  0.00     0.000 C 
BRANCH   5   6
ATOM      6  C   UNL     1      -1.523  -1.757   7.519  1.00  0.00     0.000 C 
BRANCH   6   7
ATOM      7  C   UNL     1      -3.002  -1.303   7.513  1.00  0.00     0.000 C 
BRANCH   7   8
ATOM      8  C   UNL     1      -3.350  -0.322   8.646  1.00  0.00     0.000 C 
BRANCH   8   9
ATOM      9  C   UNL     1      -4.277  -0.952   9.700  1.00  0.00     0.000 C 
BRANCH   9  10
ATOM     10  C   UNL     1      -3.555  -1.255  11.026  1.00  0.00     0.000 C 
BRANCH  10  11
ATOM     11  C   UNL     1      -2.047  -0.948  11.032  1.00  0.00     0.000 C 
BRANCH  11  12
ATOM     12  C   UNL     1      -1.196  -2.136  11.510  1.00  0.00     0.006 C 
BRANCH  12  13
ATOM     13  C   UNL     1      -0.908  -2.073  13.015  1.00  0.00     0.053 C 
BRANCH  13  14
ATOM     14  C   UNL     1      -1.445  -3.270  13.737  1.00  0.00     0.041 C 
ATOM     15  O   UNL     1      -2.681  -3.378  13.954  1.00  0.00    -0.550 OA
ATOM     16  O   UNL     1      -0.582  -4.278  14.150  1.00  0.00    -0.550 OA
ENDBRANCH  13  14
ENDBRANCH  12  13
ENDBRANCH  11  12
ENDBRANCH  10  11
ENDBRANCH   9  10
ENDBRANCH   8   9
ENDBRANCH   7   8
ENDBRANCH   6   7
ENDBRANCH   5   6
ENDBRANCH   4   5
ENDBRANCH   3   4
ENDBRANCH   2   3
ENDBRANCH   1   2
BRANCH   1  17
ATOM     17  C   UNL     1      -6.731  -4.997   8.122  1.00  0.00     0.000 C 
BRANCH  17  18
ATOM     18  C   UNL     1      -8.062  -4.230   8.245  1.00  0.00     0.000 C 
BRANCH  18  19
ATOM     19  C   UNL     1      -8.200  -3.339   9.495  1.00  0.00     0.000 C 
BRANCH  19  20
ATOM     20  C   UNL     1      -9.506  -2.529   9.515  1.00  0.00     0.000 C 
BRANCH  20  21
ATOM     21  C   UNL     1      -9.305  -1.068   9.960  1.00  0.00     0.000 C 
BRANCH  21  22
ATOM     22  C   UNL     1      -7.855  -0.555   9.894  1.00  0.00    -0.000 C 
BRANCH  22  23
ATOM     23  C   UNL     1      -7.601   0.380   8.700  1.00  0.00    -0.000 C 
BRANCH  23  24
ATOM     24  C   UNL     1      -7.213  -0.385   7.414  1.00  0.00    -0.000 C 
BRANCH  24  25
ATOM     25  C   UNL     1      -8.304  -0.363   6.328  1.00  0.00    -0.000 C 
BRANCH  25  26
ATOM     26  C   UNL     1      -8.661  -1.745   5.749  1.00  0.00    -0.000 C 
BRANCH  26  27
ATOM     27  C   UNL     1      -7.803  -2.145   4.527  1.00  0.00    -0.000 C 
BRANCH  27  28
ATOM     28  C   UNL     1      -6.919  -3.374   4.799  1.00  0.00    -0.000 C 
BRANCH  28  29
ATOM     29  C   UNL     1      -5.449  -3.001   5.044  1.00  0.00    -0.003 C 
ATOM     30  C   UNL     1      -5.084  -1.632   4.469  1.00  0.00     0.004 C 
ENDBRANCH  28  29
ENDBRANCH  27  28
ENDBRANCH  26  27
ENDBRANCH  25  26
ENDBRANCH  24  25
ENDBRANCH  23  24
ENDBRANCH  22  23
ENDBRANCH  21  22
ENDBRANCH  20  21
ENDBRANCH  19  20
ENDBRANCH  18  19
ENDBRANCH  17  18
ENDBRANCH   1  17
TORSDOF 26
ENDMDL
MODEL 6
REMARK VINA RESULT:    -4.016      2.685      6.143
REMARK INTER + INTRA:         -15.184
REMARK INTER:                 -10.202
REMARK INTRA:                  -4.981
REMARK UNBOUND:                -5.065
REMARK SMILES CCCCCCCCCCCCCCCCCCCCCCCCCCCC(=O)[O-]
REMARK SMILES IDX 15 1 16 2 17 3 18 4 19 5 20 6 21 7 22 8 23 9 24 10 25 11
REMARK SMILES IDX 26 12 27 13 28 14 29 15 30 16 14 17 13 18 12 19 11 20 10 21
REMARK SMILES IDX 9 22 8 23 7 24 6 25 5 26 4 27 3 28 2 29 1 30
REMARK H PARENT
REMARK Flexibility Score: inf
ROOT
ATOM      1  C   UNL     1      -2.363  -4.446   8.871  1.00  0.00     0.000 C 
ENDROOT
BRANCH   1   2
ATOM      2  C   UNL     1      -3.734  -4.402   9.569  1.00  0.00     0.000 C 
BRANCH   2   3
ATOM      3  C   UNL     1      -4.945  -4.699   8.660  1.00  0.00     0.000 C 
BRANCH   3   4
ATOM      4  C   UNL     1      -6.235  -3.929   9.010  1.00  0.00     0.000 C 
BRANCH   4   5
ATOM      5  C   UNL     1      -7.514  -4.461   8.336  1.00  0.00     0.000 C 
BRANCH   5   6
ATOM      6  C   UNL     1      -8.274  -3.424   7.489  1.00  0.00     0.000 C 
BRANCH   6   7
ATOM      7  C   UNL     1      -9.509  -2.826   8.203  1.00  0.00     0.000 C 
BRANCH   7   8
ATOM      8  C   UNL     1      -9.708  -3.352   9.635  1.00  0.00     0.000 C 
BRANCH   8   9
ATOM      9  C   UNL     1      -9.422  -2.276  10.697  1.00  0.00     0.000 C 
BRANCH   9  10
ATOM     10  C   UNL     1      -9.346  -0.857  10.105  1.00  0.00     0.000 C 
BRANCH  10  11
ATOM     11  C   UNL     1      -8.078  -0.065  10.469  1.00  0.00     0.000 C 
BRANCH  11  12
ATOM     12  C   UNL     1      -6.842  -0.513   9.672  1.00  0.00     0.006 C 
BRANCH  12  13
ATOM     13  C   UNL     1      -5.802   0.607   9.539  1.00  0.00     0.053 C 
BRANCH  13  14
ATOM     14  C   UNL     1      -5.497   1.245  10.859  1.00  0.00     0.041 C 
ATOM     15  O   UNL     1      -4.876   0.602  11.745  1.00  0.00    -0.550 OA
ATOM     16  O   UNL     1      -5.879   2.560  11.101  1.00  0.00    -0.550 OA
ENDBRANCH  13  14
ENDBRANCH  12  13
ENDBRANCH  11  12
ENDBRANCH  10  11
ENDBRANCH   9  10
ENDBRANCH   8   9
ENDBRANCH   7   8
ENDBRANCH   6   7
ENDBRANCH   5   6
ENDBRANCH   4   5
ENDBRANCH   3   4
ENDBRANCH   2   3
ENDBRANCH   1   2
BRANCH   1  17
ATOM     17  C   UNL     1      -1.438  -3.294   9.301  1.00  0.00     0.000 C 
BRANCH  17  18
ATOM     18  C   UNL     1      -1.728  -1.977   8.555  1.00  0.00     0.000 C 
BRANCH  18  19
ATOM     19  C   UNL     1      -1.494  -2.014   7.032  1.00  0.00     0.000 C 
BRANCH  19  20
ATOM     20  C   UNL     1      -2.710  -1.531   6.224  1.00  0.00     0.000 C 
BRANCH  20  21
ATOM     21  C   UNL     1      -4.005  -1.476   7.056  1.00  0.00     0.000 C 
BRANCH  21  22
ATOM     22  C   UNL     1      -5.306  -1.687   6.262  1.00  0.00    -0.000 C 
BRANCH  22  23
ATOM     23  C   UNL     1      -5.139  -2.656   5.079  1.00  0.00    -0.000 C 
BRANCH  23  24
ATOM     24  C   UNL     1      -6.486  -3.025   4.414  1.00  0.00    -0.000 C 
BRANCH  24  25
ATOM     25  C   UNL     1      -6.579  -2.608   2.935  1.00  0.00    -0.000 C 
BRANCH  25  26
ATOM     26  C   UNL     1      -7.721  -1.625   2.616  1.00  0.00    -0.000 C 
BRANCH  26  27
ATOM     27  C   UNL     1      -7.662  -0.318   3.439  1.00  0.00    -0.000 C 
BRANCH  27  28
ATOM     28  C   UNL     1      -8.989  -0.004   4.151  1.00  0.00    -0.000 C 
BRANCH  28  29
ATOM     29  C   UNL     1      -8.921  -0.259   5.665  1.00  0.00    -0.003 C 
ATOM     30  C   UNL     1      -8.022   0.742   6.392  1.00  0.00     0.004 C 
ENDBRANCH  28  29
ENDBRANCH  27  28
ENDBRANCH  26  27
ENDBRANCH  25  26
ENDBRANCH  24  25
ENDBRANCH  23  24
ENDBRANCH  22  23
ENDBRANCH  21  22
ENDBRANCH  20  21
ENDBRANCH  19  20
ENDBRANCH  18  19
ENDBRANCH  17  18
ENDBRANCH   1  17
TORSDOF 26
ENDMDL
MODEL 7
REMARK VINA RESULT:    -4.011      3.228      6.016
REMARK INTER + INTRA:         -15.172
REMARK INTER:                  -9.426
REMARK INTRA:                  -5.746
REMARK UNBOUND:                -5.065
REMARK SMILES CCCCCCCCCCCCCCCCCCCCCCCCCCCC(=O)[O-]
REMARK SMILES IDX 15 1 16 2 17 3 18 4 19 5 20 6 21 7 22 8 23 9 24 10 25 11
REMARK SMILES IDX 26 12 27 13 28 14 29 15 30 16 14 17 13 18 12 19 11 20 10 21
REMARK SMILES IDX 9 22 8 23 7 24 6 25 5 26 4 27 3 28 2 29 1 30
REMARK H PARENT
REMARK Flexibility Score: inf
ROOT
ATOM      1  C   UNL     1      -3.008  -4.943   8.328  1.00  0.00     0.000 C 
ENDROOT
BRANCH   1   2
ATOM      2  C   UNL     1      -1.612  -4.447   8.746  1.00  0.00     0.000 C 
BRANCH   2   3
ATOM      3  C   UNL     1      -1.555  -3.699  10.094  1.00  0.00     0.000 C 
BRANCH   3   4
ATOM      4  C   UNL     1      -0.599  -2.489  10.135  1.00  0.00     0.000 C 
BRANCH   4   5
ATOM      5  C   UNL     1      -0.917  -1.445  11.222  1.00  0.00     0.000 C 
BRANCH   5   6
ATOM      6  C   UNL     1      -2.190  -1.736  12.040  1.00  0.00     0.000 C 
BRANCH   6   7
ATOM      7  C   UNL     1      -3.293  -0.666  11.870  1.00  0.00     0.000 C 
BRANCH   7   8
ATOM      8  C   UNL     1      -4.009  -0.729  10.509  1.00  0.00     0.000 C 
BRANCH   8   9
ATOM      9  C   UNL     1      -3.591   0.421   9.576  1.00  0.00     0.000 C 
BRANCH   9  10
ATOM     10  C   UNL     1      -2.891  -0.073   8.297  1.00  0.00     0.000 C 
BRANCH  10  11
ATOM     11  C   UNL     1      -3.438  -1.391   7.721  1.00  0.00     0.000 C 
BRANCH  11  12
ATOM     12  C   UNL     1      -2.824  -1.750   6.358  1.00  0.00     0.006 C 
BRANCH  12  13
ATOM     13  C   UNL     1      -3.731  -2.680   5.541  1.00  0.00     0.053 C 
BRANCH  13  14
ATOM     14  C   UNL     1      -3.701  -2.346   4.081  1.00  0.00     0.041 C 
ATOM     15  O   UNL     1      -2.854  -2.888   3.324  1.00  0.00    -0.550 OA
ATOM     16  O   UNL     1      -4.628  -1.455   3.553  1.00  0.00    -0.550 OA
ENDBRANCH  13  14
ENDBRANCH  12  13
ENDBRANCH  11  12
ENDBRANCH  10  11
ENDBRANCH   9  10
ENDBRANCH   8   9
ENDBRANCH   7   8
ENDBRANCH   6   7
ENDBRANCH   5   6
ENDBRANCH   4   5
ENDBRANCH   3   4
ENDBRANCH   2   3
ENDBRANCH   1   2
BRANCH   1  17
ATOM     17  C   UNL     1      -4.080  -4.678   9.399  1.00  0.00     0.000 C 
BRANCH  17  18
ATOM     18  C   UNL     1      -5.501  -4.566   8.815  1.00  0.00     0.000 C 
BRANCH  18  19
ATOM     19  C   UNL     1      -6.250  -3.260   9.141  1.00  0.00     0.000 C 
BRANCH  19  20
ATOM     20  C   UNL     1      -7.779  -3.425   9.136  1.00  0.00     0.000 C 
BRANCH  20  21
ATOM     21  C   UNL     1      -8.334  -3.876   7.772  1.00  0.00     0.000 C 
BRANCH  21  22
ATOM     22  C   UNL     1      -9.284  -2.878   7.086  1.00  0.00    -0.000 C 
BRANCH  22  23
ATOM     23  C   UNL     1      -8.740  -2.351   5.747  1.00  0.00    -0.000 C 
BRANCH  23  24
ATOM     24  C   UNL     1      -8.300  -0.871   5.822  1.00  0.00    -0.000 C 
BRANCH  24  25
ATOM     25  C   UNL     1      -6.910  -0.671   6.454  1.00  0.00    -0.000 C 
BRANCH  25  26
ATOM     26  C   UNL     1      -6.921   0.058   7.810  1.00  0.00    -0.000 C 
BRANCH  26  27
ATOM     27  C   UNL     1      -8.341   0.349   8.347  1.00  0.00    -0.000 C 
BRANCH  27  28
ATOM     28  C   UNL     1      -8.398   0.395   9.883  1.00  0.00    -0.000 C 
BRANCH  28  29
ATOM     29  C   UNL     1      -7.147   1.039  10.501  1.00  0.00    -0.003 C 
ATOM     30  C   UNL     1      -7.104   0.904  12.023  1.00  0.00     0.004 C 
ENDBRANCH  28  29
ENDBRANCH  27  28
ENDBRANCH  26  27
ENDBRANCH  25  26
ENDBRANCH  24  25
ENDBRANCH  23  24
ENDBRANCH  22  23
ENDBRANCH  21  22
ENDBRANCH  20  21
ENDBRANCH  19  20
ENDBRANCH  18  19
ENDBRANCH  17  18
ENDBRANCH   1  17
TORSDOF 26
ENDMDL
MODEL 8
REMARK VINA RESULT:    -3.990      3.505      7.275
REMARK INTER + INTRA:         -15.120
REMARK INTER:                 -10.155
REMARK INTRA:                  -4.965
REMARK UNBOUND:                -5.065
REMARK SMILES CCCCCCCCCCCCCCCCCCCCCCCCCCCC(=O)[O-]
REMARK SMILES IDX 15 1 16 2 17 3 18 4 19 5 20 6 21 7 22 8 23 9 24 10 25 11
REMARK SMILES IDX 26 12 27 13 28 14 29 15 30 16 14 17 13 18 12 19 11 20 10 21
REMARK SMILES IDX 9 22 8 23 7 24 6 25 5 26 4 27 3 28 2 29 1 30
REMARK H PARENT
REMARK Flexibility Score: inf
ROOT
ATOM      1  C   UNL     1      -8.715  -0.942   8.461  1.00  0.00     0.000 C 
ENDROOT
BRANCH   1   2
ATOM      2  C   UNL     1      -7.250  -0.537   8.214  1.00  0.00     0.000 C 
BRANCH   2   3
ATOM      3  C   UNL     1      -6.423  -0.252   9.485  1.00  0.00     0.000 C 
BRANCH   3   4
ATOM      4  C   UNL     1      -4.913  -0.548   9.368  1.00  0.00     0.000 C 
BRANCH   4   5
ATOM      5  C   UNL     1      -4.455  -1.058   7.988  1.00  0.00     0.000 C 
BRANCH   5   6
ATOM      6  C   UNL     1      -2.982  -0.763   7.651  1.00  0.00     0.000 C 
BRANCH   6   7
ATOM      7  C   UNL     1      -2.469  -1.516   6.402  1.00  0.00     0.000 C 
BRANCH   7   8
ATOM      8  C   UNL     1      -3.038  -2.939   6.263  1.00  0.00     0.000 C 
BRANCH   8   9
ATOM      9  C   UNL     1      -3.723  -3.164   4.903  1.00  0.00     0.000 C 
BRANCH   9  10
ATOM     10  C   UNL     1      -4.405  -1.896   4.361  1.00  0.00     0.000 C 
BRANCH  10  11
ATOM     11  C   UNL     1      -5.898  -1.758   4.710  1.00  0.00     0.000 C 
BRANCH  11  12
ATOM     12  C   UNL     1      -6.518  -3.070   5.218  1.00  0.00     0.006 C 
BRANCH  12  13
ATOM     13  C   UNL     1      -7.958  -3.258   4.725  1.00  0.00     0.053 C 
BRANCH  13  14
ATOM     14  C   UNL     1      -8.270  -4.697   4.449  1.00  0.00     0.041 C 
ATOM     15  O   UNL     1      -8.821  -5.030   3.368  1.00  0.00    -0.550 OA
ATOM     16  O   UNL     1      -7.928  -5.673   5.379  1.00  0.00    -0.550 OA
ENDBRANCH  13  14
ENDBRANCH  12  13
ENDBRANCH  11  12
ENDBRANCH  10  11
ENDBRANCH   9  10
ENDBRANCH   8   9
ENDBRANCH   7   8
ENDBRANCH   6   7
ENDBRANCH   5   6
ENDBRANCH   4   5
ENDBRANCH   3   4
ENDBRANCH   2   3
ENDBRANCH   1   2
BRANCH   1  17
ATOM     17  C   UNL     1      -8.985  -2.423   8.142  1.00  0.00     0.000 C 
BRANCH  17  18
ATOM     18  C   UNL     1      -8.359  -3.385   9.169  1.00  0.00     0.000 C 
BRANCH  18  19
ATOM     19  C   UNL     1      -7.489  -4.511   8.578  1.00  0.00     0.000 C 
BRANCH  19  20
ATOM     20  C   UNL     1      -6.006  -4.121   8.448  1.00  0.00     0.000 C 
BRANCH  20  21
ATOM     21  C   UNL     1      -5.095  -4.873   9.435  1.00  0.00     0.000 C 
BRANCH  21  22
ATOM     22  C   UNL     1      -3.585  -4.664   9.226  1.00  0.00    -0.000 C 
BRANCH  22  23
ATOM     23  C   UNL     1      -2.970  -3.672  10.227  1.00  0.00    -0.000 C 
BRANCH  23  24
ATOM     24  C   UNL     1      -1.453  -3.467  10.010  1.00  0.00    -0.000 C 
BRANCH  24  25
ATOM     25  C   UNL     1      -0.958  -2.062  10.395  1.00  0.00    -0.000 C 
BRANCH  25  26
ATOM     26  C   UNL     1       0.448  -2.026  11.024  1.00  0.00    -0.000 C 
BRANCH  26  27
ATOM     27  C   UNL     1       0.624  -3.011  12.203  1.00  0.00    -0.000 C 
BRANCH  27  28
ATOM     28  C   UNL     1      -0.100  -2.546  13.478  1.00  0.00    -0.000 C 
BRANCH  28  29
ATOM     29  C   UNL     1      -1.151  -3.558  13.961  1.00  0.00    -0.003 C 
ATOM     30  C   UNL     1      -2.579  -3.020  13.855  1.00  0.00     0.004 C 
ENDBRANCH  28  29
ENDBRANCH  27  28
ENDBRANCH  26  27
ENDBRANCH  25  26
ENDBRANCH  24  25
ENDBRANCH  23  24
ENDBRANCH  22  23
ENDBRANCH  21  22
ENDBRANCH  20  21
ENDBRANCH  19  20
ENDBRANCH  18  19
ENDBRANCH  17  18
ENDBRANCH   1  17
TORSDOF 26
ENDMDL
MODEL 9
REMARK VINA RESULT:    -3.953      2.858      7.917
REMARK INTER + INTRA:         -15.026
REMARK INTER:                  -9.735
REMARK INTRA:                  -5.290
REMARK UNBOUND:                -5.065
REMARK SMILES CCCCCCCCCCCCCCCCCCCCCCCCCCCC(=O)[O-]
REMARK SMILES IDX 15 1 16 2 17 3 18 4 19 5 20 6 21 7 22 8 23 9 24 10 25 11
REMARK SMILES IDX 26 12 27 13 28 14 29 15 30 16 14 17 13 18 12 19 11 20 10 21
REMARK SMILES IDX 9 22 8 23 7 24 6 25 5 26 4 27 3 28 2 29 1 30
REMARK H PARENT
REMARK Flexibility Score: inf
ROOT
ATOM      1  C   UNL     1      -2.843  -5.032   8.700  1.00  0.00     0.000 C 
ENDROOT
BRANCH   1   2
ATOM      2  C   UNL     1      -4.210  -4.861   9.388  1.00  0.00     0.000 C 
BRANCH   2   3
ATOM      3  C   UNL     1      -5.428  -4.864   8.441  1.00  0.00     0.000 C 
BRANCH   3   4
ATOM      4  C   UNL     1      -6.775  -4.504   9.101  1.00  0.00     0.000 C 
BRANCH   4   5
ATOM      5  C   UNL     1      -7.827  -3.904   8.148  1.00  0.00     0.000 C 
BRANCH   5   6
ATOM      6  C   UNL     1      -8.512  -2.627   8.668  1.00  0.00     0.000 C 
BRANCH   6   7
ATOM      7  C   UNL     1      -8.643  -1.515   7.601  1.00  0.00     0.000 C 
BRANCH   7   8
ATOM      8  C   UNL     1      -7.917  -0.212   7.976  1.00  0.00     0.000 C 
BRANCH   8   9
ATOM      9  C   UNL     1      -7.328  -0.259   9.396  1.00  0.00     0.000 C 
BRANCH   9  10
ATOM     10  C   UNL     1      -5.807  -0.023   9.421  1.00  0.00     0.000 C 
BRANCH  10  11
ATOM     11  C   UNL     1      -4.950  -1.260   9.099  1.00  0.00     0.000 C 
BRANCH  11  12
ATOM     12  C   UNL     1      -4.114  -1.093   7.819  1.00  0.00     0.006 C 
BRANCH  12  13
ATOM     13  C   UNL     1      -4.770  -1.768   6.608  1.00  0.00     0.053 C 
BRANCH  13  14
ATOM     14  C   UNL     1      -3.759  -2.423   5.718  1.00  0.00     0.041 C 
ATOM     15  O   UNL     1      -3.759  -3.673   5.571  1.00  0.00    -0.550 OA
ATOM     16  O   UNL     1      -2.830  -1.648   5.033  1.00  0.00    -0.550 OA
ENDBRANCH  13  14
ENDBRANCH  12  13
ENDBRANCH  11  12
ENDBRANCH  10  11
ENDBRANCH   9  10
ENDBRANCH   8   9
ENDBRANCH   7   8
ENDBRANCH   6   7
ENDBRANCH   5   6
ENDBRANCH   4   5
ENDBRANCH   3   4
ENDBRANCH   2   3
ENDBRANCH   1   2
BRANCH   1  17
ATOM     17  C   UNL     1      -1.902  -3.839   8.941  1.00  0.00     0.000 C 
BRANCH  17  18
ATOM     18  C   UNL     1      -1.841  -3.407  10.418  1.00  0.00     0.000 C 
BRANCH  18  19
ATOM     19  C   UNL     1      -0.440  -3.041  10.944  1.00  0.00     0.000 C 
BRANCH  19  20
ATOM     20  C   UNL     1       0.226  -1.907  10.146  1.00  0.00     0.000 C 
BRANCH  20  21
ATOM     21  C   UNL     1       0.506  -0.654  10.995  1.00  0.00     0.000 C 
BRANCH  21  22
ATOM     22  C   UNL     1      -0.305   0.597  10.610  1.00  0.00    -0.000 C 
BRANCH  22  23
ATOM     23  C   UNL     1      -1.794   0.298  10.367  1.00  0.00    -0.000 C 
BRANCH  23  24
ATOM     24  C   UNL     1      -2.672   0.590  11.605  1.00  0.00    -0.000 C 
BRANCH  24  25
ATOM     25  C   UNL     1      -3.227  -0.676  12.282  1.00  0.00    -0.000 C 
BRANCH  25  26
ATOM     26  C   UNL     1      -2.570  -1.024  13.630  1.00  0.00    -0.000 C 
BRANCH  26  27
ATOM     27  C   UNL     1      -2.587  -2.535  13.955  1.00  0.00    -0.000 C 
BRANCH  27  28
ATOM     28  C   UNL     1      -1.385  -2.972  14.810  1.00  0.00    -0.000 C 
BRANCH  28  29
ATOM     29  C   UNL     1      -0.792  -4.314  14.353  1.00  0.00    -0.003 C 
ATOM     30  C   UNL     1       0.736  -4.295  14.293  1.00  0.00     0.004 C 
ENDBRANCH  28  29
ENDBRANCH  27  28
ENDBRANCH  26  27
ENDBRANCH  25  26
ENDBRANCH  24  25
ENDBRANCH  23  24
ENDBRANCH  22  23
ENDBRANCH  21  22
ENDBRANCH  20  21
ENDBRANCH  19  20
ENDBRANCH  18  19
ENDBRANCH  17  18
ENDBRANCH   1  17
TORSDOF 26
ENDMDL
