MODEL 1
REMARK VINA RESULT:    -3.603      0.000      0.000
REMARK INTER + INTRA:          -4.340
REMARK INTER:                  -4.235
REMARK INTRA:                  -0.105
REMARK UNBOUND:                -0.105
REMARK SMILES O=C([O-])CCC(=O)[O-]
REMARK SMILES IDX 4 1 2 2 1 3 3 4 5 5 6 6 7 7 8 8
REMARK H PARENT
REMARK Flexibility Score: inf
ROOT
ATOM      1  C   UNL     1      -9.322  -2.896  -2.680  1.00  0.00     0.059 C 
ENDROOT
BRANCH   1   2
ATOM      2  C   UNL     1      -8.351  -2.760  -1.546  1.00  0.00     0.042 C 
ATOM      3  O   UNL     1      -8.768  -2.569  -0.374  1.00  0.00    -0.550 OA
ATOM      4  O   UNL     1      -6.985  -2.804  -1.792  1.00  0.00    -0.550 OA
ENDBRANCH   1   2
BRANCH   1   5
ATOM      5  C   UNL     1      -9.363  -4.331  -3.216  1.00  0.00     0.059 C 
BRANCH   5   6
ATOM      6  C   UNL     1      -8.696  -4.439  -4.554  1.00  0.00     0.042 C 
ATOM      7  O   UNL     1      -7.829  -3.593  -4.899  1.00  0.00    -0.550 OA
ATOM      8  O   UNL     1      -9.001  -5.496  -5.401  1.00  0.00    -0.550 OA
ENDBRANCH   5   6
ENDBRANCH   1   5
TORSDOF 3
ENDMDL
MODEL 2
REMARK VINA RESULT:    -3.580      0.202      3.912
REMARK INTER + INTRA:          -4.313
REMARK INTER:                  -4.207
REMARK INTRA:                  -0.106
REMARK UNBOUND:                -0.105
REMARK SMILES O=C([O-])CCC(=O)[O-]
REMARK SMILES IDX 4 1 2 2 1 3 3 4 5 5 6 6 7 7 8 8
REMARK H PARENT
REMARK Flexibility Score: inf
ROOT
ATOM      1  C   UNL     1      -9.198  -4.584  -3.045  1.00  0.00     0.059 C 
ENDROOT
BRANCH   1   2
ATOM      2  C   UNL     1      -8.674  -4.602  -4.449  1.00  0.00     0.042 C 
ATOM      3  O   UNL     1      -7.976  -3.647  -4.878  1.00  0.00    -0.550 OA
ATOM      4  O   UNL     1      -8.992  -5.657  -5.296  1.00  0.00    -0.550 OA
ENDBRANCH   1   2
BRANCH   1   5
ATOM      5  C   UNL     1      -9.396  -3.151  -2.537  1.00  0.00     0.059 C 
BRANCH   5   6
ATOM      6  C   UNL     1      -8.374  -2.785  -1.504  1.00  0.00     0.042 C 
ATOM      7  O   UNL     1      -8.730  -2.540  -0.321  1.00  0.00    -0.550 OA
ATOM      8  O   UNL     1      -7.027  -2.754  -1.838  1.00  0.00    -0.550 OA
ENDBRANCH   5   6
ENDBRANCH   1   5
TORSDOF 3
ENDMDL
MODEL 3
REMARK VINA RESULT:    -3.416      1.106      1.752
REMARK INTER + INTRA:          -4.120
REMARK INTER:                  -4.033
REMARK INTRA:                  -0.088
REMARK UNBOUND:                -0.105
REMARK SMILES O=C([O-])CCC(=O)[O-]
REMARK SMILES IDX 4 1 2 2 1 3 3 4 5 5 6 6 7 7 8 8
REMARK H PARENT
REMARK Flexibility Score: inf
ROOT
ATOM      1  C   UNL     1      -9.114  -3.188  -3.015  1.00  0.00     0.059 C 
ENDROOT
BRANCH   1   2
ATOM      2  C   UNL     1      -8.211  -2.899  -1.855  1.00  0.00     0.042 C 
ATOM      3  O   UNL     1      -6.961  -2.928  -2.001  1.00  0.00    -0.550 OA
ATOM      4  O   UNL     1      -8.751  -2.636  -0.602  1.00  0.00    -0.550 OA
ENDBRANCH   1   2
BRANCH   1   5
ATOM      5  C   UNL     1      -8.379  -3.948  -4.125  1.00  0.00     0.059 C 
BRANCH   5   6
ATOM      6  C   UNL     1      -8.910  -5.340  -4.286  1.00  0.00     0.042 C 
ATOM      7  O   UNL     1      -9.292  -5.992  -3.277  1.00  0.00    -0.550 OA
ATOM      8  O   UNL     1      -9.023  -5.901  -5.551  1.00  0.00    -0.550 OA
ENDBRANCH   5   6
ENDBRANCH   1   5
TORSDOF 3
ENDMDL
MODEL 4
REMARK VINA RESULT:    -3.388      1.130      3.900
REMARK INTER + INTRA:          -4.087
REMARK INTER:                  -4.011
REMARK INTRA:                  -0.076
REMARK UNBOUND:                -0.105
REMARK SMILES O=C([O-])CCC(=O)[O-]
REMARK SMILES IDX 4 1 2 2 1 3 3 4 5 5 6 6 7 7 8 8
REMARK H PARENT
REMARK Flexibility Score: inf
ROOT
ATOM      1  C   UNL     1      -8.335  -4.088  -4.041  1.00  0.00     0.059 C 
ENDROOT
BRANCH   1   2
ATOM      2  C   UNL     1      -9.000  -5.413  -4.257  1.00  0.00     0.042 C 
ATOM      3  O   UNL     1      -9.528  -6.023  -3.290  1.00  0.00    -0.550 OA
ATOM      4  O   UNL     1      -9.000  -5.994  -5.519  1.00  0.00    -0.550 OA
ENDBRANCH   1   2
BRANCH   1   5
ATOM      5  C   UNL     1      -9.080  -3.247  -2.999  1.00  0.00     0.059 C 
BRANCH   5   6
ATOM      6  C   UNL     1      -8.209  -2.926  -1.822  1.00  0.00     0.042 C 
ATOM      7  O   UNL     1      -8.728  -2.625  -0.715  1.00  0.00    -0.550 OA
ATOM      8  O   UNL     1      -6.828  -2.999  -1.938  1.00  0.00    -0.550 OA
ENDBRANCH   5   6
ENDBRANCH   1   5
TORSDOF 3
ENDMDL
MODEL 5
REMARK VINA RESULT:    -3.294      1.265      4.120
REMARK INTER + INTRA:          -3.977
REMARK INTER:                  -3.945
REMARK INTRA:                  -0.032
REMARK UNBOUND:                -0.105
REMARK SMILES O=C([O-])CCC(=O)[O-]
REMARK SMILES IDX 4 1 2 2 1 3 3 4 5 5 6 6 7 7 8 8
REMARK H PARENT
REMARK Flexibility Score: inf
ROOT
ATOM      1  C   UNL     1      -8.078  -4.846  -3.416  1.00  0.00     0.059 C 
ENDROOT
BRANCH   1   2
ATOM      2  C   UNL     1      -8.982  -5.897  -3.986  1.00  0.00     0.042 C 
ATOM      3  O   UNL     1      -9.013  -6.101  -5.228  1.00  0.00    -0.550 OA
ATOM      4  O   UNL     1      -9.818  -6.624  -3.148  1.00  0.00    -0.550 OA
ENDBRANCH   1   2
BRANCH   1   5
ATOM      5  C   UNL     1      -8.871  -3.634  -2.915  1.00  0.00     0.059 C 
BRANCH   5   6
ATOM      6  C   UNL     1      -8.184  -2.962  -1.765  1.00  0.00     0.042 C 
ATOM      7  O   UNL     1      -6.952  -2.708  -1.824  1.00  0.00    -0.550 OA
ATOM      8  O   UNL     1      -8.912  -2.580  -0.646  1.00  0.00    -0.550 OA
ENDBRANCH   5   6
ENDBRANCH   1   5
TORSDOF 3
ENDMDL
MODEL 6
REMARK VINA RESULT:    -2.845     13.080     14.827
REMARK INTER + INTRA:          -3.449
REMARK INTER:                  -3.418
REMARK INTRA:                  -0.031
REMARK UNBOUND:                -0.105
REMARK SMILES O=C([O-])CCC(=O)[O-]
REMARK SMILES IDX 4 1 2 2 1 3 3 4 5 5 6 6 7 7 8 8
REMARK H PARENT
REMARK Flexibility Score: inf
ROOT
ATOM      1  C   UNL     1      -4.314   1.987   9.244  1.00  0.00     0.059 C 
ENDROOT
BRANCH   1   2
ATOM      2  C   UNL     1      -5.086   0.705   9.179  1.00  0.00     0.042 C 
ATOM      3  O   UNL     1      -4.873  -0.118   8.250  1.00  0.00    -0.550 OA
ATOM      4  O   UNL     1      -6.071   0.438  10.122  1.00  0.00    -0.550 OA
ENDBRANCH   1   2
BRANCH   1   5
ATOM      5  C   UNL     1      -2.814   1.752   9.028  1.00  0.00     0.059 C 
BRANCH   5   6
ATOM      6  C   UNL     1      -2.008   2.961   9.393  1.00  0.00     0.042 C 
ATOM      7  O   UNL     1      -0.794   2.841   9.706  1.00  0.00    -0.550 OA
ATOM      8  O   UNL     1      -2.585   4.223   9.347  1.00  0.00    -0.550 OA
ENDBRANCH   5   6
ENDBRANCH   1   5
TORSDOF 3
ENDMDL
MODEL 7
REMARK VINA RESULT:    -2.839     17.549     18.677
REMARK INTER + INTRA:          -3.442
REMARK INTER:                  -3.333
REMARK INTRA:                  -0.109
REMARK UNBOUND:                -0.105
REMARK SMILES O=C([O-])CCC(=O)[O-]
REMARK SMILES IDX 4 1 2 2 1 3 3 4 5 5 6 6 7 7 8 8
REMARK H PARENT
REMARK Flexibility Score: inf
ROOT
ATOM      1  C   UNL     1       1.377   8.725   8.245  1.00  0.00     0.059 C 
ENDROOT
BRANCH   1   2
ATOM      2  C   UNL     1       2.211   8.299   7.075  1.00  0.00     0.042 C 
ATOM      3  O   UNL     1       1.783   8.457   5.901  1.00  0.00    -0.550 OA
ATOM      4  O   UNL     1       3.442   7.691   7.283  1.00  0.00    -0.550 OA
ENDBRANCH   1   2
BRANCH   1   5
ATOM      5  C   UNL     1      -0.044   8.159   8.160  1.00  0.00     0.059 C 
BRANCH   5   6
ATOM      6  C   UNL     1      -0.151   6.831   8.847  1.00  0.00     0.042 C 
ATOM      7  O   UNL     1      -1.143   6.085   8.632  1.00  0.00    -0.550 OA
ATOM      8  O   UNL     1       0.862   6.401   9.693  1.00  0.00    -0.550 OA
ENDBRANCH   5   6
ENDBRANCH   1   5
TORSDOF 3
ENDMDL
MODEL 8
REMARK VINA RESULT:    -2.812     13.154     14.651
REMARK INTER + INTRA:          -3.410
REMARK INTER:                  -3.375
REMARK INTRA:                  -0.035
REMARK UNBOUND:                -0.105
REMARK SMILES O=C([O-])CCC(=O)[O-]
REMARK SMILES IDX 4 1 2 2 1 3 3 4 5 5 6 6 7 7 8 8
REMARK H PARENT
REMARK Flexibility Score: inf
ROOT
ATOM      1  C   UNL     1      -2.730   1.766   8.965  1.00  0.00     0.059 C 
ENDROOT
BRANCH   1   2
ATOM      2  C   UNL     1      -1.942   2.974   9.369  1.00  0.00     0.042 C 
ATOM      3  O   UNL     1      -0.741   2.857   9.729  1.00  0.00    -0.550 OA
ATOM      4  O   UNL     1      -2.546   4.225   9.387  1.00  0.00    -0.550 OA
ENDBRANCH   1   2
BRANCH   1   5
ATOM      5  C   UNL     1      -3.901   1.512   9.921  1.00  0.00     0.059 C 
BRANCH   5   6
ATOM      6  C   UNL     1      -5.092   0.959   9.200  1.00  0.00     0.042 C 
ATOM      7  O   UNL     1      -6.229   1.475   9.368  1.00  0.00    -0.550 OA
ATOM      8  O   UNL     1      -4.941  -0.099   8.314  1.00  0.00    -0.550 OA
ENDBRANCH   5   6
ENDBRANCH   1   5
TORSDOF 3
ENDMDL
MODEL 9
REMARK VINA RESULT:    -2.762     14.157     15.744
REMARK INTER + INTRA:          -3.351
REMARK INTER:                  -3.265
REMARK INTRA:                  -0.086
REMARK UNBOUND:                -0.105
REMARK SMILES O=C([O-])CCC(=O)[O-]
REMARK SMILES IDX 4 1 2 2 1 3 3 4 5 5 6 6 7 7 8 8
REMARK H PARENT
REMARK Flexibility Score: inf
ROOT
ATOM      1  C   UNL     1      -2.706   2.917  10.056  1.00  0.00     0.059 C 
ENDROOT
BRANCH   1   2
ATOM      2  C   UNL     1      -2.853   1.860   9.003  1.00  0.00     0.042 C 
ATOM      3  O   UNL     1      -1.862   1.515   8.308  1.00  0.00    -0.550 OA
ATOM      4  O   UNL     1      -4.095   1.286   8.764  1.00  0.00    -0.550 OA
ENDBRANCH   1   2
BRANCH   1   5
ATOM      5  C   UNL     1      -1.503   3.825   9.777  1.00  0.00     0.059 C 
BRANCH   5   6
ATOM      6  C   UNL     1      -1.911   5.077   9.062  1.00  0.00     0.042 C 
ATOM      7  O   UNL     1      -3.131   5.336   8.886  1.00  0.00    -0.550 OA
ATOM      8  O   UNL     1      -0.947   5.976   8.626  1.00  0.00    -0.550 OA
ENDBRANCH   5   6
ENDBRANCH   1   5
TORSDOF 3
ENDMDL
