MODEL 1
REMARK VINA RESULT:     2.099      0.000      0.000
REMARK INTER + INTRA:           2.880
REMARK INTER:                   2.467
REMARK INTRA:                   0.413
REMARK UNBOUND:                 0.413
REMARK SMILES O=c1c(O)c(-c2ccc(O)c(O)c2)oc2cc(O)ccc12
REMARK SMILES IDX 5 1 3 2 2 3 1 4 21 5 15 6 14 7 16 8 17 9 19 10 20 11 6 12
REMARK SMILES IDX 7 13 8 14 9 15 13 16 11 17 10 18 12 20 4 22 18 24
REMARK H PARENT 10 19 12 21 4 23 18 25
REMARK Flexibility Score: inf
ROOT
ATOM      1  C   UNL     1     -37.156 -35.636 -34.163  1.00  0.00     0.180 A 
ATOM      2  C   UNL     1     -35.751 -35.754 -34.154  1.00  0.00     0.208 A 
ATOM      3  C   UNL     1     -35.078 -35.923 -35.374  1.00  0.00     0.235 A 
ATOM      4  O   UNL     1     -33.822 -36.042 -35.391  1.00  0.00    -0.285 OA
ATOM      5  C   UNL     1     -35.813 -35.950 -36.570  1.00  0.00     0.069 A 
ATOM      6  C   UNL     1     -37.215 -35.801 -36.497  1.00  0.00     0.142 A 
ATOM      7  O   UNL     1     -37.814 -35.652 -35.321  1.00  0.00    -0.452 OA
ATOM      8  C   UNL     1     -37.982 -35.813 -37.667  1.00  0.00     0.094 A 
ATOM      9  C   UNL     1     -37.364 -35.974 -38.914  1.00  0.00     0.119 A 
ATOM     10  C   UNL     1     -35.975 -36.123 -38.988  1.00  0.00     0.047 A 
ATOM     11  C   UNL     1     -35.199 -36.111 -37.825  1.00  0.00     0.020 A 
ENDROOT
BRANCH   1  12
ATOM     12  C   UNL     1     -37.940 -35.474 -32.918  1.00  0.00     0.025 A 
ATOM     13  C   UNL     1     -39.214 -34.880 -32.928  1.00  0.00     0.016 A 
ATOM     14  C   UNL     1     -39.927 -34.716 -31.736  1.00  0.00     0.051 A 
ATOM     15  C   UNL     1     -39.373 -35.131 -30.518  1.00  0.00     0.157 A 
ATOM     16  C   UNL     1     -37.381 -35.869 -31.692  1.00  0.00     0.062 A 
ATOM     17  C   UNL     1     -38.091 -35.707 -30.496  1.00  0.00     0.158 A 
BRANCH  15  18
ATOM     18  O   UNL     1     -40.086 -34.968 -29.332  1.00  0.00    -0.504 OA
ATOM     19  H   UNL     1     -40.186 -35.725 -28.665  1.00  0.00     0.293 HD
ENDBRANCH  15  18
BRANCH  17  20
ATOM     20  O   UNL     1     -37.508 -36.123 -29.300  1.00  0.00    -0.504 OA
ATOM     21  H   UNL     1     -37.503 -37.094 -29.013  1.00  0.00     0.293 HD
ENDBRANCH  17  20
ENDBRANCH   1  12
BRANCH   2  22
ATOM     22  O   UNL     1     -35.042 -35.673 -32.952  1.00  0.00    -0.502 OA
ATOM     23  H   UNL     1     -35.504 -35.638 -32.053  1.00  0.00     0.293 HD
ENDBRANCH   2  22
BRANCH   9  24
ATOM     24  O   UNL     1     -38.119 -35.987 -40.084  1.00  0.00    -0.508 OA
ATOM     25  H   UNL     1     -38.468 -35.131 -40.500  1.00  0.00     0.293 HD
ENDBRANCH   9  24
TORSDOF 5
ENDMDL
MODEL 2
REMARK VINA RESULT:     3.118      1.525      3.182
REMARK INTER + INTRA:           4.077
REMARK INTER:                   3.682
REMARK INTRA:                   0.396
REMARK UNBOUND:                 0.413
REMARK SMILES O=c1c(O)c(-c2ccc(O)c(O)c2)oc2cc(O)ccc12
REMARK SMILES IDX 5 1 3 2 2 3 1 4 21 5 15 6 14 7 16 8 17 9 19 10 20 11 6 12
REMARK SMILES IDX 7 13 8 14 9 15 13 16 11 17 10 18 12 20 4 22 18 24
REMARK H PARENT 10 19 12 21 4 23 18 25
REMARK Flexibility Score: inf
ROOT
ATOM      1  C   UNL     1     -37.340 -35.511 -35.317  1.00  0.00     0.180 A 
ATOM      2  C   UNL     1     -38.434 -35.476 -36.206  1.00  0.00     0.208 A 
ATOM      3  C   UNL     1     -38.184 -35.433 -37.587  1.00  0.00     0.235 A 
ATOM      4  O   UNL     1     -39.146 -35.390 -38.402  1.00  0.00    -0.285 OA
ATOM      5  C   UNL     1     -36.858 -35.448 -38.048  1.00  0.00     0.069 A 
ATOM      6  C   UNL     1     -35.819 -35.509 -37.096  1.00  0.00     0.142 A 
ATOM      7  O   UNL     1     -36.098 -35.539 -35.797  1.00  0.00    -0.452 OA
ATOM      8  C   UNL     1     -34.484 -35.535 -37.516  1.00  0.00     0.094 A 
ATOM      9  C   UNL     1     -34.174 -35.499 -38.883  1.00  0.00     0.119 A 
ATOM     10  C   UNL     1     -35.203 -35.438 -39.828  1.00  0.00     0.047 A 
ATOM     11  C   UNL     1     -36.540 -35.412 -39.418  1.00  0.00     0.020 A 
ENDROOT
BRANCH   1  12
ATOM     12  C   UNL     1     -37.520 -35.539 -33.848  1.00  0.00     0.025 A 
ATOM     13  C   UNL     1     -36.541 -36.088 -33.001  1.00  0.00     0.016 A 
ATOM     14  C   UNL     1     -36.744 -36.125 -31.618  1.00  0.00     0.051 A 
ATOM     15  C   UNL     1     -37.929 -35.625 -31.063  1.00  0.00     0.157 A 
ATOM     16  C   UNL     1     -38.715 -35.058 -33.288  1.00  0.00     0.062 A 
ATOM     17  C   UNL     1     -38.921 -35.092 -31.904  1.00  0.00     0.158 A 
BRANCH  15  18
ATOM     18  O   UNL     1     -38.127 -35.660 -29.684  1.00  0.00    -0.504 OA
ATOM     19  H   UNL     1     -37.786 -34.921 -29.081  1.00  0.00     0.293 HD
ENDBRANCH  15  18
BRANCH  17  20
ATOM     20  O   UNL     1     -40.115 -34.594 -31.384  1.00  0.00    -0.504 OA
ATOM     21  H   UNL     1     -40.571 -35.016 -30.585  1.00  0.00     0.293 HD
ENDBRANCH  17  20
ENDBRANCH   1  12
BRANCH   2  22
ATOM     22  O   UNL     1     -39.743 -35.513 -35.718  1.00  0.00    -0.502 OA
ATOM     23  H   UNL     1     -40.490 -34.969 -36.133  1.00  0.00     0.293 HD
ENDBRANCH   2  22
BRANCH   9  24
ATOM     24  O   UNL     1     -32.849 -35.524 -39.310  1.00  0.00    -0.508 OA
ATOM     25  H   UNL     1     -32.086 -35.683 -38.662  1.00  0.00     0.293 HD
ENDBRANCH   9  24
TORSDOF 5
ENDMDL
