MODEL 1
REMARK VINA RESULT:    -6.519      0.000      0.000
REMARK INTER + INTRA:          -6.709
REMARK INTER:                  -6.709
REMARK INTRA:                   0.000
REMARK UNBOUND:                 0.000
REMARK SMILES CC1(C)CC[C@@]2(C)CC[C@]3(C)C(=CC[C@H]4[C@]5(C)CC[C@@H](O)C(C)(C)[C@@H]5CC[C@@]43C)[C@H]2C1
REMARK SMILES IDX 1 1 2 2 4 3 5 4 6 5 8 6 9 7 10 8 12 9 13 10 14 11 15 12
REMARK SMILES IDX 28 13 27 14 26 15 25 16 16 17 18 18 19 19 20 20 22 21 23 22
REMARK SMILES IDX 24 23 17 24 29 25 30 26 31 27 11 28 7 29 3 30 21 31
REMARK H PARENT 21 32
REMARK Flexibility Score: inf
ROOT
ATOM      1  C   UNL     1      17.079 -21.156  22.725  1.00  0.00     0.011 C 
ATOM      2  C   UNL     1      18.561 -21.254  23.157  1.00  0.00    -0.035 C 
ATOM      3  C   UNL     1      19.487 -20.609  22.108  1.00  0.00     0.007 C 
ATOM      4  C   UNL     1      19.280 -19.099  22.007  1.00  0.00     0.008 C 
ATOM      5  C   UNL     1      19.573 -18.329  23.330  1.00  0.00    -0.026 C 
ATOM      6  C   UNL     1      18.957 -16.899  23.152  1.00  0.00     0.008 C 
ATOM      7  C   UNL     1      18.844 -16.054  24.444  1.00  0.00     0.012 C 
ATOM      8  C   UNL     1      18.204 -16.797  25.689  1.00  0.00    -0.006 C 
ATOM      9  C   UNL     1      17.837 -18.231  25.225  1.00  0.00    -0.064 C 
ATOM     10  C   UNL     1      16.550 -18.613  25.045  1.00  0.00    -0.027 C 
ATOM     11  C   UNL     1      15.353 -17.713  25.212  1.00  0.00     0.032 C 
ATOM     12  C   UNL     1      15.724 -16.206  25.293  1.00  0.00     0.006 C 
ATOM     13  C   UNL     1      16.909 -16.059  26.306  1.00  0.00    -0.020 C 
ATOM     14  C   UNL     1      17.141 -14.548  26.545  1.00  0.00     0.008 C 
ATOM     15  C   UNL     1      15.947 -13.833  27.178  1.00  0.00     0.005 C 
ATOM     16  C   UNL     1      14.511 -14.320  26.777  1.00  0.00     0.003 C 
ATOM     17  C   UNL     1      14.503 -15.142  25.415  1.00  0.00    -0.025 C 
ATOM     18  C   UNL     1      14.616 -14.113  24.243  1.00  0.00     0.010 C 
ATOM     19  C   UNL     1      13.582 -12.975  24.285  1.00  0.00     0.033 C 
ATOM     20  C   UNL     1      13.618 -12.191  25.610  1.00  0.00     0.120 C 
ATOM     21  C   UNL     1      13.467 -13.109  26.863  1.00  0.00    -0.006 C 
ATOM     22  C   UNL     1      13.729 -12.245  28.139  1.00  0.00     0.014 C 
ATOM     23  C   UNL     1      11.990 -13.608  27.014  1.00  0.00     0.014 C 
ATOM     24  C   UNL     1      13.157 -15.911  25.239  1.00  0.00     0.012 C 
ATOM     25  C   UNL     1      16.563 -16.725  27.687  1.00  0.00     0.012 C 
ATOM     26  C   UNL     1      18.984 -19.048  24.612  1.00  0.00     0.022 C 
ATOM     27  C   UNL     1      18.808 -20.605  24.548  1.00  0.00     0.015 C 
ATOM     28  C   UNL     1      19.313 -16.900  26.791  1.00  0.00     0.017 C 
ATOM     29  C   UNL     1      21.111 -18.185  23.475  1.00  0.00     0.012 C 
ATOM     30  C   UNL     1      18.907 -22.759  23.245  1.00  0.00     0.011 C 
ENDROOT
BRANCH  20  31
ATOM     31  O   UNL     1      12.606 -11.213  25.603  1.00  0.00    -0.393 OA
ATOM     32  H   UNL     1      12.490 -10.906  26.540  1.00  0.00     0.210 HD
ENDBRANCH  20  31
TORSDOF 1
ENDMDL
MODEL 2
REMARK VINA RESULT:    -6.215      2.766      8.144
REMARK INTER + INTRA:          -6.396
REMARK INTER:                  -6.396
REMARK INTRA:                   0.000
REMARK UNBOUND:                 0.000
REMARK SMILES CC1(C)CC[C@@]2(C)CC[C@]3(C)C(=CC[C@H]4[C@]5(C)CC[C@@H](O)C(C)(C)[C@@H]5CC[C@@]43C)[C@H]2C1
REMARK SMILES IDX 1 1 2 2 4 3 5 4 6 5 8 6 9 7 10 8 12 9 13 10 14 11 15 12
REMARK SMILES IDX 28 13 27 14 26 15 25 16 16 17 18 18 19 19 20 20 22 21 23 22
REMARK SMILES IDX 24 23 17 24 29 25 30 26 31 27 11 28 7 29 3 30 21 31
REMARK H PARENT 21 32
REMARK Flexibility Score: inf
ROOT
ATOM      1  C   UNL     1      17.862 -10.367  27.553  1.00  0.00     0.011 C 
ATOM      2  C   UNL     1      16.371 -10.298  27.958  1.00  0.00    -0.035 C 
ATOM      3  C   UNL     1      15.507  -9.759  26.802  1.00  0.00     0.007 C 
ATOM      4  C   UNL     1      15.473 -10.717  25.613  1.00  0.00     0.008 C 
ATOM      5  C   UNL     1      14.874 -12.117  25.944  1.00  0.00    -0.026 C 
ATOM      6  C   UNL     1      15.264 -13.056  24.751  1.00  0.00     0.008 C 
ATOM      7  C   UNL     1      15.053 -14.569  24.993  1.00  0.00     0.012 C 
ATOM      8  C   UNL     1      15.627 -15.125  26.362  1.00  0.00    -0.006 C 
ATOM      9  C   UNL     1      16.288 -13.931  27.099  1.00  0.00    -0.064 C 
ATOM     10  C   UNL     1      17.632 -13.827  27.222  1.00  0.00    -0.027 C 
ATOM     11  C   UNL     1      18.628 -14.794  26.637  1.00  0.00     0.032 C 
ATOM     12  C   UNL     1      18.005 -15.757  25.588  1.00  0.00     0.006 C 
ATOM     13  C   UNL     1      16.682 -16.334  26.196  1.00  0.00    -0.020 C 
ATOM     14  C   UNL     1      16.172 -17.445  25.248  1.00  0.00     0.008 C 
ATOM     15  C   UNL     1      17.130 -18.628  25.112  1.00  0.00     0.005 C 
ATOM     16  C   UNL     1      18.669 -18.328  25.161  1.00  0.00     0.003 C 
ATOM     17  C   UNL     1      19.004 -16.804  24.850  1.00  0.00    -0.025 C 
ATOM     18  C   UNL     1      18.887 -16.602  23.304  1.00  0.00     0.010 C 
ATOM     19  C   UNL     1      19.702 -17.598  22.462  1.00  0.00     0.033 C 
ATOM     20  C   UNL     1      19.352 -19.065  22.776  1.00  0.00     0.120 C 
ATOM     21  C   UNL     1      19.476 -19.406  24.294  1.00  0.00    -0.006 C 
ATOM     22  C   UNL     1      18.898 -20.840  24.523  1.00  0.00     0.014 C 
ATOM     23  C   UNL     1      20.979 -19.507  24.722  1.00  0.00     0.014 C 
ATOM     24  C   UNL     1      20.470 -16.463  25.261  1.00  0.00     0.012 C 
ATOM     25  C   UNL     1      16.937 -16.976  27.608  1.00  0.00     0.012 C 
ATOM     26  C   UNL     1      15.389 -12.705  27.322  1.00  0.00     0.022 C 
ATOM     27  C   UNL     1      15.828 -11.679  28.423  1.00  0.00     0.015 C 
ATOM     28  C   UNL     1      14.406 -15.619  27.212  1.00  0.00     0.017 C 
ATOM     29  C   UNL     1      13.329 -11.987  25.979  1.00  0.00     0.012 C 
ATOM     30  C   UNL     1      16.270  -9.304  29.139  1.00  0.00     0.011 C 
ENDROOT
BRANCH  20  31
ATOM     31  O   UNL     1      20.179 -19.916  22.021  1.00  0.00    -0.393 OA
ATOM     32  H   UNL     1      21.086 -19.875  22.423  1.00  0.00     0.210 HD
ENDBRANCH  20  31
TORSDOF 1
ENDMDL
MODEL 3
REMARK VINA RESULT:    -5.797      3.568      8.534
REMARK INTER + INTRA:          -5.967
REMARK INTER:                  -5.967
REMARK INTRA:                   0.000
REMARK UNBOUND:                 0.000
REMARK SMILES CC1(C)CC[C@@]2(C)CC[C@]3(C)C(=CC[C@H]4[C@]5(C)CC[C@@H](O)C(C)(C)[C@@H]5CC[C@@]43C)[C@H]2C1
REMARK SMILES IDX 1 1 2 2 4 3 5 4 6 5 8 6 9 7 10 8 12 9 13 10 14 11 15 12
REMARK SMILES IDX 28 13 27 14 26 15 25 16 16 17 18 18 19 19 20 20 22 21 23 22
REMARK SMILES IDX 24 23 17 24 29 25 30 26 31 27 11 28 7 29 3 30 21 31
REMARK H PARENT 21 32
REMARK Flexibility Score: inf
ROOT
ATOM      1  C   UNL     1      15.859 -16.293  26.926  1.00  0.00     0.011 C 
ATOM      2  C   UNL     1      16.855 -15.281  26.312  1.00  0.00    -0.035 C 
ATOM      3  C   UNL     1      18.108 -15.131  27.195  1.00  0.00     0.007 C 
ATOM      4  C   UNL     1      18.938 -16.412  27.240  1.00  0.00     0.008 C 
ATOM      5  C   UNL     1      19.478 -16.866  25.850  1.00  0.00    -0.026 C 
ATOM      6  C   UNL     1      19.958 -18.347  26.026  1.00  0.00     0.008 C 
ATOM      7  C   UNL     1      20.245 -19.118  24.716  1.00  0.00     0.012 C 
ATOM      8  C   UNL     1      19.118 -19.017  23.607  1.00  0.00    -0.006 C 
ATOM      9  C   UNL     1      17.980 -18.140  24.192  1.00  0.00    -0.064 C 
ATOM     10  C   UNL     1      16.789 -18.671  24.558  1.00  0.00    -0.027 C 
ATOM     11  C   UNL     1      16.445 -20.137  24.497  1.00  0.00     0.032 C 
ATOM     12  C   UNL     1      17.684 -21.051  24.286  1.00  0.00     0.006 C 
ATOM     13  C   UNL     1      18.536 -20.441  23.122  1.00  0.00    -0.020 C 
ATOM     14  C   UNL     1      19.652 -21.454  22.772  1.00  0.00     0.008 C 
ATOM     15  C   UNL     1      19.128 -22.796  22.261  1.00  0.00     0.005 C 
ATOM     16  C   UNL     1      17.786 -23.334  22.870  1.00  0.00     0.003 C 
ATOM     17  C   UNL     1      17.434 -22.655  24.265  1.00  0.00    -0.025 C 
ATOM     18  C   UNL     1      18.338 -23.319  25.353  1.00  0.00     0.010 C 
ATOM     19  C   UNL     1      18.287 -24.855  25.383  1.00  0.00     0.033 C 
ATOM     20  C   UNL     1      18.642 -25.486  24.024  1.00  0.00     0.120 C 
ATOM     21  C   UNL     1      17.769 -24.935  22.853  1.00  0.00    -0.006 C 
ATOM     22  C   UNL     1      18.352 -25.479  21.509  1.00  0.00     0.014 C 
ATOM     23  C   UNL     1      16.315 -25.514  22.921  1.00  0.00     0.014 C 
ATOM     24  C   UNL     1      15.948 -22.930  24.655  1.00  0.00     0.012 C 
ATOM     25  C   UNL     1      17.661 -20.214  21.836  1.00  0.00     0.012 C 
ATOM     26  C   UNL     1      18.399 -16.751  24.696  1.00  0.00     0.022 C 
ATOM     27  C   UNL     1      17.272 -15.675  24.867  1.00  0.00     0.015 C 
ATOM     28  C   UNL     1      19.739 -18.268  22.378  1.00  0.00     0.017 C 
ATOM     29  C   UNL     1      20.710 -15.990  25.499  1.00  0.00     0.012 C 
ATOM     30  C   UNL     1      16.134 -13.912  26.263  1.00  0.00     0.011 C 
ENDROOT
BRANCH  20  31
ATOM     31  O   UNL     1      18.510 -26.885  24.107  1.00  0.00    -0.393 OA
ATOM     32  H   UNL     1      18.205 -27.203  23.218  1.00  0.00     0.210 HD
ENDBRANCH  20  31
TORSDOF 1
ENDMDL
MODEL 4
REMARK VINA RESULT:    -5.427      1.605      2.030
REMARK INTER + INTRA:          -5.586
REMARK INTER:                  -5.586
REMARK INTRA:                   0.000
REMARK UNBOUND:                 0.000
REMARK SMILES CC1(C)CC[C@@]2(C)CC[C@]3(C)C(=CC[C@H]4[C@]5(C)CC[C@@H](O)C(C)(C)[C@@H]5CC[C@@]43C)[C@H]2C1
REMARK SMILES IDX 1 1 2 2 4 3 5 4 6 5 8 6 9 7 10 8 12 9 13 10 14 11 15 12
REMARK SMILES IDX 28 13 27 14 26 15 25 16 16 17 18 18 19 19 20 20 22 21 23 22
REMARK SMILES IDX 24 23 17 24 29 25 30 26 31 27 11 28 7 29 3 30 21 31
REMARK H PARENT 21 32
REMARK Flexibility Score: inf
ROOT
ATOM      1  C   UNL     1      16.519 -20.497  23.571  1.00  0.00     0.011 C 
ATOM      2  C   UNL     1      18.005 -20.924  23.534  1.00  0.00    -0.035 C 
ATOM      3  C   UNL     1      18.649 -20.578  22.177  1.00  0.00     0.007 C 
ATOM      4  C   UNL     1      18.741 -19.070  21.952  1.00  0.00     0.008 C 
ATOM      5  C   UNL     1      19.608 -18.323  23.010  1.00  0.00    -0.026 C 
ATOM      6  C   UNL     1      19.282 -16.799  22.850  1.00  0.00     0.008 C 
ATOM      7  C   UNL     1      19.781 -15.884  23.994  1.00  0.00     0.012 C 
ATOM      8  C   UNL     1      19.446 -16.384  25.460  1.00  0.00    -0.006 C 
ATOM      9  C   UNL     1      18.654 -17.711  25.320  1.00  0.00    -0.064 C 
ATOM     10  C   UNL     1      17.331 -17.781  25.594  1.00  0.00    -0.027 C 
ATOM     11  C   UNL     1      16.472 -16.613  26.006  1.00  0.00     0.032 C 
ATOM     12  C   UNL     1      17.157 -15.237  25.775  1.00  0.00     0.006 C 
ATOM     13  C   UNL     1      18.612 -15.325  26.346  1.00  0.00    -0.020 C 
ATOM     14  C   UNL     1      19.222 -13.903  26.307  1.00  0.00     0.008 C 
ATOM     15  C   UNL     1      18.481 -12.890  27.180  1.00  0.00     0.005 C 
ATOM     16  C   UNL     1      16.924 -13.039  27.307  1.00  0.00     0.003 C 
ATOM     17  C   UNL     1      16.296 -13.906  26.130  1.00  0.00    -0.025 C 
ATOM     18  C   UNL     1      16.230 -12.998  24.859  1.00  0.00     0.010 C 
ATOM     19  C   UNL     1      15.531 -11.645  25.071  1.00  0.00     0.033 C 
ATOM     20  C   UNL     1      16.165 -10.822  26.208  1.00  0.00     0.120 C 
ATOM     21  C   UNL     1      16.246 -11.610  27.554  1.00  0.00    -0.006 C 
ATOM     22  C   UNL     1      17.088 -10.768  28.565  1.00  0.00     0.014 C 
ATOM     23  C   UNL     1      14.832 -11.731  28.215  1.00  0.00     0.014 C 
ATOM     24  C   UNL     1      14.838 -14.338  26.477  1.00  0.00     0.012 C 
ATOM     25  C   UNL     1      18.608 -15.814  27.841  1.00  0.00     0.012 C 
ATOM     26  C   UNL     1      19.337 -18.811  24.493  1.00  0.00     0.022 C 
ATOM     27  C   UNL     1      18.827 -20.280  24.686  1.00  0.00     0.015 C 
ATOM     28  C   UNL     1      20.809 -16.692  26.170  1.00  0.00     0.017 C 
ATOM     29  C   UNL     1      21.102 -18.545  22.655  1.00  0.00     0.012 C 
ATOM     30  C   UNL     1      18.038 -22.462  23.703  1.00  0.00     0.011 C 
ENDROOT
BRANCH  20  31
ATOM     31  O   UNL     1      15.436  -9.633  26.389  1.00  0.00    -0.393 OA
ATOM     32  H   UNL     1      14.480  -9.848  26.227  1.00  0.00     0.210 HD
ENDBRANCH  20  31
TORSDOF 1
ENDMDL
MODEL 5
REMARK VINA RESULT:    -5.307      2.059      3.004
REMARK INTER + INTRA:          -5.463
REMARK INTER:                  -5.463
REMARK INTRA:                   0.000
REMARK UNBOUND:                 0.000
REMARK SMILES CC1(C)CC[C@@]2(C)CC[C@]3(C)C(=CC[C@H]4[C@]5(C)CC[C@@H](O)C(C)(C)[C@@H]5CC[C@@]43C)[C@H]2C1
REMARK SMILES IDX 1 1 2 2 4 3 5 4 6 5 8 6 9 7 10 8 12 9 13 10 14 11 15 12
REMARK SMILES IDX 28 13 27 14 26 15 25 16 16 17 18 18 19 19 20 20 22 21 23 22
REMARK SMILES IDX 24 23 17 24 29 25 30 26 31 27 11 28 7 29 3 30 21 31
REMARK H PARENT 21 32
REMARK Flexibility Score: inf
ROOT
ATOM      1  C   UNL     1      15.920 -21.624  23.516  1.00  0.00     0.011 C 
ATOM      2  C   UNL     1      17.286 -22.344  23.428  1.00  0.00    -0.035 C 
ATOM      3  C   UNL     1      17.818 -22.348  21.982  1.00  0.00     0.007 C 
ATOM      4  C   UNL     1      18.162 -20.944  21.490  1.00  0.00     0.008 C 
ATOM      5  C   UNL     1      19.271 -20.235  22.324  1.00  0.00    -0.026 C 
ATOM      6  C   UNL     1      19.218 -18.719  21.929  1.00  0.00     0.008 C 
ATOM      7  C   UNL     1      20.009 -17.759  22.849  1.00  0.00     0.012 C 
ATOM      8  C   UNL     1      19.762 -17.949  24.403  1.00  0.00    -0.006 C 
ATOM      9  C   UNL     1      18.726 -19.092  24.564  1.00  0.00    -0.064 C 
ATOM     10  C   UNL     1      17.454 -18.850  24.959  1.00  0.00    -0.027 C 
ATOM     11  C   UNL     1      16.883 -17.483  25.233  1.00  0.00     0.032 C 
ATOM     12  C   UNL     1      17.779 -16.327  24.707  1.00  0.00     0.006 C 
ATOM     13  C   UNL     1      19.250 -16.619  25.159  1.00  0.00    -0.020 C 
ATOM     14  C   UNL     1      20.104 -15.374  24.821  1.00  0.00     0.008 C 
ATOM     15  C   UNL     1      19.672 -14.109  25.563  1.00  0.00     0.005 C 
ATOM     16  C   UNL     1      18.141 -13.918  25.847  1.00  0.00     0.003 C 
ATOM     17  C   UNL     1      17.229 -14.810  24.897  1.00  0.00    -0.025 C 
ATOM     18  C   UNL     1      17.183 -14.115  23.498  1.00  0.00     0.010 C 
ATOM     19  C   UNL     1      16.778 -12.632  23.529  1.00  0.00     0.033 C 
ATOM     20  C   UNL     1      17.683 -11.790  24.447  1.00  0.00     0.120 C 
ATOM     21  C   UNL     1      17.774 -12.360  25.898  1.00  0.00    -0.006 C 
ATOM     22  C   UNL     1      18.871 -11.560  26.671  1.00  0.00     0.014 C 
ATOM     23  C   UNL     1      16.450 -12.088  26.688  1.00  0.00     0.014 C 
ATOM     24  C   UNL     1      15.766 -14.878  25.437  1.00  0.00     0.012 C 
ATOM     25  C   UNL     1      19.331 -16.860  26.710  1.00  0.00     0.012 C 
ATOM     26  C   UNL     1      19.090 -20.422  23.887  1.00  0.00     0.022 C 
ATOM     27  C   UNL     1      18.343 -21.710  24.376  1.00  0.00     0.015 C 
ATOM     28  C   UNL     1      21.118 -18.413  25.037  1.00  0.00     0.017 C 
ATOM     29  C   UNL     1      20.646 -20.807  21.887  1.00  0.00     0.012 C 
ATOM     30  C   UNL     1      17.051 -23.811  23.859  1.00  0.00     0.011 C 
ENDROOT
BRANCH  20  31
ATOM     31  O   UNL     1      17.214 -10.464  24.479  1.00  0.00    -0.393 OA
ATOM     32  H   UNL     1      17.464 -10.086  25.363  1.00  0.00     0.210 HD
ENDBRANCH  20  31
TORSDOF 1
ENDMDL
MODEL 6
REMARK VINA RESULT:    -5.303      3.309      8.440
REMARK INTER + INTRA:          -5.458
REMARK INTER:                  -5.458
REMARK INTRA:                   0.000
REMARK UNBOUND:                 0.000
REMARK SMILES CC1(C)CC[C@@]2(C)CC[C@]3(C)C(=CC[C@H]4[C@]5(C)CC[C@@H](O)C(C)(C)[C@@H]5CC[C@@]43C)[C@H]2C1
REMARK SMILES IDX 1 1 2 2 4 3 5 4 6 5 8 6 9 7 10 8 12 9 13 10 14 11 15 12
REMARK SMILES IDX 28 13 27 14 26 15 25 16 16 17 18 18 19 19 20 20 22 21 23 22
REMARK SMILES IDX 24 23 17 24 29 25 30 26 31 27 11 28 7 29 3 30 21 31
REMARK H PARENT 21 32
REMARK Flexibility Score: inf
ROOT
ATOM      1  C   UNL     1      14.627 -16.358  26.572  1.00  0.00     0.011 C 
ATOM      2  C   UNL     1      15.535 -15.113  26.432  1.00  0.00    -0.035 C 
ATOM      3  C   UNL     1      16.410 -14.921  27.685  1.00  0.00     0.007 C 
ATOM      4  C   UNL     1      17.430 -16.046  27.853  1.00  0.00     0.008 C 
ATOM      5  C   UNL     1      18.440 -16.168  26.672  1.00  0.00    -0.026 C 
ATOM      6  C   UNL     1      19.134 -17.564  26.829  1.00  0.00     0.008 C 
ATOM      7  C   UNL     1      19.948 -18.048  25.605  1.00  0.00     0.012 C 
ATOM      8  C   UNL     1      19.207 -17.937  24.208  1.00  0.00    -0.006 C 
ATOM      9  C   UNL     1      17.794 -17.361  24.486  1.00  0.00    -0.064 C 
ATOM     10  C   UNL     1      16.681 -18.125  24.384  1.00  0.00    -0.027 C 
ATOM     11  C   UNL     1      16.673 -19.595  24.052  1.00  0.00     0.032 C 
ATOM     12  C   UNL     1      18.077 -20.255  24.154  1.00  0.00     0.006 C 
ATOM     13  C   UNL     1      19.095 -19.331  23.405  1.00  0.00    -0.020 C 
ATOM     14  C   UNL     1      20.445 -20.084  23.326  1.00  0.00     0.008 C 
ATOM     15  C   UNL     1      20.380 -21.385  22.526  1.00  0.00     0.005 C 
ATOM     16  C   UNL     1      19.055 -22.221  22.602  1.00  0.00     0.003 C 
ATOM     17  C   UNL     1      18.173 -21.852  23.874  1.00  0.00    -0.025 C 
ATOM     18  C   UNL     1      18.825 -22.541  25.116  1.00  0.00     0.010 C 
ATOM     19  C   UNL     1      19.078 -24.049  24.956  1.00  0.00     0.033 C 
ATOM     20  C   UNL     1      19.943 -24.377  23.724  1.00  0.00     0.120 C 
ATOM     21  C   UNL     1      19.366 -23.779  22.402  1.00  0.00    -0.006 C 
ATOM     22  C   UNL     1      20.421 -23.989  21.268  1.00  0.00     0.014 C 
ATOM     23  C   UNL     1      18.106 -24.580  21.930  1.00  0.00     0.014 C 
ATOM     24  C   UNL     1      16.726 -22.417  23.727  1.00  0.00     0.012 C 
ATOM     25  C   UNL     1      18.617 -19.029  21.939  1.00  0.00     0.012 C 
ATOM     26  C   UNL     1      17.755 -16.029  25.251  1.00  0.00     0.022 C 
ATOM     27  C   UNL     1      16.436 -15.186  25.166  1.00  0.00     0.015 C 
ATOM     28  C   UNL     1      20.002 -16.903  23.340  1.00  0.00     0.017 C 
ATOM     29  C   UNL     1      19.517 -15.064  26.841  1.00  0.00     0.012 C 
ATOM     30  C   UNL     1      14.602 -13.885  26.305  1.00  0.00     0.011 C 
ENDROOT
BRANCH  20  31
ATOM     31  O   UNL     1      20.076 -25.773  23.604  1.00  0.00    -0.393 OA
ATOM     32  H   UNL     1      20.919 -25.944  23.106  1.00  0.00     0.210 HD
ENDBRANCH  20  31
TORSDOF 1
ENDMDL
MODEL 7
REMARK VINA RESULT:    -5.085      2.667      7.962
REMARK INTER + INTRA:          -5.233
REMARK INTER:                  -5.233
REMARK INTRA:                   0.000
REMARK UNBOUND:                 0.000
REMARK SMILES CC1(C)CC[C@@]2(C)CC[C@]3(C)C(=CC[C@H]4[C@]5(C)CC[C@@H](O)C(C)(C)[C@@H]5CC[C@@]43C)[C@H]2C1
REMARK SMILES IDX 1 1 2 2 4 3 5 4 6 5 8 6 9 7 10 8 12 9 13 10 14 11 15 12
REMARK SMILES IDX 28 13 27 14 26 15 25 16 16 17 18 18 19 19 20 20 22 21 23 22
REMARK SMILES IDX 24 23 17 24 29 25 30 26 31 27 11 28 7 29 3 30 21 31
REMARK H PARENT 21 32
REMARK Flexibility Score: inf
ROOT
ATOM      1  C   UNL     1      13.549 -11.873  23.337  1.00  0.00     0.011 C 
ATOM      2  C   UNL     1      13.164 -11.282  24.713  1.00  0.00    -0.035 C 
ATOM      3  C   UNL     1      11.896 -11.955  25.272  1.00  0.00     0.007 C 
ATOM      4  C   UNL     1      12.126 -13.428  25.607  1.00  0.00     0.008 C 
ATOM      5  C   UNL     1      13.219 -13.667  26.692  1.00  0.00    -0.026 C 
ATOM      6  C   UNL     1      13.578 -15.191  26.626  1.00  0.00     0.008 C 
ATOM      7  C   UNL     1      14.857 -15.611  27.389  1.00  0.00     0.012 C 
ATOM      8  C   UNL     1      16.136 -14.716  27.115  1.00  0.00    -0.006 C 
ATOM      9  C   UNL     1      15.721 -13.627  26.092  1.00  0.00    -0.064 C 
ATOM     10  C   UNL     1      16.154 -13.654  24.810  1.00  0.00    -0.027 C 
ATOM     11  C   UNL     1      17.023 -14.733  24.216  1.00  0.00     0.032 C 
ATOM     12  C   UNL     1      17.119 -16.003  25.107  1.00  0.00     0.006 C 
ATOM     13  C   UNL     1      17.414 -15.537  26.573  1.00  0.00    -0.020 C 
ATOM     14  C   UNL     1      17.716 -16.798  27.417  1.00  0.00     0.008 C 
ATOM     15  C   UNL     1      18.954 -17.567  26.956  1.00  0.00     0.005 C 
ATOM     16  C   UNL     1      19.260 -17.600  25.417  1.00  0.00     0.003 C 
ATOM     17  C   UNL     1      17.983 -17.253  24.534  1.00  0.00    -0.025 C 
ATOM     18  C   UNL     1      17.071 -18.522  24.506  1.00  0.00     0.010 C 
ATOM     19  C   UNL     1      17.784 -19.817  24.081  1.00  0.00     0.033 C 
ATOM     20  C   UNL     1      19.009 -20.134  24.958  1.00  0.00     0.120 C 
ATOM     21  C   UNL     1      20.026 -18.952  25.030  1.00  0.00    -0.006 C 
ATOM     22  C   UNL     1      21.108 -19.300  26.103  1.00  0.00     0.014 C 
ATOM     23  C   UNL     1      20.822 -18.819  23.688  1.00  0.00     0.014 C 
ATOM     24  C   UNL     1      18.397 -16.937  23.063  1.00  0.00     0.012 C 
ATOM     25  C   UNL     1      18.674 -14.598  26.628  1.00  0.00     0.012 C 
ATOM     26  C   UNL     1      14.508 -12.770  26.485  1.00  0.00     0.022 C 
ATOM     27  C   UNL     1      14.322 -11.401  25.745  1.00  0.00     0.015 C 
ATOM     28  C   UNL     1      16.509 -14.013  28.465  1.00  0.00     0.017 C 
ATOM     29  C   UNL     1      12.596 -13.369  28.081  1.00  0.00     0.012 C 
ATOM     30  C   UNL     1      12.854  -9.782  24.490  1.00  0.00     0.011 C 
ENDROOT
BRANCH  20  31
ATOM     31  O   UNL     1      19.647 -21.290  24.472  1.00  0.00    -0.393 OA
ATOM     32  H   UNL     1      20.583 -21.268  24.802  1.00  0.00     0.210 HD
ENDBRANCH  20  31
TORSDOF 1
ENDMDL
MODEL 8
REMARK VINA RESULT:    -5.062      3.409      8.286
REMARK INTER + INTRA:          -5.210
REMARK INTER:                  -5.210
REMARK INTRA:                   0.000
REMARK UNBOUND:                 0.000
REMARK SMILES CC1(C)CC[C@@]2(C)CC[C@]3(C)C(=CC[C@H]4[C@]5(C)CC[C@@H](O)C(C)(C)[C@@H]5CC[C@@]43C)[C@H]2C1
REMARK SMILES IDX 1 1 2 2 4 3 5 4 6 5 8 6 9 7 10 8 12 9 13 10 14 11 15 12
REMARK SMILES IDX 28 13 27 14 26 15 25 16 16 17 18 18 19 19 20 20 22 21 23 22
REMARK SMILES IDX 24 23 17 24 29 25 30 26 31 27 11 28 7 29 3 30 21 31
REMARK H PARENT 21 32
REMARK Flexibility Score: inf
ROOT
ATOM      1  C   UNL     1      15.978 -14.728  26.560  1.00  0.00     0.011 C 
ATOM      2  C   UNL     1      16.992 -13.593  26.287  1.00  0.00    -0.035 C 
ATOM      3  C   UNL     1      17.976 -13.434  27.462  1.00  0.00     0.007 C 
ATOM      4  C   UNL     1      18.888 -14.650  27.618  1.00  0.00     0.008 C 
ATOM      5  C   UNL     1      19.786 -14.932  26.376  1.00  0.00    -0.026 C 
ATOM      6  C   UNL     1      20.347 -16.384  26.559  1.00  0.00     0.008 C 
ATOM      7  C   UNL     1      21.011 -17.007  25.309  1.00  0.00     0.012 C 
ATOM      8  C   UNL     1      20.180 -16.886  23.965  1.00  0.00    -0.006 C 
ATOM      9  C   UNL     1      18.857 -16.153  24.311  1.00  0.00    -0.064 C 
ATOM     10  C   UNL     1      17.669 -16.802  24.331  1.00  0.00    -0.027 C 
ATOM     11  C   UNL     1      17.488 -18.277  24.081  1.00  0.00     0.032 C 
ATOM     12  C   UNL     1      18.822 -19.074  24.119  1.00  0.00     0.006 C 
ATOM     13  C   UNL     1      19.868 -18.298  23.250  1.00  0.00    -0.020 C 
ATOM     14  C   UNL     1      21.125 -19.190  23.115  1.00  0.00     0.008 C 
ATOM     15  C   UNL     1      20.868 -20.513  22.395  1.00  0.00     0.005 C 
ATOM     16  C   UNL     1      19.476 -21.203  22.611  1.00  0.00     0.003 C 
ATOM     17  C   UNL     1      18.735 -20.684  23.921  1.00  0.00    -0.025 C 
ATOM     18  C   UNL     1      19.409 -21.377  25.149  1.00  0.00     0.010 C 
ATOM     19  C   UNL     1      19.496 -22.910  25.054  1.00  0.00     0.033 C 
ATOM     20  C   UNL     1      20.226 -23.384  23.784  1.00  0.00     0.120 C 
ATOM     21  C   UNL     1      19.613 -22.792  22.476  1.00  0.00    -0.006 C 
ATOM     22  C   UNL     1      20.550 -23.164  21.282  1.00  0.00     0.014 C 
ATOM     23  C   UNL     1      18.246 -23.479  22.140  1.00  0.00     0.014 C 
ATOM     24  C   UNL     1      17.232 -21.101  23.910  1.00  0.00     0.012 C 
ATOM     25  C   UNL     1      19.311 -18.018  21.806  1.00  0.00     0.012 C 
ATOM     26  C   UNL     1      19.011 -14.790  25.002  1.00  0.00     0.022 C 
ATOM     27  C   UNL     1      17.781 -13.820  24.966  1.00  0.00     0.015 C 
ATOM     28  C   UNL     1      21.006 -15.983  22.986  1.00  0.00     0.017 C 
ATOM     29  C   UNL     1      20.979 -13.940  26.406  1.00  0.00     0.012 C 
ATOM     30  C   UNL     1      16.180 -12.282  26.159  1.00  0.00     0.011 C 
ENDROOT
BRANCH  20  31
ATOM     31  O   UNL     1      20.209 -24.790  23.731  1.00  0.00    -0.393 OA
ATOM     32  H   UNL     1      19.551 -25.100  24.407  1.00  0.00     0.210 HD
ENDBRANCH  20  31
TORSDOF 1
ENDMDL
MODEL 9
REMARK VINA RESULT:    -4.933      3.479      6.732
REMARK INTER + INTRA:          -5.077
REMARK INTER:                  -5.077
REMARK INTRA:                   0.000
REMARK UNBOUND:                 0.000
REMARK SMILES CC1(C)CC[C@@]2(C)CC[C@]3(C)C(=CC[C@H]4[C@]5(C)CC[C@@H](O)C(C)(C)[C@@H]5CC[C@@]43C)[C@H]2C1
REMARK SMILES IDX 1 1 2 2 4 3 5 4 6 5 8 6 9 7 10 8 12 9 13 10 14 11 15 12
REMARK SMILES IDX 28 13 27 14 26 15 25 16 16 17 18 18 19 19 20 20 22 21 23 22
REMARK SMILES IDX 24 23 17 24 29 25 30 26 31 27 11 28 7 29 3 30 21 31
REMARK H PARENT 21 32
REMARK Flexibility Score: inf
ROOT
ATOM      1  C   UNL     1      20.727 -25.239  20.595  1.00  0.00     0.011 C 
ATOM      2  C   UNL     1      19.572 -26.136  21.098  1.00  0.00    -0.035 C 
ATOM      3  C   UNL     1      19.945 -26.829  22.423  1.00  0.00     0.007 C 
ATOM      4  C   UNL     1      20.102 -25.833  23.570  1.00  0.00     0.008 C 
ATOM      5  C   UNL     1      18.808 -25.025  23.889  1.00  0.00    -0.026 C 
ATOM      6  C   UNL     1      19.250 -23.826  24.796  1.00  0.00     0.008 C 
ATOM      7  C   UNL     1      18.198 -22.708  24.988  1.00  0.00     0.012 C 
ATOM      8  C   UNL     1      17.508 -22.189  23.659  1.00  0.00    -0.006 C 
ATOM      9  C   UNL     1      18.134 -22.980  22.481  1.00  0.00    -0.064 C 
ATOM     10  C   UNL     1      18.984 -22.397  21.604  1.00  0.00    -0.027 C 
ATOM     11  C   UNL     1      19.460 -20.970  21.684  1.00  0.00     0.032 C 
ATOM     12  C   UNL     1      19.154 -20.297  23.051  1.00  0.00     0.006 C 
ATOM     13  C   UNL     1      17.660 -20.602  23.411  1.00  0.00    -0.020 C 
ATOM     14  C   UNL     1      17.295 -19.765  24.660  1.00  0.00     0.008 C 
ATOM     15  C   UNL     1      17.380 -18.255  24.437  1.00  0.00     0.005 C 
ATOM     16  C   UNL     1      18.500 -17.723  23.475  1.00  0.00     0.003 C 
ATOM     17  C   UNL     1      19.676 -18.774  23.268  1.00  0.00    -0.025 C 
ATOM     18  C   UNL     1      20.578 -18.730  24.544  1.00  0.00     0.010 C 
ATOM     19  C   UNL     1      21.066 -17.326  24.938  1.00  0.00     0.033 C 
ATOM     20  C   UNL     1      19.908 -16.332  25.143  1.00  0.00     0.120 C 
ATOM     21  C   UNL     1      18.954 -16.250  23.909  1.00  0.00    -0.006 C 
ATOM     22  C   UNL     1      17.715 -15.385  24.305  1.00  0.00     0.014 C 
ATOM     23  C   UNL     1      19.630 -15.467  22.733  1.00  0.00     0.014 C 
ATOM     24  C   UNL     1      20.565 -18.378  22.048  1.00  0.00     0.012 C 
ATOM     25  C   UNL     1      16.697 -20.182  22.242  1.00  0.00     0.012 C 
ATOM     26  C   UNL     1      18.060 -24.511  22.591  1.00  0.00     0.022 C 
ATOM     27  C   UNL     1      18.248 -25.340  21.274  1.00  0.00     0.015 C 
ATOM     28  C   UNL     1      15.987 -22.553  23.750  1.00  0.00     0.017 C 
ATOM     29  C   UNL     1      17.858 -25.937  24.710  1.00  0.00     0.012 C 
ATOM     30  C   UNL     1      19.352 -27.231  20.028  1.00  0.00     0.011 C 
ENDROOT
BRANCH  20  31
ATOM     31  O   UNL     1      20.430 -15.059  25.435  1.00  0.00    -0.393 OA
ATOM     32  H   UNL     1      19.673 -14.417  25.395  1.00  0.00     0.210 HD
ENDBRANCH  20  31
TORSDOF 1
ENDMDL
