MODEL 1
REMARK VINA RESULT:    -6.214      0.000      0.000
REMARK INTER + INTRA:         -10.148
REMARK INTER:                  -8.576
REMARK INTRA:                  -1.572
REMARK UNBOUND:                -1.572
REMARK SMILES CC[C@@H](CC[C@@H](C)[C@@H]1CC[C@H]2[C@@H]3CC=C4C[C@@H](O)CC[C@@]4(C)[C@H]3CC[C@]21C)C(C)C
REMARK SMILES IDX 5 1 4 2 3 3 2 4 1 5 28 6 29 7 30 8 6 9 7 10 8 11 9 12 26 13
REMARK SMILES IDX 10 14 11 15 25 16 27 17 12 18 24 19 23 20 13 21 21 22 14 23
REMARK SMILES IDX 15 24 20 25 22 26 16 27 19 28 17 29 18 30
REMARK H PARENT 18 31
REMARK Flexibility Score: inf
ROOT
ATOM      1  C   UNL     1     170.041 178.109 183.433  1.00  0.00     0.004 C 
ENDROOT
BRANCH   1   2
ATOM      2  C   UNL     1     171.135 179.179 183.246  1.00  0.00     0.004 C 
BRANCH   2   3
ATOM      3  C   UNL     1     172.133 178.839 182.103  1.00  0.00    -0.009 C 
BRANCH   3   4
ATOM      4  C   UNL     1     173.294 179.887 182.058  1.00  0.00     0.000 C 
ATOM      5  C   UNL     1     174.669 179.225 182.126  1.00  0.00     0.004 C 
ENDBRANCH   3   4
BRANCH   3   6
ATOM      6  C   UNL     1     171.439 178.732 180.700  1.00  0.00    -0.014 C 
ATOM      7  C   UNL     1     172.187 177.821 179.707  1.00  0.00     0.007 C 
ATOM      8  C   UNL     1     171.287 180.124 180.057  1.00  0.00     0.007 C 
ENDBRANCH   3   6
ENDBRANCH   2   3
ENDBRANCH   1   2
BRANCH   1   9
ATOM      9  C   UNL     1     168.624 178.511 182.932  1.00  0.00    -0.011 C 
ATOM     10  C   UNL     1     168.535 180.023 182.638  1.00  0.00     0.008 C 
BRANCH   9  11
ATOM     11  C   UNL     1     168.065 177.555 181.803  1.00  0.00    -0.002 C 
ATOM     12  C   UNL     1     167.787 178.265 180.463  1.00  0.00     0.005 C 
ATOM     13  C   UNL     1     166.735 176.763 182.092  1.00  0.00    -0.026 C 
ATOM     14  C   UNL     1     166.273 178.370 180.300  1.00  0.00     0.005 C 
ATOM     15  C   UNL     1     165.631 177.694 181.520  1.00  0.00    -0.001 C 
ATOM     16  C   UNL     1     166.792 175.373 181.333  1.00  0.00     0.007 C 
ATOM     17  C   UNL     1     166.501 176.501 183.603  1.00  0.00     0.012 C 
ATOM     18  C   UNL     1     164.249 177.035 181.182  1.00  0.00     0.000 C 
ATOM     19  C   UNL     1     165.563 175.021 180.478  1.00  0.00     0.005 C 
ATOM     20  C   UNL     1     164.271 175.493 181.156  1.00  0.00     0.003 C 
ATOM     21  C   UNL     1     163.140 177.461 182.153  1.00  0.00     0.031 C 
ATOM     22  C   UNL     1     162.934 174.905 180.558  1.00  0.00    -0.008 C 
ATOM     23  C   UNL     1     161.820 176.883 181.717  1.00  0.00    -0.027 C 
ATOM     24  C   UNL     1     161.713 175.734 181.005  1.00  0.00    -0.065 C 
ATOM     25  C   UNL     1     162.957 174.897 178.997  1.00  0.00     0.014 C 
ATOM     26  C   UNL     1     162.769 173.455 181.089  1.00  0.00     0.016 C 
ATOM     27  C   UNL     1     160.368 175.369 180.414  1.00  0.00     0.063 C 
ATOM     28  C   UNL     1     161.599 174.537 178.360  1.00  0.00     0.033 C 
ATOM     29  C   UNL     1     160.448 175.421 178.883  1.00  0.00     0.118 C 
BRANCH  29  30
ATOM     30  O   UNL     1     160.626 176.751 178.470  1.00  0.00    -0.393 OA
ATOM     31  H   UNL     1     161.074 176.719 177.584  1.00  0.00     0.210 HD
ENDBRANCH  29  30
ENDBRANCH   9  11
ENDBRANCH   1   9
TORSDOF 7
ENDMDL
MODEL 2
REMARK VINA RESULT:    -6.180     13.988     15.723
REMARK INTER + INTRA:         -10.100
REMARK INTER:                  -8.896
REMARK INTRA:                  -1.204
REMARK UNBOUND:                -1.572
REMARK SMILES CC[C@@H](CC[C@@H](C)[C@@H]1CC[C@H]2[C@@H]3CC=C4C[C@@H](O)CC[C@@]4(C)[C@H]3CC[C@]21C)C(C)C
REMARK SMILES IDX 5 1 4 2 3 3 2 4 1 5 28 6 29 7 30 8 6 9 7 10 8 11 9 12 26 13
REMARK SMILES IDX 10 14 11 15 25 16 27 17 12 18 24 19 23 20 13 21 21 22 14 23
REMARK SMILES IDX 15 24 20 25 22 26 16 27 19 28 17 29 18 30
REMARK H PARENT 18 31
REMARK Flexibility Score: inf
ROOT
ATOM      1  C   UNL     1     170.749 162.290 182.134  1.00  0.00     0.004 C 
ENDROOT
BRANCH   1   2
ATOM      2  C   UNL     1     171.740 162.283 180.951  1.00  0.00     0.004 C 
BRANCH   2   3
ATOM      3  C   UNL     1     173.226 162.211 181.402  1.00  0.00    -0.009 C 
BRANCH   3   4
ATOM      4  C   UNL     1     173.983 161.090 180.614  1.00  0.00     0.000 C 
ATOM      5  C   UNL     1     175.312 161.586 180.045  1.00  0.00     0.004 C 
ENDBRANCH   3   4
BRANCH   3   6
ATOM      6  C   UNL     1     173.385 161.994 182.947  1.00  0.00    -0.014 C 
ATOM      7  C   UNL     1     174.370 162.976 183.612  1.00  0.00     0.007 C 
ATOM      8  C   UNL     1     173.855 160.559 183.253  1.00  0.00     0.007 C 
ENDBRANCH   3   6
ENDBRANCH   2   3
ENDBRANCH   1   2
BRANCH   1   9
ATOM      9  C   UNL     1     169.506 161.370 181.966  1.00  0.00    -0.011 C 
ATOM     10  C   UNL     1     169.893 159.877 182.043  1.00  0.00     0.008 C 
BRANCH   9  11
ATOM     11  C   UNL     1     168.276 161.810 182.857  1.00  0.00    -0.002 C 
ATOM     12  C   UNL     1     167.742 160.697 183.780  1.00  0.00     0.005 C 
ATOM     13  C   UNL     1     166.987 162.348 182.132  1.00  0.00    -0.026 C 
ATOM     14  C   UNL     1     166.405 160.227 183.212  1.00  0.00     0.005 C 
ATOM     15  C   UNL     1     166.110 161.077 181.968  1.00  0.00    -0.001 C 
ATOM     16  C   UNL     1     166.294 163.433 183.055  1.00  0.00     0.007 C 
ATOM     17  C   UNL     1     167.291 162.985 180.749  1.00  0.00     0.012 C 
ATOM     18  C   UNL     1     164.574 161.296 181.742  1.00  0.00     0.000 C 
ATOM     19  C   UNL     1     164.786 163.248 183.298  1.00  0.00     0.005 C 
ATOM     20  C   UNL     1     164.088 162.730 182.035  1.00  0.00     0.003 C 
ATOM     21  C   UNL     1     164.133 160.946 180.315  1.00  0.00     0.031 C 
ATOM     22  C   UNL     1     162.512 162.817 182.045  1.00  0.00    -0.008 C 
ATOM     23  C   UNL     1     162.638 161.074 180.189  1.00  0.00    -0.027 C 
ATOM     24  C   UNL     1     161.899 161.913 180.956  1.00  0.00    -0.065 C 
ATOM     25  C   UNL     1     161.920 162.372 183.419  1.00  0.00     0.014 C 
ATOM     26  C   UNL     1     162.112 164.288 181.751  1.00  0.00     0.016 C 
ATOM     27  C   UNL     1     160.390 161.793 180.918  1.00  0.00     0.063 C 
ATOM     28  C   UNL     1     160.384 162.230 183.415  1.00  0.00     0.033 C 
ATOM     29  C   UNL     1     159.879 161.313 182.282  1.00  0.00     0.118 C 
BRANCH  29  30
ATOM     30  O   UNL     1     160.298 159.990 182.499  1.00  0.00    -0.393 OA
ATOM     31  H   UNL     1     159.538 159.404 182.246  1.00  0.00     0.210 HD
ENDBRANCH  29  30
ENDBRANCH   9  11
ENDBRANCH   1   9
TORSDOF 7
ENDMDL
MODEL 3
REMARK VINA RESULT:    -6.104     13.535     17.792
REMARK INTER + INTRA:          -9.995
REMARK INTER:                  -8.958
REMARK INTRA:                  -1.038
REMARK UNBOUND:                -1.572
REMARK SMILES CC[C@@H](CC[C@@H](C)[C@@H]1CC[C@H]2[C@@H]3CC=C4C[C@@H](O)CC[C@@]4(C)[C@H]3CC[C@]21C)C(C)C
REMARK SMILES IDX 5 1 4 2 3 3 2 4 1 5 28 6 29 7 30 8 6 9 7 10 8 11 9 12 26 13
REMARK SMILES IDX 10 14 11 15 25 16 27 17 12 18 24 19 23 20 13 21 21 22 14 23
REMARK SMILES IDX 15 24 20 25 22 26 16 27 19 28 17 29 18 30
REMARK H PARENT 18 31
REMARK Flexibility Score: inf
ROOT
ATOM      1  C   UNL     1     163.566 161.024 181.852  1.00  0.00     0.004 C 
ENDROOT
BRANCH   1   2
ATOM      2  C   UNL     1     162.331 161.317 182.728  1.00  0.00     0.004 C 
BRANCH   2   3
ATOM      3  C   UNL     1     161.193 162.044 181.956  1.00  0.00    -0.009 C 
BRANCH   3   4
ATOM      4  C   UNL     1     160.723 163.313 182.741  1.00  0.00     0.000 C 
ATOM      5  C   UNL     1     160.490 164.507 181.817  1.00  0.00     0.004 C 
ENDBRANCH   3   4
BRANCH   3   6
ATOM      6  C   UNL     1     159.973 161.109 181.646  1.00  0.00    -0.014 C 
ATOM      7  C   UNL     1     159.876 159.886 182.579  1.00  0.00     0.007 C 
ATOM      8  C   UNL     1     160.028 160.602 180.191  1.00  0.00     0.007 C 
ENDBRANCH   3   6
ENDBRANCH   2   3
ENDBRANCH   1   2
BRANCH   1   9
ATOM      9  C   UNL     1     164.818 161.898 182.154  1.00  0.00    -0.011 C 
ATOM     10  C   UNL     1     164.521 162.958 183.235  1.00  0.00     0.008 C 
BRANCH   9  11
ATOM     11  C   UNL     1     166.136 161.051 182.361  1.00  0.00    -0.002 C 
ATOM     12  C   UNL     1     166.572 160.922 183.835  1.00  0.00     0.005 C 
ATOM     13  C   UNL     1     167.445 161.519 181.622  1.00  0.00    -0.026 C 
ATOM     14  C   UNL     1     167.808 161.796 184.031  1.00  0.00     0.005 C 
ATOM     15  C   UNL     1     168.145 162.426 182.672  1.00  0.00    -0.001 C 
ATOM     16  C   UNL     1     168.316 160.245 181.264  1.00  0.00     0.007 C 
ATOM     17  C   UNL     1     167.155 162.312 180.321  1.00  0.00     0.012 C 
ATOM     18  C   UNL     1     169.683 162.670 182.489  1.00  0.00     0.000 C 
ATOM     19  C   UNL     1     169.798 160.305 181.671  1.00  0.00     0.005 C 
ATOM     20  C   UNL     1     170.361 161.719 181.483  1.00  0.00     0.003 C 
ATOM     21  C   UNL     1     170.004 164.105 182.050  1.00  0.00     0.031 C 
ATOM     22  C   UNL     1     171.933 161.838 181.540  1.00  0.00    -0.008 C 
ATOM     23  C   UNL     1     171.494 164.308 181.994  1.00  0.00    -0.027 C 
ATOM     24  C   UNL     1     172.372 163.301 181.761  1.00  0.00    -0.065 C 
ATOM     25  C   UNL     1     172.533 160.983 182.700  1.00  0.00     0.014 C 
ATOM     26  C   UNL     1     172.501 161.352 180.179  1.00  0.00     0.016 C 
ATOM     27  C   UNL     1     173.849 163.562 181.963  1.00  0.00     0.063 C 
ATOM     28  C   UNL     1     174.036 161.231 182.940  1.00  0.00     0.033 C 
ATOM     29  C   UNL     1     174.364 162.725 183.140  1.00  0.00     0.118 C 
BRANCH  29  30
ATOM     30  O   UNL     1     173.792 163.195 184.333  1.00  0.00    -0.393 OA
ATOM     31  H   UNL     1     173.770 164.186 184.269  1.00  0.00     0.210 HD
ENDBRANCH  29  30
ENDBRANCH   9  11
ENDBRANCH   1   9
TORSDOF 7
ENDMDL
MODEL 4
REMARK VINA RESULT:    -6.051     11.207     15.378
REMARK INTER + INTRA:          -9.923
REMARK INTER:                  -8.639
REMARK INTRA:                  -1.283
REMARK UNBOUND:                -1.572
REMARK SMILES CC[C@@H](CC[C@@H](C)[C@@H]1CC[C@H]2[C@@H]3CC=C4C[C@@H](O)CC[C@@]4(C)[C@H]3CC[C@]21C)C(C)C
REMARK SMILES IDX 5 1 4 2 3 3 2 4 1 5 28 6 29 7 30 8 6 9 7 10 8 11 9 12 26 13
REMARK SMILES IDX 10 14 11 15 25 16 27 17 12 18 24 19 23 20 13 21 21 22 14 23
REMARK SMILES IDX 15 24 20 25 22 26 16 27 19 28 17 29 18 30
REMARK H PARENT 18 31
REMARK Flexibility Score: inf
ROOT
ATOM      1  C   UNL     1     177.878 165.064 181.058  1.00  0.00     0.004 C 
ENDROOT
BRANCH   1   2
ATOM      2  C   UNL     1     176.503 164.394 181.252  1.00  0.00     0.004 C 
BRANCH   2   3
ATOM      3  C   UNL     1     176.367 163.664 182.618  1.00  0.00    -0.009 C 
BRANCH   3   4
ATOM      4  C   UNL     1     177.064 164.488 183.751  1.00  0.00     0.000 C 
ATOM      5  C   UNL     1     176.059 165.043 184.758  1.00  0.00     0.004 C 
ENDBRANCH   3   4
BRANCH   3   6
ATOM      6  C   UNL     1     176.927 162.199 182.584  1.00  0.00    -0.014 C 
ATOM      7  C   UNL     1     175.850 161.118 182.801  1.00  0.00     0.007 C 
ATOM      8  C   UNL     1     178.024 162.007 183.651  1.00  0.00     0.007 C 
ENDBRANCH   3   6
ENDBRANCH   2   3
ENDBRANCH   1   2
BRANCH   1   9
ATOM      9  C   UNL     1     177.835 166.548 180.592  1.00  0.00    -0.011 C 
ATOM     10  C   UNL     1     176.856 166.744 179.415  1.00  0.00     0.008 C 
BRANCH   9  11
ATOM     11  C   UNL     1     177.692 167.575 181.786  1.00  0.00    -0.002 C 
ATOM     12  C   UNL     1     176.239 167.796 182.250  1.00  0.00     0.005 C 
ATOM     13  C   UNL     1     178.248 169.034 181.582  1.00  0.00    -0.026 C 
ATOM     14  C   UNL     1     175.810 169.185 181.784  1.00  0.00     0.005 C 
ATOM     15  C   UNL     1     177.011 169.821 181.069  1.00  0.00    -0.001 C 
ATOM     16  C   UNL     1     178.767 169.585 182.974  1.00  0.00     0.007 C 
ATOM     17  C   UNL     1     179.406 169.103 180.551  1.00  0.00     0.012 C 
ATOM     18  C   UNL     1     177.044 171.381 181.226  1.00  0.00     0.000 C 
ATOM     19  C   UNL     1     178.257 170.978 183.381  1.00  0.00     0.005 C 
ATOM     20  C   UNL     1     178.155 171.901 182.160  1.00  0.00     0.003 C 
ATOM     21  C   UNL     1     177.201 172.104 179.882  1.00  0.00     0.031 C 
ATOM     22  C   UNL     1     177.972 173.435 182.481  1.00  0.00    -0.008 C 
ATOM     23  C   UNL     1     177.120 173.594 180.084  1.00  0.00    -0.027 C 
ATOM     24  C   UNL     1     177.468 174.205 181.243  1.00  0.00    -0.065 C 
ATOM     25  C   UNL     1     176.944 173.663 183.633  1.00  0.00     0.014 C 
ATOM     26  C   UNL     1     179.357 174.008 182.890  1.00  0.00     0.016 C 
ATOM     27  C   UNL     1     177.125 175.668 181.425  1.00  0.00     0.063 C 
ATOM     28  C   UNL     1     176.565 175.143 183.841  1.00  0.00     0.033 C 
ATOM     29  C   UNL     1     176.082 175.817 182.540  1.00  0.00     0.118 C 
BRANCH  29  30
ATOM     30  O   UNL     1     174.865 175.255 182.120  1.00  0.00    -0.393 OA
ATOM     31  H   UNL     1     174.299 176.006 181.800  1.00  0.00     0.210 HD
ENDBRANCH  29  30
ENDBRANCH   9  11
ENDBRANCH   1   9
TORSDOF 7
ENDMDL
MODEL 5
REMARK VINA RESULT:    -5.983     11.911     14.953
REMARK INTER + INTRA:          -9.828
REMARK INTER:                  -8.938
REMARK INTRA:                  -0.890
REMARK UNBOUND:                -1.572
REMARK SMILES CC[C@@H](CC[C@@H](C)[C@@H]1CC[C@H]2[C@@H]3CC=C4C[C@@H](O)CC[C@@]4(C)[C@H]3CC[C@]21C)C(C)C
REMARK SMILES IDX 5 1 4 2 3 3 2 4 1 5 28 6 29 7 30 8 6 9 7 10 8 11 9 12 26 13
REMARK SMILES IDX 10 14 11 15 25 16 27 17 12 18 24 19 23 20 13 21 21 22 14 23
REMARK SMILES IDX 15 24 20 25 22 26 16 27 19 28 17 29 18 30
REMARK H PARENT 18 31
REMARK Flexibility Score: inf
ROOT
ATOM      1  C   UNL     1     178.222 172.405 179.628  1.00  0.00     0.004 C 
ENDROOT
BRANCH   1   2
ATOM      2  C   UNL     1     178.780 173.545 180.505  1.00  0.00     0.004 C 
BRANCH   2   3
ATOM      3  C   UNL     1     179.469 173.036 181.802  1.00  0.00    -0.009 C 
BRANCH   3   4
ATOM      4  C   UNL     1     179.556 171.473 181.800  1.00  0.00     0.000 C 
ATOM      5  C   UNL     1     179.712 170.905 183.209  1.00  0.00     0.004 C 
ENDBRANCH   3   4
BRANCH   3   6
ATOM      6  C   UNL     1     178.761 173.542 183.107  1.00  0.00    -0.014 C 
ATOM      7  C   UNL     1     177.240 173.738 182.951  1.00  0.00     0.007 C 
ATOM      8  C   UNL     1     179.373 174.877 183.578  1.00  0.00     0.007 C 
ENDBRANCH   3   6
ENDBRANCH   2   3
ENDBRANCH   1   2
BRANCH   1   9
ATOM      9  C   UNL     1     177.622 172.848 178.263  1.00  0.00    -0.011 C 
ATOM     10  C   UNL     1     176.432 173.812 178.453  1.00  0.00     0.008 C 
BRANCH   9  11
ATOM     11  C   UNL     1     178.717 173.303 177.216  1.00  0.00    -0.002 C 
ATOM     12  C   UNL     1     179.119 174.786 177.336  1.00  0.00     0.005 C 
ATOM     13  C   UNL     1     178.401 173.121 175.684  1.00  0.00    -0.026 C 
ATOM     14  C   UNL     1     178.520 175.527 176.142  1.00  0.00     0.005 C 
ATOM     15  C   UNL     1     177.787 174.490 175.279  1.00  0.00    -0.001 C 
ATOM     16  C   UNL     1     179.754 172.827 174.913  1.00  0.00     0.007 C 
ATOM     17  C   UNL     1     177.402 171.969 175.403  1.00  0.00     0.012 C 
ATOM     18  C   UNL     1     177.807 174.856 173.755  1.00  0.00     0.000 C 
ATOM     19  C   UNL     1     180.022 173.689 173.668  1.00  0.00     0.005 C 
ATOM     20  C   UNL     1     178.723 173.959 172.899  1.00  0.00     0.003 C 
ATOM     21  C   UNL     1     176.409 174.820 173.123  1.00  0.00     0.031 C 
ATOM     22  C   UNL     1     178.902 174.536 171.442  1.00  0.00    -0.008 C 
ATOM     23  C   UNL     1     176.477 175.282 171.691  1.00  0.00    -0.027 C 
ATOM     24  C   UNL     1     177.588 175.156 170.924  1.00  0.00    -0.065 C 
ATOM     25  C   UNL     1     180.001 175.644 171.393  1.00  0.00     0.014 C 
ATOM     26  C   UNL     1     179.298 173.362 170.506  1.00  0.00     0.016 C 
ATOM     27  C   UNL     1     177.631 175.864 169.586  1.00  0.00     0.063 C 
ATOM     28  C   UNL     1     180.066 176.393 170.046  1.00  0.00     0.033 C 
ATOM     29  C   UNL     1     178.698 176.964 169.620  1.00  0.00     0.118 C 
BRANCH  29  30
ATOM     30  O   UNL     1     178.295 177.979 170.504  1.00  0.00    -0.393 OA
ATOM     31  H   UNL     1     177.987 178.739 169.945  1.00  0.00     0.210 HD
ENDBRANCH  29  30
ENDBRANCH   9  11
ENDBRANCH   1   9
TORSDOF 7
ENDMDL
MODEL 6
REMARK VINA RESULT:    -5.981     13.775     15.815
REMARK INTER + INTRA:          -9.826
REMARK INTER:                  -8.840
REMARK INTRA:                  -0.985
REMARK UNBOUND:                -1.572
REMARK SMILES CC[C@@H](CC[C@@H](C)[C@@H]1CC[C@H]2[C@@H]3CC=C4C[C@@H](O)CC[C@@]4(C)[C@H]3CC[C@]21C)C(C)C
REMARK SMILES IDX 5 1 4 2 3 3 2 4 1 5 28 6 29 7 30 8 6 9 7 10 8 11 9 12 26 13
REMARK SMILES IDX 10 14 11 15 25 16 27 17 12 18 24 19 23 20 13 21 21 22 14 23
REMARK SMILES IDX 15 24 20 25 22 26 16 27 19 28 17 29 18 30
REMARK H PARENT 18 31
REMARK Flexibility Score: inf
ROOT
ATOM      1  C   UNL     1     170.613 160.153 182.140  1.00  0.00     0.004 C 
ENDROOT
BRANCH   1   2
ATOM      2  C   UNL     1     172.006 160.744 182.435  1.00  0.00     0.004 C 
BRANCH   2   3
ATOM      3  C   UNL     1     172.952 160.724 181.201  1.00  0.00    -0.009 C 
BRANCH   3   4
ATOM      4  C   UNL     1     172.190 160.209 179.936  1.00  0.00     0.000 C 
ATOM      5  C   UNL     1     172.003 161.308 178.891  1.00  0.00     0.004 C 
ENDBRANCH   3   4
BRANCH   3   6
ATOM      6  C   UNL     1     174.249 159.875 181.442  1.00  0.00    -0.014 C 
ATOM      7  C   UNL     1     174.819 160.005 182.868  1.00  0.00     0.007 C 
ATOM      8  C   UNL     1     175.355 160.271 180.443  1.00  0.00     0.007 C 
ENDBRANCH   3   6
ENDBRANCH   2   3
ENDBRANCH   1   2
BRANCH   1   9
ATOM      9  C   UNL     1     169.410 161.078 182.484  1.00  0.00    -0.011 C 
ATOM     10  C   UNL     1     169.688 162.541 182.079  1.00  0.00     0.008 C 
BRANCH   9  11
ATOM     11  C   UNL     1     168.016 160.489 182.026  1.00  0.00    -0.002 C 
ATOM     12  C   UNL     1     167.735 160.645 180.518  1.00  0.00     0.005 C 
ATOM     13  C   UNL     1     166.713 161.046 182.711  1.00  0.00    -0.026 C 
ATOM     14  C   UNL     1     166.666 161.722 180.355  1.00  0.00     0.005 C 
ATOM     15  C   UNL     1     166.271 162.194 181.762  1.00  0.00    -0.001 C 
ATOM     16  C   UNL     1     165.634 159.887 182.782  1.00  0.00     0.007 C 
ATOM     17  C   UNL     1     166.964 161.587 184.143  1.00  0.00     0.012 C 
ATOM     18  C   UNL     1     164.772 162.648 181.843  1.00  0.00     0.000 C 
ATOM     19  C   UNL     1     164.231 160.238 182.259  1.00  0.00     0.005 C 
ATOM     20  C   UNL     1     163.857 161.680 182.620  1.00  0.00     0.003 C 
ATOM     21  C   UNL     1     164.612 164.037 182.476  1.00  0.00     0.031 C 
ATOM     22  C   UNL     1     162.335 162.053 182.442  1.00  0.00    -0.008 C 
ATOM     23  C   UNL     1     163.168 164.463 182.430  1.00  0.00    -0.027 C 
ATOM     24  C   UNL     1     162.136 163.583 182.419  1.00  0.00    -0.065 C 
ATOM     25  C   UNL     1     161.754 161.480 181.112  1.00  0.00     0.014 C 
ATOM     26  C   UNL     1     161.554 161.471 183.652  1.00  0.00     0.016 C 
ATOM     27  C   UNL     1     160.743 164.101 182.131  1.00  0.00     0.063 C 
ATOM     28  C   UNL     1     160.337 161.994 180.782  1.00  0.00     0.033 C 
ATOM     29  C   UNL     1     160.250 163.534 180.795  1.00  0.00     0.118 C 
BRANCH  29  30
ATOM     30  O   UNL     1     161.014 164.076 179.747  1.00  0.00    -0.393 OA
ATOM     31  H   UNL     1     160.400 164.640 179.208  1.00  0.00     0.210 HD
ENDBRANCH  29  30
ENDBRANCH   9  11
ENDBRANCH   1   9
TORSDOF 7
ENDMDL
MODEL 7
REMARK VINA RESULT:    -5.957     14.710     17.586
REMARK INTER + INTRA:          -9.792
REMARK INTER:                  -7.994
REMARK INTRA:                  -1.798
REMARK UNBOUND:                -1.572
REMARK SMILES CC[C@@H](CC[C@@H](C)[C@@H]1CC[C@H]2[C@@H]3CC=C4C[C@@H](O)CC[C@@]4(C)[C@H]3CC[C@]21C)C(C)C
REMARK SMILES IDX 5 1 4 2 3 3 2 4 1 5 28 6 29 7 30 8 6 9 7 10 8 11 9 12 26 13
REMARK SMILES IDX 10 14 11 15 25 16 27 17 12 18 24 19 23 20 13 21 21 22 14 23
REMARK SMILES IDX 15 24 20 25 22 26 16 27 19 28 17 29 18 30
REMARK H PARENT 18 31
REMARK Flexibility Score: inf
ROOT
ATOM      1  C   UNL     1     164.673 162.023 172.740  1.00  0.00     0.004 C 
ENDROOT
BRANCH   1   2
ATOM      2  C   UNL     1     164.106 160.601 172.545  1.00  0.00     0.004 C 
BRANCH   2   3
ATOM      3  C   UNL     1     162.722 160.588 171.837  1.00  0.00    -0.009 C 
BRANCH   3   4
ATOM      4  C   UNL     1     162.851 161.124 170.372  1.00  0.00     0.000 C 
ATOM      5  C   UNL     1     162.695 160.011 169.337  1.00  0.00     0.004 C 
ENDBRANCH   3   4
BRANCH   3   6
ATOM      6  C   UNL     1     161.629 161.396 172.620  1.00  0.00    -0.014 C 
ATOM      7  C   UNL     1     160.472 160.523 173.145  1.00  0.00     0.007 C 
ATOM      8  C   UNL     1     161.031 162.508 171.735  1.00  0.00     0.007 C 
ENDBRANCH   3   6
ENDBRANCH   2   3
ENDBRANCH   1   2
BRANCH   1   9
ATOM      9  C   UNL     1     165.020 162.405 174.208  1.00  0.00    -0.011 C 
ATOM     10  C   UNL     1     166.256 163.327 174.275  1.00  0.00     0.008 C 
BRANCH   9  11
ATOM     11  C   UNL     1     163.764 162.873 175.047  1.00  0.00    -0.002 C 
ATOM     12  C   UNL     1     163.943 164.244 175.729  1.00  0.00     0.005 C 
ATOM     13  C   UNL     1     163.256 161.938 176.208  1.00  0.00    -0.026 C 
ATOM     14  C   UNL     1     164.111 163.997 177.227  1.00  0.00     0.005 C 
ATOM     15  C   UNL     1     163.998 162.484 177.459  1.00  0.00    -0.001 C 
ATOM     16  C   UNL     1     161.684 162.090 176.337  1.00  0.00     0.007 C 
ATOM     17  C   UNL     1     163.600 160.443 175.977  1.00  0.00     0.012 C 
ATOM     18  C   UNL     1     163.383 162.136 178.859  1.00  0.00     0.000 C 
ATOM     19  C   UNL     1     161.146 162.357 177.753  1.00  0.00     0.005 C 
ATOM     20  C   UNL     1     161.948 161.575 178.800  1.00  0.00     0.003 C 
ATOM     21  C   UNL     1     164.236 161.130 179.643  1.00  0.00     0.031 C 
ATOM     22  C   UNL     1     161.298 161.496 180.235  1.00  0.00    -0.008 C 
ATOM     23  C   UNL     1     163.655 160.917 181.015  1.00  0.00    -0.027 C 
ATOM     24  C   UNL     1     162.337 161.073 181.294  1.00  0.00    -0.065 C 
ATOM     25  C   UNL     1     160.705 162.871 180.675  1.00  0.00     0.014 C 
ATOM     26  C   UNL     1     160.172 160.427 180.193  1.00  0.00     0.016 C 
ATOM     27  C   UNL     1     161.895 161.071 182.742  1.00  0.00     0.063 C 
ATOM     28  C   UNL     1     160.252 162.908 182.149  1.00  0.00     0.033 C 
ATOM     29  C   UNL     1     161.364 162.459 183.119  1.00  0.00     0.118 C 
BRANCH  29  30
ATOM     30  O   UNL     1     162.423 163.382 183.111  1.00  0.00    -0.393 OA
ATOM     31  H   UNL     1     162.037 164.263 183.358  1.00  0.00     0.210 HD
ENDBRANCH  29  30
ENDBRANCH   9  11
ENDBRANCH   1   9
TORSDOF 7
ENDMDL
MODEL 8
REMARK VINA RESULT:    -5.932      6.705     10.872
REMARK INTER + INTRA:          -9.757
REMARK INTER:                  -7.777
REMARK INTRA:                  -1.981
REMARK UNBOUND:                -1.572
REMARK SMILES CC[C@@H](CC[C@@H](C)[C@@H]1CC[C@H]2[C@@H]3CC=C4C[C@@H](O)CC[C@@]4(C)[C@H]3CC[C@]21C)C(C)C
REMARK SMILES IDX 5 1 4 2 3 3 2 4 1 5 28 6 29 7 30 8 6 9 7 10 8 11 9 12 26 13
REMARK SMILES IDX 10 14 11 15 25 16 27 17 12 18 24 19 23 20 13 21 21 22 14 23
REMARK SMILES IDX 15 24 20 25 22 26 16 27 19 28 17 29 18 30
REMARK H PARENT 18 31
REMARK Flexibility Score: inf
ROOT
ATOM      1  C   UNL     1     177.863 171.247 183.491  1.00  0.00     0.004 C 
ENDROOT
BRANCH   1   2
ATOM      2  C   UNL     1     179.062 170.539 182.828  1.00  0.00     0.004 C 
BRANCH   2   3
ATOM      3  C   UNL     1     178.638 169.529 181.723  1.00  0.00    -0.009 C 
BRANCH   3   4
ATOM      4  C   UNL     1     178.953 170.107 180.303  1.00  0.00     0.000 C 
ATOM      5  C   UNL     1     180.123 171.089 180.330  1.00  0.00     0.004 C 
ENDBRANCH   3   4
BRANCH   3   6
ATOM      6  C   UNL     1     177.128 169.115 181.823  1.00  0.00    -0.014 C 
ATOM      7  C   UNL     1     176.913 167.604 182.037  1.00  0.00     0.007 C 
ATOM      8  C   UNL     1     176.361 169.536 180.554  1.00  0.00     0.007 C 
ENDBRANCH   3   6
ENDBRANCH   2   3
ENDBRANCH   1   2
BRANCH   1   9
ATOM      9  C   UNL     1     177.697 172.752 183.131  1.00  0.00    -0.011 C 
ATOM     10  C   UNL     1     179.064 173.438 182.921  1.00  0.00     0.008 C 
BRANCH   9  11
ATOM     11  C   UNL     1     176.616 173.011 182.007  1.00  0.00    -0.002 C 
ATOM     12  C   UNL     1     177.210 173.469 180.660  1.00  0.00     0.005 C 
ATOM     13  C   UNL     1     175.482 174.063 182.295  1.00  0.00    -0.026 C 
ATOM     14  C   UNL     1     176.882 174.950 180.489  1.00  0.00     0.005 C 
ATOM     15  C   UNL     1     176.059 175.383 181.711  1.00  0.00    -0.001 C 
ATOM     16  C   UNL     1     174.160 173.612 181.547  1.00  0.00     0.007 C 
ATOM     17  C   UNL     1     175.173 174.224 183.807  1.00  0.00     0.012 C 
ATOM     18  C   UNL     1     175.034 176.520 181.372  1.00  0.00     0.000 C 
ATOM     19  C   UNL     1     173.469 174.686 180.689  1.00  0.00     0.005 C 
ATOM     20  C   UNL     1     173.561 176.063 181.358  1.00  0.00     0.003 C 
ATOM     21  C   UNL     1     175.135 177.710 182.336  1.00  0.00     0.031 C 
ATOM     22  C   UNL     1     172.615 177.174 180.759  1.00  0.00    -0.008 C 
ATOM     23  C   UNL     1     174.205 178.810 181.898  1.00  0.00    -0.027 C 
ATOM     24  C   UNL     1     173.068 178.583 181.194  1.00  0.00    -0.065 C 
ATOM     25  C   UNL     1     172.605 177.141 179.198  1.00  0.00     0.014 C 
ATOM     26  C   UNL     1     171.181 176.926 181.300  1.00  0.00     0.016 C 
ATOM     27  C   UNL     1     172.334 179.766 180.599  1.00  0.00     0.063 C 
ATOM     28  C   UNL     1     171.872 178.337 178.557  1.00  0.00     0.033 C 
ATOM     29  C   UNL     1     172.397 179.694 179.069  1.00  0.00     0.118 C 
BRANCH  29  30
ATOM     30  O   UNL     1     173.722 179.897 178.647  1.00  0.00    -0.393 OA
ATOM     31  H   UNL     1     173.715 179.858 177.654  1.00  0.00     0.210 HD
ENDBRANCH  29  30
ENDBRANCH   9  11
ENDBRANCH   1   9
TORSDOF 7
ENDMDL
MODEL 9
REMARK VINA RESULT:    -5.647      8.754     13.823
REMARK INTER + INTRA:          -9.365
REMARK INTER:                  -7.428
REMARK INTRA:                  -1.937
REMARK UNBOUND:                -1.572
REMARK SMILES CC[C@@H](CC[C@@H](C)[C@@H]1CC[C@H]2[C@@H]3CC=C4C[C@@H](O)CC[C@@]4(C)[C@H]3CC[C@]21C)C(C)C
REMARK SMILES IDX 5 1 4 2 3 3 2 4 1 5 28 6 29 7 30 8 6 9 7 10 8 11 9 12 26 13
REMARK SMILES IDX 10 14 11 15 25 16 27 17 12 18 24 19 23 20 13 21 21 22 14 23
REMARK SMILES IDX 15 24 20 25 22 26 16 27 19 28 17 29 18 30
REMARK H PARENT 18 31
REMARK Flexibility Score: inf
ROOT
ATOM      1  C   UNL     1     163.584 161.759 179.551  1.00  0.00     0.004 C 
ENDROOT
BRANCH   1   2
ATOM      2  C   UNL     1     163.079 160.676 180.526  1.00  0.00     0.004 C 
BRANCH   2   3
ATOM      3  C   UNL     1     162.727 161.238 181.932  1.00  0.00    -0.009 C 
BRANCH   3   4
ATOM      4  C   UNL     1     163.645 160.595 183.024  1.00  0.00     0.000 C 
ATOM      5  C   UNL     1     165.015 160.209 182.468  1.00  0.00     0.004 C 
ENDBRANCH   3   4
BRANCH   3   6
ATOM      6  C   UNL     1     161.216 161.043 182.305  1.00  0.00    -0.014 C 
ATOM      7  C   UNL     1     160.245 161.401 181.162  1.00  0.00     0.007 C 
ATOM      8  C   UNL     1     160.843 161.890 183.537  1.00  0.00     0.007 C 
ENDBRANCH   3   6
ENDBRANCH   2   3
ENDBRANCH   1   2
BRANCH   1   9
ATOM      9  C   UNL     1     163.890 163.143 180.193  1.00  0.00    -0.011 C 
ATOM     10  C   UNL     1     165.181 163.761 179.618  1.00  0.00     0.008 C 
BRANCH   9  11
ATOM     11  C   UNL     1     162.632 164.099 180.248  1.00  0.00    -0.002 C 
ATOM     12  C   UNL     1     162.488 165.015 179.015  1.00  0.00     0.005 C 
ATOM     13  C   UNL     1     162.501 165.087 181.467  1.00  0.00    -0.026 C 
ATOM     14  C   UNL     1     162.846 166.434 179.448  1.00  0.00     0.005 C 
ATOM     15  C   UNL     1     163.171 166.389 180.949  1.00  0.00    -0.001 C 
ATOM     16  C   UNL     1     160.964 165.299 181.792  1.00  0.00     0.007 C 
ATOM     17  C   UNL     1     163.218 164.573 182.743  1.00  0.00     0.012 C 
ATOM     18  C   UNL     1     162.799 167.723 181.684  1.00  0.00     0.000 C 
ATOM     19  C   UNL     1     160.499 166.759 181.927  1.00  0.00     0.005 C 
ATOM     20  C   UNL     1     161.572 167.615 182.611  1.00  0.00     0.003 C 
ATOM     21  C   UNL     1     163.959 168.277 182.521  1.00  0.00     0.031 C 
ATOM     22  C   UNL     1     161.095 169.034 183.109  1.00  0.00    -0.008 C 
ATOM     23  C   UNL     1     163.579 169.607 183.115  1.00  0.00    -0.027 C 
ATOM     24  C   UNL     1     162.298 169.958 183.388  1.00  0.00    -0.065 C 
ATOM     25  C   UNL     1     160.190 169.740 182.051  1.00  0.00     0.014 C 
ATOM     26  C   UNL     1     160.305 168.837 184.431  1.00  0.00     0.016 C 
ATOM     27  C   UNL     1     162.002 171.396 183.756  1.00  0.00     0.063 C 
ATOM     28  C   UNL     1     159.875 171.212 182.390  1.00  0.00     0.033 C 
ATOM     29  C   UNL     1     161.147 172.042 182.658  1.00  0.00     0.118 C 
BRANCH  29  30
ATOM     30  O   UNL     1     161.909 172.164 181.485  1.00  0.00    -0.393 OA
ATOM     31  H   UNL     1     161.328 171.869 180.735  1.00  0.00     0.210 HD
ENDBRANCH  29  30
ENDBRANCH   9  11
ENDBRANCH   1   9
TORSDOF 7
ENDMDL
