MODEL 1
REMARK VINA RESULT:    -2.856      0.000      0.000
REMARK INTER + INTRA:          -3.039
REMARK INTER:                  -3.023
REMARK INTRA:                  -0.016
REMARK UNBOUND:                -0.016
REMARK SMILES O=C([O-])c1cccnc1
REMARK SMILES IDX 4 1 5 2 9 3 6 4 8 5 7 6 2 7 1 8 3 9
REMARK H PARENT
REMARK Flexibility Score: inf
ROOT
ATOM      1  C   UNL     1      -3.471   5.497  -1.469  1.00  0.00     0.016 A 
ATOM      2  C   UNL     1      -2.781   4.508  -0.750  1.00  0.00     0.013 A 
ATOM      3  C   UNL     1      -3.784   6.701  -0.815  1.00  0.00     0.120 A 
ATOM      4  C   UNL     1      -2.422   4.729   0.581  1.00  0.00     0.021 A 
ATOM      5  N   UNL     1      -3.423   6.892   0.482  1.00  0.00    -0.264 NA
ATOM      6  C   UNL     1      -2.755   5.941   1.186  1.00  0.00     0.111 A 
ENDROOT
BRANCH   1   7
ATOM      7  C   UNL     1      -3.861   5.282  -2.880  1.00  0.00     0.073 C 
ATOM      8  O   UNL     1      -4.900   4.629  -3.164  1.00  0.00    -0.545 OA
ATOM      9  O   UNL     1      -3.086   5.799  -3.911  1.00  0.00    -0.545 OA
ENDBRANCH   1   7
TORSDOF 1
ENDMDL
MODEL 2
REMARK VINA RESULT:    -2.799      9.804     10.396
REMARK INTER + INTRA:          -2.979
REMARK INTER:                  -2.962
REMARK INTRA:                  -0.016
REMARK UNBOUND:                -0.016
REMARK SMILES O=C([O-])c1cccnc1
REMARK SMILES IDX 4 1 5 2 9 3 6 4 8 5 7 6 2 7 1 8 3 9
REMARK H PARENT
REMARK Flexibility Score: inf
ROOT
ATOM      1  C   UNL     1       4.105   1.465  -5.934  1.00  0.00     0.016 A 
ATOM      2  C   UNL     1       4.781   0.236  -6.004  1.00  0.00     0.013 A 
ATOM      3  C   UNL     1       4.780   2.623  -6.361  1.00  0.00     0.120 A 
ATOM      4  C   UNL     1       6.090   0.181  -6.487  1.00  0.00     0.021 A 
ATOM      5  N   UNL     1       6.055   2.542  -6.827  1.00  0.00    -0.264 NA
ATOM      6  C   UNL     1       6.716   1.357  -6.899  1.00  0.00     0.111 A 
ENDROOT
BRANCH   1   7
ATOM      7  C   UNL     1       2.719   1.545  -5.426  1.00  0.00     0.073 C 
ATOM      8  O   UNL     1       1.748   1.224  -6.162  1.00  0.00    -0.545 OA
ATOM      9  O   UNL     1       2.469   1.974  -4.128  1.00  0.00    -0.545 OA
ENDBRANCH   1   7
TORSDOF 1
ENDMDL
MODEL 3
REMARK VINA RESULT:    -2.690      9.897     10.597
REMARK INTER + INTRA:          -2.864
REMARK INTER:                  -2.846
REMARK INTRA:                  -0.018
REMARK UNBOUND:                -0.016
REMARK SMILES O=C([O-])c1cccnc1
REMARK SMILES IDX 4 1 5 2 9 3 6 4 8 5 7 6 2 7 1 8 3 9
REMARK H PARENT
REMARK Flexibility Score: inf
ROOT
ATOM      1  C   UNL     1       4.184   1.332  -5.723  1.00  0.00     0.016 A 
ATOM      2  C   UNL     1       5.140   2.097  -6.412  1.00  0.00     0.013 A 
ATOM      3  C   UNL     1       4.382  -0.057  -5.632  1.00  0.00     0.120 A 
ATOM      4  C   UNL     1       6.252   1.480  -6.987  1.00  0.00     0.021 A 
ATOM      5  N   UNL     1       5.475  -0.634  -6.200  1.00  0.00    -0.264 NA
ATOM      6  C   UNL     1       6.404   0.098  -6.868  1.00  0.00     0.111 A 
ENDROOT
BRANCH   1   7
ATOM      7  C   UNL     1       2.999   1.967  -5.108  1.00  0.00     0.073 C 
ATOM      8  O   UNL     1       2.167   2.592  -5.818  1.00  0.00    -0.545 OA
ATOM      9  O   UNL     1       2.787   1.881  -3.737  1.00  0.00    -0.545 OA
ENDBRANCH   1   7
TORSDOF 1
ENDMDL
MODEL 4
REMARK VINA RESULT:    -2.673      3.374      4.103
REMARK INTER + INTRA:          -2.845
REMARK INTER:                  -2.829
REMARK INTRA:                  -0.016
REMARK UNBOUND:                -0.016
REMARK SMILES O=C([O-])c1cccnc1
REMARK SMILES IDX 4 1 5 2 9 3 6 4 8 5 7 6 2 7 1 8 3 9
REMARK H PARENT
REMARK Flexibility Score: inf
ROOT
ATOM      1  C   UNL     1      -2.703   5.698   1.076  1.00  0.00     0.016 A 
ATOM      2  C   UNL     1      -2.533   4.579   0.245  1.00  0.00     0.013 A 
ATOM      3  C   UNL     1      -3.331   6.837   0.541  1.00  0.00     0.120 A 
ATOM      4  C   UNL     1      -2.982   4.611  -1.076  1.00  0.00     0.021 A 
ATOM      5  N   UNL     1      -3.759   6.842  -0.750  1.00  0.00    -0.264 NA
ATOM      6  C   UNL     1      -3.599   5.764  -1.561  1.00  0.00     0.111 A 
ENDROOT
BRANCH   1   7
ATOM      7  C   UNL     1      -2.235   5.685   2.479  1.00  0.00     0.073 C 
ATOM      8  O   UNL     1      -2.963   5.209   3.392  1.00  0.00    -0.545 OA
ATOM      9  O   UNL     1      -0.986   6.195   2.809  1.00  0.00    -0.545 OA
ENDBRANCH   1   7
TORSDOF 1
ENDMDL
MODEL 5
REMARK VINA RESULT:    -2.670     10.184     10.962
REMARK INTER + INTRA:          -2.842
REMARK INTER:                  -2.825
REMARK INTRA:                  -0.017
REMARK UNBOUND:                -0.016
REMARK SMILES O=C([O-])c1cccnc1
REMARK SMILES IDX 4 1 5 2 9 3 6 4 8 5 7 6 2 7 1 8 3 9
REMARK H PARENT
REMARK Flexibility Score: inf
ROOT
ATOM      1  C   UNL     1       7.347   5.402   0.762  1.00  0.00     0.016 A 
ATOM      2  C   UNL     1       5.999   5.083   0.527  1.00  0.00     0.013 A 
ATOM      3  C   UNL     1       7.691   5.972   2.001  1.00  0.00     0.120 A 
ATOM      4  C   UNL     1       5.037   5.332   1.507  1.00  0.00     0.021 A 
ATOM      5  N   UNL     1       6.734   6.204   2.939  1.00  0.00    -0.264 NA
ATOM      6  C   UNL     1       5.428   5.898   2.720  1.00  0.00     0.111 A 
ENDROOT
BRANCH   1   7
ATOM      7  C   UNL     1       8.381   5.147  -0.263  1.00  0.00     0.073 C 
ATOM      8  O   UNL     1       8.733   3.968  -0.538  1.00  0.00    -0.545 OA
ATOM      9  O   UNL     1       8.979   6.204  -0.939  1.00  0.00    -0.545 OA
ENDBRANCH   1   7
TORSDOF 1
ENDMDL
MODEL 6
REMARK VINA RESULT:    -2.506      7.925      8.610
REMARK INTER + INTRA:          -2.669
REMARK INTER:                  -2.651
REMARK INTRA:                  -0.017
REMARK UNBOUND:                -0.016
REMARK SMILES O=C([O-])c1cccnc1
REMARK SMILES IDX 4 1 5 2 9 3 6 4 8 5 7 6 2 7 1 8 3 9
REMARK H PARENT
REMARK Flexibility Score: inf
ROOT
ATOM      1  C   UNL     1       3.929   4.966   2.917  1.00  0.00     0.016 A 
ATOM      2  C   UNL     1       3.604   3.615   3.127  1.00  0.00     0.013 A 
ATOM      3  C   UNL     1       3.040   5.947   3.392  1.00  0.00     0.120 A 
ATOM      4  C   UNL     1       2.426   3.272   3.792  1.00  0.00     0.021 A 
ATOM      5  N   UNL     1       1.899   5.585   4.037  1.00  0.00    -0.264 NA
ATOM      6  C   UNL     1       1.577   4.282   4.245  1.00  0.00     0.111 A 
ENDROOT
BRANCH   1   7
ATOM      7  C   UNL     1       5.172   5.351   2.215  1.00  0.00     0.073 C 
ATOM      8  O   UNL     1       5.317   5.103   0.988  1.00  0.00    -0.545 OA
ATOM      9  O   UNL     1       6.197   5.992   2.900  1.00  0.00    -0.545 OA
ENDBRANCH   1   7
TORSDOF 1
ENDMDL
MODEL 7
REMARK VINA RESULT:    -2.480     13.232     13.991
REMARK INTER + INTRA:          -2.641
REMARK INTER:                  -2.625
REMARK INTRA:                  -0.016
REMARK UNBOUND:                -0.016
REMARK SMILES O=C([O-])c1cccnc1
REMARK SMILES IDX 4 1 5 2 9 3 6 4 8 5 7 6 2 7 1 8 3 9
REMARK H PARENT
REMARK Flexibility Score: inf
ROOT
ATOM      1  C   UNL     1       7.373  -2.260  -4.798  1.00  0.00     0.016 A 
ATOM      2  C   UNL     1       6.156  -2.823  -4.376  1.00  0.00     0.013 A 
ATOM      3  C   UNL     1       7.353  -1.364  -5.881  1.00  0.00     0.120 A 
ATOM      4  C   UNL     1       4.967  -2.491  -5.026  1.00  0.00     0.021 A 
ATOM      5  N   UNL     1       6.180  -1.057  -6.497  1.00  0.00    -0.264 NA
ATOM      6  C   UNL     1       4.999  -1.596  -6.096  1.00  0.00     0.111 A 
ENDROOT
BRANCH   1   7
ATOM      7  C   UNL     1       8.644  -2.599  -4.122  1.00  0.00     0.073 C 
ATOM      8  O   UNL     1       9.301  -3.617  -4.469  1.00  0.00    -0.545 OA
ATOM      9  O   UNL     1       9.131  -1.798  -3.097  1.00  0.00    -0.545 OA
ENDBRANCH   1   7
TORSDOF 1
ENDMDL
MODEL 8
REMARK VINA RESULT:    -2.449     10.702     11.471
REMARK INTER + INTRA:          -2.609
REMARK INTER:                  -2.586
REMARK INTRA:                  -0.023
REMARK UNBOUND:                -0.016
REMARK SMILES O=C([O-])c1cccnc1
REMARK SMILES IDX 4 1 5 2 9 3 6 4 8 5 7 6 2 7 1 8 3 9
REMARK H PARENT
REMARK Flexibility Score: inf
ROOT
ATOM      1  C   UNL     1      -1.879  -4.260   3.714  1.00  0.00     0.016 A 
ATOM      2  C   UNL     1      -1.053  -3.137   3.888  1.00  0.00     0.013 A 
ATOM      3  C   UNL     1      -1.335  -5.533   3.962  1.00  0.00     0.120 A 
ATOM      4  C   UNL     1       0.272  -3.297   4.298  1.00  0.00     0.021 A 
ATOM      5  N   UNL     1      -0.042  -5.661   4.361  1.00  0.00    -0.264 NA
ATOM      6  C   UNL     1       0.765  -4.581   4.533  1.00  0.00     0.111 A 
ENDROOT
BRANCH   1   7
ATOM      7  C   UNL     1      -3.285  -4.113   3.280  1.00  0.00     0.073 C 
ATOM      8  O   UNL     1      -3.899  -3.028   3.460  1.00  0.00    -0.545 OA
ATOM      9  O   UNL     1      -3.947  -5.169   2.666  1.00  0.00    -0.545 OA
ENDBRANCH   1   7
TORSDOF 1
ENDMDL
MODEL 9
REMARK VINA RESULT:    -2.363     10.424     10.725
REMARK INTER + INTRA:          -2.518
REMARK INTER:                  -2.499
REMARK INTRA:                  -0.019
REMARK UNBOUND:                -0.016
REMARK SMILES O=C([O-])c1cccnc1
REMARK SMILES IDX 4 1 5 2 9 3 6 4 8 5 7 6 2 7 1 8 3 9
REMARK H PARENT
REMARK Flexibility Score: inf
ROOT
ATOM      1  C   UNL     1      -2.115  -3.350   4.303  1.00  0.00     0.016 A 
ATOM      2  C   UNL     1      -0.813  -3.375   3.776  1.00  0.00     0.013 A 
ATOM      3  C   UNL     1      -2.283  -2.982   5.650  1.00  0.00     0.120 A 
ATOM      4  C   UNL     1       0.277  -3.041   4.582  1.00  0.00     0.021 A 
ATOM      5  N   UNL     1      -1.205  -2.661   6.413  1.00  0.00    -0.264 NA
ATOM      6  C   UNL     1       0.058  -2.682   5.913  1.00  0.00     0.111 A 
ENDROOT
BRANCH   1   7
ATOM      7  C   UNL     1      -3.283  -3.700   3.466  1.00  0.00     0.073 C 
ATOM      8  O   UNL     1      -3.296  -4.772   2.803  1.00  0.00    -0.545 OA
ATOM      9  O   UNL     1      -4.381  -2.852   3.400  1.00  0.00    -0.545 OA
ENDBRANCH   1   7
TORSDOF 1
ENDMDL
