MODEL 1
REMARK VINA RESULT:     1.507      0.000      0.000
REMARK INTER + INTRA:           2.651
REMARK INTER:                   1.903
REMARK INTRA:                   0.748
REMARK UNBOUND:                 0.748
REMARK SMILES O[C@@H]1OC[C@@H](Cc2ccc3c(c2)OCO3)[C@@H]1Cc1ccc2c(c1)OCO2
REMARK SMILES IDX 4 1 5 2 16 3 2 4 3 5 6 6 7 7 12 8 8 9 11 10 9 11 10 12 13 13
REMARK SMILES IDX 15 14 14 15 17 16 18 17 23 18 19 19 22 20 20 21 21 22 24 23
REMARK SMILES IDX 26 24 25 25 1 26
REMARK H PARENT 1 27
REMARK Flexibility Score: inf
ROOT
ATOM      1  C   UNL     1     -25.321 -13.919 -16.096  1.00  0.00     0.168 C 
ATOM      2  C   UNL     1     -24.922 -14.762 -14.873  1.00  0.00     0.028 C 
ATOM      3  C   UNL     1     -23.443 -15.034 -15.117  1.00  0.00     0.055 C 
ATOM      4  C   UNL     1     -23.360 -14.897 -16.637  1.00  0.00     0.250 C 
ATOM      5  O   UNL     1     -24.253 -13.883 -17.019  1.00  0.00    -0.352 OA
ENDROOT
BRANCH   2   6
ATOM      6  C   UNL     1     -25.735 -16.075 -14.770  1.00  0.00     0.042 C 
BRANCH   6   7
ATOM      7  C   UNL     1     -24.919 -17.191 -14.167  1.00  0.00    -0.044 A 
ATOM      8  C   UNL     1     -23.658 -17.519 -14.716  1.00  0.00     0.054 A 
ATOM      9  C   UNL     1     -25.401 -17.908 -13.041  1.00  0.00     0.008 A 
ATOM     10  C   UNL     1     -22.932 -18.545 -14.118  1.00  0.00     0.166 A 
ATOM     11  C   UNL     1     -24.635 -18.939 -12.469  1.00  0.00     0.051 A 
ATOM     12  C   UNL     1     -23.400 -19.224 -13.041  1.00  0.00     0.165 A 
ATOM     13  O   UNL     1     -21.690 -19.037 -14.470  1.00  0.00    -0.454 OA
ATOM     14  O   UNL     1     -22.475 -20.179 -12.663  1.00  0.00    -0.454 OA
ATOM     15  C   UNL     1     -21.357 -20.092 -13.558  1.00  0.00     0.468 C 
ENDBRANCH   6   7
ENDBRANCH   2   6
BRANCH   3  16
ATOM     16  C   UNL     1     -22.501 -14.081 -14.320  1.00  0.00     0.044 C 
BRANCH  16  17
ATOM     17  C   UNL     1     -21.121 -14.631 -14.021  1.00  0.00    -0.044 A 
ATOM     18  C   UNL     1     -20.191 -13.875 -13.270  1.00  0.00     0.054 A 
ATOM     19  C   UNL     1     -20.737 -15.908 -14.516  1.00  0.00     0.008 A 
ATOM     20  C   UNL     1     -18.944 -14.435 -13.011  1.00  0.00     0.166 A 
ATOM     21  C   UNL     1     -19.466 -16.437 -14.230  1.00  0.00     0.051 A 
ATOM     22  C   UNL     1     -18.598 -15.663 -13.467  1.00  0.00     0.165 A 
ATOM     23  O   UNL     1     -17.891 -13.895 -12.299  1.00  0.00    -0.454 OA
ATOM     24  O   UNL     1     -17.311 -15.960 -13.064  1.00  0.00    -0.454 OA
ATOM     25  C   UNL     1     -16.818 -14.847 -12.305  1.00  0.00     0.468 C 
ENDBRANCH  16  17
ENDBRANCH   3  16
BRANCH   4  26
ATOM     26  O   UNL     1     -22.065 -14.593 -17.083  1.00  0.00    -0.368 OA
ATOM     27  H   UNL     1     -22.168 -13.934 -17.818  1.00  0.00     0.213 HD
ENDBRANCH   4  26
TORSDOF 5
ENDMDL
MODEL 2
REMARK VINA RESULT:     2.437      1.899      5.863
REMARK INTER + INTRA:           3.826
REMARK INTER:                   5.836
REMARK INTRA:                  -2.010
REMARK UNBOUND:                 0.748
REMARK SMILES O[C@@H]1OC[C@@H](Cc2ccc3c(c2)OCO3)[C@@H]1Cc1ccc2c(c1)OCO2
REMARK SMILES IDX 4 1 5 2 16 3 2 4 3 5 6 6 7 7 12 8 8 9 11 10 9 11 10 12 13 13
REMARK SMILES IDX 15 14 14 15 17 16 18 17 23 18 19 19 22 20 20 21 21 22 24 23
REMARK SMILES IDX 26 24 25 25 1 26
REMARK H PARENT 1 27
REMARK Flexibility Score: inf
ROOT
ATOM      1  C   UNL     1     -19.661 -14.113 -12.788  1.00  0.00     0.168 C 
ATOM      2  C   UNL     1     -20.828 -14.773 -13.544  1.00  0.00     0.028 C 
ATOM      3  C   UNL     1     -20.198 -16.047 -14.092  1.00  0.00     0.055 C 
ATOM      4  C   UNL     1     -18.722 -15.654 -14.144  1.00  0.00     0.250 C 
ATOM      5  O   UNL     1     -18.467 -14.824 -13.041  1.00  0.00    -0.352 OA
ENDROOT
BRANCH   2   6
ATOM      6  C   UNL     1     -21.380 -13.875 -14.676  1.00  0.00     0.042 C 
BRANCH   6   7
ATOM      7  C   UNL     1     -22.616 -14.467 -15.306  1.00  0.00    -0.044 A 
ATOM      8  C   UNL     1     -23.666 -14.944 -14.487  1.00  0.00     0.054 A 
ATOM      9  C   UNL     1     -22.742 -14.537 -16.718  1.00  0.00     0.008 A 
ATOM     10  C   UNL     1     -24.795 -15.467 -15.110  1.00  0.00     0.166 A 
ATOM     11  C   UNL     1     -23.901 -15.074 -17.306  1.00  0.00     0.051 A 
ATOM     12  C   UNL     1     -24.907 -15.529 -16.461  1.00  0.00     0.165 A 
ATOM     13  O   UNL     1     -25.936 -15.986 -14.528  1.00  0.00    -0.454 OA
ATOM     14  O   UNL     1     -26.126 -16.090 -16.796  1.00  0.00    -0.454 OA
ATOM     15  C   UNL     1     -26.820 -16.399 -15.579  1.00  0.00     0.468 C 
ENDBRANCH   6   7
ENDBRANCH   2   6
BRANCH   3  16
ATOM     16  C   UNL     1     -20.510 -17.310 -13.232  1.00  0.00     0.044 C 
BRANCH  16  17
ATOM     17  C   UNL     1     -21.936 -17.817 -13.314  1.00  0.00    -0.044 A 
ATOM     18  C   UNL     1     -22.760 -17.840 -12.165  1.00  0.00     0.054 A 
ATOM     19  C   UNL     1     -22.454 -18.299 -14.548  1.00  0.00     0.008 A 
ATOM     20  C   UNL     1     -24.066 -18.300 -12.300  1.00  0.00     0.166 A 
ATOM     21  C   UNL     1     -23.780 -18.754 -14.641  1.00  0.00     0.051 A 
ATOM     22  C   UNL     1     -24.556 -18.735 -13.487  1.00  0.00     0.165 A 
ATOM     23  O   UNL     1     -25.045 -18.404 -11.332  1.00  0.00    -0.454 OA
ATOM     24  O   UNL     1     -25.869 -19.131 -13.326  1.00  0.00    -0.454 OA
ATOM     25  C   UNL     1     -26.226 -18.932 -11.951  1.00  0.00     0.468 C 
ENDBRANCH  16  17
ENDBRANCH   3  16
BRANCH   4  26
ATOM     26  O   UNL     1     -17.865 -16.764 -14.121  1.00  0.00    -0.368 OA
ATOM     27  H   UNL     1     -17.561 -16.866 -13.182  1.00  0.00     0.213 HD
ENDBRANCH   4  26
TORSDOF 5
ENDMDL
MODEL 3
REMARK VINA RESULT:     2.488      1.687      5.234
REMARK INTER + INTRA:           3.891
REMARK INTER:                   5.998
REMARK INTRA:                  -2.107
REMARK UNBOUND:                 0.748
REMARK SMILES O[C@@H]1OC[C@@H](Cc2ccc3c(c2)OCO3)[C@@H]1Cc1ccc2c(c1)OCO2
REMARK SMILES IDX 4 1 5 2 16 3 2 4 3 5 6 6 7 7 12 8 8 9 11 10 9 11 10 12 13 13
REMARK SMILES IDX 15 14 14 15 17 16 18 17 23 18 19 19 22 20 20 21 21 22 24 23
REMARK SMILES IDX 26 24 25 25 1 26
REMARK H PARENT 1 27
REMARK Flexibility Score: inf
ROOT
ATOM      1  C   UNL     1     -18.179 -16.532 -14.497  1.00  0.00     0.168 C 
ATOM      2  C   UNL     1     -19.666 -16.423 -14.121  1.00  0.00     0.028 C 
ATOM      3  C   UNL     1     -19.693 -15.208 -13.201  1.00  0.00     0.055 C 
ATOM      4  C   UNL     1     -18.257 -15.192 -12.682  1.00  0.00     0.250 C 
ATOM      5  O   UNL     1     -17.424 -15.616 -13.730  1.00  0.00    -0.352 OA
ENDROOT
BRANCH   2   6
ATOM      6  C   UNL     1     -20.190 -17.692 -13.408  1.00  0.00     0.042 C 
BRANCH   6   7
ATOM      7  C   UNL     1     -21.695 -17.775 -13.450  1.00  0.00    -0.044 A 
ATOM      8  C   UNL     1     -22.384 -17.511 -14.656  1.00  0.00     0.054 A 
ATOM      9  C   UNL     1     -22.429 -18.132 -12.288  1.00  0.00     0.008 A 
ATOM     10  C   UNL     1     -23.771 -17.615 -14.654  1.00  0.00     0.166 A 
ATOM     11  C   UNL     1     -23.832 -18.226 -12.330  1.00  0.00     0.051 A 
ATOM     12  C   UNL     1     -24.465 -17.959 -13.539  1.00  0.00     0.165 A 
ATOM     13  O   UNL     1     -24.651 -17.410 -15.699  1.00  0.00    -0.454 OA
ATOM     14  O   UNL     1     -25.816 -17.985 -13.829  1.00  0.00    -0.454 OA
ATOM     15  C   UNL     1     -25.980 -17.638 -15.211  1.00  0.00     0.468 C 
ENDBRANCH   6   7
ENDBRANCH   2   6
BRANCH   3  16
ATOM     16  C   UNL     1     -20.147 -13.900 -13.918  1.00  0.00     0.044 C 
BRANCH  16  17
ATOM     17  C   UNL     1     -21.519 -13.951 -14.560  1.00  0.00    -0.044 A 
ATOM     18  C   UNL     1     -22.680 -14.098 -13.766  1.00  0.00     0.054 A 
ATOM     19  C   UNL     1     -21.651 -13.875 -15.973  1.00  0.00     0.008 A 
ATOM     20  C   UNL     1     -23.915 -14.122 -14.405  1.00  0.00     0.166 A 
ATOM     21  C   UNL     1     -22.919 -13.903 -16.579  1.00  0.00     0.051 A 
ATOM     22  C   UNL     1     -24.030 -14.025 -15.752  1.00  0.00     0.165 A 
ATOM     23  O   UNL     1     -25.171 -14.245 -13.844  1.00  0.00    -0.454 OA
ATOM     24  O   UNL     1     -25.364 -14.079 -16.106  1.00  0.00    -0.454 OA
ATOM     25  C   UNL     1     -26.136 -14.219 -14.905  1.00  0.00     0.468 C 
ENDBRANCH  16  17
ENDBRANCH   3  16
BRANCH   4  26
ATOM     26  O   UNL     1     -17.858 -13.925 -12.232  1.00  0.00    -0.368 OA
ATOM     27  H   UNL     1     -18.327 -13.262 -12.802  1.00  0.00     0.213 HD
ENDBRANCH   4  26
TORSDOF 5
ENDMDL
MODEL 4
REMARK VINA RESULT:     2.554      0.994      5.192
REMARK INTER + INTRA:           3.974
REMARK INTER:                   5.504
REMARK INTRA:                  -1.530
REMARK UNBOUND:                 0.748
REMARK SMILES O[C@@H]1OC[C@@H](Cc2ccc3c(c2)OCO3)[C@@H]1Cc1ccc2c(c1)OCO2
REMARK SMILES IDX 4 1 5 2 16 3 2 4 3 5 6 6 7 7 12 8 8 9 11 10 9 11 10 12 13 13
REMARK SMILES IDX 15 14 14 15 17 16 18 17 23 18 19 19 22 20 20 21 21 22 24 23
REMARK SMILES IDX 26 24 25 25 1 26
REMARK H PARENT 1 27
REMARK Flexibility Score: inf
ROOT
ATOM      1  C   UNL     1     -23.319 -14.473 -16.632  1.00  0.00     0.168 C 
ATOM      2  C   UNL     1     -22.911 -14.889 -15.208  1.00  0.00     0.028 C 
ATOM      3  C   UNL     1     -24.242 -14.899 -14.466  1.00  0.00     0.055 C 
ATOM      4  C   UNL     1     -25.064 -13.926 -15.309  1.00  0.00     0.250 C 
ATOM      5  O   UNL     1     -24.681 -14.100 -16.648  1.00  0.00    -0.352 OA
ENDROOT
BRANCH   2   6
ATOM      6  C   UNL     1     -21.907 -13.902 -14.569  1.00  0.00     0.042 C 
BRANCH   6   7
ATOM      7  C   UNL     1     -20.632 -14.592 -14.154  1.00  0.00    -0.044 A 
ATOM      8  C   UNL     1     -19.638 -13.875 -13.448  1.00  0.00     0.054 A 
ATOM      9  C   UNL     1     -20.426 -15.964 -14.452  1.00  0.00     0.008 A 
ATOM     10  C   UNL     1     -18.485 -14.555 -13.070  1.00  0.00     0.166 A 
ATOM     11  C   UNL     1     -19.245 -16.614 -14.052  1.00  0.00     0.051 A 
ATOM     12  C   UNL     1     -18.297 -15.868 -13.359  1.00  0.00     0.165 A 
ATOM     13  O   UNL     1     -17.389 -14.074 -12.380  1.00  0.00    -0.454 OA
ATOM     14  O   UNL     1     -17.072 -16.277 -12.865  1.00  0.00    -0.454 OA
ATOM     15  C   UNL     1     -16.454 -15.151 -12.226  1.00  0.00     0.468 C 
ENDBRANCH   6   7
ENDBRANCH   2   6
BRANCH   3  16
ATOM     16  C   UNL     1     -24.858 -16.324 -14.321  1.00  0.00     0.044 C 
BRANCH  16  17
ATOM     17  C   UNL     1     -23.947 -17.369 -13.710  1.00  0.00    -0.044 A 
ATOM     18  C   UNL     1     -23.172 -18.219 -14.532  1.00  0.00     0.054 A 
ATOM     19  C   UNL     1     -23.880 -17.521 -12.298  1.00  0.00     0.008 A 
ATOM     20  C   UNL     1     -22.340 -19.149 -13.918  1.00  0.00     0.166 A 
ATOM     21  C   UNL     1     -23.025 -18.474 -11.718  1.00  0.00     0.051 A 
ATOM     22  C   UNL     1     -22.266 -19.269 -12.570  1.00  0.00     0.165 A 
ATOM     23  O   UNL     1     -21.493 -20.067 -14.508  1.00  0.00    -0.454 OA
ATOM     24  O   UNL     1     -21.368 -20.266 -12.244  1.00  0.00    -0.454 OA
ATOM     25  C   UNL     1     -20.844 -20.807 -13.465  1.00  0.00     0.468 C 
ENDBRANCH  16  17
ENDBRANCH   3  16
BRANCH   4  26
ATOM     26  O   UNL     1     -26.446 -14.124 -15.172  1.00  0.00    -0.368 OA
ATOM     27  H   UNL     1     -26.887 -13.386 -15.669  1.00  0.00     0.213 HD
ENDBRANCH   4  26
TORSDOF 5
ENDMDL
MODEL 5
REMARK VINA RESULT:     2.850      1.630      6.096
REMARK INTER + INTRA:           4.347
REMARK INTER:                   6.066
REMARK INTRA:                  -1.718
REMARK UNBOUND:                 0.748
REMARK SMILES O[C@@H]1OC[C@@H](Cc2ccc3c(c2)OCO3)[C@@H]1Cc1ccc2c(c1)OCO2
REMARK SMILES IDX 4 1 5 2 16 3 2 4 3 5 6 6 7 7 12 8 8 9 11 10 9 11 10 12 13 13
REMARK SMILES IDX 15 14 14 15 17 16 18 17 23 18 19 19 22 20 20 21 21 22 24 23
REMARK SMILES IDX 26 24 25 25 1 26
REMARK H PARENT 1 27
REMARK Flexibility Score: inf
ROOT
ATOM      1  C   UNL     1     -18.912 -14.951 -12.398  1.00  0.00     0.168 C 
ATOM      2  C   UNL     1     -20.258 -15.154 -13.114  1.00  0.00     0.028 C 
ATOM      3  C   UNL     1     -19.951 -16.277 -14.097  1.00  0.00     0.055 C 
ATOM      4  C   UNL     1     -18.442 -16.122 -14.269  1.00  0.00     0.250 C 
ATOM      5  O   UNL     1     -17.913 -15.724 -13.030  1.00  0.00    -0.352 OA
ENDROOT
BRANCH   2   6
ATOM      6  C   UNL     1     -20.740 -13.875 -13.839  1.00  0.00     0.042 C 
BRANCH   6   7
ATOM      7  C   UNL     1     -21.978 -14.132 -14.660  1.00  0.00    -0.044 A 
ATOM      8  C   UNL     1     -21.861 -14.644 -15.973  1.00  0.00     0.054 A 
ATOM      9  C   UNL     1     -23.266 -13.877 -14.120  1.00  0.00     0.008 A 
ATOM     10  C   UNL     1     -23.031 -14.881 -16.689  1.00  0.00     0.166 A 
ATOM     11  C   UNL     1     -24.422 -14.131 -14.878  1.00  0.00     0.051 A 
ATOM     12  C   UNL     1     -24.258 -14.636 -16.164  1.00  0.00     0.165 A 
ATOM     13  O   UNL     1     -23.168 -15.375 -17.972  1.00  0.00    -0.454 OA
ATOM     14  O   UNL     1     -25.228 -14.964 -17.092  1.00  0.00    -0.454 OA
ATOM     15  C   UNL     1     -24.569 -15.445 -18.272  1.00  0.00     0.468 C 
ENDBRANCH   6   7
ENDBRANCH   2   6
BRANCH   3  16
ATOM     16  C   UNL     1     -20.413 -17.679 -13.595  1.00  0.00     0.044 C 
BRANCH  16  17
ATOM     17  C   UNL     1     -21.912 -17.866 -13.473  1.00  0.00    -0.044 A 
ATOM     18  C   UNL     1     -22.740 -17.819 -14.618  1.00  0.00     0.054 A 
ATOM     19  C   UNL     1     -22.506 -18.066 -12.196  1.00  0.00     0.008 A 
ATOM     20  C   UNL     1     -24.107 -18.013 -14.450  1.00  0.00     0.166 A 
ATOM     21  C   UNL     1     -23.893 -18.258 -12.072  1.00  0.00     0.051 A 
ATOM     22  C   UNL     1     -24.660 -18.227 -13.231  1.00  0.00     0.165 A 
ATOM     23  O   UNL     1     -25.099 -18.021 -15.412  1.00  0.00    -0.454 OA
ATOM     24  O   UNL     1     -26.025 -18.383 -13.365  1.00  0.00    -0.454 OA
ATOM     25  C   UNL     1     -26.351 -18.259 -14.756  1.00  0.00     0.468 C 
ENDBRANCH  16  17
ENDBRANCH   3  16
BRANCH   4  26
ATOM     26  O   UNL     1     -17.821 -17.304 -14.701  1.00  0.00    -0.368 OA
ATOM     27  H   UNL     1     -16.894 -17.058 -14.957  1.00  0.00     0.213 HD
ENDBRANCH   4  26
TORSDOF 5
ENDMDL
MODEL 6
REMARK VINA RESULT:     2.872      1.596      5.234
REMARK INTER + INTRA:           4.375
REMARK INTER:                   5.961
REMARK INTRA:                  -1.586
REMARK UNBOUND:                 0.748
REMARK SMILES O[C@@H]1OC[C@@H](Cc2ccc3c(c2)OCO3)[C@@H]1Cc1ccc2c(c1)OCO2
REMARK SMILES IDX 4 1 5 2 16 3 2 4 3 5 6 6 7 7 12 8 8 9 11 10 9 11 10 12 13 13
REMARK SMILES IDX 15 14 14 15 17 16 18 17 23 18 19 19 22 20 20 21 21 22 24 23
REMARK SMILES IDX 26 24 25 25 1 26
REMARK H PARENT 1 27
REMARK Flexibility Score: inf
ROOT
ATOM      1  C   UNL     1     -18.652 -16.424 -14.538  1.00  0.00     0.168 C 
ATOM      2  C   UNL     1     -20.136 -16.458 -14.135  1.00  0.00     0.028 C 
ATOM      3  C   UNL     1     -20.249 -15.288 -13.166  1.00  0.00     0.055 C 
ATOM      4  C   UNL     1     -18.809 -15.168 -12.670  1.00  0.00     0.250 C 
ATOM      5  O   UNL     1     -17.964 -15.477 -13.747  1.00  0.00    -0.352 OA
ENDROOT
BRANCH   2   6
ATOM      6  C   UNL     1     -20.535 -17.795 -13.466  1.00  0.00     0.042 C 
BRANCH   6   7
ATOM      7  C   UNL     1     -22.033 -17.964 -13.408  1.00  0.00    -0.044 A 
ATOM      8  C   UNL     1     -22.813 -17.755 -14.568  1.00  0.00     0.054 A 
ATOM      9  C   UNL     1     -22.667 -18.348 -12.197  1.00  0.00     0.008 A 
ATOM     10  C   UNL     1     -24.189 -17.939 -14.473  1.00  0.00     0.166 A 
ATOM     11  C   UNL     1     -24.061 -18.523 -12.145  1.00  0.00     0.051 A 
ATOM     12  C   UNL     1     -24.787 -18.308 -13.312  1.00  0.00     0.165 A 
ATOM     13  O   UNL     1     -25.145 -17.798 -15.460  1.00  0.00    -0.454 OA
ATOM     14  O   UNL     1     -26.150 -18.415 -13.511  1.00  0.00    -0.454 OA
ATOM     15  C   UNL     1     -26.424 -18.095 -14.883  1.00  0.00     0.468 C 
ENDBRANCH   6   7
ENDBRANCH   2   6
BRANCH   3  16
ATOM     16  C   UNL     1     -20.826 -13.996 -13.822  1.00  0.00     0.044 C 
BRANCH  16  17
ATOM     17  C   UNL     1     -22.040 -14.202 -14.705  1.00  0.00    -0.044 A 
ATOM     18  C   UNL     1     -21.897 -14.696 -16.023  1.00  0.00     0.054 A 
ATOM     19  C   UNL     1     -23.338 -13.875 -14.224  1.00  0.00     0.008 A 
ATOM     20  C   UNL     1     -23.047 -14.880 -16.784  1.00  0.00     0.166 A 
ATOM     21  C   UNL     1     -24.474 -14.078 -15.028  1.00  0.00     0.051 A 
ATOM     22  C   UNL     1     -24.281 -14.588 -16.307  1.00  0.00     0.165 A 
ATOM     23  O   UNL     1     -23.154 -15.355 -18.077  1.00  0.00    -0.454 OA
ATOM     24  O   UNL     1     -25.228 -14.867 -17.273  1.00  0.00    -0.454 OA
ATOM     25  C   UNL     1     -24.544 -15.366 -18.431  1.00  0.00     0.468 C 
ENDBRANCH  16  17
ENDBRANCH   3  16
BRANCH   4  26
ATOM     26  O   UNL     1     -18.511 -13.890 -12.174  1.00  0.00    -0.368 OA
ATOM     27  H   UNL     1     -19.182 -13.272 -12.567  1.00  0.00     0.213 HD
ENDBRANCH   4  26
TORSDOF 5
ENDMDL
MODEL 7
REMARK VINA RESULT:     4.189      1.420      5.864
REMARK INTER + INTRA:           6.039
REMARK INTER:                   3.392
REMARK INTRA:                   2.648
REMARK UNBOUND:                 0.748
REMARK SMILES O[C@@H]1OC[C@@H](Cc2ccc3c(c2)OCO3)[C@@H]1Cc1ccc2c(c1)OCO2
REMARK SMILES IDX 4 1 5 2 16 3 2 4 3 5 6 6 7 7 12 8 8 9 11 10 9 11 10 12 13 13
REMARK SMILES IDX 15 14 14 15 17 16 18 17 23 18 19 19 22 20 20 21 21 22 24 23
REMARK SMILES IDX 26 24 25 25 1 26
REMARK H PARENT 1 27
REMARK Flexibility Score: inf
ROOT
ATOM      1  C   UNL     1     -22.427 -15.782 -15.757  1.00  0.00     0.168 C 
ATOM      2  C   UNL     1     -23.118 -14.851 -14.747  1.00  0.00     0.028 C 
ATOM      3  C   UNL     1     -24.057 -14.035 -15.627  1.00  0.00     0.055 C 
ATOM      4  C   UNL     1     -23.357 -14.129 -16.981  1.00  0.00     0.250 C 
ATOM      5  O   UNL     1     -22.782 -15.407 -17.072  1.00  0.00    -0.352 OA
ENDROOT
BRANCH   2   6
ATOM      6  C   UNL     1     -22.114 -13.948 -13.992  1.00  0.00     0.042 C 
BRANCH   6   7
ATOM      7  C   UNL     1     -20.777 -14.623 -13.820  1.00  0.00    -0.044 A 
ATOM      8  C   UNL     1     -19.659 -13.875 -13.383  1.00  0.00     0.054 A 
ATOM      9  C   UNL     1     -20.632 -16.011 -14.079  1.00  0.00     0.008 A 
ATOM     10  C   UNL     1     -18.448 -14.541 -13.222  1.00  0.00     0.166 A 
ATOM     11  C   UNL     1     -19.389 -16.645 -13.903  1.00  0.00     0.051 A 
ATOM     12  C   UNL     1     -18.319 -15.869 -13.471  1.00  0.00     0.165 A 
ATOM     13  O   UNL     1     -17.234 -14.029 -12.808  1.00  0.00    -0.454 OA
ATOM     14  O   UNL     1     -17.015 -16.257 -13.227  1.00  0.00    -0.454 OA
ATOM     15  C   UNL     1     -16.282 -15.102 -12.797  1.00  0.00     0.468 C 
ENDBRANCH   6   7
ENDBRANCH   2   6
BRANCH   3  16
ATOM     16  C   UNL     1     -25.527 -14.556 -15.611  1.00  0.00     0.044 C 
BRANCH  16  17
ATOM     17  C   UNL     1     -25.736 -15.895 -14.934  1.00  0.00    -0.044 A 
ATOM     18  C   UNL     1     -24.757 -16.421 -14.059  1.00  0.00     0.054 A 
ATOM     19  C   UNL     1     -26.913 -16.650 -15.191  1.00  0.00     0.008 A 
ATOM     20  C   UNL     1     -25.007 -17.647 -13.452  1.00  0.00     0.166 A 
ATOM     21  C   UNL     1     -27.127 -17.885 -14.554  1.00  0.00     0.051 A 
ATOM     22  C   UNL     1     -26.144 -18.347 -13.685  1.00  0.00     0.165 A 
ATOM     23  O   UNL     1     -24.212 -18.344 -12.563  1.00  0.00    -0.454 OA
ATOM     24  O   UNL     1     -26.123 -19.518 -12.954  1.00  0.00    -0.454 OA
ATOM     25  C   UNL     1     -24.895 -19.556 -12.214  1.00  0.00     0.468 C 
ENDBRANCH  16  17
ENDBRANCH   3  16
BRANCH   4  26
ATOM     26  O   UNL     1     -24.229 -13.915 -18.059  1.00  0.00    -0.368 OA
ATOM     27  H   UNL     1     -25.117 -14.257 -17.775  1.00  0.00     0.213 HD
ENDBRANCH   4  26
TORSDOF 5
ENDMDL
MODEL 8
REMARK VINA RESULT:     4.267     12.760     16.125
REMARK INTER + INTRA:           6.137
REMARK INTER:                   6.795
REMARK INTRA:                  -0.658
REMARK UNBOUND:                 0.748
REMARK SMILES O[C@@H]1OC[C@@H](Cc2ccc3c(c2)OCO3)[C@@H]1Cc1ccc2c(c1)OCO2
REMARK SMILES IDX 4 1 5 2 16 3 2 4 3 5 6 6 7 7 12 8 8 9 11 10 9 11 10 12 13 13
REMARK SMILES IDX 15 14 14 15 17 16 18 17 23 18 19 19 22 20 20 21 21 22 24 23
REMARK SMILES IDX 26 24 25 25 1 26
REMARK H PARENT 1 27
REMARK Flexibility Score: inf
ROOT
ATOM      1  C   UNL     1     -26.578 -27.747 -14.565  1.00  0.00     0.168 C 
ATOM      2  C   UNL     1     -27.712 -28.430 -15.347  1.00  0.00     0.028 C 
ATOM      3  C   UNL     1     -27.955 -27.465 -16.501  1.00  0.00     0.055 C 
ATOM      4  C   UNL     1     -27.443 -26.153 -15.909  1.00  0.00     0.250 C 
ATOM      5  O   UNL     1     -26.341 -26.459 -15.095  1.00  0.00    -0.352 OA
ENDROOT
BRANCH   2   6
ATOM      6  C   UNL     1     -28.985 -28.628 -14.491  1.00  0.00     0.042 C 
BRANCH   6   7
ATOM      7  C   UNL     1     -29.009 -29.983 -13.830  1.00  0.00    -0.044 A 
ATOM      8  C   UNL     1     -29.012 -30.081 -12.420  1.00  0.00     0.054 A 
ATOM      9  C   UNL     1     -29.043 -31.166 -14.614  1.00  0.00     0.008 A 
ATOM     10  C   UNL     1     -29.051 -31.351 -11.852  1.00  0.00     0.166 A 
ATOM     11  C   UNL     1     -29.081 -32.430 -14.000  1.00  0.00     0.051 A 
ATOM     12  C   UNL     1     -29.085 -32.477 -12.610  1.00  0.00     0.165 A 
ATOM     13  O   UNL     1     -29.065 -31.695 -10.514  1.00  0.00    -0.454 OA
ATOM     14  O   UNL     1     -29.120 -33.585 -11.785  1.00  0.00    -0.454 OA
ATOM     15  C   UNL     1     -29.109 -33.127 -10.426  1.00  0.00     0.468 C 
ENDBRANCH   6   7
ENDBRANCH   2   6
BRANCH   3  16
ATOM     16  C   UNL     1     -27.260 -27.902 -17.827  1.00  0.00     0.044 C 
BRANCH  16  17
ATOM     17  C   UNL     1     -27.684 -29.251 -18.372  1.00  0.00    -0.044 A 
ATOM     18  C   UNL     1     -27.061 -29.793 -19.519  1.00  0.00     0.054 A 
ATOM     19  C   UNL     1     -28.735 -29.976 -17.745  1.00  0.00     0.008 A 
ATOM     20  C   UNL     1     -27.478 -31.043 -19.966  1.00  0.00     0.166 A 
ATOM     21  C   UNL     1     -29.125 -31.237 -18.230  1.00  0.00     0.051 A 
ATOM     22  C   UNL     1     -28.464 -31.736 -19.347  1.00  0.00     0.165 A 
ATOM     23  O   UNL     1     -27.014 -31.769 -21.046  1.00  0.00    -0.454 OA
ATOM     24  O   UNL     1     -28.669 -32.934 -20.003  1.00  0.00    -0.454 OA
ATOM     25  C   UNL     1     -27.753 -32.996 -21.105  1.00  0.00     0.468 C 
ENDBRANCH  16  17
ENDBRANCH   3  16
BRANCH   4  26
ATOM     26  O   UNL     1     -27.073 -25.223 -16.892  1.00  0.00    -0.368 OA
ATOM     27  H   UNL     1     -26.376 -25.660 -17.447  1.00  0.00     0.213 HD
ENDBRANCH   4  26
TORSDOF 5
ENDMDL
