MODEL 1
REMARK VINA RESULT:    -3.643      0.000      0.000
REMARK INTER + INTRA:          -5.297
REMARK INTER:                  -4.921
REMARK INTRA:                  -0.376
REMARK UNBOUND:                -0.376
REMARK SMILES CCCCCCC=CC(=O)[O-]
REMARK SMILES IDX 5 1 6 2 7 3 8 4 9 5 10 6 11 7 4 8 3 9 2 10 1 11
REMARK H PARENT
REMARK Flexibility Score: inf
ROOT
ATOM      1  C   UNL     1      62.131  33.126  60.450  1.00  0.00     0.004 C 
ENDROOT
BRANCH   1   2
ATOM      2  C   UNL     1      61.200  32.112  61.133  1.00  0.00     0.027 C 
BRANCH   2   3
ATOM      3  C   UNL     1      61.853  30.763  61.236  1.00  0.00    -0.025 C 
ATOM      4  C   UNL     1      63.173  30.638  61.409  1.00  0.00     0.020 C 
BRANCH   4   5
ATOM      5  C   UNL     1      63.836  29.327  61.499  1.00  0.00     0.064 C 
ATOM      6  O   UNL     1      65.086  29.221  61.384  1.00  0.00    -0.545 OA
ATOM      7  O   UNL     1      63.072  28.188  61.715  1.00  0.00    -0.545 OA
ENDBRANCH   4   5
ENDBRANCH   2   3
ENDBRANCH   1   2
BRANCH   1   8
ATOM      8  C   UNL     1      61.588  34.563  60.514  1.00  0.00     0.000 C 
BRANCH   8   9
ATOM      9  C   UNL     1      62.606  35.553  61.098  1.00  0.00    -0.000 C 
BRANCH   9  10
ATOM     10  C   UNL     1      63.946  34.860  61.375  1.00  0.00    -0.003 C 
ATOM     11  C   UNL     1      64.947  35.826  62.004  1.00  0.00     0.004 C 
ENDBRANCH   9  10
ENDBRANCH   8   9
ENDBRANCH   1   8
TORSDOF 6
ENDMDL
MODEL 2
REMARK VINA RESULT:    -3.581     12.959     14.154
REMARK INTER + INTRA:          -5.213
REMARK INTER:                  -4.974
REMARK INTRA:                  -0.239
REMARK UNBOUND:                -0.376
REMARK SMILES CCCCCCC=CC(=O)[O-]
REMARK SMILES IDX 5 1 6 2 7 3 8 4 9 5 10 6 11 7 4 8 3 9 2 10 1 11
REMARK H PARENT
REMARK Flexibility Score: inf
ROOT
ATOM      1  C   UNL     1      56.968  27.811  50.293  1.00  0.00     0.004 C 
ENDROOT
BRANCH   1   2
ATOM      2  C   UNL     1      57.984  28.861  49.816  1.00  0.00     0.027 C 
BRANCH   2   3
ATOM      3  C   UNL     1      59.393  28.398  50.058  1.00  0.00    -0.025 C 
ATOM      4  C   UNL     1      60.005  27.556  49.219  1.00  0.00     0.020 C 
BRANCH   4   5
ATOM      5  C   UNL     1      61.379  27.079  49.443  1.00  0.00     0.064 C 
ATOM      6  O   UNL     1      61.612  26.089  50.186  1.00  0.00    -0.545 OA
ATOM      7  O   UNL     1      62.438  27.732  48.826  1.00  0.00    -0.545 OA
ENDBRANCH   4   5
ENDBRANCH   2   3
ENDBRANCH   1   2
BRANCH   1   8
ATOM      8  C   UNL     1      55.601  28.424  50.634  1.00  0.00     0.000 C 
BRANCH   8   9
ATOM      9  C   UNL     1      54.435  27.669  49.980  1.00  0.00    -0.000 C 
BRANCH   9  10
ATOM     10  C   UNL     1      54.836  26.227  49.644  1.00  0.00    -0.003 C 
ATOM     11  C   UNL     1      53.659  25.447  49.065  1.00  0.00     0.004 C 
ENDBRANCH   9  10
ENDBRANCH   8   9
ENDBRANCH   1   8
TORSDOF 6
ENDMDL
MODEL 3
REMARK VINA RESULT:    -3.553     13.494     14.344
REMARK INTER + INTRA:          -5.176
REMARK INTER:                  -4.749
REMARK INTRA:                  -0.427
REMARK UNBOUND:                -0.376
REMARK SMILES CCCCCCC=CC(=O)[O-]
REMARK SMILES IDX 5 1 6 2 7 3 8 4 9 5 10 6 11 7 4 8 3 9 2 10 1 11
REMARK H PARENT
REMARK Flexibility Score: inf
ROOT
ATOM      1  C   UNL     1      58.318  29.082  49.626  1.00  0.00     0.004 C 
ENDROOT
BRANCH   1   2
ATOM      2  C   UNL     1      57.554  28.305  50.710  1.00  0.00     0.027 C 
BRANCH   2   3
ATOM      3  C   UNL     1      56.128  28.066  50.300  1.00  0.00    -0.025 C 
ATOM      4  C   UNL     1      55.681  26.839  50.015  1.00  0.00     0.020 C 
BRANCH   4   5
ATOM      5  C   UNL     1      54.293  26.583  49.598  1.00  0.00     0.064 C 
ATOM      6  O   UNL     1      53.414  27.482  49.672  1.00  0.00    -0.545 OA
ATOM      7  O   UNL     1      53.945  25.328  49.116  1.00  0.00    -0.545 OA
ENDBRANCH   4   5
ENDBRANCH   2   3
ENDBRANCH   1   2
BRANCH   1   8
ATOM      8  C   UNL     1      59.542  28.315  49.101  1.00  0.00     0.000 C 
BRANCH   8   9
ATOM      9  C   UNL     1      59.455  26.807  49.374  1.00  0.00    -0.000 C 
BRANCH   9  10
ATOM     10  C   UNL     1      60.769  26.281  49.964  1.00  0.00    -0.003 C 
ATOM     11  C   UNL     1      61.956  27.126  49.508  1.00  0.00     0.004 C 
ENDBRANCH   9  10
ENDBRANCH   8   9
ENDBRANCH   1   8
TORSDOF 6
ENDMDL
MODEL 4
REMARK VINA RESULT:    -3.553      0.838      1.302
REMARK INTER + INTRA:          -5.175
REMARK INTER:                  -4.873
REMARK INTRA:                  -0.302
REMARK UNBOUND:                -0.376
REMARK SMILES CCCCCCC=CC(=O)[O-]
REMARK SMILES IDX 5 1 6 2 7 3 8 4 9 5 10 6 11 7 4 8 3 9 2 10 1 11
REMARK H PARENT
REMARK Flexibility Score: inf
ROOT
ATOM      1  C   UNL     1      62.176  33.877  60.165  1.00  0.00     0.004 C 
ENDROOT
BRANCH   1   2
ATOM      2  C   UNL     1      61.393  32.701  60.770  1.00  0.00     0.027 C 
BRANCH   2   3
ATOM      3  C   UNL     1      62.262  31.482  60.899  1.00  0.00    -0.025 C 
ATOM      4  C   UNL     1      61.878  30.424  61.620  1.00  0.00     0.020 C 
BRANCH   4   5
ATOM      5  C   UNL     1      62.719  29.225  61.771  1.00  0.00     0.064 C 
ATOM      6  O   UNL     1      62.212  28.105  62.045  1.00  0.00    -0.545 OA
ATOM      7  O   UNL     1      64.094  29.330  61.609  1.00  0.00    -0.545 OA
ENDBRANCH   4   5
ENDBRANCH   2   3
ENDBRANCH   1   2
BRANCH   1   8
ATOM      8  C   UNL     1      61.621  35.242  60.602  1.00  0.00     0.000 C 
BRANCH   8   9
ATOM      9  C   UNL     1      62.687  36.132  61.257  1.00  0.00    -0.000 C 
BRANCH   9  10
ATOM     10  C   UNL     1      63.953  35.325  61.573  1.00  0.00    -0.003 C 
ATOM     11  C   UNL     1      65.107  36.242  61.970  1.00  0.00     0.004 C 
ENDBRANCH   9  10
ENDBRANCH   8   9
ENDBRANCH   1   8
TORSDOF 6
ENDMDL
MODEL 5
REMARK VINA RESULT:    -3.498     13.178     14.452
REMARK INTER + INTRA:          -5.101
REMARK INTER:                  -4.622
REMARK INTRA:                  -0.479
REMARK UNBOUND:                -0.376
REMARK SMILES CCCCCCC=CC(=O)[O-]
REMARK SMILES IDX 5 1 6 2 7 3 8 4 9 5 10 6 11 7 4 8 3 9 2 10 1 11
REMARK H PARENT
REMARK Flexibility Score: inf
ROOT
ATOM      1  C   UNL     1      55.421  28.239  51.105  1.00  0.00     0.004 C 
ENDROOT
BRANCH   1   2
ATOM      2  C   UNL     1      56.535  29.295  51.031  1.00  0.00     0.027 C 
BRANCH   2   3
ATOM      3  C   UNL     1      57.750  28.752  50.335  1.00  0.00    -0.025 C 
ATOM      4  C   UNL     1      57.979  27.437  50.254  1.00  0.00     0.020 C 
BRANCH   4   5
ATOM      5  C   UNL     1      59.169  26.882  49.589  1.00  0.00     0.064 C 
ATOM      6  O   UNL     1      59.442  25.655  49.661  1.00  0.00    -0.545 OA
ATOM      7  O   UNL     1      60.006  27.726  48.871  1.00  0.00    -0.545 OA
ENDBRANCH   4   5
ENDBRANCH   2   3
ENDBRANCH   1   2
BRANCH   1   8
ATOM      8  C   UNL     1      54.121  28.704  50.430  1.00  0.00     0.000 C 
BRANCH   8   9
ATOM      9  C   UNL     1      53.491  27.616  49.548  1.00  0.00    -0.000 C 
BRANCH   9  10
ATOM     10  C   UNL     1      54.353  26.347  49.546  1.00  0.00    -0.003 C 
ATOM     11  C   UNL     1      53.496  25.099  49.353  1.00  0.00     0.004 C 
ENDBRANCH   9  10
ENDBRANCH   8   9
ENDBRANCH   1   8
TORSDOF 6
ENDMDL
MODEL 6
REMARK VINA RESULT:    -3.486      1.001      1.558
REMARK INTER + INTRA:          -5.085
REMARK INTER:                  -4.572
REMARK INTRA:                  -0.513
REMARK UNBOUND:                -0.376
REMARK SMILES CCCCCCC=CC(=O)[O-]
REMARK SMILES IDX 5 1 6 2 7 3 8 4 9 5 10 6 11 7 4 8 3 9 2 10 1 11
REMARK H PARENT
REMARK Flexibility Score: inf
ROOT
ATOM      1  C   UNL     1      61.207  31.803  60.520  1.00  0.00     0.004 C 
ENDROOT
BRANCH   1   2
ATOM      2  C   UNL     1      61.122  31.079  61.874  1.00  0.00     0.027 C 
BRANCH   2   3
ATOM      3  C   UNL     1      62.182  30.020  61.988  1.00  0.00    -0.025 C 
ATOM      4  C   UNL     1      63.218  29.977  61.145  1.00  0.00     0.020 C 
BRANCH   4   5
ATOM      5  C   UNL     1      64.261  28.941  61.228  1.00  0.00     0.064 C 
ATOM      6  O   UNL     1      63.961  27.719  61.288  1.00  0.00    -0.545 OA
ATOM      7  O   UNL     1      65.598  29.317  61.243  1.00  0.00    -0.545 OA
ENDBRANCH   4   5
ENDBRANCH   2   3
ENDBRANCH   1   2
BRANCH   1   8
ATOM      8  C   UNL     1      61.520  33.300  60.670  1.00  0.00     0.000 C 
BRANCH   8   9
ATOM      9  C   UNL     1      62.891  33.677  60.089  1.00  0.00    -0.000 C 
BRANCH   9  10
ATOM     10  C   UNL     1      63.976  33.625  61.171  1.00  0.00    -0.003 C 
ATOM     11  C   UNL     1      64.369  35.028  61.627  1.00  0.00     0.004 C 
ENDBRANCH   9  10
ENDBRANCH   8   9
ENDBRANCH   1   8
TORSDOF 6
ENDMDL
MODEL 7
REMARK VINA RESULT:    -3.478      3.100      5.040
REMARK INTER + INTRA:          -5.074
REMARK INTER:                  -4.478
REMARK INTRA:                  -0.596
REMARK UNBOUND:                -0.376
REMARK SMILES CCCCCCC=CC(=O)[O-]
REMARK SMILES IDX 5 1 6 2 7 3 8 4 9 5 10 6 11 7 4 8 3 9 2 10 1 11
REMARK H PARENT
REMARK Flexibility Score: inf
ROOT
ATOM      1  C   UNL     1      61.017  31.467  61.089  1.00  0.00     0.004 C 
ENDROOT
BRANCH   1   2
ATOM      2  C   UNL     1      61.880  32.321  60.146  1.00  0.00     0.027 C 
BRANCH   2   3
ATOM      3  C   UNL     1      62.220  33.643  60.773  1.00  0.00    -0.025 C 
ATOM      4  C   UNL     1      63.487  34.055  60.888  1.00  0.00     0.020 C 
BRANCH   4   5
ATOM      5  C   UNL     1      63.846  35.340  61.511  1.00  0.00     0.064 C 
ATOM      6  O   UNL     1      64.984  35.522  62.018  1.00  0.00    -0.545 OA
ATOM      7  O   UNL     1      62.913  36.368  61.541  1.00  0.00    -0.545 OA
ENDBRANCH   4   5
ENDBRANCH   2   3
ENDBRANCH   1   2
BRANCH   1   8
ATOM      8  C   UNL     1      61.849  30.472  61.913  1.00  0.00     0.000 C 
BRANCH   8   9
ATOM      9  C   UNL     1      62.781  29.618  61.041  1.00  0.00    -0.000 C 
BRANCH   9  10
ATOM     10  C   UNL     1      64.239  29.765  61.494  1.00  0.00    -0.003 C 
ATOM     11  C   UNL     1      65.041  30.607  60.505  1.00  0.00     0.004 C 
ENDBRANCH   9  10
ENDBRANCH   8   9
ENDBRANCH   1   8
TORSDOF 6
ENDMDL
MODEL 8
REMARK VINA RESULT:    -3.451      3.281      5.262
REMARK INTER + INTRA:          -5.037
REMARK INTER:                  -4.640
REMARK INTRA:                  -0.397
REMARK UNBOUND:                -0.376
REMARK SMILES CCCCCCC=CC(=O)[O-]
REMARK SMILES IDX 5 1 6 2 7 3 8 4 9 5 10 6 11 7 4 8 3 9 2 10 1 11
REMARK H PARENT
REMARK Flexibility Score: inf
ROOT
ATOM      1  C   UNL     1      61.589  31.877  60.409  1.00  0.00     0.004 C 
ENDROOT
BRANCH   1   2
ATOM      2  C   UNL     1      61.555  33.398  60.626  1.00  0.00     0.027 C 
BRANCH   2   3
ATOM      3  C   UNL     1      62.940  33.947  60.823  1.00  0.00    -0.025 C 
ATOM      4  C   UNL     1      63.147  35.240  61.092  1.00  0.00     0.020 C 
BRANCH   4   5
ATOM      5  C   UNL     1      64.494  35.803  61.276  1.00  0.00     0.064 C 
ATOM      6  O   UNL     1      65.295  35.904  60.308  1.00  0.00    -0.545 OA
ATOM      7  O   UNL     1      64.892  36.228  62.536  1.00  0.00    -0.545 OA
ENDBRANCH   4   5
ENDBRANCH   2   3
ENDBRANCH   1   2
BRANCH   1   8
ATOM      8  C   UNL     1      61.219  31.092  61.678  1.00  0.00     0.000 C 
BRANCH   8   9
ATOM      9  C   UNL     1      62.211  29.960  61.982  1.00  0.00    -0.000 C 
BRANCH   9  10
ATOM     10  C   UNL     1      63.644  30.381  61.636  1.00  0.00    -0.003 C 
ATOM     11  C   UNL     1      64.492  29.176  61.236  1.00  0.00     0.004 C 
ENDBRANCH   9  10
ENDBRANCH   8   9
ENDBRANCH   1   8
TORSDOF 6
ENDMDL
MODEL 9
REMARK VINA RESULT:    -3.334     13.032     14.101
REMARK INTER + INTRA:          -4.880
REMARK INTER:                  -4.270
REMARK INTRA:                  -0.610
REMARK UNBOUND:                -0.376
REMARK SMILES CCCCCCC=CC(=O)[O-]
REMARK SMILES IDX 5 1 6 2 7 3 8 4 9 5 10 6 11 7 4 8 3 9 2 10 1 11
REMARK H PARENT
REMARK Flexibility Score: inf
ROOT
ATOM      1  C   UNL     1      54.669  25.883  49.617  1.00  0.00     0.004 C 
ENDROOT
BRANCH   1   2
ATOM      2  C   UNL     1      55.821  25.910  50.634  1.00  0.00     0.027 C 
BRANCH   2   3
ATOM      3  C   UNL     1      57.152  25.986  49.941  1.00  0.00    -0.025 C 
ATOM      4  C   UNL     1      58.011  26.982  50.187  1.00  0.00     0.020 C 
BRANCH   4   5
ATOM      5  C   UNL     1      59.314  27.085  49.511  1.00  0.00     0.064 C 
ATOM      6  O   UNL     1      59.655  28.139  48.911  1.00  0.00    -0.545 OA
ATOM      7  O   UNL     1      60.183  26.002  49.533  1.00  0.00    -0.545 OA
ENDBRANCH   4   5
ENDBRANCH   2   3
ENDBRANCH   1   2
BRANCH   1   8
ATOM      8  C   UNL     1      53.893  27.209  49.569  1.00  0.00     0.000 C 
BRANCH   8   9
ATOM      9  C   UNL     1      53.910  27.953  50.912  1.00  0.00    -0.000 C 
BRANCH   9  10
ATOM     10  C   UNL     1      54.651  29.289  50.788  1.00  0.00    -0.003 C 
ATOM     11  C   UNL     1      55.737  29.418  51.854  1.00  0.00     0.004 C 
ENDBRANCH   9  10
ENDBRANCH   8   9
ENDBRANCH   1   8
TORSDOF 6
ENDMDL
