MODEL 1
REMARK VINA RESULT:    -3.740      0.000      0.000
REMARK INTER + INTRA:          -5.601
REMARK INTER:                  -5.052
REMARK INTRA:                  -0.550
REMARK UNBOUND:                -0.550
REMARK SMILES [NH3+]CCCC[C@@H]([NH3+])C(=O)[O-]
REMARK SMILES IDX 4 1 3 2 2 3 1 4 5 8 6 9 7 10 8 14 9 15 10 16
REMARK H PARENT 1 5 1 6 1 7 7 11 7 12 7 13
REMARK Flexibility Score: inf
ROOT
ATOM      1  C   UNL     1      36.825  -2.505  23.693  1.00  0.00     0.012 C 
ENDROOT
BRANCH   1   2
ATOM      2  C   UNL     1      36.027  -3.820  23.728  1.00  0.00     0.061 C 
BRANCH   2   3
ATOM      3  C   UNL     1      34.591  -3.626  24.243  1.00  0.00     0.258 C 
BRANCH   3   4
ATOM      4  N   UNL     1      33.774  -2.841  23.317  1.00  0.00    -0.358 N 
ATOM      5  H   UNL     1      34.275  -2.714  22.408  1.00  0.00     0.344 HD
ATOM      6  H   UNL     1      33.602  -1.896  23.732  1.00  0.00     0.344 HD
ATOM      7  H   UNL     1      32.853  -3.309  23.155  1.00  0.00     0.344 HD
ENDBRANCH   3   4
ENDBRANCH   2   3
ENDBRANCH   1   2
BRANCH   1   8
ATOM      8  C   UNL     1      36.772  -1.753  25.040  1.00  0.00     0.072 C 
BRANCH   8   9
ATOM      9  C   UNL     1      36.234  -0.308  24.920  1.00  0.00     0.227 C 
BRANCH   9  10
ATOM     10  N   UNL     1      35.944   0.055  23.526  1.00  0.00    -0.350 N 
ATOM     11  H   UNL     1      36.166  -0.739  22.882  1.00  0.00     0.345 HD
ATOM     12  H   UNL     1      36.500   0.896  23.253  1.00  0.00     0.345 HD
ATOM     13  H   UNL     1      34.932   0.302  23.426  1.00  0.00     0.345 HD
ENDBRANCH   9  10
BRANCH   9  14
ATOM     14  C   UNL     1      34.992  -0.162  25.759  1.00  0.00     0.099 C 
ATOM     15  O   UNL     1      35.086   0.039  26.999  1.00  0.00    -0.544 OA
ATOM     16  O   UNL     1      33.735  -0.272  25.175  1.00  0.00    -0.544 OA
ENDBRANCH   9  14
ENDBRANCH   8   9
ENDBRANCH   1   8
TORSDOF 7
ENDMDL
MODEL 2
REMARK VINA RESULT:    -3.691      1.699      3.439
REMARK INTER + INTRA:          -5.536
REMARK INTER:                  -5.008
REMARK INTRA:                  -0.528
REMARK UNBOUND:                -0.550
REMARK SMILES [NH3+]CCCC[C@@H]([NH3+])C(=O)[O-]
REMARK SMILES IDX 4 1 3 2 2 3 1 4 5 8 6 9 7 10 8 14 9 15 10 16
REMARK H PARENT 1 5 1 6 1 7 7 11 7 12 7 13
REMARK Flexibility Score: inf
ROOT
ATOM      1  C   UNL     1      36.573  -1.613  24.549  1.00  0.00     0.012 C 
ENDROOT
BRANCH   1   2
ATOM      2  C   UNL     1      36.728  -0.336  25.394  1.00  0.00     0.061 C 
BRANCH   2   3
ATOM      3  C   UNL     1      36.182   0.913  24.682  1.00  0.00     0.258 C 
BRANCH   3   4
ATOM      4  N   UNL     1      35.764   0.627  23.309  1.00  0.00    -0.358 N 
ATOM      5  H   UNL     1      35.853   1.483  22.716  1.00  0.00     0.344 HD
ATOM      6  H   UNL     1      34.759   0.335  23.314  1.00  0.00     0.344 HD
ATOM      7  H   UNL     1      36.337  -0.149  22.906  1.00  0.00     0.344 HD
ENDBRANCH   3   4
ENDBRANCH   2   3
ENDBRANCH   1   2
BRANCH   1   8
ATOM      8  C   UNL     1      35.478  -2.550  25.100  1.00  0.00     0.072 C 
BRANCH   8   9
ATOM      9  C   UNL     1      34.283  -2.737  24.137  1.00  0.00     0.227 C 
BRANCH   9  10
ATOM     10  N   UNL     1      33.765  -4.112  24.167  1.00  0.00    -0.350 N 
ATOM     11  H   UNL     1      34.549  -4.802  24.236  1.00  0.00     0.345 HD
ATOM     12  H   UNL     1      33.205  -4.301  23.306  1.00  0.00     0.345 HD
ATOM     13  H   UNL     1      33.129  -4.235  24.989  1.00  0.00     0.345 HD
ENDBRANCH   9  10
BRANCH   9  14
ATOM     14  C   UNL     1      33.189  -1.767  24.499  1.00  0.00     0.099 C 
ATOM     15  O   UNL     1      33.118  -0.649  23.923  1.00  0.00    -0.544 OA
ATOM     16  O   UNL     1      32.265  -2.090  25.486  1.00  0.00    -0.544 OA
ENDBRANCH   9  14
ENDBRANCH   8   9
ENDBRANCH   1   8
TORSDOF 7
ENDMDL
MODEL 3
REMARK VINA RESULT:    -3.668      2.387      4.088
REMARK INTER + INTRA:          -5.504
REMARK INTER:                  -5.023
REMARK INTRA:                  -0.481
REMARK UNBOUND:                -0.550
REMARK SMILES [NH3+]CCCC[C@@H]([NH3+])C(=O)[O-]
REMARK SMILES IDX 4 1 3 2 2 3 1 4 5 8 6 9 7 10 8 14 9 15 10 16
REMARK H PARENT 1 5 1 6 1 7 7 11 7 12 7 13
REMARK Flexibility Score: inf
ROOT
ATOM      1  C   UNL     1      33.367  -1.586  25.019  1.00  0.00     0.012 C 
ENDROOT
BRANCH   1   2
ATOM      2  C   UNL     1      33.219  -0.285  24.211  1.00  0.00     0.061 C 
BRANCH   2   3
ATOM      3  C   UNL     1      34.370   0.702  24.466  1.00  0.00     0.258 C 
BRANCH   3   4
ATOM      4  N   UNL     1      35.387   0.647  23.415  1.00  0.00    -0.358 N 
ATOM      5  H   UNL     1      36.323   0.426  23.827  1.00  0.00     0.344 HD
ATOM      6  H   UNL     1      35.445   1.582  22.950  1.00  0.00     0.344 HD
ATOM      7  H   UNL     1      35.133  -0.070  22.698  1.00  0.00     0.344 HD
ENDBRANCH   3   4
ENDBRANCH   2   3
ENDBRANCH   1   2
BRANCH   1   8
ATOM      8  C   UNL     1      33.865  -2.760  24.149  1.00  0.00     0.072 C 
BRANCH   8   9
ATOM      9  C   UNL     1      35.148  -3.431  24.693  1.00  0.00     0.227 C 
BRANCH   9  10
ATOM     10  N   UNL     1      35.207  -4.859  24.351  1.00  0.00    -0.350 N 
ATOM     11  H   UNL     1      35.666  -5.405  25.116  1.00  0.00     0.345 HD
ATOM     12  H   UNL     1      35.733  -4.991  23.459  1.00  0.00     0.345 HD
ATOM     13  H   UNL     1      34.239  -5.229  24.202  1.00  0.00     0.345 HD
ENDBRANCH   9  10
BRANCH   9  14
ATOM     14  C   UNL     1      36.357  -2.720  24.145  1.00  0.00     0.099 C 
ATOM     15  O   UNL     1      36.880  -3.102  23.065  1.00  0.00    -0.544 OA
ATOM     16  O   UNL     1      36.917  -1.653  24.838  1.00  0.00    -0.544 OA
ENDBRANCH   9  14
ENDBRANCH   8   9
ENDBRANCH   1   8
TORSDOF 7
ENDMDL
MODEL 4
REMARK VINA RESULT:    -3.629     10.074     10.760
REMARK INTER + INTRA:          -5.452
REMARK INTER:                  -5.230
REMARK INTRA:                  -0.222
REMARK UNBOUND:                -0.550
REMARK SMILES [NH3+]CCCC[C@@H]([NH3+])C(=O)[O-]
REMARK SMILES IDX 4 1 3 2 2 3 1 4 5 8 6 9 7 10 8 14 9 15 10 16
REMARK H PARENT 1 5 1 6 1 7 7 11 7 12 7 13
REMARK Flexibility Score: inf
ROOT
ATOM      1  C   UNL     1      35.020 -12.012  26.251  1.00  0.00     0.012 C 
ENDROOT
BRANCH   1   2
ATOM      2  C   UNL     1      35.678 -12.128  27.637  1.00  0.00     0.061 C 
BRANCH   2   3
ATOM      3  C   UNL     1      36.004 -10.757  28.253  1.00  0.00     0.258 C 
BRANCH   3   4
ATOM      4  N   UNL     1      34.801  -9.953  28.476  1.00  0.00    -0.358 N 
ATOM      5  H   UNL     1      35.057  -9.020  28.874  1.00  0.00     0.344 HD
ATOM      6  H   UNL     1      34.186 -10.446  29.164  1.00  0.00     0.344 HD
ATOM      7  H   UNL     1      34.274  -9.828  27.582  1.00  0.00     0.344 HD
ENDBRANCH   3   4
ENDBRANCH   2   3
ENDBRANCH   1   2
BRANCH   1   8
ATOM      8  C   UNL     1      35.839 -12.725  25.154  1.00  0.00     0.072 C 
BRANCH   8   9
ATOM      9  C   UNL     1      36.493 -11.754  24.143  1.00  0.00     0.227 C 
BRANCH   9  10
ATOM     10  N   UNL     1      36.010 -10.377  24.314  1.00  0.00    -0.350 N 
ATOM     11  H   UNL     1      36.034 -10.097  25.321  1.00  0.00     0.345 HD
ATOM     12  H   UNL     1      35.035 -10.294  23.949  1.00  0.00     0.345 HD
ATOM     13  H   UNL     1      36.609  -9.720  23.762  1.00  0.00     0.345 HD
ENDBRANCH   9  10
BRANCH   9  14
ATOM     14  C   UNL     1      37.990 -11.798  24.302  1.00  0.00     0.099 C 
ATOM     15  O   UNL     1      38.512 -12.524  25.190  1.00  0.00    -0.544 OA
ATOM     16  O   UNL     1      38.804 -11.022  23.485  1.00  0.00    -0.544 OA
ENDBRANCH   9  14
ENDBRANCH   8   9
ENDBRANCH   1   8
TORSDOF 7
ENDMDL
MODEL 5
REMARK VINA RESULT:    -3.581      2.606      4.126
REMARK INTER + INTRA:          -5.387
REMARK INTER:                  -4.868
REMARK INTRA:                  -0.519
REMARK UNBOUND:                -0.550
REMARK SMILES [NH3+]CCCC[C@@H]([NH3+])C(=O)[O-]
REMARK SMILES IDX 4 1 3 2 2 3 1 4 5 8 6 9 7 10 8 14 9 15 10 16
REMARK H PARENT 1 5 1 6 1 7 7 11 7 12 7 13
REMARK Flexibility Score: inf
ROOT
ATOM      1  C   UNL     1      33.451  -1.389  24.509  1.00  0.00     0.012 C 
ENDROOT
BRANCH   1   2
ATOM      2  C   UNL     1      33.392  -1.328  26.046  1.00  0.00     0.061 C 
BRANCH   2   3
ATOM      3  C   UNL     1      34.251  -0.193  26.626  1.00  0.00     0.258 C 
BRANCH   3   4
ATOM      4  N   UNL     1      35.456  -0.696  27.287  1.00  0.00    -0.358 N 
ATOM      5  H   UNL     1      35.824  -1.535  26.783  1.00  0.00     0.344 HD
ATOM      6  H   UNL     1      35.214  -0.980  28.264  1.00  0.00     0.344 HD
ATOM      7  H   UNL     1      36.189   0.049  27.325  1.00  0.00     0.344 HD
ENDBRANCH   3   4
ENDBRANCH   2   3
ENDBRANCH   1   2
BRANCH   1   8
ATOM      8  C   UNL     1      33.830  -2.793  23.994  1.00  0.00     0.072 C 
BRANCH   8   9
ATOM      9  C   UNL     1      35.095  -3.378  24.664  1.00  0.00     0.227 C 
BRANCH   9  10
ATOM     10  N   UNL     1      35.211  -4.826  24.448  1.00  0.00    -0.350 N 
ATOM     11  H   UNL     1      34.433  -5.174  23.840  1.00  0.00     0.345 HD
ATOM     12  H   UNL     1      35.192  -5.327  25.364  1.00  0.00     0.345 HD
ATOM     13  H   UNL     1      36.125  -5.045  23.989  1.00  0.00     0.345 HD
ENDBRANCH   9  10
BRANCH   9  14
ATOM     14  C   UNL     1      36.316  -2.678  24.129  1.00  0.00     0.099 C 
ATOM     15  O   UNL     1      36.842  -3.059  23.049  1.00  0.00    -0.544 OA
ATOM     16  O   UNL     1      36.884  -1.622  24.833  1.00  0.00    -0.544 OA
ENDBRANCH   9  14
ENDBRANCH   8   9
ENDBRANCH   1   8
TORSDOF 7
ENDMDL
MODEL 6
REMARK VINA RESULT:    -3.461      2.305      3.780
REMARK INTER + INTRA:          -5.224
REMARK INTER:                  -4.933
REMARK INTRA:                  -0.292
REMARK UNBOUND:                -0.550
REMARK SMILES [NH3+]CCCC[C@@H]([NH3+])C(=O)[O-]
REMARK SMILES IDX 4 1 3 2 2 3 1 4 5 8 6 9 7 10 8 14 9 15 10 16
REMARK H PARENT 1 5 1 6 1 7 7 11 7 12 7 13
REMARK Flexibility Score: inf
ROOT
ATOM      1  C   UNL     1      36.595  -0.433  25.484  1.00  0.00     0.012 C 
ENDROOT
BRANCH   1   2
ATOM      2  C   UNL     1      35.263   0.323  25.629  1.00  0.00     0.061 C 
BRANCH   2   3
ATOM      3  C   UNL     1      34.632   0.674  24.271  1.00  0.00     0.258 C 
BRANCH   3   4
ATOM      4  N   UNL     1      35.637   0.811  23.215  1.00  0.00    -0.358 N 
ATOM      5  H   UNL     1      36.089   1.752  23.263  1.00  0.00     0.344 HD
ATOM      6  H   UNL     1      35.166   0.720  22.285  1.00  0.00     0.344 HD
ATOM      7  H   UNL     1      36.360   0.061  23.300  1.00  0.00     0.344 HD
ENDBRANCH   3   4
ENDBRANCH   2   3
ENDBRANCH   1   2
BRANCH   1   8
ATOM      8  C   UNL     1      36.415  -1.962  25.589  1.00  0.00     0.072 C 
BRANCH   8   9
ATOM      9  C   UNL     1      36.380  -2.676  24.217  1.00  0.00     0.227 C 
BRANCH   9  10
ATOM     10  N   UNL     1      37.532  -3.570  24.036  1.00  0.00    -0.350 N 
ATOM     11  H   UNL     1      38.338  -3.056  23.612  1.00  0.00     0.345 HD
ATOM     12  H   UNL     1      37.267  -4.374  23.425  1.00  0.00     0.345 HD
ATOM     13  H   UNL     1      37.826  -3.963  24.961  1.00  0.00     0.345 HD
ENDBRANCH   9  10
BRANCH   9  14
ATOM     14  C   UNL     1      35.098  -3.455  24.089  1.00  0.00     0.099 C 
ATOM     15  O   UNL     1      33.997  -2.850  23.992  1.00  0.00    -0.544 OA
ATOM     16  O   UNL     1      35.119  -4.845  24.098  1.00  0.00    -0.544 OA
ENDBRANCH   9  14
ENDBRANCH   8   9
ENDBRANCH   1   8
TORSDOF 7
ENDMDL
MODEL 7
REMARK VINA RESULT:    -3.426      3.159      4.672
REMARK INTER + INTRA:          -5.177
REMARK INTER:                  -4.975
REMARK INTRA:                  -0.202
REMARK UNBOUND:                -0.550
REMARK SMILES [NH3+]CCCC[C@@H]([NH3+])C(=O)[O-]
REMARK SMILES IDX 4 1 3 2 2 3 1 4 5 8 6 9 7 10 8 14 9 15 10 16
REMARK H PARENT 1 5 1 6 1 7 7 11 7 12 7 13
REMARK Flexibility Score: inf
ROOT
ATOM      1  C   UNL     1      36.475   3.234  23.479  1.00  0.00     0.012 C 
ENDROOT
BRANCH   1   2
ATOM      2  C   UNL     1      35.187   3.160  22.642  1.00  0.00     0.061 C 
BRANCH   2   3
ATOM      3  C   UNL     1      35.466   3.123  21.130  1.00  0.00     0.258 C 
BRANCH   3   4
ATOM      4  N   UNL     1      34.317   3.577  20.345  1.00  0.00    -0.358 N 
ATOM      5  H   UNL     1      34.459   3.356  19.333  1.00  0.00     0.344 HD
ATOM      6  H   UNL     1      34.227   4.615  20.446  1.00  0.00     0.344 HD
ATOM      7  H   UNL     1      33.438   3.128  20.691  1.00  0.00     0.344 HD
ENDBRANCH   3   4
ENDBRANCH   2   3
ENDBRANCH   1   2
BRANCH   1   8
ATOM      8  C   UNL     1      36.989   1.837  23.888  1.00  0.00     0.072 C 
BRANCH   8   9
ATOM      9  C   UNL     1      35.863   0.791  24.057  1.00  0.00     0.227 C 
BRANCH   9  10
ATOM     10  N   UNL     1      36.288  -0.547  23.623  1.00  0.00    -0.350 N 
ATOM     11  H   UNL     1      35.860  -1.287  24.225  1.00  0.00     0.345 HD
ATOM     12  H   UNL     1      37.329  -0.620  23.661  1.00  0.00     0.345 HD
ATOM     13  H   UNL     1      35.999  -0.706  22.629  1.00  0.00     0.345 HD
ENDBRANCH   9  10
BRANCH   9  14
ATOM     14  C   UNL     1      35.428   0.750  25.498  1.00  0.00     0.099 C 
ATOM     15  O   UNL     1      34.563   1.562  25.922  1.00  0.00    -0.544 OA
ATOM     16  O   UNL     1      35.994  -0.168  26.375  1.00  0.00    -0.544 OA
ENDBRANCH   9  14
ENDBRANCH   8   9
ENDBRANCH   1   8
TORSDOF 7
ENDMDL
MODEL 8
REMARK VINA RESULT:    -3.351      1.850      2.495
REMARK INTER + INTRA:          -5.077
REMARK INTER:                  -4.561
REMARK INTRA:                  -0.515
REMARK UNBOUND:                -0.550
REMARK SMILES [NH3+]CCCC[C@@H]([NH3+])C(=O)[O-]
REMARK SMILES IDX 4 1 3 2 2 3 1 4 5 8 6 9 7 10 8 14 9 15 10 16
REMARK H PARENT 1 5 1 6 1 7 7 11 7 12 7 13
REMARK Flexibility Score: inf
ROOT
ATOM      1  C   UNL     1      34.087  -1.887  24.423  1.00  0.00     0.012 C 
ENDROOT
BRANCH   1   2
ATOM      2  C   UNL     1      34.751  -3.274  24.406  1.00  0.00     0.061 C 
BRANCH   2   3
ATOM      3  C   UNL     1      36.118  -3.266  23.704  1.00  0.00     0.258 C 
BRANCH   3   4
ATOM      4  N   UNL     1      36.510  -1.923  23.275  1.00  0.00    -0.358 N 
ATOM      5  H   UNL     1      37.100  -1.974  22.413  1.00  0.00     0.344 HD
ATOM      6  H   UNL     1      37.075  -1.475  24.033  1.00  0.00     0.344 HD
ATOM      7  H   UNL     1      35.664  -1.335  23.096  1.00  0.00     0.344 HD
ENDBRANCH   3   4
ENDBRANCH   2   3
ENDBRANCH   1   2
BRANCH   1   8
ATOM      8  C   UNL     1      33.813  -1.387  25.858  1.00  0.00     0.072 C 
BRANCH   8   9
ATOM      9  C   UNL     1      34.822  -0.319  26.343  1.00  0.00     0.227 C 
BRANCH   9  10
ATOM     10  N   UNL     1      36.124  -0.910  26.681  1.00  0.00    -0.350 N 
ATOM     11  H   UNL     1      36.433  -1.578  25.938  1.00  0.00     0.345 HD
ATOM     12  H   UNL     1      36.064  -1.406  27.598  1.00  0.00     0.345 HD
ATOM     13  H   UNL     1      36.842  -0.155  26.779  1.00  0.00     0.345 HD
ENDBRANCH   9  10
BRANCH   9  14
ATOM     14  C   UNL     1      34.993   0.730  25.277  1.00  0.00     0.099 C 
ATOM     15  O   UNL     1      34.046   1.513  25.001  1.00  0.00    -0.544 OA
ATOM     16  O   UNL     1      36.189   0.828  24.575  1.00  0.00    -0.544 OA
ENDBRANCH   9  14
ENDBRANCH   8   9
ENDBRANCH   1   8
TORSDOF 7
ENDMDL
