MODEL 1
REMARK VINA RESULT:    -4.149      0.000      0.000
REMARK INTER + INTRA:          -4.391
REMARK INTER:                  -4.391
REMARK INTRA:                   0.000
REMARK UNBOUND:                 0.000
REMARK SMILES O=c1ccc2cc(O)c(O)cc2o1
REMARK SMILES IDX 4 1 3 2 2 3 1 4 13 5 12 6 11 7 9 8 7 9 6 10 5 11 8 12 10 14
REMARK H PARENT 8 13 10 15
REMARK Flexibility Score: inf
ROOT
ATOM      1  C   UNL     1     114.974  15.317 149.135  1.00  0.00     0.019 A 
ATOM      2  C   UNL     1     114.391  14.050 149.174  1.00  0.00     0.094 A 
ATOM      3  C   UNL     1     114.610  13.170 148.109  1.00  0.00     0.336 A 
ATOM      4  O   UNL     1     114.093  12.022 148.127  1.00  0.00    -0.246 OA
ATOM      5  O   UNL     1     115.361  13.537 147.075  1.00  0.00    -0.423 OA
ATOM      6  C   UNL     1     115.935  14.736 146.997  1.00  0.00     0.142 A 
ATOM      7  C   UNL     1     116.714  15.067 145.884  1.00  0.00     0.098 A 
ATOM      8  C   UNL     1     117.321  16.326 145.794  1.00  0.00     0.161 A 
ATOM      9  C   UNL     1     117.146  17.264 146.829  1.00  0.00     0.158 A 
ATOM     10  C   UNL     1     116.365  16.936 147.947  1.00  0.00     0.062 A 
ATOM     11  C   UNL     1     115.759  15.677 148.035  1.00  0.00     0.022 A 
ENDROOT
BRANCH   9  12
ATOM     12  O   UNL     1     117.750  18.518 146.741  1.00  0.00    -0.504 OA
ATOM     13  H   UNL     1     117.770  19.155 147.529  1.00  0.00     0.293 HD
ENDBRANCH   9  12
BRANCH   8  14
ATOM     14  O   UNL     1     118.092  16.626 144.673  1.00  0.00    -0.504 OA
ATOM     15  H   UNL     1     118.369  17.574 144.447  1.00  0.00     0.293 HD
ENDBRANCH   8  14
TORSDOF 2
ENDMDL
MODEL 2
REMARK VINA RESULT:    -4.059     11.605     13.207
REMARK INTER + INTRA:          -4.296
REMARK INTER:                  -4.296
REMARK INTRA:                   0.000
REMARK UNBOUND:                 0.000
REMARK SMILES O=c1ccc2cc(O)c(O)cc2o1
REMARK SMILES IDX 4 1 3 2 2 3 1 4 13 5 12 6 11 7 9 8 7 9 6 10 5 11 8 12 10 14
REMARK H PARENT 8 13 10 15
REMARK Flexibility Score: inf
ROOT
ATOM      1  C   UNL     1     121.873   3.811 142.197  1.00  0.00     0.019 A 
ATOM      2  C   UNL     1     122.214   3.764 140.846  1.00  0.00     0.094 A 
ATOM      3  C   UNL     1     121.267   4.155 139.894  1.00  0.00     0.336 A 
ATOM      4  O   UNL     1     121.557   4.121 138.669  1.00  0.00    -0.246 OA
ATOM      5  O   UNL     1     120.059   4.565 140.273  1.00  0.00    -0.423 OA
ATOM      6  C   UNL     1     119.692   4.624 141.551  1.00  0.00     0.142 A 
ATOM      7  C   UNL     1     118.409   5.062 141.891  1.00  0.00     0.098 A 
ATOM      8  C   UNL     1     118.015   5.127 143.233  1.00  0.00     0.161 A 
ATOM      9  C   UNL     1     118.915   4.750 144.247  1.00  0.00     0.158 A 
ATOM     10  C   UNL     1     120.204   4.309 143.911  1.00  0.00     0.062 A 
ATOM     11  C   UNL     1     120.596   4.245 142.568  1.00  0.00     0.022 A 
ENDROOT
BRANCH   9  12
ATOM     12  O   UNL     1     118.525   4.814 145.584  1.00  0.00    -0.504 OA
ATOM     13  H   UNL     1     118.057   4.039 146.039  1.00  0.00     0.293 HD
ENDBRANCH   9  12
BRANCH   8  14
ATOM     14  O   UNL     1     116.729   5.568 143.539  1.00  0.00    -0.504 OA
ATOM     15  H   UNL     1     116.081   5.007 144.079  1.00  0.00     0.293 HD
ENDBRANCH   8  14
TORSDOF 2
ENDMDL
MODEL 3
REMARK VINA RESULT:    -3.954      7.804      8.508
REMARK INTER + INTRA:          -4.185
REMARK INTER:                  -4.185
REMARK INTRA:                   0.000
REMARK UNBOUND:                 0.000
REMARK SMILES O=c1ccc2cc(O)c(O)cc2o1
REMARK SMILES IDX 4 1 3 2 2 3 1 4 13 5 12 6 11 7 9 8 7 9 6 10 5 11 8 12 10 14
REMARK H PARENT 8 13 10 15
REMARK Flexibility Score: inf
ROOT
ATOM      1  C   UNL     1     123.682  14.202 148.974  1.00  0.00     0.019 A 
ATOM      2  C   UNL     1     122.821  13.153 149.295  1.00  0.00     0.094 A 
ATOM      3  C   UNL     1     122.079  13.223 150.479  1.00  0.00     0.336 A 
ATOM      4  O   UNL     1     121.295  12.287 150.785  1.00  0.00    -0.246 OA
ATOM      5  O   UNL     1     122.194  14.275 151.286  1.00  0.00    -0.423 OA
ATOM      6  C   UNL     1     123.004  15.297 151.018  1.00  0.00     0.142 A 
ATOM      7  C   UNL     1     123.085  16.376 151.904  1.00  0.00     0.098 A 
ATOM      8  C   UNL     1     123.935  17.454 151.630  1.00  0.00     0.161 A 
ATOM      9  C   UNL     1     124.712  17.454 150.456  1.00  0.00     0.158 A 
ATOM     10  C   UNL     1     124.634  16.374 149.565  1.00  0.00     0.062 A 
ATOM     11  C   UNL     1     123.784  15.296 149.841  1.00  0.00     0.022 A 
ENDROOT
BRANCH   9  12
ATOM     12  O   UNL     1     125.559  18.527 150.182  1.00  0.00    -0.504 OA
ATOM     13  H   UNL     1     125.883  18.722 149.242  1.00  0.00     0.293 HD
ENDBRANCH   9  12
BRANCH   8  14
ATOM     14  O   UNL     1     123.993  18.515 152.532  1.00  0.00    -0.504 OA
ATOM     15  H   UNL     1     124.652  18.532 153.301  1.00  0.00     0.293 HD
ENDBRANCH   8  14
TORSDOF 2
ENDMDL
MODEL 4
REMARK VINA RESULT:    -3.953     16.556     17.473
REMARK INTER + INTRA:          -4.184
REMARK INTER:                  -4.184
REMARK INTRA:                   0.000
REMARK UNBOUND:                 0.000
REMARK SMILES O=c1ccc2cc(O)c(O)cc2o1
REMARK SMILES IDX 4 1 3 2 2 3 1 4 13 5 12 6 11 7 9 8 7 9 6 10 5 11 8 12 10 14
REMARK H PARENT 8 13 10 15
REMARK Flexibility Score: inf
ROOT
ATOM      1  C   UNL     1     133.059  11.510 150.281  1.00  0.00     0.019 A 
ATOM      2  C   UNL     1     132.779  12.834 150.621  1.00  0.00     0.094 A 
ATOM      3  C   UNL     1     131.719  13.101 151.493  1.00  0.00     0.336 A 
ATOM      4  O   UNL     1     131.452  14.289 151.812  1.00  0.00    -0.246 OA
ATOM      5  O   UNL     1     130.988  12.106 151.989  1.00  0.00    -0.423 OA
ATOM      6  C   UNL     1     131.220  10.829 151.691  1.00  0.00     0.142 A 
ATOM      7  C   UNL     1     130.418   9.825 152.243  1.00  0.00     0.098 A 
ATOM      8  C   UNL     1     130.655   8.481 151.934  1.00  0.00     0.161 A 
ATOM      9  C   UNL     1     131.706   8.135 151.064  1.00  0.00     0.158 A 
ATOM     10  C   UNL     1     132.513   9.139 150.508  1.00  0.00     0.062 A 
ATOM     11  C   UNL     1     132.274  10.484 150.817  1.00  0.00     0.022 A 
ENDROOT
BRANCH   9  12
ATOM     12  O   UNL     1     131.944   6.797 150.755  1.00  0.00    -0.504 OA
ATOM     13  H   UNL     1     132.874   6.457 150.544  1.00  0.00     0.293 HD
ENDBRANCH   9  12
BRANCH   8  14
ATOM     14  O   UNL     1     129.839   7.503 152.500  1.00  0.00    -0.504 OA
ATOM     15  H   UNL     1     130.211   6.759 153.078  1.00  0.00     0.293 HD
ENDBRANCH   8  14
TORSDOF 2
ENDMDL
MODEL 5
REMARK VINA RESULT:    -3.922     18.902     19.816
REMARK INTER + INTRA:          -4.151
REMARK INTER:                  -4.151
REMARK INTRA:                   0.000
REMARK UNBOUND:                 0.000
REMARK SMILES O=c1ccc2cc(O)c(O)cc2o1
REMARK SMILES IDX 4 1 3 2 2 3 1 4 13 5 12 6 11 7 9 8 7 9 6 10 5 11 8 12 10 14
REMARK H PARENT 8 13 10 15
REMARK Flexibility Score: inf
ROOT
ATOM      1  C   UNL     1     132.599   5.723 142.204  1.00  0.00     0.019 A 
ATOM      2  C   UNL     1     132.514   4.810 141.153  1.00  0.00     0.094 A 
ATOM      3  C   UNL     1     132.743   5.256 139.847  1.00  0.00     0.336 A 
ATOM      4  O   UNL     1     132.672   4.446 138.886  1.00  0.00    -0.246 OA
ATOM      5  O   UNL     1     133.034   6.532 139.612  1.00  0.00    -0.423 OA
ATOM      6  C   UNL     1     133.124   7.437 140.585  1.00  0.00     0.142 A 
ATOM      7  C   UNL     1     133.433   8.765 140.278  1.00  0.00     0.098 A 
ATOM      8  C   UNL     1     133.529   9.723 141.295  1.00  0.00     0.161 A 
ATOM      9  C   UNL     1     133.313   9.347 142.635  1.00  0.00     0.158 A 
ATOM     10  C   UNL     1     133.002   8.016 142.947  1.00  0.00     0.062 A 
ATOM     11  C   UNL     1     132.906   7.059 141.928  1.00  0.00     0.022 A 
ENDROOT
BRANCH   9  12
ATOM     12  O   UNL     1     133.408  10.299 143.649  1.00  0.00    -0.504 OA
ATOM     13  H   UNL     1     134.283  10.763 143.863  1.00  0.00     0.293 HD
ENDBRANCH   9  12
BRANCH   8  14
ATOM     14  O   UNL     1     133.839  11.039 140.957  1.00  0.00    -0.504 OA
ATOM     15  H   UNL     1     133.171  11.650 140.502  1.00  0.00     0.293 HD
ENDBRANCH   8  14
TORSDOF 2
ENDMDL
MODEL 6
REMARK VINA RESULT:    -3.917     11.586     13.259
REMARK INTER + INTRA:          -4.146
REMARK INTER:                  -4.146
REMARK INTRA:                   0.000
REMARK UNBOUND:                 0.000
REMARK SMILES O=c1ccc2cc(O)c(O)cc2o1
REMARK SMILES IDX 4 1 3 2 2 3 1 4 13 5 12 6 11 7 9 8 7 9 6 10 5 11 8 12 10 14
REMARK H PARENT 8 13 10 15
REMARK Flexibility Score: inf
ROOT
ATOM      1  C   UNL     1     119.784   4.525 140.126  1.00  0.00     0.019 A 
ATOM      2  C   UNL     1     121.084   4.167 139.769  1.00  0.00     0.094 A 
ATOM      3  C   UNL     1     122.012   3.889 140.778  1.00  0.00     0.336 A 
ATOM      4  O   UNL     1     123.189   3.562 140.476  1.00  0.00    -0.246 OA
ATOM      5  O   UNL     1     121.659   3.967 142.058  1.00  0.00    -0.423 OA
ATOM      6  C   UNL     1     120.430   4.306 142.443  1.00  0.00     0.142 A 
ATOM      7  C   UNL     1     120.117   4.371 143.804  1.00  0.00     0.098 A 
ATOM      8  C   UNL     1     118.827   4.728 144.217  1.00  0.00     0.161 A 
ATOM      9  C   UNL     1     117.839   5.020 143.258  1.00  0.00     0.158 A 
ATOM     10  C   UNL     1     118.150   4.956 141.891  1.00  0.00     0.062 A 
ATOM     11  C   UNL     1     119.441   4.600 141.480  1.00  0.00     0.022 A 
ENDROOT
BRANCH   9  12
ATOM     12  O   UNL     1     116.555   5.375 143.667  1.00  0.00    -0.504 OA
ATOM     13  H   UNL     1     115.731   5.051 143.174  1.00  0.00     0.293 HD
ENDBRANCH   9  12
BRANCH   8  14
ATOM     14  O   UNL     1     118.546   4.784 145.581  1.00  0.00    -0.504 OA
ATOM     15  H   UNL     1     119.275   4.755 146.283  1.00  0.00     0.293 HD
ENDBRANCH   8  14
TORSDOF 2
ENDMDL
MODEL 7
REMARK VINA RESULT:    -3.832     16.087     16.757
REMARK INTER + INTRA:          -4.056
REMARK INTER:                  -4.056
REMARK INTRA:                   0.000
REMARK UNBOUND:                 0.000
REMARK SMILES O=c1ccc2cc(O)c(O)cc2o1
REMARK SMILES IDX 4 1 3 2 2 3 1 4 13 5 12 6 11 7 9 8 7 9 6 10 5 11 8 12 10 14
REMARK H PARENT 8 13 10 15
REMARK Flexibility Score: inf
ROOT
ATOM      1  C   UNL     1     129.321  11.104 152.890  1.00  0.00     0.019 A 
ATOM      2  C   UNL     1     129.262  12.465 152.591  1.00  0.00     0.094 A 
ATOM      3  C   UNL     1     130.155  12.993 151.653  1.00  0.00     0.336 A 
ATOM      4  O   UNL     1     130.116  14.219 151.369  1.00  0.00    -0.246 OA
ATOM      5  O   UNL     1     131.047  12.208 151.056  1.00  0.00    -0.423 OA
ATOM      6  C   UNL     1     131.139  10.904 151.312  1.00  0.00     0.142 A 
ATOM      7  C   UNL     1     132.097  10.128 150.654  1.00  0.00     0.098 A 
ATOM      8  C   UNL     1     132.200   8.757 150.918  1.00  0.00     0.161 A 
ATOM      9  C   UNL     1     131.334   8.155 151.850  1.00  0.00     0.158 A 
ATOM     10  C   UNL     1     130.371   8.930 152.512  1.00  0.00     0.062 A 
ATOM     11  C   UNL     1     130.270  10.302 152.247  1.00  0.00     0.022 A 
ENDROOT
BRANCH   9  12
ATOM     12  O   UNL     1     131.435   6.790 152.114  1.00  0.00    -0.504 OA
ATOM     13  H   UNL     1     130.751   6.128 151.764  1.00  0.00     0.293 HD
ENDBRANCH   9  12
BRANCH   8  14
ATOM     14  O   UNL     1     133.166   8.010 150.245  1.00  0.00    -0.504 OA
ATOM     15  H   UNL     1     133.822   7.413 150.735  1.00  0.00     0.293 HD
ENDBRANCH   8  14
TORSDOF 2
ENDMDL
MODEL 8
REMARK VINA RESULT:    -3.789     11.779     13.571
REMARK INTER + INTRA:          -4.011
REMARK INTER:                  -4.011
REMARK INTRA:                   0.000
REMARK UNBOUND:                 0.000
REMARK SMILES O=c1ccc2cc(O)c(O)cc2o1
REMARK SMILES IDX 4 1 3 2 2 3 1 4 13 5 12 6 11 7 9 8 7 9 6 10 5 11 8 12 10 14
REMARK H PARENT 8 13 10 15
REMARK Flexibility Score: inf
ROOT
ATOM      1  C   UNL     1     120.942   2.170 143.421  1.00  0.00     0.019 A 
ATOM      2  C   UNL     1     121.956   2.584 142.557  1.00  0.00     0.094 A 
ATOM      3  C   UNL     1     121.762   3.736 141.788  1.00  0.00     0.336 A 
ATOM      4  O   UNL     1     122.666   4.126 141.003  1.00  0.00    -0.246 OA
ATOM      5  O   UNL     1     120.628   4.426 141.880  1.00  0.00    -0.423 OA
ATOM      6  C   UNL     1     119.636   4.066 142.691  1.00  0.00     0.142 A 
ATOM      7  C   UNL     1     118.466   4.829 142.746  1.00  0.00     0.098 A 
ATOM      8  C   UNL     1     117.417   4.458 143.595  1.00  0.00     0.161 A 
ATOM      9  C   UNL     1     117.540   3.310 144.401  1.00  0.00     0.158 A 
ATOM     10  C   UNL     1     118.712   2.541 144.349  1.00  0.00     0.062 A 
ATOM     11  C   UNL     1     119.760   2.914 143.497  1.00  0.00     0.022 A 
ENDROOT
BRANCH   9  12
ATOM     12  O   UNL     1     116.497   2.938 145.248  1.00  0.00    -0.504 OA
ATOM     13  H   UNL     1     116.056   3.603 145.872  1.00  0.00     0.293 HD
ENDBRANCH   9  12
BRANCH   8  14
ATOM     14  O   UNL     1     116.264   5.240 143.628  1.00  0.00    -0.504 OA
ATOM     15  H   UNL     1     116.220   6.113 144.139  1.00  0.00     0.293 HD
ENDBRANCH   8  14
TORSDOF 2
ENDMDL
