MODEL 1
REMARK VINA RESULT:    -8.159      0.000      0.000
REMARK INTER + INTRA:         -10.027
REMARK INTER:                  -9.828
REMARK INTRA:                  -0.199
REMARK UNBOUND:                -0.199
REMARK SMILES O=c1c(O)c(-c2ccc(O)c(O)c2)oc2cc(O)cc(O)c12
REMARK SMILES IDX 5 1 3 2 2 3 1 4 22 5 20 6 19 7 17 8 16 9 15 10 14 11 6 12
REMARK SMILES IDX 7 13 8 14 9 15 13 16 11 17 10 18 12 20 4 22 21 24 18 26
REMARK H PARENT 10 19 12 21 4 23 21 25 18 27
REMARK Flexibility Score: inf
ROOT
ATOM      1  C   UNL     1     -34.784  -3.912 -17.187  1.00  0.00     0.180 A 
ATOM      2  C   UNL     1     -35.735  -3.027 -16.651  1.00  0.00     0.208 A 
ATOM      3  C   UNL     1     -36.820  -3.548 -15.928  1.00  0.00     0.238 A 
ATOM      4  O   UNL     1     -37.639  -2.749 -15.405  1.00  0.00    -0.285 OA
ATOM      5  C   UNL     1     -36.950  -4.949 -15.765  1.00  0.00     0.111 A 
ATOM      6  C   UNL     1     -38.029  -5.589 -15.087  1.00  0.00     0.134 A 
ATOM      7  C   UNL     1     -37.988  -6.973 -14.873  1.00  0.00     0.093 A 
ATOM      8  C   UNL     1     -36.936  -7.746 -15.369  1.00  0.00     0.123 A 
ATOM      9  C   UNL     1     -35.906  -7.139 -16.084  1.00  0.00     0.094 A 
ATOM     10  C   UNL     1     -35.903  -5.756 -16.283  1.00  0.00     0.146 A 
ATOM     11  O   UNL     1     -34.897  -5.215 -16.961  1.00  0.00    -0.452 OA
ENDROOT
BRANCH   1  12
ATOM     12  C   UNL     1     -33.626  -3.438 -17.981  1.00  0.00     0.025 A 
ATOM     13  C   UNL     1     -32.316  -3.508 -17.476  1.00  0.00     0.016 A 
ATOM     14  C   UNL     1     -31.242  -3.032 -18.232  1.00  0.00     0.051 A 
ATOM     15  C   UNL     1     -31.461  -2.468 -19.496  1.00  0.00     0.157 A 
ATOM     16  C   UNL     1     -33.843  -2.853 -19.238  1.00  0.00     0.062 A 
ATOM     17  C   UNL     1     -32.769  -2.375 -19.999  1.00  0.00     0.158 A 
BRANCH  15  18
ATOM     18  O   UNL     1     -30.387  -1.996 -20.249  1.00  0.00    -0.504 OA
ATOM     19  H   UNL     1     -30.190  -2.356 -21.175  1.00  0.00     0.293 HD
ENDBRANCH  15  18
BRANCH  17  20
ATOM     20  O   UNL     1     -33.023  -1.813 -21.249  1.00  0.00    -0.504 OA
ATOM     21  H   UNL     1     -33.965  -1.666 -21.592  1.00  0.00     0.293 HD
ENDBRANCH  17  20
ENDBRANCH   1  12
BRANCH   2  22
ATOM     22  O   UNL     1     -35.577  -1.646 -16.805  1.00  0.00    -0.502 OA
ATOM     23  H   UNL     1     -35.194  -1.058 -16.074  1.00  0.00     0.293 HD
ENDBRANCH   2  22
BRANCH   6  24
ATOM     24  O   UNL     1     -39.171  -4.922 -14.632  1.00  0.00    -0.507 OA
ATOM     25  H   UNL     1     -39.190  -4.279 -13.855  1.00  0.00     0.293 HD
ENDBRANCH   6  24
BRANCH   8  26
ATOM     26  O   UNL     1     -36.909  -9.125 -15.165  1.00  0.00    -0.508 OA
ATOM     27  H   UNL     1     -37.282  -9.769 -15.853  1.00  0.00     0.293 HD
ENDBRANCH   8  26
TORSDOF 6
ENDMDL
MODEL 2
REMARK VINA RESULT:    -8.139      1.909      7.020
REMARK INTER + INTRA:         -10.004
REMARK INTER:                  -9.782
REMARK INTRA:                  -0.221
REMARK UNBOUND:                -0.199
REMARK SMILES O=c1c(O)c(-c2ccc(O)c(O)c2)oc2cc(O)cc(O)c12
REMARK SMILES IDX 5 1 3 2 2 3 1 4 22 5 20 6 19 7 17 8 16 9 15 10 14 11 6 12
REMARK SMILES IDX 7 13 8 14 9 15 13 16 11 17 10 18 12 20 4 22 21 24 18 26
REMARK H PARENT 10 19 12 21 4 23 21 25 18 27
REMARK Flexibility Score: inf
ROOT
ATOM      1  C   UNL     1     -36.032  -5.786 -16.456  1.00  0.00     0.180 A 
ATOM      2  C   UNL     1     -36.626  -5.145 -17.557  1.00  0.00     0.208 A 
ATOM      3  C   UNL     1     -35.842  -4.305 -18.362  1.00  0.00     0.238 A 
ATOM      4  O   UNL     1     -36.366  -3.777 -19.377  1.00  0.00    -0.285 OA
ATOM      5  C   UNL     1     -34.476  -4.103 -18.048  1.00  0.00     0.111 A 
ATOM      6  C   UNL     1     -33.597  -3.243 -18.772  1.00  0.00     0.134 A 
ATOM      7  C   UNL     1     -32.233  -3.221 -18.452  1.00  0.00     0.093 A 
ATOM      8  C   UNL     1     -31.730  -3.980 -17.393  1.00  0.00     0.123 A 
ATOM      9  C   UNL     1     -32.591  -4.778 -16.643  1.00  0.00     0.094 A 
ATOM     10  C   UNL     1     -33.949  -4.848 -16.961  1.00  0.00     0.146 A 
ATOM     11  O   UNL     1     -34.734  -5.629 -16.227  1.00  0.00    -0.452 OA
ENDROOT
BRANCH   1  12
ATOM     12  C   UNL     1     -36.801  -6.667 -15.547  1.00  0.00     0.025 A 
ATOM     13  C   UNL     1     -36.628  -8.062 -15.562  1.00  0.00     0.016 A 
ATOM     14  C   UNL     1     -37.383  -8.876 -14.713  1.00  0.00     0.051 A 
ATOM     15  C   UNL     1     -38.329  -8.311 -13.847  1.00  0.00     0.157 A 
ATOM     16  C   UNL     1     -37.765  -6.107 -14.694  1.00  0.00     0.062 A 
ATOM     17  C   UNL     1     -38.522  -6.919 -13.841  1.00  0.00     0.158 A 
BRANCH  15  18
ATOM     18  O   UNL     1     -39.078  -9.125 -13.000  1.00  0.00    -0.504 OA
ATOM     19  H   UNL     1     -38.774 -10.061 -12.759  1.00  0.00     0.293 HD
ENDBRANCH  15  18
BRANCH  17  20
ATOM     20  O   UNL     1     -39.461  -6.326 -12.998  1.00  0.00    -0.504 OA
ATOM     21  H   UNL     1     -40.456  -6.483 -13.105  1.00  0.00     0.293 HD
ENDBRANCH  17  20
ENDBRANCH   1  12
BRANCH   2  22
ATOM     22  O   UNL     1     -37.972  -5.375 -17.862  1.00  0.00    -0.502 OA
ATOM     23  H   UNL     1     -38.262  -5.911 -18.670  1.00  0.00     0.293 HD
ENDBRANCH   2  22
BRANCH   6  24
ATOM     24  O   UNL     1     -34.013  -2.375 -19.786  1.00  0.00    -0.507 OA
ATOM     25  H   UNL     1     -34.494  -2.661 -20.626  1.00  0.00     0.293 HD
ENDBRANCH   6  24
BRANCH   8  26
ATOM     26  O   UNL     1     -30.375  -3.941 -17.070  1.00  0.00    -0.508 OA
ATOM     27  H   UNL     1     -29.661  -3.900 -17.788  1.00  0.00     0.293 HD
ENDBRANCH   8  26
TORSDOF 6
ENDMDL
MODEL 3
REMARK VINA RESULT:    -7.753      1.351      3.050
REMARK INTER + INTRA:          -9.539
REMARK INTER:                  -9.290
REMARK INTRA:                  -0.249
REMARK UNBOUND:                -0.199
REMARK SMILES O=c1c(O)c(-c2ccc(O)c(O)c2)oc2cc(O)cc(O)c12
REMARK SMILES IDX 5 1 3 2 2 3 1 4 22 5 20 6 19 7 17 8 16 9 15 10 14 11 6 12
REMARK SMILES IDX 7 13 8 14 9 15 13 16 11 17 10 18 12 20 4 22 21 24 18 26
REMARK H PARENT 10 19 12 21 4 23 21 25 18 27
REMARK Flexibility Score: inf
ROOT
ATOM      1  C   UNL     1     -34.330  -3.861 -17.076  1.00  0.00     0.180 A 
ATOM      2  C   UNL     1     -34.514  -5.228 -16.807  1.00  0.00     0.208 A 
ATOM      3  C   UNL     1     -35.540  -5.619 -15.932  1.00  0.00     0.238 A 
ATOM      4  O   UNL     1     -35.734  -6.846 -15.737  1.00  0.00    -0.285 OA
ATOM      5  C   UNL     1     -36.359  -4.637 -15.324  1.00  0.00     0.111 A 
ATOM      6  C   UNL     1     -37.402  -4.916 -14.391  1.00  0.00     0.134 A 
ATOM      7  C   UNL     1     -38.233  -3.877 -13.953  1.00  0.00     0.093 A 
ATOM      8  C   UNL     1     -38.018  -2.561 -14.365  1.00  0.00     0.123 A 
ATOM      9  C   UNL     1     -36.966  -2.269 -15.230  1.00  0.00     0.094 A 
ATOM     10  C   UNL     1     -36.142  -3.289 -15.712  1.00  0.00     0.146 A 
ATOM     11  O   UNL     1     -35.156  -2.969 -16.543  1.00  0.00    -0.452 OA
ENDROOT
BRANCH   1  12
ATOM     12  C   UNL     1     -33.255  -3.371 -17.970  1.00  0.00     0.025 A 
ATOM     13  C   UNL     1     -31.905  -3.415 -17.580  1.00  0.00     0.016 A 
ATOM     14  C   UNL     1     -30.909  -2.924 -18.429  1.00  0.00     0.051 A 
ATOM     15  C   UNL     1     -31.247  -2.370 -19.671  1.00  0.00     0.157 A 
ATOM     16  C   UNL     1     -33.591  -2.796 -19.206  1.00  0.00     0.062 A 
ATOM     17  C   UNL     1     -32.596  -2.304 -20.059  1.00  0.00     0.158 A 
BRANCH  15  18
ATOM     18  O   UNL     1     -30.252  -1.884 -20.516  1.00  0.00    -0.504 OA
ATOM     19  H   UNL     1     -29.771  -2.488 -21.172  1.00  0.00     0.293 HD
ENDBRANCH  15  18
BRANCH  17  20
ATOM     20  O   UNL     1     -32.967  -1.753 -21.284  1.00  0.00    -0.504 OA
ATOM     21  H   UNL     1     -33.327  -2.321 -22.042  1.00  0.00     0.293 HD
ENDBRANCH  17  20
ENDBRANCH   1  12
BRANCH   2  22
ATOM     22  O   UNL     1     -33.708  -6.183 -17.435  1.00  0.00    -0.502 OA
ATOM     23  H   UNL     1     -33.931  -7.171 -17.430  1.00  0.00     0.293 HD
ENDBRANCH   2  22
BRANCH   6  24
ATOM     24  O   UNL     1     -37.643  -6.180 -13.844  1.00  0.00    -0.507 OA
ATOM     25  H   UNL     1     -38.241  -6.880 -14.258  1.00  0.00     0.293 HD
ENDBRANCH   6  24
BRANCH   8  26
ATOM     26  O   UNL     1     -38.840  -1.530 -13.913  1.00  0.00    -0.508 OA
ATOM     27  H   UNL     1     -39.747  -1.718 -13.501  1.00  0.00     0.293 HD
ENDBRANCH   8  26
TORSDOF 6
ENDMDL
MODEL 4
REMARK VINA RESULT:    -7.704      1.827      6.866
REMARK INTER + INTRA:          -9.480
REMARK INTER:                  -9.244
REMARK INTRA:                  -0.235
REMARK UNBOUND:                -0.199
REMARK SMILES O=c1c(O)c(-c2ccc(O)c(O)c2)oc2cc(O)cc(O)c12
REMARK SMILES IDX 5 1 3 2 2 3 1 4 22 5 20 6 19 7 17 8 16 9 15 10 14 11 6 12
REMARK SMILES IDX 7 13 8 14 9 15 13 16 11 17 10 18 12 20 4 22 21 24 18 26
REMARK H PARENT 10 19 12 21 4 23 21 25 18 27
REMARK Flexibility Score: inf
ROOT
ATOM      1  C   UNL     1     -34.803  -4.885 -16.910  1.00  0.00     0.180 A 
ATOM      2  C   UNL     1     -35.529  -4.280 -17.951  1.00  0.00     0.208 A 
ATOM      3  C   UNL     1     -34.850  -3.472 -18.876  1.00  0.00     0.238 A 
ATOM      4  O   UNL     1     -35.496  -2.978 -19.836  1.00  0.00    -0.285 OA
ATOM      5  C   UNL     1     -33.456  -3.264 -18.739  1.00  0.00     0.111 A 
ATOM      6  C   UNL     1     -32.673  -2.432 -19.595  1.00  0.00     0.134 A 
ATOM      7  C   UNL     1     -31.281  -2.403 -19.446  1.00  0.00     0.093 A 
ATOM      8  C   UNL     1     -30.651  -3.126 -18.431  1.00  0.00     0.123 A 
ATOM      9  C   UNL     1     -31.412  -3.895 -17.553  1.00  0.00     0.094 A 
ATOM     10  C   UNL     1     -32.799  -3.971 -17.699  1.00  0.00     0.146 A 
ATOM     11  O   UNL     1     -33.486  -4.724 -16.848  1.00  0.00    -0.452 OA
ENDROOT
BRANCH   1  12
ATOM     12  C   UNL     1     -35.453  -5.731 -15.883  1.00  0.00     0.025 A 
ATOM     13  C   UNL     1     -35.596  -5.290 -14.556  1.00  0.00     0.016 A 
ATOM     14  C   UNL     1     -36.191  -6.116 -13.598  1.00  0.00     0.051 A 
ATOM     15  C   UNL     1     -36.638  -7.397 -13.947  1.00  0.00     0.157 A 
ATOM     16  C   UNL     1     -35.884  -7.023 -16.224  1.00  0.00     0.062 A 
ATOM     17  C   UNL     1     -36.480  -7.853 -15.267  1.00  0.00     0.158 A 
BRANCH  15  18
ATOM     18  O   UNL     1     -37.233  -8.217 -12.990  1.00  0.00    -0.504 OA
ATOM     19  H   UNL     1     -38.232  -8.196 -12.821  1.00  0.00     0.293 HD
ENDBRANCH  15  18
BRANCH  17  20
ATOM     20  O   UNL     1     -36.908  -9.125 -15.646  1.00  0.00    -0.504 OA
ATOM     21  H   UNL     1     -37.425  -9.728 -15.017  1.00  0.00     0.293 HD
ENDBRANCH  17  20
ENDBRANCH   1  12
BRANCH   2  22
ATOM     22  O   UNL     1     -36.901  -4.517 -18.080  1.00  0.00    -0.502 OA
ATOM     23  H   UNL     1     -37.589  -4.066 -17.489  1.00  0.00     0.293 HD
ENDBRANCH   2  22
BRANCH   6  24
ATOM     24  O   UNL     1     -33.212  -1.599 -20.581  1.00  0.00    -0.507 OA
ATOM     25  H   UNL     1     -32.902  -0.658 -20.770  1.00  0.00     0.293 HD
ENDBRANCH   6  24
BRANCH   8  26
ATOM     26  O   UNL     1     -29.266  -3.081 -18.278  1.00  0.00    -0.508 OA
ATOM     27  H   UNL     1     -28.712  -2.342 -18.696  1.00  0.00     0.293 HD
ENDBRANCH   8  26
TORSDOF 6
ENDMDL
MODEL 5
REMARK VINA RESULT:    -7.659      2.001      7.034
REMARK INTER + INTRA:          -9.426
REMARK INTER:                  -9.141
REMARK INTRA:                  -0.285
REMARK UNBOUND:                -0.199
REMARK SMILES O=c1c(O)c(-c2ccc(O)c(O)c2)oc2cc(O)cc(O)c12
REMARK SMILES IDX 5 1 3 2 2 3 1 4 22 5 20 6 19 7 17 8 16 9 15 10 14 11 6 12
REMARK SMILES IDX 7 13 8 14 9 15 13 16 11 17 10 18 12 20 4 22 21 24 18 26
REMARK H PARENT 10 19 12 21 4 23 21 25 18 27
REMARK Flexibility Score: inf
ROOT
ATOM      1  C   UNL     1     -36.847  -4.966 -16.243  1.00  0.00     0.180 A 
ATOM      2  C   UNL     1     -37.264  -4.392 -17.457  1.00  0.00     0.208 A 
ATOM      3  C   UNL     1     -36.305  -3.810 -18.301  1.00  0.00     0.238 A 
ATOM      4  O   UNL     1     -36.677  -3.346 -19.410  1.00  0.00    -0.285 OA
ATOM      5  C   UNL     1     -34.943  -3.794 -17.914  1.00  0.00     0.111 A 
ATOM      6  C   UNL     1     -33.892  -3.197 -18.672  1.00  0.00     0.134 A 
ATOM      7  C   UNL     1     -32.564  -3.355 -18.256  1.00  0.00     0.093 A 
ATOM      8  C   UNL     1     -32.255  -4.035 -17.076  1.00  0.00     0.123 A 
ATOM      9  C   UNL     1     -33.279  -4.571 -16.298  1.00  0.00     0.094 A 
ATOM     10  C   UNL     1     -34.611  -4.460 -16.705  1.00  0.00     0.146 A 
ATOM     11  O   UNL     1     -35.555  -4.995 -15.939  1.00  0.00    -0.452 OA
ENDROOT
BRANCH   1  12
ATOM     12  C   UNL     1     -37.803  -5.577 -15.291  1.00  0.00     0.025 A 
ATOM     13  C   UNL     1     -38.204  -4.902 -14.124  1.00  0.00     0.016 A 
ATOM     14  C   UNL     1     -39.088  -5.508 -13.227  1.00  0.00     0.051 A 
ATOM     15  C   UNL     1     -39.572  -6.800 -13.474  1.00  0.00     0.157 A 
ATOM     16  C   UNL     1     -38.275  -6.878 -15.524  1.00  0.00     0.062 A 
ATOM     17  C   UNL     1     -39.160  -7.489 -14.627  1.00  0.00     0.158 A 
BRANCH  15  18
ATOM     18  O   UNL     1     -40.455  -7.400 -12.579  1.00  0.00    -0.504 OA
ATOM     19  H   UNL     1     -41.423  -7.575 -12.824  1.00  0.00     0.293 HD
ENDBRANCH  15  18
BRANCH  17  20
ATOM     20  O   UNL     1     -39.618  -8.777 -14.899  1.00  0.00    -0.504 OA
ATOM     21  H   UNL     1     -39.933  -9.402 -14.166  1.00  0.00     0.293 HD
ENDBRANCH  17  20
ENDBRANCH   1  12
BRANCH   2  22
ATOM     22  O   UNL     1     -38.611  -4.438 -17.830  1.00  0.00    -0.502 OA
ATOM     23  H   UNL     1     -38.906  -4.631 -18.780  1.00  0.00     0.293 HD
ENDBRANCH   2  22
BRANCH   6  24
ATOM     24  O   UNL     1     -34.099  -2.419 -19.816  1.00  0.00    -0.507 OA
ATOM     25  H   UNL     1     -33.730  -2.632 -20.730  1.00  0.00     0.293 HD
ENDBRANCH   6  24
BRANCH   8  26
ATOM     26  O   UNL     1     -30.933  -4.175 -16.660  1.00  0.00    -0.508 OA
ATOM     27  H   UNL     1     -30.691  -4.717 -15.838  1.00  0.00     0.293 HD
ENDBRANCH   8  26
TORSDOF 6
ENDMDL
MODEL 6
REMARK VINA RESULT:    -7.590      2.991      6.779
REMARK INTER + INTRA:          -9.342
REMARK INTER:                  -9.152
REMARK INTRA:                  -0.190
REMARK UNBOUND:                -0.199
REMARK SMILES O=c1c(O)c(-c2ccc(O)c(O)c2)oc2cc(O)cc(O)c12
REMARK SMILES IDX 5 1 3 2 2 3 1 4 22 5 20 6 19 7 17 8 16 9 15 10 14 11 6 12
REMARK SMILES IDX 7 13 8 14 9 15 13 16 11 17 10 18 12 20 4 22 21 24 18 26
REMARK H PARENT 10 19 12 21 4 23 21 25 18 27
REMARK Flexibility Score: inf
ROOT
ATOM      1  C   UNL     1     -34.960  -3.039 -18.440  1.00  0.00     0.180 A 
ATOM      2  C   UNL     1     -34.455  -3.602 -17.256  1.00  0.00     0.208 A 
ATOM      3  C   UNL     1     -33.068  -3.762 -17.114  1.00  0.00     0.238 A 
ATOM      4  O   UNL     1     -32.618  -4.216 -16.031  1.00  0.00    -0.285 OA
ATOM      5  C   UNL     1     -32.203  -3.372 -18.166  1.00  0.00     0.111 A 
ATOM      6  C   UNL     1     -30.785  -3.525 -18.147  1.00  0.00     0.134 A 
ATOM      7  C   UNL     1     -30.018  -2.985 -19.188  1.00  0.00     0.093 A 
ATOM      8  C   UNL     1     -30.624  -2.355 -20.276  1.00  0.00     0.123 A 
ATOM      9  C   UNL     1     -32.012  -2.252 -20.332  1.00  0.00     0.094 A 
ATOM     10  C   UNL     1     -32.801  -2.750 -19.292  1.00  0.00     0.146 A 
ATOM     11  O   UNL     1     -34.121  -2.622 -19.380  1.00  0.00    -0.452 OA
ENDROOT
BRANCH   1  12
ATOM     12  C   UNL     1     -36.413  -2.861 -18.672  1.00  0.00     0.025 A 
ATOM     13  C   UNL     1     -37.166  -1.944 -17.918  1.00  0.00     0.016 A 
ATOM     14  C   UNL     1     -38.540  -1.811 -18.137  1.00  0.00     0.051 A 
ATOM     15  C   UNL     1     -39.183  -2.600 -19.100  1.00  0.00     0.157 A 
ATOM     16  C   UNL     1     -37.065  -3.664 -19.621  1.00  0.00     0.062 A 
ATOM     17  C   UNL     1     -38.441  -3.533 -19.843  1.00  0.00     0.158 A 
BRANCH  15  18
ATOM     18  O   UNL     1     -40.553  -2.463 -19.317  1.00  0.00    -0.504 OA
ATOM     19  H   UNL     1     -40.988  -2.779 -20.176  1.00  0.00     0.293 HD
ENDBRANCH  15  18
BRANCH  17  20
ATOM     20  O   UNL     1     -39.051  -4.338 -20.804  1.00  0.00    -0.504 OA
ATOM     21  H   UNL     1     -39.522  -5.202 -20.561  1.00  0.00     0.293 HD
ENDBRANCH  17  20
ENDBRANCH   1  12
BRANCH   2  22
ATOM     22  O   UNL     1     -35.325  -3.960 -16.220  1.00  0.00    -0.502 OA
ATOM     23  H   UNL     1     -36.061  -3.347 -15.892  1.00  0.00     0.293 HD
ENDBRANCH   2  22
BRANCH   6  24
ATOM     24  O   UNL     1     -30.087  -4.219 -17.153  1.00  0.00    -0.507 OA
ATOM     25  H   UNL     1     -30.382  -4.296 -16.192  1.00  0.00     0.293 HD
ENDBRANCH   6  24
BRANCH   8  26
ATOM     26  O   UNL     1     -29.855  -1.833 -21.315  1.00  0.00    -0.508 OA
ATOM     27  H   UNL     1     -29.373  -0.947 -21.223  1.00  0.00     0.293 HD
ENDBRANCH   8  26
TORSDOF 6
ENDMDL
MODEL 7
REMARK VINA RESULT:    -7.472      5.160      6.704
REMARK INTER + INTRA:          -9.201
REMARK INTER:                  -9.003
REMARK INTRA:                  -0.198
REMARK UNBOUND:                -0.199
REMARK SMILES O=c1c(O)c(-c2ccc(O)c(O)c2)oc2cc(O)cc(O)c12
REMARK SMILES IDX 5 1 3 2 2 3 1 4 22 5 20 6 19 7 17 8 16 9 15 10 14 11 6 12
REMARK SMILES IDX 7 13 8 14 9 15 13 16 11 17 10 18 12 20 4 22 21 24 18 26
REMARK H PARENT 10 19 12 21 4 23 21 25 18 27
REMARK Flexibility Score: inf
ROOT
ATOM      1  C   UNL     1     -37.782  -4.263 -12.708  1.00  0.00     0.180 A 
ATOM      2  C   UNL     1     -36.678  -4.918 -13.279  1.00  0.00     0.208 A 
ATOM      3  C   UNL     1     -36.832  -6.233 -13.747  1.00  0.00     0.238 A 
ATOM      4  O   UNL     1     -35.855  -6.794 -14.306  1.00  0.00    -0.285 OA
ATOM      5  C   UNL     1     -38.085  -6.882 -13.623  1.00  0.00     0.111 A 
ATOM      6  C   UNL     1     -38.344  -8.226 -14.026  1.00  0.00     0.134 A 
ATOM      7  C   UNL     1     -39.653  -8.722 -13.976  1.00  0.00     0.093 A 
ATOM      8  C   UNL     1     -40.699  -7.943 -13.477  1.00  0.00     0.123 A 
ATOM      9  C   UNL     1     -40.446  -6.649 -13.026  1.00  0.00     0.094 A 
ATOM     10  C   UNL     1     -39.157  -6.115 -13.096  1.00  0.00     0.146 A 
ATOM     11  O   UNL     1     -38.960  -4.874 -12.666  1.00  0.00    -0.452 OA
ENDROOT
BRANCH   1  12
ATOM     12  C   UNL     1     -37.690  -2.885 -12.171  1.00  0.00     0.025 A 
ATOM     13  C   UNL     1     -37.816  -2.627 -10.794  1.00  0.00     0.016 A 
ATOM     14  C   UNL     1     -37.751  -1.317 -10.313  1.00  0.00     0.051 A 
ATOM     15  C   UNL     1     -37.573  -0.245 -11.199  1.00  0.00     0.157 A 
ATOM     16  C   UNL     1     -37.533  -1.807 -13.056  1.00  0.00     0.062 A 
ATOM     17  C   UNL     1     -37.466  -0.493 -12.578  1.00  0.00     0.158 A 
BRANCH  15  18
ATOM     18  O   UNL     1     -37.506   1.060 -10.715  1.00  0.00    -0.504 OA
ATOM     19  H   UNL     1     -37.330   1.254  -9.736  1.00  0.00     0.293 HD
ENDBRANCH  15  18
BRANCH  17  20
ATOM     20  O   UNL     1     -37.296   0.551 -13.486  1.00  0.00    -0.504 OA
ATOM     21  H   UNL     1     -36.398   0.999 -13.628  1.00  0.00     0.293 HD
ENDBRANCH  17  20
ENDBRANCH   1  12
BRANCH   2  22
ATOM     22  O   UNL     1     -35.456  -4.251 -13.413  1.00  0.00    -0.502 OA
ATOM     23  H   UNL     1     -35.396  -3.253 -13.574  1.00  0.00     0.293 HD
ENDBRANCH   2  22
BRANCH   6  24
ATOM     24  O   UNL     1     -37.355  -9.118 -14.452  1.00  0.00    -0.507 OA
ATOM     25  H   UNL     1     -36.541  -8.860 -14.989  1.00  0.00     0.293 HD
ENDBRANCH   6  24
BRANCH   8  26
ATOM     26  O   UNL     1     -41.996  -8.448 -13.416  1.00  0.00    -0.508 OA
ATOM     27  H   UNL     1     -42.209  -9.299 -12.908  1.00  0.00     0.293 HD
ENDBRANCH   8  26
TORSDOF 6
ENDMDL
MODEL 8
REMARK VINA RESULT:    -7.402      2.232      4.310
REMARK INTER + INTRA:          -9.116
REMARK INTER:                  -8.860
REMARK INTRA:                  -0.256
REMARK UNBOUND:                -0.199
REMARK SMILES O=c1c(O)c(-c2ccc(O)c(O)c2)oc2cc(O)cc(O)c12
REMARK SMILES IDX 5 1 3 2 2 3 1 4 22 5 20 6 19 7 17 8 16 9 15 10 14 11 6 12
REMARK SMILES IDX 7 13 8 14 9 15 13 16 11 17 10 18 12 20 4 22 21 24 18 26
REMARK H PARENT 10 19 12 21 4 23 21 25 18 27
REMARK Flexibility Score: inf
ROOT
ATOM      1  C   UNL     1     -36.580  -5.450 -15.587  1.00  0.00     0.180 A 
ATOM      2  C   UNL     1     -36.939  -6.809 -15.558  1.00  0.00     0.208 A 
ATOM      3  C   UNL     1     -37.996  -7.217 -14.729  1.00  0.00     0.238 A 
ATOM      4  O   UNL     1     -38.348  -8.425 -14.749  1.00  0.00    -0.285 OA
ATOM      5  C   UNL     1     -38.670  -6.265 -13.926  1.00  0.00     0.111 A 
ATOM      6  C   UNL     1     -39.728  -6.573 -13.020  1.00  0.00     0.134 A 
ATOM      7  C   UNL     1     -40.409  -5.534 -12.374  1.00  0.00     0.093 A 
ATOM      8  C   UNL     1     -40.027  -4.202 -12.553  1.00  0.00     0.123 A 
ATOM      9  C   UNL     1     -38.957  -3.895 -13.391  1.00  0.00     0.094 A 
ATOM     10  C   UNL     1     -38.281  -4.908 -14.076  1.00  0.00     0.146 A 
ATOM     11  O   UNL     1     -37.273  -4.572 -14.873  1.00  0.00    -0.452 OA
ENDROOT
BRANCH   1  12
ATOM     12  C   UNL     1     -35.461  -4.948 -16.418  1.00  0.00     0.025 A 
ATOM     13  C   UNL     1     -35.582  -4.831 -17.813  1.00  0.00     0.016 A 
ATOM     14  C   UNL     1     -34.504  -4.379 -18.580  1.00  0.00     0.051 A 
ATOM     15  C   UNL     1     -33.288  -4.050 -17.966  1.00  0.00     0.157 A 
ATOM     16  C   UNL     1     -34.234  -4.637 -15.810  1.00  0.00     0.062 A 
ATOM     17  C   UNL     1     -33.152  -4.183 -16.574  1.00  0.00     0.158 A 
BRANCH  15  18
ATOM     18  O   UNL     1     -32.216  -3.597 -18.733  1.00  0.00    -0.504 OA
ATOM     19  H   UNL     1     -32.360  -3.051 -19.575  1.00  0.00     0.293 HD
ENDBRANCH  15  18
BRANCH  17  20
ATOM     20  O   UNL     1     -31.954  -3.871 -15.934  1.00  0.00    -0.504 OA
ATOM     21  H   UNL     1     -31.745  -4.196 -14.997  1.00  0.00     0.293 HD
ENDBRANCH  17  20
ENDBRANCH   1  12
BRANCH   2  22
ATOM     22  O   UNL     1     -36.275  -7.729 -16.376  1.00  0.00    -0.502 OA
ATOM     23  H   UNL     1     -36.762  -8.313 -17.044  1.00  0.00     0.293 HD
ENDBRANCH   2  22
BRANCH   6  24
ATOM     24  O   UNL     1     -40.127  -7.874 -12.699  1.00  0.00    -0.507 OA
ATOM     25  H   UNL     1     -39.512  -8.595 -12.352  1.00  0.00     0.293 HD
ENDBRANCH   6  24
BRANCH   8  26
ATOM     26  O   UNL     1     -40.699  -3.174 -11.895  1.00  0.00    -0.508 OA
ATOM     27  H   UNL     1     -41.707  -3.184 -11.789  1.00  0.00     0.293 HD
ENDBRANCH   8  26
TORSDOF 6
ENDMDL
MODEL 9
REMARK VINA RESULT:    -6.255      1.321      1.587
REMARK INTER + INTRA:          -7.734
REMARK INTER:                  -7.562
REMARK INTRA:                  -0.172
REMARK UNBOUND:                -0.199
REMARK SMILES O=c1c(O)c(-c2ccc(O)c(O)c2)oc2cc(O)cc(O)c12
REMARK SMILES IDX 5 1 3 2 2 3 1 4 22 5 20 6 19 7 17 8 16 9 15 10 14 11 6 12
REMARK SMILES IDX 7 13 8 14 9 15 13 16 11 17 10 18 12 20 4 22 21 24 18 26
REMARK H PARENT 10 19 12 21 4 23 21 25 18 27
REMARK Flexibility Score: inf
ROOT
ATOM      1  C   UNL     1     -35.541  -4.267 -15.947  1.00  0.00     0.180 A 
ATOM      2  C   UNL     1     -36.331  -3.257 -15.373  1.00  0.00     0.208 A 
ATOM      3  C   UNL     1     -37.432  -3.619 -14.581  1.00  0.00     0.238 A 
ATOM      4  O   UNL     1     -38.103  -2.712 -14.026  1.00  0.00    -0.285 OA
ATOM      5  C   UNL     1     -37.738  -4.988 -14.386  1.00  0.00     0.111 A 
ATOM      6  C   UNL     1     -38.852  -5.470 -13.635  1.00  0.00     0.134 A 
ATOM      7  C   UNL     1     -38.984  -6.844 -13.399  1.00  0.00     0.093 A 
ATOM      8  C   UNL     1     -38.077  -7.758 -13.941  1.00  0.00     0.123 A 
ATOM      9  C   UNL     1     -37.019  -7.302 -14.724  1.00  0.00     0.094 A 
ATOM     10  C   UNL     1     -36.842  -5.934 -14.948  1.00  0.00     0.146 A 
ATOM     11  O   UNL     1     -35.814  -5.541 -15.691  1.00  0.00    -0.452 OA
ENDROOT
BRANCH   1  12
ATOM     12  C   UNL     1     -34.378  -3.962 -16.814  1.00  0.00     0.025 A 
ATOM     13  C   UNL     1     -33.065  -4.251 -16.404  1.00  0.00     0.016 A 
ATOM     14  C   UNL     1     -31.982  -3.931 -17.228  1.00  0.00     0.051 A 
ATOM     15  C   UNL     1     -32.194  -3.307 -18.465  1.00  0.00     0.157 A 
ATOM     16  C   UNL     1     -34.584  -3.318 -18.044  1.00  0.00     0.062 A 
ATOM     17  C   UNL     1     -33.502  -2.996 -18.872  1.00  0.00     0.158 A 
BRANCH  15  18
ATOM     18  O   UNL     1     -31.112  -2.992 -19.285  1.00  0.00    -0.504 OA
ATOM     19  H   UNL     1     -30.177  -2.880 -18.910  1.00  0.00     0.293 HD
ENDBRANCH  15  18
BRANCH  17  20
ATOM     20  O   UNL     1     -33.747  -2.369 -20.093  1.00  0.00    -0.504 OA
ATOM     21  H   UNL     1     -33.477  -2.787 -20.976  1.00  0.00     0.293 HD
ENDBRANCH  17  20
ENDBRANCH   1  12
BRANCH   2  22
ATOM     22  O   UNL     1     -35.998  -1.911 -15.561  1.00  0.00    -0.502 OA
ATOM     23  H   UNL     1     -35.082  -1.541 -15.338  1.00  0.00     0.293 HD
ENDBRANCH   2  22
BRANCH   6  24
ATOM     24  O   UNL     1     -39.866  -4.650 -13.129  1.00  0.00    -0.507 OA
ATOM     25  H   UNL     1     -40.417  -4.011 -13.681  1.00  0.00     0.293 HD
ENDBRANCH   6  24
BRANCH   8  26
ATOM     26  O   UNL     1     -38.222  -9.125 -13.714  1.00  0.00    -0.508 OA
ATOM     27  H   UNL     1     -37.423  -9.718 -13.522  1.00  0.00     0.293 HD
ENDBRANCH   8  26
TORSDOF 6
ENDMDL
