MODEL 1
REMARK VINA RESULT:    -2.838      0.000      0.000
REMARK INTER + INTRA:          -3.349
REMARK INTER:                  -3.253
REMARK INTRA:                  -0.096
REMARK UNBOUND:                -0.096
REMARK SMILES COc1cc(C(C)=O)ccc1O
REMARK SMILES IDX 5 1 4 2 3 3 11 4 10 5 9 6 6 7 7 8 8 9 2 10 1 11 12 12
REMARK H PARENT 12 13
REMARK Flexibility Score: inf
ROOT
ATOM      1  C   UNL     1      10.628  14.735   1.348  1.00  0.00     0.021 A 
ATOM      2  C   UNL     1       9.270  14.463   1.605  1.00  0.00     0.062 A 
ATOM      3  C   UNL     1       8.359  15.506   1.866  1.00  0.00     0.161 A 
ATOM      4  C   UNL     1       8.818  16.835   1.870  1.00  0.00     0.157 A 
ATOM      5  C   UNL     1      10.163  17.109   1.615  1.00  0.00     0.051 A 
ATOM      6  C   UNL     1      11.063  16.073   1.357  1.00  0.00     0.016 A 
ENDROOT
BRANCH   1   7
ATOM      7  C   UNL     1      11.573  13.618   1.075  1.00  0.00     0.159 C 
ATOM      8  C   UNL     1      12.017  13.277  -0.317  1.00  0.00     0.093 C 
ATOM      9  O   UNL     1      12.023  12.929   2.030  1.00  0.00    -0.295 OA
ENDBRANCH   1   7
BRANCH   3  10
ATOM     10  O   UNL     1       7.000  15.260   2.125  1.00  0.00    -0.493 OA
ATOM     11  C   UNL     1       6.307  14.073   1.755  1.00  0.00     0.278 C 
ENDBRANCH   3  10
BRANCH   4  12
ATOM     12  O   UNL     1       7.951  17.897   2.123  1.00  0.00    -0.504 OA
ATOM     13  H   UNL     1       7.656  18.539   1.397  1.00  0.00     0.293 HD
ENDBRANCH   4  12
TORSDOF 3
ENDMDL
MODEL 2
REMARK VINA RESULT:    -2.323      1.216      4.363
REMARK INTER + INTRA:          -2.759
REMARK INTER:                  -2.988
REMARK INTRA:                   0.230
REMARK UNBOUND:                -0.096
REMARK SMILES COc1cc(C(C)=O)ccc1O
REMARK SMILES IDX 5 1 4 2 3 3 11 4 10 5 9 6 6 7 7 8 8 9 2 10 1 11 12 12
REMARK H PARENT 12 13
REMARK Flexibility Score: inf
ROOT
ATOM      1  C   UNL     1       8.791  15.603   2.117  1.00  0.00     0.021 A 
ATOM      2  C   UNL     1       9.518  14.396   2.105  1.00  0.00     0.062 A 
ATOM      3  C   UNL     1      10.927  14.399   2.102  1.00  0.00     0.161 A 
ATOM      4  C   UNL     1      11.612  15.626   2.109  1.00  0.00     0.157 A 
ATOM      5  C   UNL     1      10.896  16.825   2.122  1.00  0.00     0.051 A 
ATOM      6  C   UNL     1       9.500  16.818   2.125  1.00  0.00     0.016 A 
ENDROOT
BRANCH   1   7
ATOM      7  C   UNL     1       7.303  15.578   2.121  1.00  0.00     0.159 C 
ATOM      8  C   UNL     1       6.531  14.292   2.125  1.00  0.00     0.093 C 
ATOM      9  O   UNL     1       6.658  16.661   2.121  1.00  0.00    -0.295 OA
ENDBRANCH   1   7
BRANCH   3  10
ATOM     10  O   UNL     1      11.673  13.209   2.089  1.00  0.00    -0.493 OA
ATOM     11  C   UNL     1      12.660  12.882   1.116  1.00  0.00     0.278 C 
ENDBRANCH   3  10
BRANCH   4  12
ATOM     12  O   UNL     1      13.006  15.674   2.106  1.00  0.00    -0.504 OA
ATOM     13  H   UNL     1      13.522  16.380   1.594  1.00  0.00     0.293 HD
ENDBRANCH   4  12
TORSDOF 3
ENDMDL
MODEL 3
REMARK VINA RESULT:    -1.070      1.884      4.680
REMARK INTER + INTRA:          -1.323
REMARK INTER:                  -1.219
REMARK INTRA:                  -0.104
REMARK UNBOUND:                -0.096
REMARK SMILES COc1cc(C(C)=O)ccc1O
REMARK SMILES IDX 5 1 4 2 3 3 11 4 10 5 9 6 6 7 7 8 8 9 2 10 1 11 12 12
REMARK H PARENT 12 13
REMARK Flexibility Score: inf
ROOT
ATOM      1  C   UNL     1       9.640  14.960   1.304  1.00  0.00     0.021 A 
ATOM      2  C   UNL     1       9.695  14.649  -0.069  1.00  0.00     0.062 A 
ATOM      3  C   UNL     1      10.806  13.977  -0.616  1.00  0.00     0.161 A 
ATOM      4  C   UNL     1      11.873  13.614   0.225  1.00  0.00     0.157 A 
ATOM      5  C   UNL     1      11.823  13.920   1.587  1.00  0.00     0.051 A 
ATOM      6  C   UNL     1      10.720  14.586   2.125  1.00  0.00     0.016 A 
ENDROOT
BRANCH   1   7
ATOM      7  C   UNL     1       8.457  15.670   1.861  1.00  0.00     0.159 C 
ATOM      8  C   UNL     1       8.469  17.147   2.125  1.00  0.00     0.093 C 
ATOM      9  O   UNL     1       7.406  15.025   2.125  1.00  0.00    -0.295 OA
ENDBRANCH   1   7
BRANCH   3  10
ATOM     10  O   UNL     1      10.884  13.656  -1.981  1.00  0.00    -0.493 OA
ATOM     11  C   UNL     1      10.648  14.575  -3.043  1.00  0.00     0.278 C 
ENDBRANCH   3  10
BRANCH   4  12
ATOM     12  O   UNL     1      12.992  12.948  -0.274  1.00  0.00    -0.504 OA
ATOM     13  H   UNL     1      13.336  13.101  -1.215  1.00  0.00     0.293 HD
ENDBRANCH   4  12
TORSDOF 3
ENDMDL
MODEL 4
REMARK VINA RESULT:    -0.525      1.672      4.379
REMARK INTER + INTRA:          -0.698
REMARK INTER:                  -0.586
REMARK INTRA:                  -0.112
REMARK UNBOUND:                -0.096
REMARK SMILES COc1cc(C(C)=O)ccc1O
REMARK SMILES IDX 5 1 4 2 3 3 11 4 10 5 9 6 6 7 7 8 8 9 2 10 1 11 12 12
REMARK H PARENT 12 13
REMARK Flexibility Score: inf
ROOT
ATOM      1  C   UNL     1       9.592  16.788   1.404  1.00  0.00     0.021 A 
ATOM      2  C   UNL     1       9.622  15.467   0.918  1.00  0.00     0.062 A 
ATOM      3  C   UNL     1      10.785  14.678   1.033  1.00  0.00     0.161 A 
ATOM      4  C   UNL     1      11.928  15.225   1.641  1.00  0.00     0.157 A 
ATOM      5  C   UNL     1      11.903  16.534   2.125  1.00  0.00     0.051 A 
ATOM      6  C   UNL     1      10.749  17.312   2.010  1.00  0.00     0.016 A 
ENDROOT
BRANCH   1   7
ATOM      7  C   UNL     1       8.353  17.603   1.274  1.00  0.00     0.159 C 
ATOM      8  C   UNL     1       8.160  18.579   0.151  1.00  0.00     0.093 C 
ATOM      9  O   UNL     1       7.430  17.481   2.124  1.00  0.00    -0.295 OA
ENDBRANCH   1   7
BRANCH   3  10
ATOM     10  O   UNL     1      10.839  13.358   0.555  1.00  0.00    -0.493 OA
ATOM     11  C   UNL     1      10.746  12.990  -0.817  1.00  0.00     0.278 C 
ENDBRANCH   3  10
BRANCH   4  12
ATOM     12  O   UNL     1      13.100  14.480   1.775  1.00  0.00    -0.504 OA
ATOM     13  H   UNL     1      13.703  14.562   2.585  1.00  0.00     0.293 HD
ENDBRANCH   4  12
TORSDOF 3
ENDMDL
MODEL 5
REMARK VINA RESULT:    -0.429      1.509      4.788
REMARK INTER + INTRA:          -0.588
REMARK INTER:                  -0.991
REMARK INTRA:                   0.403
REMARK UNBOUND:                -0.096
REMARK SMILES COc1cc(C(C)=O)ccc1O
REMARK SMILES IDX 5 1 4 2 3 3 11 4 10 5 9 6 6 7 7 8 8 9 2 10 1 11 12 12
REMARK H PARENT 12 13
REMARK Flexibility Score: inf
ROOT
ATOM      1  C   UNL     1       9.016  15.695   1.222  1.00  0.00     0.021 A 
ATOM      2  C   UNL     1      10.229  15.446   1.891  1.00  0.00     0.062 A 
ATOM      3  C   UNL     1      11.210  14.605   1.327  1.00  0.00     0.161 A 
ATOM      4  C   UNL     1      10.966  14.007   0.078  1.00  0.00     0.157 A 
ATOM      5  C   UNL     1       9.764  14.251  -0.589  1.00  0.00     0.051 A 
ATOM      6  C   UNL     1       8.796  15.085  -0.027  1.00  0.00     0.016 A 
ENDROOT
BRANCH   1   7
ATOM      7  C   UNL     1       7.994  16.587   1.835  1.00  0.00     0.159 C 
ATOM      8  C   UNL     1       8.274  18.032   2.125  1.00  0.00     0.093 C 
ATOM      9  O   UNL     1       6.855  16.130   2.124  1.00  0.00    -0.295 OA
ENDBRANCH   1   7
BRANCH   3  10
ATOM     10  O   UNL     1      12.427  14.342   1.976  1.00  0.00    -0.493 OA
ATOM     11  C   UNL     1      13.022  13.054   2.090  1.00  0.00     0.278 C 
ENDBRANCH   3  10
BRANCH   4  12
ATOM     12  O   UNL     1      11.908  13.168  -0.516  1.00  0.00    -0.504 OA
ATOM     13  H   UNL     1      12.648  12.724   0.015  1.00  0.00     0.293 HD
ENDBRANCH   4  12
TORSDOF 3
ENDMDL
