MODEL 1
REMARK VINA RESULT:    -5.155      0.000      0.000
REMARK INTER + INTRA:         -10.080
REMARK INTER:                  -9.072
REMARK INTRA:                  -1.007
REMARK UNBOUND:                -1.007
REMARK SMILES CCCCCCCCCCCCCCC(=O)[O-]
REMARK SMILES IDX 9 1 10 2 11 3 12 4 13 5 14 6 15 7 16 8 17 9 8 10 7 11 6 12
REMARK SMILES IDX 5 13 4 14 3 15 2 16 1 17
REMARK H PARENT
REMARK Flexibility Score: inf
ROOT
ATOM      1  C   UNL     1      30.503  -8.999  13.585  1.00  0.00     0.000 C 
ENDROOT
BRANCH   1   2
ATOM      2  C   UNL     1      31.393  -8.156  12.663  1.00  0.00     0.000 C 
BRANCH   2   3
ATOM      3  C   UNL     1      30.623  -6.952  12.103  1.00  0.00     0.000 C 
BRANCH   3   4
ATOM      4  C   UNL     1      31.409  -6.182  11.027  1.00  0.00     0.000 C 
BRANCH   4   5
ATOM      5  C   UNL     1      32.467  -5.205  11.571  1.00  0.00     0.006 C 
BRANCH   5   6
ATOM      6  C   UNL     1      33.796  -5.277  10.808  1.00  0.00     0.053 C 
BRANCH   6   7
ATOM      7  C   UNL     1      34.417  -6.628  10.965  1.00  0.00     0.041 C 
ATOM      8  O   UNL     1      34.596  -7.365   9.959  1.00  0.00    -0.550 OA
ATOM      9  O   UNL     1      34.753  -7.097  12.228  1.00  0.00    -0.550 OA
ENDBRANCH   6   7
ENDBRANCH   5   6
ENDBRANCH   4   5
ENDBRANCH   3   4
ENDBRANCH   2   3
ENDBRANCH   1   2
BRANCH   1  10
ATOM     10  C   UNL     1      30.435 -10.455  13.103  1.00  0.00     0.000 C 
BRANCH  10  11
ATOM     11  C   UNL     1      29.112 -11.147  13.477  1.00  0.00    -0.000 C 
BRANCH  11  12
ATOM     12  C   UNL     1      28.455 -10.635  14.776  1.00  0.00    -0.000 C 
BRANCH  12  13
ATOM     13  C   UNL     1      29.036 -11.219  16.079  1.00  0.00    -0.000 C 
BRANCH  13  14
ATOM     14  C   UNL     1      29.224 -12.747  16.085  1.00  0.00    -0.000 C 
BRANCH  14  15
ATOM     15  C   UNL     1      27.902 -13.511  15.894  1.00  0.00    -0.000 C 
BRANCH  15  16
ATOM     16  C   UNL     1      28.017 -14.635  14.853  1.00  0.00    -0.003 C 
ATOM     17  C   UNL     1      27.152 -14.390  13.617  1.00  0.00     0.004 C 
ENDBRANCH  15  16
ENDBRANCH  14  15
ENDBRANCH  13  14
ENDBRANCH  12  13
ENDBRANCH  11  12
ENDBRANCH  10  11
ENDBRANCH   1  10
TORSDOF 13
ENDMDL
MODEL 2
REMARK VINA RESULT:    -5.121      3.693      8.550
REMARK INTER + INTRA:         -10.020
REMARK INTER:                  -9.132
REMARK INTRA:                  -0.888
REMARK UNBOUND:                -1.007
REMARK SMILES CCCCCCCCCCCCCCC(=O)[O-]
REMARK SMILES IDX 9 1 10 2 11 3 12 4 13 5 14 6 15 7 16 8 17 9 8 10 7 11 6 12
REMARK SMILES IDX 5 13 4 14 3 15 2 16 1 17
REMARK H PARENT
REMARK Flexibility Score: inf
ROOT
ATOM      1  C   UNL     1      30.365 -10.382  13.198  1.00  0.00     0.000 C 
ENDROOT
BRANCH   1   2
ATOM      2  C   UNL     1      29.043 -11.023  13.638  1.00  0.00     0.000 C 
BRANCH   2   3
ATOM      3  C   UNL     1      28.268 -10.092  14.581  1.00  0.00     0.000 C 
BRANCH   3   4
ATOM      4  C   UNL     1      27.356 -10.853  15.561  1.00  0.00     0.000 C 
BRANCH   4   5
ATOM      5  C   UNL     1      27.873 -12.239  15.986  1.00  0.00     0.006 C 
BRANCH   5   6
ATOM      6  C   UNL     1      26.933 -13.379  15.576  1.00  0.00     0.053 C 
BRANCH   6   7
ATOM      7  C   UNL     1      27.634 -14.328  14.655  1.00  0.00     0.041 C 
ATOM      8  O   UNL     1      28.594 -15.026  15.075  1.00  0.00    -0.550 OA
ATOM      9  O   UNL     1      27.259 -14.405  13.320  1.00  0.00    -0.550 OA
ENDBRANCH   6   7
ENDBRANCH   5   6
ENDBRANCH   4   5
ENDBRANCH   3   4
ENDBRANCH   2   3
ENDBRANCH   1   2
BRANCH   1  10
ATOM     10  C   UNL     1      30.398  -8.888  13.550  1.00  0.00     0.000 C 
BRANCH  10  11
ATOM     11  C   UNL     1      31.269  -8.065  12.584  1.00  0.00    -0.000 C 
BRANCH  11  12
ATOM     12  C   UNL     1      30.615  -6.770  12.061  1.00  0.00    -0.000 C 
BRANCH  12  13
ATOM     13  C   UNL     1      31.440  -5.995  11.014  1.00  0.00    -0.000 C 
BRANCH  13  14
ATOM     14  C   UNL     1      32.717  -5.326  11.553  1.00  0.00    -0.000 C 
BRANCH  14  15
ATOM     15  C   UNL     1      33.831  -5.230  10.496  1.00  0.00    -0.000 C 
BRANCH  15  16
ATOM     16  C   UNL     1      34.736  -6.471  10.481  1.00  0.00    -0.003 C 
ATOM     17  C   UNL     1      34.836  -7.148  11.849  1.00  0.00     0.004 C 
ENDBRANCH  15  16
ENDBRANCH  14  15
ENDBRANCH  13  14
ENDBRANCH  12  13
ENDBRANCH  11  12
ENDBRANCH  10  11
ENDBRANCH   1  10
TORSDOF 13
ENDMDL
MODEL 3
REMARK VINA RESULT:    -5.003      1.414      2.341
REMARK INTER + INTRA:          -9.813
REMARK INTER:                  -8.368
REMARK INTRA:                  -1.445
REMARK UNBOUND:                -1.007
REMARK SMILES CCCCCCCCCCCCCCC(=O)[O-]
REMARK SMILES IDX 9 1 10 2 11 3 12 4 13 5 14 6 15 7 16 8 17 9 8 10 7 11 6 12
REMARK SMILES IDX 5 13 4 14 3 15 2 16 1 17
REMARK H PARENT
REMARK Flexibility Score: inf
ROOT
ATOM      1  C   UNL     1      30.960 -10.171  14.267  1.00  0.00     0.000 C 
ENDROOT
BRANCH   1   2
ATOM      2  C   UNL     1      31.806  -9.212  13.421  1.00  0.00     0.000 C 
BRANCH   2   3
ATOM      3  C   UNL     1      30.992  -8.650  12.247  1.00  0.00     0.000 C 
BRANCH   3   4
ATOM      4  C   UNL     1      30.607  -7.171  12.436  1.00  0.00     0.000 C 
BRANCH   4   5
ATOM      5  C   UNL     1      30.939  -6.256  11.244  1.00  0.00     0.006 C 
BRANCH   5   6
ATOM      6  C   UNL     1      32.263  -5.501  11.420  1.00  0.00     0.053 C 
BRANCH   6   7
ATOM      7  C   UNL     1      33.149  -5.717  10.235  1.00  0.00     0.041 C 
ATOM      8  O   UNL     1      34.399  -5.604  10.348  1.00  0.00    -0.550 OA
ATOM      9  O   UNL     1      32.594  -5.996   8.993  1.00  0.00    -0.550 OA
ENDBRANCH   6   7
ENDBRANCH   5   6
ENDBRANCH   4   5
ENDBRANCH   3   4
ENDBRANCH   2   3
ENDBRANCH   1   2
BRANCH   1  10
ATOM     10  C   UNL     1      30.814  -9.655  15.706  1.00  0.00     0.000 C 
BRANCH  10  11
ATOM     11  C   UNL     1      29.363  -9.292  16.066  1.00  0.00    -0.000 C 
BRANCH  11  12
ATOM     12  C   UNL     1      28.370  -9.334  14.887  1.00  0.00    -0.000 C 
BRANCH  12  13
ATOM     13  C   UNL     1      27.256 -10.394  15.003  1.00  0.00    -0.000 C 
BRANCH  13  14
ATOM     14  C   UNL     1      27.370 -11.572  14.018  1.00  0.00    -0.000 C 
BRANCH  14  15
ATOM     15  C   UNL     1      27.252 -12.941  14.710  1.00  0.00    -0.000 C 
BRANCH  15  16
ATOM     16  C   UNL     1      27.730 -12.904  16.169  1.00  0.00    -0.003 C 
ATOM     17  C   UNL     1      29.237 -13.128  16.305  1.00  0.00     0.004 C 
ENDBRANCH  15  16
ENDBRANCH  14  15
ENDBRANCH  13  14
ENDBRANCH  12  13
ENDBRANCH  11  12
ENDBRANCH  10  11
ENDBRANCH   1  10
TORSDOF 13
ENDMDL
MODEL 4
REMARK VINA RESULT:    -4.968      1.590      2.933
REMARK INTER + INTRA:          -9.751
REMARK INTER:                  -8.025
REMARK INTRA:                  -1.726
REMARK UNBOUND:                -1.007
REMARK SMILES CCCCCCCCCCCCCCC(=O)[O-]
REMARK SMILES IDX 9 1 10 2 11 3 12 4 13 5 14 6 15 7 16 8 17 9 8 10 7 11 6 12
REMARK SMILES IDX 5 13 4 14 3 15 2 16 1 17
REMARK H PARENT
REMARK Flexibility Score: inf
ROOT
ATOM      1  C   UNL     1      30.551  -7.944  13.041  1.00  0.00     0.000 C 
ENDROOT
BRANCH   1   2
ATOM      2  C   UNL     1      30.608  -6.753  12.077  1.00  0.00     0.000 C 
BRANCH   2   3
ATOM      3  C   UNL     1      31.061  -7.196  10.679  1.00  0.00     0.000 C 
BRANCH   3   4
ATOM      4  C   UNL     1      32.106  -6.252  10.058  1.00  0.00     0.000 C 
BRANCH   4   5
ATOM      5  C   UNL     1      32.892  -5.397  11.069  1.00  0.00     0.006 C 
BRANCH   5   6
ATOM      6  C   UNL     1      34.375  -5.778  11.150  1.00  0.00     0.053 C 
BRANCH   6   7
ATOM      7  C   UNL     1      34.531  -7.152  11.722  1.00  0.00     0.041 C 
ATOM      8  O   UNL     1      34.244  -7.374  12.928  1.00  0.00    -0.550 OA
ATOM      9  O   UNL     1      35.041  -8.178  10.936  1.00  0.00    -0.550 OA
ENDBRANCH   6   7
ENDBRANCH   5   6
ENDBRANCH   4   5
ENDBRANCH   3   4
ENDBRANCH   2   3
ENDBRANCH   1   2
BRANCH   1  10
ATOM     10  C   UNL     1      31.247  -9.174  12.439  1.00  0.00     0.000 C 
BRANCH  10  11
ATOM     11  C   UNL     1      30.896 -10.479  13.174  1.00  0.00    -0.000 C 
BRANCH  11  12
ATOM     12  C   UNL     1      29.389 -10.704  13.417  1.00  0.00    -0.000 C 
BRANCH  12  13
ATOM     13  C   UNL     1      29.046 -11.614  14.613  1.00  0.00    -0.000 C 
BRANCH  13  14
ATOM     14  C   UNL     1      28.387 -10.901  15.808  1.00  0.00    -0.000 C 
BRANCH  14  15
ATOM     15  C   UNL     1      28.322  -9.374  15.630  1.00  0.00    -0.000 C 
BRANCH  15  16
ATOM     16  C   UNL     1      29.143  -8.624  16.689  1.00  0.00    -0.003 C 
ATOM     17  C   UNL     1      30.629  -8.986  16.655  1.00  0.00     0.004 C 
ENDBRANCH  15  16
ENDBRANCH  14  15
ENDBRANCH  13  14
ENDBRANCH  12  13
ENDBRANCH  11  12
ENDBRANCH  10  11
ENDBRANCH   1  10
TORSDOF 13
ENDMDL
MODEL 5
REMARK VINA RESULT:    -4.960      1.530      3.036
REMARK INTER + INTRA:          -9.737
REMARK INTER:                  -8.237
REMARK INTRA:                  -1.500
REMARK UNBOUND:                -1.007
REMARK SMILES CCCCCCCCCCCCCCC(=O)[O-]
REMARK SMILES IDX 9 1 10 2 11 3 12 4 13 5 14 6 15 7 16 8 17 9 8 10 7 11 6 12
REMARK SMILES IDX 5 13 4 14 3 15 2 16 1 17
REMARK H PARENT
REMARK Flexibility Score: inf
ROOT
ATOM      1  C   UNL     1      28.776  -9.274  15.059  1.00  0.00     0.000 C 
ENDROOT
BRANCH   1   2
ATOM      2  C   UNL     1      29.764  -9.587  13.929  1.00  0.00     0.000 C 
BRANCH   2   3
ATOM      3  C   UNL     1      30.658  -8.376  13.628  1.00  0.00     0.000 C 
BRANCH   3   4
ATOM      4  C   UNL     1      31.611  -8.612  12.442  1.00  0.00     0.000 C 
BRANCH   4   5
ATOM      5  C   UNL     1      31.152  -7.998  11.108  1.00  0.00     0.006 C 
BRANCH   5   6
ATOM      6  C   UNL     1      30.959  -6.478  11.183  1.00  0.00     0.053 C 
BRANCH   6   7
ATOM      7  C   UNL     1      32.253  -5.774  10.927  1.00  0.00     0.041 C 
ATOM      8  O   UNL     1      32.851  -5.182  11.865  1.00  0.00    -0.550 OA
ATOM      9  O   UNL     1      32.777  -5.728   9.641  1.00  0.00    -0.550 OA
ENDBRANCH   6   7
ENDBRANCH   5   6
ENDBRANCH   4   5
ENDBRANCH   3   4
ENDBRANCH   2   3
ENDBRANCH   1   2
BRANCH   1  10
ATOM     10  C   UNL     1      27.559 -10.209  15.002  1.00  0.00     0.000 C 
BRANCH  10  11
ATOM     11  C   UNL     1      27.639 -11.224  13.848  1.00  0.00    -0.000 C 
BRANCH  11  12
ATOM     12  C   UNL     1      27.042 -12.611  14.158  1.00  0.00    -0.000 C 
BRANCH  12  13
ATOM     13  C   UNL     1      27.174 -13.070  15.624  1.00  0.00    -0.000 C 
BRANCH  13  14
ATOM     14  C   UNL     1      28.513 -13.738  15.983  1.00  0.00    -0.000 C 
BRANCH  14  15
ATOM     15  C   UNL     1      29.440 -12.817  16.795  1.00  0.00    -0.000 C 
BRANCH  15  16
ATOM     16  C   UNL     1      30.724 -12.457  16.033  1.00  0.00    -0.003 C 
ATOM     17  C   UNL     1      31.510 -11.325  16.697  1.00  0.00     0.004 C 
ENDBRANCH  15  16
ENDBRANCH  14  15
ENDBRANCH  13  14
ENDBRANCH  12  13
ENDBRANCH  11  12
ENDBRANCH  10  11
ENDBRANCH   1  10
TORSDOF 13
ENDMDL
MODEL 6
REMARK VINA RESULT:    -4.941      1.257      1.968
REMARK INTER + INTRA:          -9.703
REMARK INTER:                  -8.221
REMARK INTRA:                  -1.482
REMARK UNBOUND:                -1.007
REMARK SMILES CCCCCCCCCCCCCCC(=O)[O-]
REMARK SMILES IDX 9 1 10 2 11 3 12 4 13 5 14 6 15 7 16 8 17 9 8 10 7 11 6 12
REMARK SMILES IDX 5 13 4 14 3 15 2 16 1 17
REMARK H PARENT
REMARK Flexibility Score: inf
ROOT
ATOM      1  C   UNL     1      31.015  -9.607  12.345  1.00  0.00     0.000 C 
ENDROOT
BRANCH   1   2
ATOM      2  C   UNL     1      31.614  -8.211  12.556  1.00  0.00     0.000 C 
BRANCH   2   3
ATOM      3  C   UNL     1      30.640  -7.118  12.094  1.00  0.00     0.000 C 
BRANCH   3   4
ATOM      4  C   UNL     1      31.309  -6.048  11.213  1.00  0.00     0.000 C 
BRANCH   4   5
ATOM      5  C   UNL     1      32.632  -5.487  11.766  1.00  0.00     0.006 C 
BRANCH   5   6
ATOM      6  C   UNL     1      33.678  -5.237  10.673  1.00  0.00     0.053 C 
BRANCH   6   7
ATOM      7  C   UNL     1      33.968  -6.501   9.927  1.00  0.00     0.041 C 
ATOM      8  O   UNL     1      33.675  -6.598   8.706  1.00  0.00    -0.550 OA
ATOM      9  O   UNL     1      34.517  -7.590  10.592  1.00  0.00    -0.550 OA
ENDBRANCH   6   7
ENDBRANCH   5   6
ENDBRANCH   4   5
ENDBRANCH   3   4
ENDBRANCH   2   3
ENDBRANCH   1   2
BRANCH   1  10
ATOM     10  C   UNL     1      30.777 -10.313  13.688  1.00  0.00     0.000 C 
BRANCH  10  11
ATOM     11  C   UNL     1      31.108  -9.421  14.898  1.00  0.00    -0.000 C 
BRANCH  11  12
ATOM     12  C   UNL     1      29.901  -9.055  15.786  1.00  0.00    -0.000 C 
BRANCH  12  13
ATOM     13  C   UNL     1      28.547  -8.977  15.054  1.00  0.00    -0.000 C 
BRANCH  13  14
ATOM     14  C   UNL     1      27.528 -10.062  15.446  1.00  0.00    -0.000 C 
BRANCH  14  15
ATOM     15  C   UNL     1      27.185 -11.006  14.281  1.00  0.00    -0.000 C 
BRANCH  15  16
ATOM     16  C   UNL     1      27.751 -12.420  14.484  1.00  0.00    -0.003 C 
ATOM     17  C   UNL     1      28.374 -12.617  15.867  1.00  0.00     0.004 C 
ENDBRANCH  15  16
ENDBRANCH  14  15
ENDBRANCH  13  14
ENDBRANCH  12  13
ENDBRANCH  11  12
ENDBRANCH  10  11
ENDBRANCH   1  10
TORSDOF 13
ENDMDL
MODEL 7
REMARK VINA RESULT:    -4.878      3.675      8.001
REMARK INTER + INTRA:          -9.593
REMARK INTER:                  -8.103
REMARK INTRA:                  -1.490
REMARK UNBOUND:                -1.007
REMARK SMILES CCCCCCCCCCCCCCC(=O)[O-]
REMARK SMILES IDX 9 1 10 2 11 3 12 4 13 5 14 6 15 7 16 8 17 9 8 10 7 11 6 12
REMARK SMILES IDX 5 13 4 14 3 15 2 16 1 17
REMARK H PARENT
REMARK Flexibility Score: inf
ROOT
ATOM      1  C   UNL     1      30.742  -8.154  13.215  1.00  0.00     0.000 C 
ENDROOT
BRANCH   1   2
ATOM      2  C   UNL     1      30.969  -9.542  12.605  1.00  0.00     0.000 C 
BRANCH   2   3
ATOM      3  C   UNL     1      29.879 -10.526  13.052  1.00  0.00     0.000 C 
BRANCH   3   4
ATOM      4  C   UNL     1      29.444 -10.318  14.514  1.00  0.00     0.000 C 
BRANCH   4   5
ATOM      5  C   UNL     1      27.923 -10.226  14.732  1.00  0.00     0.006 C 
BRANCH   5   6
ATOM      6  C   UNL     1      27.145 -11.315  13.983  1.00  0.00     0.053 C 
BRANCH   6   7
ATOM      7  C   UNL     1      27.328 -12.641  14.651  1.00  0.00     0.041 C 
ATOM      8  O   UNL     1      27.615 -13.660  13.969  1.00  0.00    -0.550 OA
ATOM      9  O   UNL     1      27.132 -12.763  16.021  1.00  0.00    -0.550 OA
ENDBRANCH   6   7
ENDBRANCH   5   6
ENDBRANCH   4   5
ENDBRANCH   3   4
ENDBRANCH   2   3
ENDBRANCH   1   2
BRANCH   1  10
ATOM     10  C   UNL     1      30.628  -7.083  12.121  1.00  0.00     0.000 C 
BRANCH  10  11
ATOM     11  C   UNL     1      31.220  -7.539  10.775  1.00  0.00    -0.000 C 
BRANCH  11  12
ATOM     12  C   UNL     1      31.501  -6.403   9.770  1.00  0.00    -0.000 C 
BRANCH  12  13
ATOM     13  C   UNL     1      32.987  -6.032   9.597  1.00  0.00    -0.000 C 
BRANCH  13  14
ATOM     14  C   UNL     1      33.670  -5.467  10.856  1.00  0.00    -0.000 C 
BRANCH  14  15
ATOM     15  C   UNL     1      34.822  -6.354  11.357  1.00  0.00    -0.000 C 
BRANCH  15  16
ATOM     16  C   UNL     1      34.385  -7.303  12.484  1.00  0.00    -0.003 C 
ATOM     17  C   UNL     1      34.571  -8.778  12.123  1.00  0.00     0.004 C 
ENDBRANCH  15  16
ENDBRANCH  14  15
ENDBRANCH  13  14
ENDBRANCH  12  13
ENDBRANCH  11  12
ENDBRANCH  10  11
ENDBRANCH   1  10
TORSDOF 13
ENDMDL
MODEL 8
REMARK VINA RESULT:    -4.868      3.722      8.372
REMARK INTER + INTRA:          -9.575
REMARK INTER:                  -8.573
REMARK INTRA:                  -1.002
REMARK UNBOUND:                -1.007
REMARK SMILES CCCCCCCCCCCCCCC(=O)[O-]
REMARK SMILES IDX 9 1 10 2 11 3 12 4 13 5 14 6 15 7 16 8 17 9 8 10 7 11 6 12
REMARK SMILES IDX 5 13 4 14 3 15 2 16 1 17
REMARK H PARENT
REMARK Flexibility Score: inf
ROOT
ATOM      1  C   UNL     1      30.633  -9.325  13.238  1.00  0.00     0.000 C 
ENDROOT
BRANCH   1   2
ATOM      2  C   UNL     1      30.178  -8.680  14.553  1.00  0.00     0.000 C 
BRANCH   2   3
ATOM      3  C   UNL     1      29.407  -9.684  15.421  1.00  0.00     0.000 C 
BRANCH   3   4
ATOM      4  C   UNL     1      27.895  -9.692  15.133  1.00  0.00     0.000 C 
BRANCH   4   5
ATOM      5  C   UNL     1      27.368 -10.975  14.465  1.00  0.00     0.006 C 
BRANCH   5   6
ATOM      6  C   UNL     1      28.423 -12.086  14.388  1.00  0.00     0.053 C 
BRANCH   6   7
ATOM      7  C   UNL     1      28.052 -13.222  15.287  1.00  0.00     0.041 C 
ATOM      8  O   UNL     1      28.134 -13.095  16.538  1.00  0.00    -0.550 OA
ATOM      9  O   UNL     1      27.661 -14.439  14.745  1.00  0.00    -0.550 OA
ENDBRANCH   6   7
ENDBRANCH   5   6
ENDBRANCH   4   5
ENDBRANCH   3   4
ENDBRANCH   2   3
ENDBRANCH   1   2
BRANCH   1  10
ATOM     10  C   UNL     1      31.444  -8.334  12.390  1.00  0.00     0.000 C 
BRANCH  10  11
ATOM     11  C   UNL     1      30.668  -7.042  12.076  1.00  0.00    -0.000 C 
BRANCH  11  12
ATOM     12  C   UNL     1      31.391  -6.063  11.129  1.00  0.00    -0.000 C 
BRANCH  12  13
ATOM     13  C   UNL     1      32.699  -5.461  11.680  1.00  0.00    -0.000 C 
BRANCH  13  14
ATOM     14  C   UNL     1      33.812  -5.250  10.638  1.00  0.00    -0.000 C 
BRANCH  14  15
ATOM     15  C   UNL     1      34.229  -6.555   9.938  1.00  0.00    -0.000 C 
BRANCH  15  16
ATOM     16  C   UNL     1      35.142  -7.425  10.815  1.00  0.00    -0.003 C 
ATOM     17  C   UNL     1      36.496  -6.770  11.094  1.00  0.00     0.004 C 
ENDBRANCH  15  16
ENDBRANCH  14  15
ENDBRANCH  13  14
ENDBRANCH  12  13
ENDBRANCH  11  12
ENDBRANCH  10  11
ENDBRANCH   1  10
TORSDOF 13
ENDMDL
MODEL 9
REMARK VINA RESULT:    -4.850      3.451      7.932
REMARK INTER + INTRA:          -9.543
REMARK INTER:                  -7.980
REMARK INTRA:                  -1.563
REMARK UNBOUND:                -1.007
REMARK SMILES CCCCCCCCCCCCCCC(=O)[O-]
REMARK SMILES IDX 9 1 10 2 11 3 12 4 13 5 14 6 15 7 16 8 17 9 8 10 7 11 6 12
REMARK SMILES IDX 5 13 4 14 3 15 2 16 1 17
REMARK H PARENT
REMARK Flexibility Score: inf
ROOT
ATOM      1  C   UNL     1      30.624  -6.808  12.062  1.00  0.00     0.000 C 
ENDROOT
BRANCH   1   2
ATOM      2  C   UNL     1      31.560  -7.994  12.323  1.00  0.00     0.000 C 
BRANCH   2   3
ATOM      3  C   UNL     1      30.796  -9.173  12.941  1.00  0.00     0.000 C 
BRANCH   3   4
ATOM      4  C   UNL     1      30.482  -8.969  14.434  1.00  0.00     0.000 C 
BRANCH   4   5
ATOM      5  C   UNL     1      28.983  -8.907  14.780  1.00  0.00     0.006 C 
BRANCH   5   6
ATOM      6  C   UNL     1      28.579  -9.909  15.869  1.00  0.00     0.053 C 
BRANCH   6   7
ATOM      7  C   UNL     1      27.940 -11.116  15.257  1.00  0.00     0.041 C 
ATOM      8  O   UNL     1      27.594 -12.086  15.982  1.00  0.00    -0.550 OA
ATOM      9  O   UNL     1      27.771 -11.191  13.881  1.00  0.00    -0.550 OA
ENDBRANCH   6   7
ENDBRANCH   5   6
ENDBRANCH   4   5
ENDBRANCH   3   4
ENDBRANCH   2   3
ENDBRANCH   1   2
BRANCH   1  10
ATOM     10  C   UNL     1      31.368  -5.663  11.358  1.00  0.00     0.000 C 
BRANCH  10  11
ATOM     11  C   UNL     1      32.858  -5.598  11.738  1.00  0.00    -0.000 C 
BRANCH  11  12
ATOM     12  C   UNL     1      33.814  -5.290  10.567  1.00  0.00    -0.000 C 
BRANCH  12  13
ATOM     13  C   UNL     1      34.574  -6.507  10.004  1.00  0.00    -0.000 C 
BRANCH  13  14
ATOM     14  C   UNL     1      33.811  -7.321   8.943  1.00  0.00    -0.000 C 
BRANCH  14  15
ATOM     15  C   UNL     1      32.857  -6.456   8.102  1.00  0.00    -0.000 C 
BRANCH  15  16
ATOM     16  C   UNL     1      31.436  -7.038   8.042  1.00  0.00    -0.003 C 
ATOM     17  C   UNL     1      31.348  -8.450   8.621  1.00  0.00     0.004 C 
ENDBRANCH  15  16
ENDBRANCH  14  15
ENDBRANCH  13  14
ENDBRANCH  12  13
ENDBRANCH  11  12
ENDBRANCH  10  11
ENDBRANCH   1  10
TORSDOF 13
ENDMDL
