MODEL 1
REMARK VINA RESULT:    -3.735      0.000      0.000
REMARK INTER + INTRA:          -4.062
REMARK INTER:                  -4.062
REMARK INTRA:                   0.000
REMARK UNBOUND:                 0.000
REMARK SMILES [NH3+]CC(=O)[O-]
REMARK SMILES IDX 2 1 1 2 3 6 4 7 5 8
REMARK H PARENT 1 3 1 4 1 5
REMARK Flexibility Score: inf
ROOT
ATOM      1  C   UNL     1       2.993   2.781 -38.650  1.00  0.00     0.312 C 
ENDROOT
BRANCH   1   2
ATOM      2  N   UNL     1       2.794   4.194 -38.331  1.00  0.00    -0.353 N 
ATOM      3  H   UNL     1       2.579   4.287 -37.312  1.00  0.00     0.344 HD
ATOM      4  H   UNL     1       3.662   4.737 -38.546  1.00  0.00     0.344 HD
ATOM      5  H   UNL     1       1.991   4.577 -38.882  1.00  0.00     0.344 HD
ENDBRANCH   1   2
BRANCH   1   6
ATOM      6  C   UNL     1       1.817   1.969 -38.205  1.00  0.00     0.096 C 
ATOM      7  O   UNL     1       0.781   2.540 -37.773  1.00  0.00    -0.544 OA
ATOM      8  O   UNL     1       1.884   0.582 -38.219  1.00  0.00    -0.544 OA
ENDBRANCH   1   6
TORSDOF 2
ENDMDL
MODEL 2
REMARK VINA RESULT:    -3.735      2.620      2.914
REMARK INTER + INTRA:          -4.062
REMARK INTER:                  -4.062
REMARK INTRA:                   0.000
REMARK UNBOUND:                 0.000
REMARK SMILES [NH3+]CC(=O)[O-]
REMARK SMILES IDX 2 1 1 2 3 6 4 7 5 8
REMARK H PARENT 1 3 1 4 1 5
REMARK Flexibility Score: inf
ROOT
ATOM      1  C   UNL     1       2.315   0.981 -38.006  1.00  0.00     0.312 C 
ENDROOT
BRANCH   1   2
ATOM      2  N   UNL     1       1.846  -0.287 -38.562  1.00  0.00    -0.353 N 
ATOM      3  H   UNL     1       1.318  -0.809 -37.826  1.00  0.00     0.344 HD
ATOM      4  H   UNL     1       1.210  -0.110 -39.373  1.00  0.00     0.344 HD
ATOM      5  H   UNL     1       2.659  -0.868 -38.870  1.00  0.00     0.344 HD
ENDBRANCH   1   2
BRANCH   1   6
ATOM      6  C   UNL     1       2.301   2.053 -39.052  1.00  0.00     0.096 C 
ATOM      7  O   UNL     1       1.890   1.797 -40.214  1.00  0.00    -0.544 OA
ATOM      8  O   UNL     1       2.789   3.319 -38.756  1.00  0.00    -0.544 OA
ENDBRANCH   1   6
TORSDOF 2
ENDMDL
MODEL 3
REMARK VINA RESULT:    -3.653      1.226      1.625
REMARK INTER + INTRA:          -3.974
REMARK INTER:                  -3.974
REMARK INTRA:                   0.000
REMARK UNBOUND:                 0.000
REMARK SMILES [NH3+]CC(=O)[O-]
REMARK SMILES IDX 2 1 1 2 3 6 4 7 5 8
REMARK H PARENT 1 3 1 4 1 5
REMARK Flexibility Score: inf
ROOT
ATOM      1  C   UNL     1       3.207   2.752 -38.627  1.00  0.00     0.312 C 
ENDROOT
BRANCH   1   2
ATOM      2  N   UNL     1       3.060   4.165 -38.282  1.00  0.00    -0.353 N 
ATOM      3  H   UNL     1       3.933   4.674 -38.550  1.00  0.00     0.344 HD
ATOM      4  H   UNL     1       2.253   4.580 -38.802  1.00  0.00     0.344 HD
ATOM      5  H   UNL     1       2.910   4.270 -37.252  1.00  0.00     0.344 HD
ENDBRANCH   1   2
BRANCH   1   6
ATOM      6  C   UNL     1       1.917   2.202 -39.155  1.00  0.00     0.096 C 
ATOM      7  O   UNL     1       1.844   1.790 -40.342  1.00  0.00    -0.544 OA
ATOM      8  O   UNL     1       0.785   2.191 -38.350  1.00  0.00    -0.544 OA
ENDBRANCH   1   6
TORSDOF 2
ENDMDL
MODEL 4
REMARK VINA RESULT:    -3.476      2.138      2.311
REMARK INTER + INTRA:          -3.781
REMARK INTER:                  -3.781
REMARK INTRA:                   0.000
REMARK UNBOUND:                 0.000
REMARK SMILES [NH3+]CC(=O)[O-]
REMARK SMILES IDX 2 1 1 2 3 6 4 7 5 8
REMARK H PARENT 1 3 1 4 1 5
REMARK Flexibility Score: inf
ROOT
ATOM      1  C   UNL     1       1.088   1.972 -37.896  1.00  0.00     0.312 C 
ENDROOT
BRANCH   1   2
ATOM      2  N   UNL     1       0.122   2.999 -37.509  1.00  0.00    -0.353 N 
ATOM      3  H   UNL     1       0.453   3.467 -36.635  1.00  0.00     0.344 HD
ATOM      4  H   UNL     1       0.038   3.715 -38.267  1.00  0.00     0.344 HD
ATOM      5  H   UNL     1      -0.812   2.564 -37.328  1.00  0.00     0.344 HD
ENDBRANCH   1   2
BRANCH   1   6
ATOM      6  C   UNL     1       1.965   2.464 -39.006  1.00  0.00     0.096 C 
ATOM      7  O   UNL     1       2.757   3.423 -38.808  1.00  0.00    -0.544 OA
ATOM      8  O   UNL     1       1.870   1.898 -40.271  1.00  0.00    -0.544 OA
ENDBRANCH   1   6
TORSDOF 2
ENDMDL
MODEL 5
REMARK VINA RESULT:    -3.459      1.871      1.871
REMARK INTER + INTRA:          -3.762
REMARK INTER:                  -3.762
REMARK INTRA:                   0.000
REMARK UNBOUND:                 0.000
REMARK SMILES [NH3+]CC(=O)[O-]
REMARK SMILES IDX 2 1 1 2 3 6 4 7 5 8
REMARK H PARENT 1 3 1 4 1 5
REMARK Flexibility Score: inf
ROOT
ATOM      1  C   UNL     1       2.151   2.251 -39.706  1.00  0.00     0.312 C 
ENDROOT
BRANCH   1   2
ATOM      2  N   UNL     1       1.628   1.500 -40.846  1.00  0.00    -0.353 N 
ATOM      3  H   UNL     1       1.416   2.166 -41.624  1.00  0.00     0.344 HD
ATOM      4  H   UNL     1       2.340   0.809 -41.177  1.00  0.00     0.344 HD
ATOM      5  H   UNL     1       0.749   1.003 -40.577  1.00  0.00     0.344 HD
ENDBRANCH   1   2
BRANCH   1   6
ATOM      6  C   UNL     1       1.607   1.705 -38.421  1.00  0.00     0.096 C 
ATOM      7  O   UNL     1       0.667   2.298 -37.829  1.00  0.00    -0.544 OA
ATOM      8  O   UNL     1       2.172   0.570 -37.854  1.00  0.00    -0.544 OA
ENDBRANCH   1   6
TORSDOF 2
ENDMDL
MODEL 6
REMARK VINA RESULT:    -3.395      2.087      2.092
REMARK INTER + INTRA:          -3.692
REMARK INTER:                  -3.692
REMARK INTRA:                   0.000
REMARK UNBOUND:                 0.000
REMARK SMILES [NH3+]CC(=O)[O-]
REMARK SMILES IDX 2 1 1 2 3 6 4 7 5 8
REMARK H PARENT 1 3 1 4 1 5
REMARK Flexibility Score: inf
ROOT
ATOM      1  C   UNL     1       1.345   2.570 -37.838  1.00  0.00     0.312 C 
ENDROOT
BRANCH   1   2
ATOM      2  N   UNL     1      -0.104   2.744 -37.755  1.00  0.00    -0.353 N 
ATOM      3  H   UNL     1      -0.486   2.886 -38.718  1.00  0.00     0.344 HD
ATOM      4  H   UNL     1      -0.544   1.892 -37.338  1.00  0.00     0.344 HD
ATOM      5  H   UNL     1      -0.333   3.582 -37.173  1.00  0.00     0.344 HD
ENDBRANCH   1   2
BRANCH   1   6
ATOM      6  C   UNL     1       1.694   1.520 -38.848  1.00  0.00     0.096 C 
ATOM      7  O   UNL     1       1.798   1.824 -40.066  1.00  0.00    -0.544 OA
ATOM      8  O   UNL     1       1.853   0.199 -38.451  1.00  0.00    -0.544 OA
ENDBRANCH   1   6
TORSDOF 2
ENDMDL
MODEL 7
REMARK VINA RESULT:    -2.790      2.243      2.774
REMARK INTER + INTRA:          -3.035
REMARK INTER:                  -3.035
REMARK INTRA:                   0.000
REMARK UNBOUND:                 0.000
REMARK SMILES [NH3+]CC(=O)[O-]
REMARK SMILES IDX 2 1 1 2 3 6 4 7 5 8
REMARK H PARENT 1 3 1 4 1 5
REMARK Flexibility Score: inf
ROOT
ATOM      1  C   UNL     1       1.989   1.626 -39.137  1.00  0.00     0.312 C 
ENDROOT
BRANCH   1   2
ATOM      2  N   UNL     1       0.880   2.186 -39.910  1.00  0.00    -0.353 N 
ATOM      3  H   UNL     1       1.063   2.033 -40.928  1.00  0.00     0.344 HD
ATOM      4  H   UNL     1      -0.014   1.709 -39.651  1.00  0.00     0.344 HD
ATOM      5  H   UNL     1       0.800   3.213 -39.730  1.00  0.00     0.344 HD
ENDBRANCH   1   2
BRANCH   1   6
ATOM      6  C   UNL     1       2.918   2.711 -38.688  1.00  0.00     0.096 C 
ATOM      7  O   UNL     1       4.134   2.457 -38.481  1.00  0.00    -0.544 OA
ATOM      8  O   UNL     1       2.431   3.990 -38.449  1.00  0.00    -0.544 OA
ENDBRANCH   1   6
TORSDOF 2
ENDMDL
MODEL 8
REMARK VINA RESULT:    -2.059     18.613     18.865
REMARK INTER + INTRA:          -2.239
REMARK INTER:                  -2.239
REMARK INTRA:                   0.000
REMARK UNBOUND:                 0.000
REMARK SMILES [NH3+]CC(=O)[O-]
REMARK SMILES IDX 2 1 1 2 3 6 4 7 5 8
REMARK H PARENT 1 3 1 4 1 5
REMARK Flexibility Score: inf
ROOT
ATOM      1  C   UNL     1     -12.143  -1.771 -49.764  1.00  0.00     0.312 C 
ENDROOT
BRANCH   1   2
ATOM      2  N   UNL     1     -11.560  -2.382 -48.570  1.00  0.00    -0.353 N 
ATOM      3  H   UNL     1     -11.866  -1.845 -47.727  1.00  0.00     0.344 HD
ATOM      4  H   UNL     1     -11.886  -3.372 -48.479  1.00  0.00     0.344 HD
ATOM      5  H   UNL     1     -10.516  -2.356 -48.627  1.00  0.00     0.344 HD
ENDBRANCH   1   2
BRANCH   1   6
ATOM      6  C   UNL     1     -13.002  -0.602 -49.391  1.00  0.00     0.096 C 
ATOM      7  O   UNL     1     -13.028  -0.190 -48.201  1.00  0.00    -0.544 OA
ATOM      8  O   UNL     1     -13.811  -0.001 -50.346  1.00  0.00    -0.544 OA
ENDBRANCH   1   6
TORSDOF 2
ENDMDL
