MODEL 1
REMARK VINA RESULT:    -5.957      0.000      0.000
REMARK INTER + INTRA:         -15.358
REMARK INTER:                 -13.619
REMARK INTRA:                  -1.739
REMARK UNBOUND:                -1.739
REMARK SMILES CCCCCCCCCCCCCCCCCCCCCCCC(=O)[O-]
REMARK SMILES IDX 13 1 14 2 15 3 16 4 17 5 18 6 19 7 20 8 21 9 22 10 23 11
REMARK SMILES IDX 24 12 25 13 26 14 12 15 11 16 10 17 9 18 8 19 7 20 6 21 5 22
REMARK SMILES IDX 4 23 3 24 2 25 1 26
REMARK H PARENT
REMARK Flexibility Score: inf
ROOT
ATOM      1  C   UNL     1      -9.823  61.258  44.836  1.00  0.00     0.000 C 
ENDROOT
BRANCH   1   2
ATOM      2  C   UNL     1      -9.022  62.339  45.577  1.00  0.00     0.000 C 
BRANCH   2   3
ATOM      3  C   UNL     1      -9.229  62.288  47.105  1.00  0.00     0.000 C 
BRANCH   3   4
ATOM      4  C   UNL     1      -8.947  63.626  47.816  1.00  0.00     0.000 C 
BRANCH   4   5
ATOM      5  C   UNL     1      -8.196  63.506  49.155  1.00  0.00     0.000 C 
BRANCH   5   6
ATOM      6  C   UNL     1      -8.189  64.784  50.020  1.00  0.00     0.000 C 
BRANCH   6   7
ATOM      7  C   UNL     1      -6.794  65.270  50.453  1.00  0.00     0.000 C 
BRANCH   7   8
ATOM      8  C   UNL     1      -6.706  65.563  51.961  1.00  0.00     0.000 C 
BRANCH   8   9
ATOM      9  C   UNL     1      -7.576  64.614  52.799  1.00  0.00     0.000 C 
BRANCH   9  10
ATOM     10  C   UNL     1      -6.881  63.270  53.082  1.00  0.00     0.006 C 
BRANCH  10  11
ATOM     11  C   UNL     1      -7.625  62.444  54.138  1.00  0.00     0.053 C 
BRANCH  11  12
ATOM     12  C   UNL     1      -6.790  61.307  54.644  1.00  0.00     0.041 C 
ATOM     13  O   UNL     1      -6.242  60.513  53.834  1.00  0.00    -0.550 OA
ATOM     14  O   UNL     1      -6.598  61.138  56.010  1.00  0.00    -0.550 OA
ENDBRANCH  11  12
ENDBRANCH  10  11
ENDBRANCH   9  10
ENDBRANCH   8   9
ENDBRANCH   7   8
ENDBRANCH   6   7
ENDBRANCH   5   6
ENDBRANCH   4   5
ENDBRANCH   3   4
ENDBRANCH   2   3
ENDBRANCH   1   2
BRANCH   1  15
ATOM     15  C   UNL     1     -10.178  61.714  43.416  1.00  0.00     0.000 C 
BRANCH  15  16
ATOM     16  C   UNL     1      -9.712  63.157  43.168  1.00  0.00     0.000 C 
BRANCH  16  17
ATOM     17  C   UNL     1      -9.791  63.553  41.685  1.00  0.00     0.000 C 
BRANCH  17  18
ATOM     18  C   UNL     1     -10.102  62.357  40.770  1.00  0.00    -0.000 C 
BRANCH  18  19
ATOM     19  C   UNL     1      -9.863  62.677  39.279  1.00  0.00    -0.000 C 
BRANCH  19  20
ATOM     20  C   UNL     1     -11.146  63.045  38.510  1.00  0.00    -0.000 C 
BRANCH  20  21
ATOM     21  C   UNL     1     -12.406  63.209  39.381  1.00  0.00    -0.000 C 
BRANCH  21  22
ATOM     22  C   UNL     1     -13.732  62.862  38.678  1.00  0.00    -0.000 C 
BRANCH  22  23
ATOM     23  C   UNL     1     -14.415  61.614  39.265  1.00  0.00    -0.000 C 
BRANCH  23  24
ATOM     24  C   UNL     1     -13.792  60.304  38.737  1.00  0.00    -0.000 C 
BRANCH  24  25
ATOM     25  C   UNL     1     -12.782  59.665  39.706  1.00  0.00    -0.003 C 
ATOM     26  C   UNL     1     -13.025  60.047  41.164  1.00  0.00     0.004 C 
ENDBRANCH  24  25
ENDBRANCH  23  24
ENDBRANCH  22  23
ENDBRANCH  21  22
ENDBRANCH  20  21
ENDBRANCH  19  20
ENDBRANCH  18  19
ENDBRANCH  17  18
ENDBRANCH  16  17
ENDBRANCH  15  16
ENDBRANCH   1  15
TORSDOF 22
ENDMDL
MODEL 2
REMARK VINA RESULT:    -5.880      4.830     12.382
REMARK INTER + INTRA:         -15.181
REMARK INTER:                 -12.984
REMARK INTRA:                  -2.197
REMARK UNBOUND:                -1.739
REMARK SMILES CCCCCCCCCCCCCCCCCCCCCCCC(=O)[O-]
REMARK SMILES IDX 13 1 14 2 15 3 16 4 17 5 18 6 19 7 20 8 21 9 22 10 23 11
REMARK SMILES IDX 24 12 25 13 26 14 12 15 11 16 10 17 9 18 8 19 7 20 6 21 5 22
REMARK SMILES IDX 4 23 3 24 2 25 1 26
REMARK H PARENT
REMARK Flexibility Score: inf
ROOT
ATOM      1  C   UNL     1      -9.430  64.113  47.815  1.00  0.00     0.000 C 
ENDROOT
BRANCH   1   2
ATOM      2  C   UNL     1      -9.208  62.675  47.324  1.00  0.00     0.000 C 
BRANCH   2   3
ATOM      3  C   UNL     1      -8.859  62.608  45.822  1.00  0.00     0.000 C 
BRANCH   3   4
ATOM      4  C   UNL     1      -9.631  61.520  45.051  1.00  0.00     0.000 C 
BRANCH   4   5
ATOM      5  C   UNL     1     -10.120  61.936  43.651  1.00  0.00     0.000 C 
BRANCH   5   6
ATOM      6  C   UNL     1      -9.567  63.282  43.138  1.00  0.00     0.000 C 
BRANCH   6   7
ATOM      7  C   UNL     1     -10.102  63.724  41.763  1.00  0.00     0.000 C 
BRANCH   7   8
ATOM      8  C   UNL     1      -9.218  63.245  40.597  1.00  0.00     0.000 C 
BRANCH   8   9
ATOM      9  C   UNL     1      -9.632  61.861  40.072  1.00  0.00     0.000 C 
BRANCH   9  10
ATOM     10  C   UNL     1     -11.027  61.869  39.422  1.00  0.00     0.006 C 
BRANCH  10  11
ATOM     11  C   UNL     1     -11.985  60.880  40.097  1.00  0.00     0.053 C 
BRANCH  11  12
ATOM     12  C   UNL     1     -13.411  61.140  39.716  1.00  0.00     0.041 C 
ATOM     13  O   UNL     1     -14.289  60.256  39.901  1.00  0.00    -0.550 OA
ATOM     14  O   UNL     1     -13.774  62.368  39.177  1.00  0.00    -0.550 OA
ENDBRANCH  11  12
ENDBRANCH  10  11
ENDBRANCH   9  10
ENDBRANCH   8   9
ENDBRANCH   7   8
ENDBRANCH   6   7
ENDBRANCH   5   6
ENDBRANCH   4   5
ENDBRANCH   3   4
ENDBRANCH   2   3
ENDBRANCH   1   2
BRANCH   1  15
ATOM     15  C   UNL     1      -8.714  64.355  49.150  1.00  0.00     0.000 C 
BRANCH  15  16
ATOM     16  C   UNL     1      -7.751  63.202  49.474  1.00  0.00     0.000 C 
BRANCH  16  17
ATOM     17  C   UNL     1      -6.339  63.698  49.823  1.00  0.00     0.000 C 
BRANCH  17  18
ATOM     18  C   UNL     1      -6.192  65.221  49.667  1.00  0.00    -0.000 C 
BRANCH  18  19
ATOM     19  C   UNL     1      -5.689  65.900  50.960  1.00  0.00    -0.000 C 
BRANCH  19  20
ATOM     20  C   UNL     1      -6.755  65.990  52.068  1.00  0.00    -0.000 C 
BRANCH  20  21
ATOM     21  C   UNL     1      -6.643  64.922  53.171  1.00  0.00    -0.000 C 
BRANCH  21  22
ATOM     22  C   UNL     1      -7.910  64.071  53.384  1.00  0.00    -0.000 C 
BRANCH  22  23
ATOM     23  C   UNL     1      -7.599  62.591  53.668  1.00  0.00    -0.000 C 
BRANCH  23  24
ATOM     24  C   UNL     1      -6.163  62.205  53.256  1.00  0.00    -0.000 C 
BRANCH  24  25
ATOM     25  C   UNL     1      -5.391  61.441  54.345  1.00  0.00    -0.003 C 
ATOM     26  C   UNL     1      -6.261  61.056  55.540  1.00  0.00     0.004 C 
ENDBRANCH  24  25
ENDBRANCH  23  24
ENDBRANCH  22  23
ENDBRANCH  21  22
ENDBRANCH  20  21
ENDBRANCH  19  20
ENDBRANCH  18  19
ENDBRANCH  17  18
ENDBRANCH  16  17
ENDBRANCH  15  16
ENDBRANCH   1  15
TORSDOF 22
ENDMDL
MODEL 3
REMARK VINA RESULT:    -5.868      1.590      3.089
REMARK INTER + INTRA:         -15.153
REMARK INTER:                 -13.308
REMARK INTRA:                  -1.845
REMARK UNBOUND:                -1.739
REMARK SMILES CCCCCCCCCCCCCCCCCCCCCCCC(=O)[O-]
REMARK SMILES IDX 13 1 14 2 15 3 16 4 17 5 18 6 19 7 20 8 21 9 22 10 23 11
REMARK SMILES IDX 24 12 25 13 26 14 12 15 11 16 10 17 9 18 8 19 7 20 6 21 5 22
REMARK SMILES IDX 4 23 3 24 2 25 1 26
REMARK H PARENT
REMARK Flexibility Score: inf
ROOT
ATOM      1  C   UNL     1      -9.629  64.087  42.771  1.00  0.00     0.000 C 
ENDROOT
BRANCH   1   2
ATOM      2  C   UNL     1      -9.951  62.589  42.667  1.00  0.00     0.000 C 
BRANCH   2   3
ATOM      3  C   UNL     1      -9.964  61.888  44.043  1.00  0.00     0.000 C 
BRANCH   3   4
ATOM      4  C   UNL     1      -9.241  62.679  45.150  1.00  0.00     0.000 C 
BRANCH   4   5
ATOM      5  C   UNL     1      -9.281  62.029  46.546  1.00  0.00     0.000 C 
BRANCH   5   6
ATOM      6  C   UNL     1      -8.514  62.791  47.646  1.00  0.00     0.000 C 
BRANCH   6   7
ATOM      7  C   UNL     1      -9.301  63.931  48.319  1.00  0.00     0.000 C 
BRANCH   7   8
ATOM      8  C   UNL     1      -8.534  64.578  49.485  1.00  0.00     0.000 C 
BRANCH   8   9
ATOM      9  C   UNL     1      -7.112  64.017  49.641  1.00  0.00     0.000 C 
BRANCH   9  10
ATOM     10  C   UNL     1      -6.442  64.462  50.953  1.00  0.00     0.006 C 
BRANCH  10  11
ATOM     11  C   UNL     1      -6.621  63.430  52.074  1.00  0.00     0.053 C 
BRANCH  11  12
ATOM     12  C   UNL     1      -7.493  63.950  53.174  1.00  0.00     0.041 C 
ATOM     13  O   UNL     1      -7.971  65.114  53.110  1.00  0.00    -0.550 OA
ATOM     14  O   UNL     1      -7.799  63.140  54.261  1.00  0.00    -0.550 OA
ENDBRANCH  11  12
ENDBRANCH  10  11
ENDBRANCH   9  10
ENDBRANCH   8   9
ENDBRANCH   7   8
ENDBRANCH   6   7
ENDBRANCH   5   6
ENDBRANCH   4   5
ENDBRANCH   3   4
ENDBRANCH   2   3
ENDBRANCH   1   2
BRANCH   1  15
ATOM     15  C   UNL     1      -9.643  64.749  41.388  1.00  0.00     0.000 C 
BRANCH  15  16
ATOM     16  C   UNL     1      -8.677  64.040  40.428  1.00  0.00     0.000 C 
BRANCH  16  17
ATOM     17  C   UNL     1      -8.862  64.490  38.969  1.00  0.00     0.000 C 
BRANCH  17  18
ATOM     18  C   UNL     1      -9.971  63.707  38.246  1.00  0.00    -0.000 C 
BRANCH  18  19
ATOM     19  C   UNL     1     -10.183  62.299  38.842  1.00  0.00    -0.000 C 
BRANCH  19  20
ATOM     20  C   UNL     1     -11.621  62.043  39.332  1.00  0.00    -0.000 C 
BRANCH  20  21
ATOM     21  C   UNL     1     -11.838  60.695  40.044  1.00  0.00    -0.000 C 
BRANCH  21  22
ATOM     22  C   UNL     1     -13.279  60.153  39.985  1.00  0.00    -0.000 C 
BRANCH  22  23
ATOM     23  C   UNL     1     -13.881  60.197  38.569  1.00  0.00    -0.000 C 
BRANCH  23  24
ATOM     24  C   UNL     1     -15.424  60.215  38.589  1.00  0.00    -0.000 C 
BRANCH  24  25
ATOM     25  C   UNL     1     -16.024  61.616  38.799  1.00  0.00    -0.003 C 
ATOM     26  C   UNL     1     -15.119  62.738  38.295  1.00  0.00     0.004 C 
ENDBRANCH  24  25
ENDBRANCH  23  24
ENDBRANCH  22  23
ENDBRANCH  21  22
ENDBRANCH  20  21
ENDBRANCH  19  20
ENDBRANCH  18  19
ENDBRANCH  17  18
ENDBRANCH  16  17
ENDBRANCH  15  16
ENDBRANCH   1  15
TORSDOF 22
ENDMDL
MODEL 4
REMARK VINA RESULT:    -5.845      4.348     12.782
REMARK INTER + INTRA:         -15.101
REMARK INTER:                 -13.624
REMARK INTRA:                  -1.476
REMARK UNBOUND:                -1.739
REMARK SMILES CCCCCCCCCCCCCCCCCCCCCCCC(=O)[O-]
REMARK SMILES IDX 13 1 14 2 15 3 16 4 17 5 18 6 19 7 20 8 21 9 22 10 23 11
REMARK SMILES IDX 24 12 25 13 26 14 12 15 11 16 10 17 9 18 8 19 7 20 6 21 5 22
REMARK SMILES IDX 4 23 3 24 2 25 1 26
REMARK H PARENT
REMARK Flexibility Score: inf
ROOT
ATOM      1  C   UNL     1      -9.042  64.103  49.163  1.00  0.00     0.000 C 
ENDROOT
BRANCH   1   2
ATOM      2  C   UNL     1      -9.092  64.256  47.636  1.00  0.00     0.000 C 
BRANCH   2   3
ATOM      3  C   UNL     1      -9.000  62.902  46.901  1.00  0.00     0.000 C 
BRANCH   3   4
ATOM      4  C   UNL     1      -9.218  63.004  45.379  1.00  0.00     0.000 C 
BRANCH   4   5
ATOM      5  C   UNL     1      -9.594  61.681  44.685  1.00  0.00     0.000 C 
BRANCH   5   6
ATOM      6  C   UNL     1     -10.197  61.830  43.272  1.00  0.00     0.000 C 
BRANCH   6   7
ATOM      7  C   UNL     1      -9.661  63.023  42.458  1.00  0.00     0.000 C 
BRANCH   7   8
ATOM      8  C   UNL     1      -9.724  62.784  40.940  1.00  0.00     0.000 C 
BRANCH   8   9
ATOM      9  C   UNL     1     -10.245  61.383  40.582  1.00  0.00     0.000 C 
BRANCH   9  10
ATOM     10  C   UNL     1     -11.478  61.428  39.663  1.00  0.00     0.006 C 
BRANCH  10  11
ATOM     11  C   UNL     1     -12.336  60.163  39.782  1.00  0.00     0.053 C 
BRANCH  11  12
ATOM     12  C   UNL     1     -13.508  60.370  40.692  1.00  0.00     0.041 C 
ATOM     13  O   UNL     1     -13.369  60.273  41.940  1.00  0.00    -0.550 OA
ATOM     14  O   UNL     1     -14.751  60.695  40.161  1.00  0.00    -0.550 OA
ENDBRANCH  11  12
ENDBRANCH  10  11
ENDBRANCH   9  10
ENDBRANCH   8   9
ENDBRANCH   7   8
ENDBRANCH   6   7
ENDBRANCH   5   6
ENDBRANCH   4   5
ENDBRANCH   3   4
ENDBRANCH   2   3
ENDBRANCH   1   2
BRANCH   1  15
ATOM     15  C   UNL     1      -7.640  63.694  49.629  1.00  0.00     0.000 C 
BRANCH  15  16
ATOM     16  C   UNL     1      -6.650  64.860  49.484  1.00  0.00     0.000 C 
BRANCH  16  17
ATOM     17  C   UNL     1      -6.241  65.455  50.842  1.00  0.00     0.000 C 
BRANCH  17  18
ATOM     18  C   UNL     1      -6.256  64.412  51.972  1.00  0.00    -0.000 C 
BRANCH  18  19
ATOM     19  C   UNL     1      -7.009  64.910  53.224  1.00  0.00    -0.000 C 
BRANCH  19  20
ATOM     20  C   UNL     1      -8.231  64.048  53.596  1.00  0.00    -0.000 C 
BRANCH  20  21
ATOM     21  C   UNL     1      -7.918  62.809  54.455  1.00  0.00    -0.000 C 
BRANCH  21  22
ATOM     22  C   UNL     1      -7.541  61.544  53.660  1.00  0.00    -0.000 C 
BRANCH  22  23
ATOM     23  C   UNL     1      -6.127  61.029  53.984  1.00  0.00    -0.000 C 
BRANCH  23  24
ATOM     24  C   UNL     1      -5.909  60.832  55.499  1.00  0.00    -0.000 C 
BRANCH  24  25
ATOM     25  C   UNL     1      -5.928  59.358  55.940  1.00  0.00    -0.003 C 
ATOM     26  C   UNL     1      -4.598  58.890  56.528  1.00  0.00     0.004 C 
ENDBRANCH  24  25
ENDBRANCH  23  24
ENDBRANCH  22  23
ENDBRANCH  21  22
ENDBRANCH  20  21
ENDBRANCH  19  20
ENDBRANCH  18  19
ENDBRANCH  17  18
ENDBRANCH  16  17
ENDBRANCH  15  16
ENDBRANCH   1  15
TORSDOF 22
ENDMDL
MODEL 5
REMARK VINA RESULT:    -5.845      4.854     12.802
REMARK INTER + INTRA:         -15.100
REMARK INTER:                 -13.803
REMARK INTRA:                  -1.297
REMARK UNBOUND:                -1.739
REMARK SMILES CCCCCCCCCCCCCCCCCCCCCCCC(=O)[O-]
REMARK SMILES IDX 13 1 14 2 15 3 16 4 17 5 18 6 19 7 20 8 21 9 22 10 23 11
REMARK SMILES IDX 24 12 25 13 26 14 12 15 11 16 10 17 9 18 8 19 7 20 6 21 5 22
REMARK SMILES IDX 4 23 3 24 2 25 1 26
REMARK H PARENT
REMARK Flexibility Score: inf
ROOT
ATOM      1  C   UNL     1      -9.257  62.896  45.403  1.00  0.00     0.000 C 
ENDROOT
BRANCH   1   2
ATOM      2  C   UNL     1      -9.528  61.764  44.401  1.00  0.00     0.000 C 
BRANCH   2   3
ATOM      3  C   UNL     1     -10.046  62.285  43.043  1.00  0.00     0.000 C 
BRANCH   3   4
ATOM      4  C   UNL     1      -9.679  63.754  42.759  1.00  0.00     0.000 C 
BRANCH   4   5
ATOM      5  C   UNL     1      -9.958  64.228  41.321  1.00  0.00     0.000 C 
BRANCH   5   6
ATOM      6  C   UNL     1      -9.017  63.646  40.245  1.00  0.00     0.000 C 
BRANCH   6   7
ATOM      7  C   UNL     1      -9.639  62.552  39.358  1.00  0.00     0.000 C 
BRANCH   7   8
ATOM      8  C   UNL     1     -10.971  62.988  38.721  1.00  0.00     0.000 C 
BRANCH   8   9
ATOM      9  C   UNL     1     -12.162  62.147  39.207  1.00  0.00     0.000 C 
BRANCH   9  10
ATOM     10  C   UNL     1     -11.725  60.937  40.052  1.00  0.00     0.006 C 
BRANCH  10  11
ATOM     11  C   UNL     1     -12.829  59.879  40.163  1.00  0.00     0.053 C 
BRANCH  11  12
ATOM     12  C   UNL     1     -14.063  60.283  39.417  1.00  0.00     0.041 C 
ATOM     13  O   UNL     1     -14.218  59.945  38.214  1.00  0.00    -0.550 OA
ATOM     14  O   UNL     1     -15.056  61.014  40.060  1.00  0.00    -0.550 OA
ENDBRANCH  11  12
ENDBRANCH  10  11
ENDBRANCH   9  10
ENDBRANCH   8   9
ENDBRANCH   7   8
ENDBRANCH   6   7
ENDBRANCH   5   6
ENDBRANCH   4   5
ENDBRANCH   3   4
ENDBRANCH   2   3
ENDBRANCH   1   2
BRANCH   1  15
ATOM     15  C   UNL     1      -9.027  62.339  46.812  1.00  0.00     0.000 C 
BRANCH  15  16
ATOM     16  C   UNL     1      -9.053  63.463  47.860  1.00  0.00     0.000 C 
BRANCH  16  17
ATOM     17  C   UNL     1      -8.231  63.118  49.112  1.00  0.00     0.000 C 
BRANCH  17  18
ATOM     18  C   UNL     1      -7.817  64.368  49.909  1.00  0.00    -0.000 C 
BRANCH  18  19
ATOM     19  C   UNL     1      -6.687  64.075  50.918  1.00  0.00    -0.000 C 
BRANCH  19  20
ATOM     20  C   UNL     1      -6.857  64.800  52.267  1.00  0.00    -0.000 C 
BRANCH  20  21
ATOM     21  C   UNL     1      -6.614  63.927  53.513  1.00  0.00    -0.000 C 
BRANCH  21  22
ATOM     22  C   UNL     1      -7.822  63.082  53.961  1.00  0.00    -0.000 C 
BRANCH  22  23
ATOM     23  C   UNL     1      -7.656  61.584  53.649  1.00  0.00    -0.000 C 
BRANCH  23  24
ATOM     24  C   UNL     1      -6.260  61.056  54.042  1.00  0.00    -0.000 C 
BRANCH  24  25
ATOM     25  C   UNL     1      -6.095  60.808  55.551  1.00  0.00    -0.003 C 
ATOM     26  C   UNL     1      -6.302  59.347  55.946  1.00  0.00     0.004 C 
ENDBRANCH  24  25
ENDBRANCH  23  24
ENDBRANCH  22  23
ENDBRANCH  21  22
ENDBRANCH  20  21
ENDBRANCH  19  20
ENDBRANCH  18  19
ENDBRANCH  17  18
ENDBRANCH  16  17
ENDBRANCH  15  16
ENDBRANCH   1  15
TORSDOF 22
ENDMDL
MODEL 6
REMARK VINA RESULT:    -5.844      1.466      4.291
REMARK INTER + INTRA:         -15.100
REMARK INTER:                 -13.146
REMARK INTRA:                  -1.954
REMARK UNBOUND:                -1.739
REMARK SMILES CCCCCCCCCCCCCCCCCCCCCCCC(=O)[O-]
REMARK SMILES IDX 13 1 14 2 15 3 16 4 17 5 18 6 19 7 20 8 21 9 22 10 23 11
REMARK SMILES IDX 24 12 25 13 26 14 12 15 11 16 10 17 9 18 8 19 7 20 6 21 5 22
REMARK SMILES IDX 4 23 3 24 2 25 1 26
REMARK H PARENT
REMARK Flexibility Score: inf
ROOT
ATOM      1  C   UNL     1      -7.667  63.082  49.334  1.00  0.00     0.000 C 
ENDROOT
BRANCH   1   2
ATOM      2  C   UNL     1      -6.320  63.739  49.669  1.00  0.00     0.000 C 
BRANCH   2   3
ATOM      3  C   UNL     1      -6.443  65.260  49.900  1.00  0.00     0.000 C 
BRANCH   3   4
ATOM      4  C   UNL     1      -6.020  65.711  51.312  1.00  0.00     0.000 C 
BRANCH   4   5
ATOM      5  C   UNL     1      -7.113  65.583  52.390  1.00  0.00     0.000 C 
BRANCH   5   6
ATOM      6  C   UNL     1      -6.739  64.704  53.602  1.00  0.00     0.000 C 
BRANCH   6   7
ATOM      7  C   UNL     1      -7.662  63.494  53.838  1.00  0.00     0.000 C 
BRANCH   7   8
ATOM      8  C   UNL     1      -7.327  62.301  52.926  1.00  0.00     0.000 C 
BRANCH   8   9
ATOM      9  C   UNL     1      -6.680  61.136  53.691  1.00  0.00     0.000 C 
BRANCH   9  10
ATOM     10  C   UNL     1      -6.770  61.309  55.217  1.00  0.00     0.006 C 
BRANCH  10  11
ATOM     11  C   UNL     1      -5.518  60.790  55.934  1.00  0.00     0.053 C 
BRANCH  11  12
ATOM     12  C   UNL     1      -5.546  59.301  56.096  1.00  0.00     0.041 C 
ATOM     13  O   UNL     1      -6.646  58.691  56.166  1.00  0.00    -0.550 OA
ATOM     14  O   UNL     1      -4.357  58.584  56.146  1.00  0.00    -0.550 OA
ENDBRANCH  11  12
ENDBRANCH  10  11
ENDBRANCH   9  10
ENDBRANCH   8   9
ENDBRANCH   7   8
ENDBRANCH   6   7
ENDBRANCH   5   6
ENDBRANCH   4   5
ENDBRANCH   3   4
ENDBRANCH   2   3
ENDBRANCH   1   2
BRANCH   1  15
ATOM     15  C   UNL     1      -8.744  64.140  49.070  1.00  0.00     0.000 C 
BRANCH  15  16
ATOM     16  C   UNL     1      -9.275  64.038  47.632  1.00  0.00     0.000 C 
BRANCH  16  17
ATOM     17  C   UNL     1      -9.143  62.619  47.056  1.00  0.00     0.000 C 
BRANCH  17  18
ATOM     18  C   UNL     1      -8.911  62.618  45.535  1.00  0.00    -0.000 C 
BRANCH  18  19
ATOM     19  C   UNL     1      -9.573  61.410  44.839  1.00  0.00    -0.000 C 
BRANCH  19  20
ATOM     20  C   UNL     1     -10.251  61.760  43.501  1.00  0.00    -0.000 C 
BRANCH  20  21
ATOM     21  C   UNL     1      -9.851  63.121  42.902  1.00  0.00    -0.000 C 
BRANCH  21  22
ATOM     22  C   UNL     1      -9.934  63.206  41.366  1.00  0.00    -0.000 C 
BRANCH  22  23
ATOM     23  C   UNL     1      -9.704  61.850  40.675  1.00  0.00    -0.000 C 
BRANCH  23  24
ATOM     24  C   UNL     1     -10.830  61.502  39.679  1.00  0.00    -0.000 C 
BRANCH  24  25
ATOM     25  C   UNL     1     -12.120  61.003  40.353  1.00  0.00    -0.003 C 
ATOM     26  C   UNL     1     -12.612  59.669  39.795  1.00  0.00     0.004 C 
ENDBRANCH  24  25
ENDBRANCH  23  24
ENDBRANCH  22  23
ENDBRANCH  21  22
ENDBRANCH  20  21
ENDBRANCH  19  20
ENDBRANCH  18  19
ENDBRANCH  17  18
ENDBRANCH  16  17
ENDBRANCH  15  16
ENDBRANCH   1  15
TORSDOF 22
ENDMDL
MODEL 7
REMARK VINA RESULT:    -5.819      4.433     11.954
REMARK INTER + INTRA:         -15.041
REMARK INTER:                 -13.306
REMARK INTRA:                  -1.735
REMARK UNBOUND:                -1.739
REMARK SMILES CCCCCCCCCCCCCCCCCCCCCCCC(=O)[O-]
REMARK SMILES IDX 13 1 14 2 15 3 16 4 17 5 18 6 19 7 20 8 21 9 22 10 23 11
REMARK SMILES IDX 24 12 25 13 26 14 12 15 11 16 10 17 9 18 8 19 7 20 6 21 5 22
REMARK SMILES IDX 4 23 3 24 2 25 1 26
REMARK H PARENT
REMARK Flexibility Score: inf
ROOT
ATOM      1  C   UNL     1     -10.062  61.692  43.871  1.00  0.00     0.000 C 
ENDROOT
BRANCH   1   2
ATOM      2  C   UNL     1      -9.764  63.167  43.562  1.00  0.00     0.000 C 
BRANCH   2   3
ATOM      3  C   UNL     1      -9.662  63.446  42.047  1.00  0.00     0.000 C 
BRANCH   3   4
ATOM      4  C   UNL     1      -9.629  64.945  41.691  1.00  0.00     0.000 C 
BRANCH   4   5
ATOM      5  C   UNL     1      -8.488  65.366  40.747  1.00  0.00     0.000 C 
BRANCH   5   6
ATOM      6  C   UNL     1      -8.194  64.381  39.596  1.00  0.00     0.000 C 
BRANCH   6   7
ATOM      7  C   UNL     1      -8.822  64.757  38.241  1.00  0.00     0.000 C 
BRANCH   7   8
ATOM      8  C   UNL     1     -10.081  63.932  37.918  1.00  0.00     0.000 C 
BRANCH   8   9
ATOM      9  C   UNL     1     -10.072  62.552  38.594  1.00  0.00     0.000 C 
BRANCH   9  10
ATOM     10  C   UNL     1     -11.440  62.180  39.194  1.00  0.00     0.006 C 
BRANCH  10  11
ATOM     11  C   UNL     1     -11.346  60.985  40.151  1.00  0.00     0.053 C 
BRANCH  11  12
ATOM     12  C   UNL     1     -12.580  60.136  40.102  1.00  0.00     0.041 C 
ATOM     13  O   UNL     1     -12.941  59.603  39.019  1.00  0.00    -0.550 OA
ATOM     14  O   UNL     1     -13.317  59.913  41.258  1.00  0.00    -0.550 OA
ENDBRANCH  11  12
ENDBRANCH  10  11
ENDBRANCH   9  10
ENDBRANCH   8   9
ENDBRANCH   7   8
ENDBRANCH   6   7
ENDBRANCH   5   6
ENDBRANCH   4   5
ENDBRANCH   3   4
ENDBRANCH   2   3
ENDBRANCH   1   2
BRANCH   1  15
ATOM     15  C   UNL     1      -9.540  61.306  45.260  1.00  0.00     0.000 C 
BRANCH  15  16
ATOM     16  C   UNL     1      -9.023  62.539  46.016  1.00  0.00     0.000 C 
BRANCH  16  17
ATOM     17  C   UNL     1      -8.879  62.286  47.526  1.00  0.00     0.000 C 
BRANCH  17  18
ATOM     18  C   UNL     1      -9.575  63.364  48.374  1.00  0.00    -0.000 C 
BRANCH  18  19
ATOM     19  C   UNL     1      -8.714  64.635  48.533  1.00  0.00    -0.000 C 
BRANCH  19  20
ATOM     20  C   UNL     1      -7.501  64.451  49.465  1.00  0.00    -0.000 C 
BRANCH  20  21
ATOM     21  C   UNL     1      -7.638  65.104  50.852  1.00  0.00    -0.000 C 
BRANCH  21  22
ATOM     22  C   UNL     1      -6.368  65.056  51.723  1.00  0.00    -0.000 C 
BRANCH  22  23
ATOM     23  C   UNL     1      -6.548  64.224  53.005  1.00  0.00    -0.000 C 
BRANCH  23  24
ATOM     24  C   UNL     1      -6.411  62.709  52.743  1.00  0.00    -0.000 C 
BRANCH  24  25
ATOM     25  C   UNL     1      -7.315  61.843  53.636  1.00  0.00    -0.003 C 
ATOM     26  C   UNL     1      -8.039  62.645  54.715  1.00  0.00     0.004 C 
ENDBRANCH  24  25
ENDBRANCH  23  24
ENDBRANCH  22  23
ENDBRANCH  21  22
ENDBRANCH  20  21
ENDBRANCH  19  20
ENDBRANCH  18  19
ENDBRANCH  17  18
ENDBRANCH  16  17
ENDBRANCH  15  16
ENDBRANCH   1  15
TORSDOF 22
ENDMDL
MODEL 8
REMARK VINA RESULT:    -5.766      1.282      2.135
REMARK INTER + INTRA:         -14.921
REMARK INTER:                 -13.388
REMARK INTRA:                  -1.533
REMARK UNBOUND:                -1.739
REMARK SMILES CCCCCCCCCCCCCCCCCCCCCCCC(=O)[O-]
REMARK SMILES IDX 13 1 14 2 15 3 16 4 17 5 18 6 19 7 20 8 21 9 22 10 23 11
REMARK SMILES IDX 24 12 25 13 26 14 12 15 11 16 10 17 9 18 8 19 7 20 6 21 5 22
REMARK SMILES IDX 4 23 3 24 2 25 1 26
REMARK H PARENT
REMARK Flexibility Score: inf
ROOT
ATOM      1  C   UNL     1     -10.001  62.110  43.414  1.00  0.00     0.000 C 
ENDROOT
BRANCH   1   2
ATOM      2  C   UNL     1      -9.536  61.521  44.754  1.00  0.00     0.000 C 
BRANCH   2   3
ATOM      3  C   UNL     1      -9.002  62.598  45.723  1.00  0.00     0.000 C 
BRANCH   3   4
ATOM      4  C   UNL     1      -9.230  62.265  47.210  1.00  0.00     0.000 C 
BRANCH   4   5
ATOM      5  C   UNL     1      -9.211  63.478  48.159  1.00  0.00     0.000 C 
BRANCH   5   6
ATOM      6  C   UNL     1      -7.886  63.693  48.920  1.00  0.00     0.000 C 
BRANCH   6   7
ATOM      7  C   UNL     1      -7.980  64.634  50.136  1.00  0.00     0.000 C 
BRANCH   7   8
ATOM      8  C   UNL     1      -6.616  64.883  50.803  1.00  0.00     0.000 C 
BRANCH   8   9
ATOM      9  C   UNL     1      -6.728  65.730  52.081  1.00  0.00     0.000 C 
BRANCH   9  10
ATOM     10  C   UNL     1      -6.574  64.891  53.361  1.00  0.00     0.006 C 
BRANCH  10  11
ATOM     11  C   UNL     1      -7.690  63.850  53.510  1.00  0.00     0.053 C 
BRANCH  11  12
ATOM     12  C   UNL     1      -7.152  62.452  53.501  1.00  0.00     0.041 C 
ATOM     13  O   UNL     1      -7.937  61.470  53.416  1.00  0.00    -0.550 OA
ATOM     14  O   UNL     1      -5.781  62.234  53.560  1.00  0.00    -0.550 OA
ENDBRANCH  11  12
ENDBRANCH  10  11
ENDBRANCH   9  10
ENDBRANCH   8   9
ENDBRANCH   7   8
ENDBRANCH   6   7
ENDBRANCH   5   6
ENDBRANCH   4   5
ENDBRANCH   3   4
ENDBRANCH   2   3
ENDBRANCH   1   2
BRANCH   1  15
ATOM     15  C   UNL     1      -9.636  63.596  43.311  1.00  0.00     0.000 C 
BRANCH  15  16
ATOM     16  C   UNL     1      -9.733  64.087  41.859  1.00  0.00     0.000 C 
BRANCH  16  17
ATOM     17  C   UNL     1      -9.286  65.550  41.702  1.00  0.00     0.000 C 
BRANCH  17  18
ATOM     18  C   UNL     1      -8.656  65.830  40.327  1.00  0.00    -0.000 C 
BRANCH  18  19
ATOM     19  C   UNL     1      -8.395  64.538  39.525  1.00  0.00    -0.000 C 
BRANCH  19  20
ATOM     20  C   UNL     1      -9.034  64.538  38.123  1.00  0.00    -0.000 C 
BRANCH  20  21
ATOM     21  C   UNL     1     -10.184  63.533  37.929  1.00  0.00    -0.000 C 
BRANCH  21  22
ATOM     22  C   UNL     1     -10.197  62.359  38.927  1.00  0.00    -0.000 C 
BRANCH  22  23
ATOM     23  C   UNL     1     -11.615  61.981  39.392  1.00  0.00    -0.000 C 
BRANCH  23  24
ATOM     24  C   UNL     1     -11.637  60.658  40.186  1.00  0.00    -0.000 C 
BRANCH  24  25
ATOM     25  C   UNL     1     -12.934  59.850  40.005  1.00  0.00    -0.003 C 
ATOM     26  C   UNL     1     -13.522  59.965  38.601  1.00  0.00     0.004 C 
ENDBRANCH  24  25
ENDBRANCH  23  24
ENDBRANCH  22  23
ENDBRANCH  21  22
ENDBRANCH  20  21
ENDBRANCH  19  20
ENDBRANCH  18  19
ENDBRANCH  17  18
ENDBRANCH  16  17
ENDBRANCH  15  16
ENDBRANCH   1  15
TORSDOF 22
ENDMDL
MODEL 9
REMARK VINA RESULT:    -5.685      1.018      3.114
REMARK INTER + INTRA:         -14.734
REMARK INTER:                 -13.291
REMARK INTRA:                  -1.443
REMARK UNBOUND:                -1.739
REMARK SMILES CCCCCCCCCCCCCCCCCCCCCCCC(=O)[O-]
REMARK SMILES IDX 13 1 14 2 15 3 16 4 17 5 18 6 19 7 20 8 21 9 22 10 23 11
REMARK SMILES IDX 24 12 25 13 26 14 12 15 11 16 10 17 9 18 8 19 7 20 6 21 5 22
REMARK SMILES IDX 4 23 3 24 2 25 1 26
REMARK H PARENT
REMARK Flexibility Score: inf
ROOT
ATOM      1  C   UNL     1      -9.552  63.634  48.199  1.00  0.00     0.000 C 
ENDROOT
BRANCH   1   2
ATOM      2  C   UNL     1      -8.539  64.366  49.092  1.00  0.00     0.000 C 
BRANCH   2   3
ATOM      3  C   UNL     1      -7.566  63.400  49.801  1.00  0.00     0.000 C 
BRANCH   3   4
ATOM      4  C   UNL     1      -6.278  64.076  50.308  1.00  0.00     0.000 C 
BRANCH   4   5
ATOM      5  C   UNL     1      -6.460  65.510  50.839  1.00  0.00     0.000 C 
BRANCH   5   6
ATOM      6  C   UNL     1      -6.842  65.614  52.330  1.00  0.00     0.000 C 
BRANCH   6   7
ATOM      7  C   UNL     1      -6.629  64.326  53.148  1.00  0.00     0.000 C 
BRANCH   7   8
ATOM      8  C   UNL     1      -7.950  63.683  53.602  1.00  0.00     0.000 C 
BRANCH   8   9
ATOM      9  C   UNL     1      -7.737  62.546  54.614  1.00  0.00     0.000 C 
BRANCH   9  10
ATOM     10  C   UNL     1      -7.066  61.313  53.985  1.00  0.00     0.006 C 
BRANCH  10  11
ATOM     11  C   UNL     1      -5.636  61.106  54.500  1.00  0.00     0.053 C 
BRANCH  11  12
ATOM     12  C   UNL     1      -5.605  60.236  55.719  1.00  0.00     0.041 C 
ATOM     13  O   UNL     1      -6.535  59.416  55.938  1.00  0.00    -0.550 OA
ATOM     14  O   UNL     1      -4.535  60.315  56.603  1.00  0.00    -0.550 OA
ENDBRANCH  11  12
ENDBRANCH  10  11
ENDBRANCH   9  10
ENDBRANCH   8   9
ENDBRANCH   7   8
ENDBRANCH   6   7
ENDBRANCH   5   6
ENDBRANCH   4   5
ENDBRANCH   3   4
ENDBRANCH   2   3
ENDBRANCH   1   2
BRANCH   1  15
ATOM     15  C   UNL     1      -8.850  62.619  47.290  1.00  0.00     0.000 C 
BRANCH  15  16
ATOM     16  C   UNL     1      -9.131  62.919  45.810  1.00  0.00     0.000 C 
BRANCH  16  17
ATOM     17  C   UNL     1      -9.513  61.659  45.016  1.00  0.00     0.000 C 
BRANCH  17  18
ATOM     18  C   UNL     1      -9.981  61.981  43.587  1.00  0.00    -0.000 C 
BRANCH  18  19
ATOM     19  C   UNL     1      -9.663  63.434  43.176  1.00  0.00    -0.000 C 
BRANCH  19  20
ATOM     20  C   UNL     1      -9.970  63.743  41.698  1.00  0.00    -0.000 C 
BRANCH  20  21
ATOM     21  C   UNL     1      -9.575  62.636  40.704  1.00  0.00    -0.000 C 
BRANCH  21  22
ATOM     22  C   UNL     1      -9.729  63.010  39.217  1.00  0.00    -0.000 C 
BRANCH  22  23
ATOM     23  C   UNL     1     -10.915  62.302  38.539  1.00  0.00    -0.000 C 
BRANCH  23  24
ATOM     24  C   UNL     1     -12.187  62.322  39.413  1.00  0.00    -0.000 C 
BRANCH  24  25
ATOM     25  C   UNL     1     -13.088  61.090  39.222  1.00  0.00    -0.003 C 
ATOM     26  C   UNL     1     -12.475  59.805  39.774  1.00  0.00     0.004 C 
ENDBRANCH  24  25
ENDBRANCH  23  24
ENDBRANCH  22  23
ENDBRANCH  21  22
ENDBRANCH  20  21
ENDBRANCH  19  20
ENDBRANCH  18  19
ENDBRANCH  17  18
ENDBRANCH  16  17
ENDBRANCH  15  16
ENDBRANCH   1  15
TORSDOF 22
ENDMDL
