MODEL 1
REMARK VINA RESULT:    -7.286      0.000      0.000
REMARK INTER + INTRA:          -9.118
REMARK INTER:                  -8.777
REMARK INTRA:                  -0.341
REMARK UNBOUND:                -0.341
REMARK SMILES Oc1cc(O)c2c(c1)O[C@@H](c1ccc(O)c(O)c1)[C@H](O)C2
REMARK SMILES IDX 21 1 19 2 10 3 9 4 7 5 8 6 2 7 3 8 4 9 6 10 20 11 11 13
REMARK SMILES IDX 18 14 12 15 16 16 13 17 14 18 17 19 15 21 5 23 1 25
REMARK H PARENT 20 12 17 20 15 22 5 24 1 26
REMARK Flexibility Score: inf
ROOT
ATOM      1  C   UNL     1      33.809   4.537  14.850  1.00  0.00     0.079 C 
ATOM      2  C   UNL     1      33.191   4.961  16.201  1.00  0.00     0.164 C 
ATOM      3  C   UNL     1      33.499   3.917  17.314  1.00  0.00     0.232 C 
ATOM      4  O   UNL     1      34.910   3.675  17.344  1.00  0.00    -0.482 OA
ATOM      5  C   UNL     1      35.732   3.671  16.215  1.00  0.00     0.131 A 
ATOM      6  C   UNL     1      37.067   3.284  16.351  1.00  0.00     0.093 A 
ATOM      7  C   UNL     1      37.916   3.265  15.240  1.00  0.00     0.122 A 
ATOM      8  C   UNL     1      37.421   3.627  13.984  1.00  0.00     0.092 A 
ATOM      9  C   UNL     1      36.082   4.010  13.830  1.00  0.00     0.126 A 
ATOM     10  C   UNL     1      35.238   4.077  14.963  1.00  0.00     0.039 A 
ENDROOT
BRANCH   2  11
ATOM     11  O   UNL     1      31.812   5.158  16.014  1.00  0.00    -0.389 OA
ATOM     12  H   UNL     1      31.521   4.571  15.267  1.00  0.00     0.211 HD
ENDBRANCH   2  11
BRANCH   3  13
ATOM     13  C   UNL     1      33.036   4.323  18.721  1.00  0.00    -0.001 A 
ATOM     14  C   UNL     1      32.019   3.582  19.373  1.00  0.00     0.057 A 
ATOM     15  C   UNL     1      33.499   5.499  19.355  1.00  0.00     0.012 A 
ATOM     16  C   UNL     1      31.536   3.963  20.632  1.00  0.00     0.157 A 
ATOM     17  C   UNL     1      33.031   5.863  20.621  1.00  0.00     0.050 A 
ATOM     18  C   UNL     1      32.056   5.094  21.265  1.00  0.00     0.157 A 
BRANCH  16  19
ATOM     19  O   UNL     1      30.533   3.224  21.258  1.00  0.00    -0.504 OA
ATOM     20  H   UNL     1      29.739   2.858  20.746  1.00  0.00     0.293 HD
ENDBRANCH  16  19
BRANCH  18  21
ATOM     21  O   UNL     1      31.593   5.449  22.531  1.00  0.00    -0.504 OA
ATOM     22  H   UNL     1      32.232   5.552  23.315  1.00  0.00     0.293 HD
ENDBRANCH  18  21
ENDBRANCH   3  13
BRANCH   9  23
ATOM     23  O   UNL     1      35.620   4.300  12.547  1.00  0.00    -0.507 OA
ATOM     24  H   UNL     1      35.394   5.240  12.248  1.00  0.00     0.293 HD
ENDBRANCH   9  23
BRANCH   7  25
ATOM     25  O   UNL     1      39.244   2.875  15.396  1.00  0.00    -0.508 OA
ATOM     26  H   UNL     1      39.492   1.956  15.743  1.00  0.00     0.293 HD
ENDBRANCH   7  25
TORSDOF 6
ENDMDL
MODEL 2
REMARK VINA RESULT:    -7.084     18.236     20.842
REMARK INTER + INTRA:          -8.875
REMARK INTER:                  -8.653
REMARK INTRA:                  -0.221
REMARK UNBOUND:                -0.341
REMARK SMILES Oc1cc(O)c2c(c1)O[C@@H](c1ccc(O)c(O)c1)[C@H](O)C2
REMARK SMILES IDX 21 1 19 2 10 3 9 4 7 5 8 6 2 7 3 8 4 9 6 10 20 11 11 13
REMARK SMILES IDX 18 14 12 15 16 16 13 17 14 18 17 19 15 21 5 23 1 25
REMARK H PARENT 20 12 17 20 15 22 5 24 1 26
REMARK Flexibility Score: inf
ROOT
ATOM      1  C   UNL     1      40.251  19.342   9.301  1.00  0.00     0.079 C 
ATOM      2  C   UNL     1      41.075  19.968   8.154  1.00  0.00     0.164 C 
ATOM      3  C   UNL     1      42.170  20.928   8.704  1.00  0.00     0.232 C 
ATOM      4  O   UNL     1      42.940  20.235   9.692  1.00  0.00    -0.482 OA
ATOM      5  C   UNL     1      42.418  19.285  10.572  1.00  0.00     0.131 A 
ATOM      6  C   UNL     1      43.237  18.778  11.584  1.00  0.00     0.093 A 
ATOM      7  C   UNL     1      42.744  17.829  12.485  1.00  0.00     0.122 A 
ATOM      8  C   UNL     1      41.422  17.391  12.376  1.00  0.00     0.092 A 
ATOM      9  C   UNL     1      40.585  17.896  11.372  1.00  0.00     0.126 A 
ATOM     10  C   UNL     1      41.100  18.819  10.430  1.00  0.00     0.039 A 
ENDROOT
BRANCH   2  11
ATOM     11  O   UNL     1      40.188  20.610   7.273  1.00  0.00    -0.389 OA
ATOM     12  H   UNL     1      39.576  19.920   6.902  1.00  0.00     0.211 HD
ENDBRANCH   2  11
BRANCH   3  13
ATOM     13  C   UNL     1      43.123  21.493   7.640  1.00  0.00    -0.001 A 
ATOM     14  C   UNL     1      43.344  20.778   6.437  1.00  0.00     0.057 A 
ATOM     15  C   UNL     1      43.900  22.652   7.866  1.00  0.00     0.012 A 
ATOM     16  C   UNL     1      44.253  21.239   5.474  1.00  0.00     0.157 A 
ATOM     17  C   UNL     1      44.788  23.122   6.893  1.00  0.00     0.050 A 
ATOM     18  C   UNL     1      44.961  22.422   5.695  1.00  0.00     0.157 A 
BRANCH  16  19
ATOM     19  O   UNL     1      44.460  20.522   4.297  1.00  0.00    -0.504 OA
ATOM     20  H   UNL     1      43.963  20.742   3.441  1.00  0.00     0.293 HD
ENDBRANCH  16  19
BRANCH  18  21
ATOM     21  O   UNL     1      45.839  22.892   4.720  1.00  0.00    -0.504 OA
ATOM     22  H   UNL     1      46.702  22.400   4.507  1.00  0.00     0.293 HD
ENDBRANCH  18  21
ENDBRANCH   3  13
BRANCH   9  23
ATOM     23  O   UNL     1      39.256  17.477  11.344  1.00  0.00    -0.507 OA
ATOM     24  H   UNL     1      38.527  17.937  11.874  1.00  0.00     0.293 HD
ENDBRANCH   9  23
BRANCH   7  25
ATOM     25  O   UNL     1      43.576  17.336  13.489  1.00  0.00    -0.508 OA
ATOM     26  H   UNL     1      44.585  17.389  13.418  1.00  0.00     0.293 HD
ENDBRANCH   7  25
TORSDOF 6
ENDMDL
MODEL 3
REMARK VINA RESULT:    -6.753     19.021     21.616
REMARK INTER + INTRA:          -8.475
REMARK INTER:                  -8.333
REMARK INTRA:                  -0.142
REMARK UNBOUND:                -0.341
REMARK SMILES Oc1cc(O)c2c(c1)O[C@@H](c1ccc(O)c(O)c1)[C@H](O)C2
REMARK SMILES IDX 21 1 19 2 10 3 9 4 7 5 8 6 2 7 3 8 4 9 6 10 20 11 11 13
REMARK SMILES IDX 18 14 12 15 16 16 13 17 14 18 17 19 15 21 5 23 1 25
REMARK H PARENT 20 12 17 20 15 22 5 24 1 26
REMARK Flexibility Score: inf
ROOT
ATOM      1  C   UNL     1      40.731  19.967   9.707  1.00  0.00     0.079 C 
ATOM      2  C   UNL     1      41.520  20.160   8.392  1.00  0.00     0.164 C 
ATOM      3  C   UNL     1      42.394  21.447   8.443  1.00  0.00     0.232 C 
ATOM      4  O   UNL     1      43.195  21.416   9.630  1.00  0.00    -0.482 OA
ATOM      5  C   UNL     1      42.776  20.876  10.848  1.00  0.00     0.131 A 
ATOM      6  C   UNL     1      43.591  21.029  11.972  1.00  0.00     0.093 A 
ATOM      7  C   UNL     1      43.200  20.504  13.207  1.00  0.00     0.122 A 
ATOM      8  C   UNL     1      41.981  19.830  13.319  1.00  0.00     0.092 A 
ATOM      9  C   UNL     1      41.148  19.675  12.202  1.00  0.00     0.126 A 
ATOM     10  C   UNL     1      41.569  20.163  10.943  1.00  0.00     0.039 A 
ENDROOT
BRANCH   2  11
ATOM     11  O   UNL     1      40.605  20.171   7.326  1.00  0.00    -0.389 OA
ATOM     12  H   UNL     1      41.124  20.115   6.480  1.00  0.00     0.211 HD
ENDBRANCH   2  11
BRANCH   3  13
ATOM     13  C   UNL     1      43.315  21.646   7.230  1.00  0.00    -0.001 A 
ATOM     14  C   UNL     1      43.594  20.558   6.366  1.00  0.00     0.057 A 
ATOM     15  C   UNL     1      44.009  22.857   7.005  1.00  0.00     0.012 A 
ATOM     16  C   UNL     1      44.476  20.696   5.286  1.00  0.00     0.157 A 
ATOM     17  C   UNL     1      44.871  22.997   5.912  1.00  0.00     0.050 A 
ATOM     18  C   UNL     1      45.100  21.922   5.048  1.00  0.00     0.157 A 
BRANCH  16  19
ATOM     19  O   UNL     1      44.741  19.614   4.447  1.00  0.00    -0.504 OA
ATOM     20  H   UNL     1      44.042  19.246   3.812  1.00  0.00     0.293 HD
ENDBRANCH  16  19
BRANCH  18  21
ATOM     21  O   UNL     1      45.952  22.061   3.953  1.00  0.00    -0.504 OA
ATOM     22  H   UNL     1      45.844  22.829   3.297  1.00  0.00     0.293 HD
ENDBRANCH  18  21
ENDBRANCH   3  13
BRANCH   9  23
ATOM     23  O   UNL     1      39.914  19.051  12.378  1.00  0.00    -0.507 OA
ATOM     24  H   UNL     1      39.744  18.374  13.111  1.00  0.00     0.293 HD
ENDBRANCH   9  23
BRANCH   7  25
ATOM     25  O   UNL     1      44.026  20.668  14.317  1.00  0.00    -0.508 OA
ATOM     26  H   UNL     1      44.084  21.551  14.812  1.00  0.00     0.293 HD
ENDBRANCH   7  25
TORSDOF 6
ENDMDL
MODEL 4
REMARK VINA RESULT:    -6.007      1.386      2.162
REMARK INTER + INTRA:          -7.577
REMARK INTER:                  -7.225
REMARK INTRA:                  -0.352
REMARK UNBOUND:                -0.341
REMARK SMILES Oc1cc(O)c2c(c1)O[C@@H](c1ccc(O)c(O)c1)[C@H](O)C2
REMARK SMILES IDX 21 1 19 2 10 3 9 4 7 5 8 6 2 7 3 8 4 9 6 10 20 11 11 13
REMARK SMILES IDX 18 14 12 15 16 16 13 17 14 18 17 19 15 21 5 23 1 25
REMARK H PARENT 20 12 17 20 15 22 5 24 1 26
REMARK Flexibility Score: inf
ROOT
ATOM      1  C   UNL     1      32.712   4.790  15.625  1.00  0.00     0.079 C 
ATOM      2  C   UNL     1      31.859   4.921  16.907  1.00  0.00     0.164 C 
ATOM      3  C   UNL     1      31.973   3.646  17.793  1.00  0.00     0.232 C 
ATOM      4  O   UNL     1      33.358   3.358  18.015  1.00  0.00    -0.482 OA
ATOM      5  C   UNL     1      34.368   3.580  17.076  1.00  0.00     0.131 A 
ATOM      6  C   UNL     1      35.661   3.130  17.355  1.00  0.00     0.093 A 
ATOM      7  C   UNL     1      36.694   3.332  16.435  1.00  0.00     0.122 A 
ATOM      8  C   UNL     1      36.429   3.981  15.226  1.00  0.00     0.092 A 
ATOM      9  C   UNL     1      35.135   4.430  14.928  1.00  0.00     0.126 A 
ATOM     10  C   UNL     1      34.102   4.270  15.882  1.00  0.00     0.039 A 
ENDROOT
BRANCH   2  11
ATOM     11  O   UNL     1      30.534   5.199  16.530  1.00  0.00    -0.389 OA
ATOM     12  H   UNL     1      30.443   4.983  15.564  1.00  0.00     0.211 HD
ENDBRANCH   2  11
BRANCH   3  13
ATOM     13  C   UNL     1      31.264   3.743  19.152  1.00  0.00    -0.001 A 
ATOM     14  C   UNL     1      31.750   4.631  20.143  1.00  0.00     0.057 A 
ATOM     15  C   UNL     1      30.205   2.877  19.510  1.00  0.00     0.012 A 
ATOM     16  C   UNL     1      31.159   4.698  21.412  1.00  0.00     0.157 A 
ATOM     17  C   UNL     1      29.602   2.962  20.769  1.00  0.00     0.050 A 
ATOM     18  C   UNL     1      30.072   3.876  21.718  1.00  0.00     0.157 A 
BRANCH  16  19
ATOM     19  O   UNL     1      31.651   5.576  22.376  1.00  0.00    -0.504 OA
ATOM     20  H   UNL     1      31.220   5.666  23.289  1.00  0.00     0.293 HD
ENDBRANCH  16  19
BRANCH  18  21
ATOM     21  O   UNL     1      29.469   3.970  22.972  1.00  0.00    -0.504 OA
ATOM     22  H   UNL     1      29.374   3.156  23.572  1.00  0.00     0.293 HD
ENDBRANCH  18  21
ENDBRANCH   3  13
BRANCH   9  23
ATOM     23  O   UNL     1      34.907   5.014  13.683  1.00  0.00    -0.507 OA
ATOM     24  H   UNL     1      34.644   5.986  13.575  1.00  0.00     0.293 HD
ENDBRANCH   9  23
BRANCH   7  25
ATOM     25  O   UNL     1      37.977   2.875  16.729  1.00  0.00    -0.508 OA
ATOM     26  H   UNL     1      38.562   3.336  17.417  1.00  0.00     0.293 HD
ENDBRANCH   7  25
TORSDOF 6
ENDMDL
MODEL 5
REMARK VINA RESULT:    -5.988     18.889     21.418
REMARK INTER + INTRA:          -7.555
REMARK INTER:                  -7.510
REMARK INTRA:                  -0.044
REMARK UNBOUND:                -0.341
REMARK SMILES Oc1cc(O)c2c(c1)O[C@@H](c1ccc(O)c(O)c1)[C@H](O)C2
REMARK SMILES IDX 21 1 19 2 10 3 9 4 7 5 8 6 2 7 3 8 4 9 6 10 20 11 11 13
REMARK SMILES IDX 18 14 12 15 16 16 13 17 14 18 17 19 15 21 5 23 1 25
REMARK H PARENT 20 12 17 20 15 22 5 24 1 26
REMARK Flexibility Score: inf
ROOT
ATOM      1  C   UNL     1      41.266  19.147  10.935  1.00  0.00     0.079 C 
ATOM      2  C   UNL     1      42.019  19.218   9.588  1.00  0.00     0.164 C 
ATOM      3  C   UNL     1      42.123  20.684   9.077  1.00  0.00     0.232 C 
ATOM      4  O   UNL     1      42.670  21.501  10.118  1.00  0.00    -0.482 OA
ATOM      5  C   UNL     1      42.420  21.312  11.479  1.00  0.00     0.131 A 
ATOM      6  C   UNL     1      42.895  22.256  12.392  1.00  0.00     0.093 A 
ATOM      7  C   UNL     1      42.659  22.099  13.761  1.00  0.00     0.122 A 
ATOM      8  C   UNL     1      41.934  20.995  14.217  1.00  0.00     0.092 A 
ATOM      9  C   UNL     1      41.442  20.044  13.313  1.00  0.00     0.126 A 
ATOM     10  C   UNL     1      41.726  20.178  11.933  1.00  0.00     0.039 A 
ENDROOT
BRANCH   2  11
ATOM     11  O   UNL     1      41.368  18.373   8.673  1.00  0.00    -0.389 OA
ATOM     12  H   UNL     1      40.457  18.189   9.026  1.00  0.00     0.211 HD
ENDBRANCH   2  11
BRANCH   3  13
ATOM     13  C   UNL     1      42.973  20.864   7.810  1.00  0.00    -0.001 A 
ATOM     14  C   UNL     1      43.952  21.887   7.753  1.00  0.00     0.057 A 
ATOM     15  C   UNL     1      42.729  20.124   6.630  1.00  0.00     0.012 A 
ATOM     16  C   UNL     1      44.701  22.112   6.590  1.00  0.00     0.157 A 
ATOM     17  C   UNL     1      43.495  20.336   5.478  1.00  0.00     0.050 A 
ATOM     18  C   UNL     1      44.485  21.323   5.458  1.00  0.00     0.157 A 
BRANCH  16  19
ATOM     19  O   UNL     1      45.660  23.124   6.552  1.00  0.00    -0.504 OA
ATOM     20  H   UNL     1      46.558  23.028   7.012  1.00  0.00     0.293 HD
ENDBRANCH  16  19
BRANCH  18  21
ATOM     21  O   UNL     1      45.255  21.532   4.315  1.00  0.00    -0.504 OA
ATOM     22  H   UNL     1      45.153  20.940   3.496  1.00  0.00     0.293 HD
ENDBRANCH  18  21
ENDBRANCH   3  13
BRANCH   9  23
ATOM     23  O   UNL     1      40.671  18.994  13.810  1.00  0.00    -0.507 OA
ATOM     24  H   UNL     1      40.457  18.893  14.794  1.00  0.00     0.293 HD
ENDBRANCH   9  23
BRANCH   7  25
ATOM     25  O   UNL     1      43.140  23.052  14.656  1.00  0.00    -0.508 OA
ATOM     26  H   UNL     1      42.559  23.428  15.397  1.00  0.00     0.293 HD
ENDBRANCH   7  25
TORSDOF 6
ENDMDL
MODEL 6
REMARK VINA RESULT:    -5.836      2.566      7.705
REMARK INTER + INTRA:          -7.372
REMARK INTER:                  -7.033
REMARK INTRA:                  -0.339
REMARK UNBOUND:                -0.341
REMARK SMILES Oc1cc(O)c2c(c1)O[C@@H](c1ccc(O)c(O)c1)[C@H](O)C2
REMARK SMILES IDX 21 1 19 2 10 3 9 4 7 5 8 6 2 7 3 8 4 9 6 10 20 11 11 13
REMARK SMILES IDX 18 14 12 15 16 16 13 17 14 18 17 19 15 21 5 23 1 25
REMARK H PARENT 20 12 17 20 15 22 5 24 1 26
REMARK Flexibility Score: inf
ROOT
ATOM      1  C   UNL     1      31.088   4.412  20.518  1.00  0.00     0.079 C 
ATOM      2  C   UNL     1      32.263   4.265  19.526  1.00  0.00     0.164 C 
ATOM      3  C   UNL     1      31.906   4.866  18.136  1.00  0.00     0.232 C 
ATOM      4  O   UNL     1      31.432   6.205  18.317  1.00  0.00    -0.482 OA
ATOM      5  C   UNL     1      30.679   6.631  19.413  1.00  0.00     0.131 A 
ATOM      6  C   UNL     1      30.156   7.926  19.412  1.00  0.00     0.093 A 
ATOM      7  C   UNL     1      29.395   8.383  20.492  1.00  0.00     0.122 A 
ATOM      8  C   UNL     1      29.149   7.535  21.575  1.00  0.00     0.092 A 
ATOM      9  C   UNL     1      29.660   6.230  21.587  1.00  0.00     0.126 A 
ATOM     10  C   UNL     1      30.472   5.787  20.517  1.00  0.00     0.039 A 
ENDROOT
BRANCH   2  11
ATOM     11  O   UNL     1      32.612   2.905  19.452  1.00  0.00    -0.389 OA
ATOM     12  H   UNL     1      31.862   2.379  19.839  1.00  0.00     0.211 HD
ENDBRANCH   2  11
BRANCH   3  13
ATOM     13  C   UNL     1      33.063   4.883  17.126  1.00  0.00    -0.001 A 
ATOM     14  C   UNL     1      33.122   3.907  16.100  1.00  0.00     0.057 A 
ATOM     15  C   UNL     1      34.160   5.767  17.254  1.00  0.00     0.012 A 
ATOM     16  C   UNL     1      34.197   3.863  15.201  1.00  0.00     0.157 A 
ATOM     17  C   UNL     1      35.219   5.734  16.341  1.00  0.00     0.050 A 
ATOM     18  C   UNL     1      35.236   4.789  15.310  1.00  0.00     0.157 A 
BRANCH  16  19
ATOM     19  O   UNL     1      34.240   2.895  14.198  1.00  0.00    -0.504 OA
ATOM     20  H   UNL     1      35.109   2.620  13.756  1.00  0.00     0.293 HD
ENDBRANCH  16  19
BRANCH  18  21
ATOM     21  O   UNL     1      36.286   4.758  14.394  1.00  0.00    -0.504 OA
ATOM     22  H   UNL     1      37.253   4.804  14.700  1.00  0.00     0.293 HD
ENDBRANCH  18  21
ENDBRANCH   3  13
BRANCH   9  23
ATOM     23  O   UNL     1      29.334   5.401  22.660  1.00  0.00    -0.507 OA
ATOM     24  H   UNL     1      28.379   5.229  22.946  1.00  0.00     0.293 HD
ENDBRANCH   9  23
BRANCH   7  25
ATOM     25  O   UNL     1      28.880   9.678  20.473  1.00  0.00    -0.508 OA
ATOM     26  H   UNL     1      28.269  10.019  21.206  1.00  0.00     0.293 HD
ENDBRANCH   7  25
TORSDOF 6
ENDMDL
MODEL 7
REMARK VINA RESULT:    -5.500     18.657     20.475
REMARK INTER + INTRA:          -6.967
REMARK INTER:                  -6.639
REMARK INTRA:                  -0.328
REMARK UNBOUND:                -0.341
REMARK SMILES Oc1cc(O)c2c(c1)O[C@@H](c1ccc(O)c(O)c1)[C@H](O)C2
REMARK SMILES IDX 21 1 19 2 10 3 9 4 7 5 8 6 2 7 3 8 4 9 6 10 20 11 11 13
REMARK SMILES IDX 18 14 12 15 16 16 13 17 14 18 17 19 15 21 5 23 1 25
REMARK H PARENT 20 12 17 20 15 22 5 24 1 26
REMARK Flexibility Score: inf
ROOT
ATOM      1  C   UNL     1      44.066  22.475   8.676  1.00  0.00     0.079 C 
ATOM      2  C   UNL     1      43.105  21.709   9.612  1.00  0.00     0.164 C 
ATOM      3  C   UNL     1      41.819  21.264   8.857  1.00  0.00     0.232 C 
ATOM      4  O   UNL     1      42.198  20.557   7.671  1.00  0.00    -0.482 OA
ATOM      5  C   UNL     1      43.322  20.861   6.900  1.00  0.00     0.131 A 
ATOM      6  C   UNL     1      43.513  20.192   5.689  1.00  0.00     0.093 A 
ATOM      7  C   UNL     1      44.626  20.475   4.892  1.00  0.00     0.122 A 
ATOM      8  C   UNL     1      45.548  21.440   5.305  1.00  0.00     0.092 A 
ATOM      9  C   UNL     1      45.366  22.126   6.514  1.00  0.00     0.126 A 
ATOM     10  C   UNL     1      44.267  21.802   7.344  1.00  0.00     0.039 A 
ENDROOT
BRANCH   2  11
ATOM     11  O   UNL     1      42.824  22.526  10.721  1.00  0.00    -0.389 OA
ATOM     12  H   UNL     1      43.226  23.418  10.549  1.00  0.00     0.211 HD
ENDBRANCH   2  11
BRANCH   3  13
ATOM     13  C   UNL     1      40.866  20.380   9.676  1.00  0.00    -0.001 A 
ATOM     14  C   UNL     1      41.377  19.287  10.419  1.00  0.00     0.057 A 
ATOM     15  C   UNL     1      39.462  20.535   9.620  1.00  0.00     0.012 A 
ATOM     16  C   UNL     1      40.526  18.429  11.128  1.00  0.00     0.157 A 
ATOM     17  C   UNL     1      38.617  19.691  10.348  1.00  0.00     0.050 A 
ATOM     18  C   UNL     1      39.146  18.643  11.108  1.00  0.00     0.157 A 
BRANCH  16  19
ATOM     19  O   UNL     1      41.046  17.356  11.852  1.00  0.00    -0.504 OA
ATOM     20  H   UNL     1      41.123  17.380  12.862  1.00  0.00     0.293 HD
ENDBRANCH  16  19
BRANCH  18  21
ATOM     21  O   UNL     1      38.308  17.804  11.841  1.00  0.00    -0.504 OA
ATOM     22  H   UNL     1      37.994  16.914  11.465  1.00  0.00     0.293 HD
ENDBRANCH  18  21
ENDBRANCH   3  13
BRANCH   9  23
ATOM     23  O   UNL     1      46.278  23.125   6.852  1.00  0.00    -0.507 OA
ATOM     24  H   UNL     1      47.226  22.923   7.143  1.00  0.00     0.293 HD
ENDBRANCH   9  23
BRANCH   7  25
ATOM     25  O   UNL     1      44.799  19.798   3.686  1.00  0.00    -0.508 OA
ATOM     26  H   UNL     1      45.671  19.840   3.172  1.00  0.00     0.293 HD
ENDBRANCH   7  25
TORSDOF 6
ENDMDL
MODEL 8
REMARK VINA RESULT:    -5.012     20.095     22.976
REMARK INTER + INTRA:          -6.379
REMARK INTER:                  -6.098
REMARK INTRA:                  -0.281
REMARK UNBOUND:                -0.341
REMARK SMILES Oc1cc(O)c2c(c1)O[C@@H](c1ccc(O)c(O)c1)[C@H](O)C2
REMARK SMILES IDX 21 1 19 2 10 3 9 4 7 5 8 6 2 7 3 8 4 9 6 10 20 11 11 13
REMARK SMILES IDX 18 14 12 15 16 16 13 17 14 18 17 19 15 21 5 23 1 25
REMARK H PARENT 20 12 17 20 15 22 5 24 1 26
REMARK Flexibility Score: inf
ROOT
ATOM      1  C   UNL     1      41.822  20.028   7.496  1.00  0.00     0.079 C 
ATOM      2  C   UNL     1      43.124  20.162   6.674  1.00  0.00     0.164 C 
ATOM      3  C   UNL     1      43.796  21.547   6.905  1.00  0.00     0.232 C 
ATOM      4  O   UNL     1      43.946  21.761   8.312  1.00  0.00    -0.482 OA
ATOM      5  C   UNL     1      43.036  21.322   9.276  1.00  0.00     0.131 A 
ATOM      6  C   UNL     1      43.217  21.711  10.605  1.00  0.00     0.093 A 
ATOM      7  C   UNL     1      42.322  21.291  11.594  1.00  0.00     0.122 A 
ATOM      8  C   UNL     1      41.235  20.484  11.248  1.00  0.00     0.092 A 
ATOM      9  C   UNL     1      41.034  20.092   9.917  1.00  0.00     0.126 A 
ATOM     10  C   UNL     1      41.969  20.476   8.927  1.00  0.00     0.039 A 
ENDROOT
BRANCH   2  11
ATOM     11  O   UNL     1      42.819  19.929   5.322  1.00  0.00    -0.389 OA
ATOM     12  H   UNL     1      41.847  20.099   5.198  1.00  0.00     0.211 HD
ENDBRANCH   2  11
BRANCH   3  13
ATOM     13  C   UNL     1      45.166  21.716   6.230  1.00  0.00    -0.001 A 
ATOM     14  C   UNL     1      45.245  22.198   4.900  1.00  0.00     0.057 A 
ATOM     15  C   UNL     1      46.365  21.286   6.844  1.00  0.00     0.012 A 
ATOM     16  C   UNL     1      46.476  22.307   4.239  1.00  0.00     0.157 A 
ATOM     17  C   UNL     1      47.593  21.418   6.189  1.00  0.00     0.050 A 
ATOM     18  C   UNL     1      47.653  21.935   4.891  1.00  0.00     0.157 A 
BRANCH  16  19
ATOM     19  O   UNL     1      46.535  22.782   2.929  1.00  0.00    -0.504 OA
ATOM     20  H   UNL     1      47.055  22.297   2.207  1.00  0.00     0.293 HD
ENDBRANCH  16  19
BRANCH  18  21
ATOM     21  O   UNL     1      48.876  22.076   4.239  1.00  0.00    -0.504 OA
ATOM     22  H   UNL     1      48.932  22.464   3.301  1.00  0.00     0.293 HD
ENDBRANCH  18  21
ENDBRANCH   3  13
BRANCH   9  23
ATOM     23  O   UNL     1      39.901  19.341   9.612  1.00  0.00    -0.507 OA
ATOM     24  H   UNL     1      39.534  18.629  10.231  1.00  0.00     0.293 HD
ENDBRANCH   9  23
BRANCH   7  25
ATOM     25  O   UNL     1      42.518  21.691  12.915  1.00  0.00    -0.508 OA
ATOM     26  H   UNL     1      41.882  21.416  13.654  1.00  0.00     0.293 HD
ENDBRANCH   7  25
TORSDOF 6
ENDMDL
MODEL 9
REMARK VINA RESULT:    -4.643     18.260     20.915
REMARK INTER + INTRA:          -5.934
REMARK INTER:                  -5.923
REMARK INTRA:                  -0.011
REMARK UNBOUND:                -0.341
REMARK SMILES Oc1cc(O)c2c(c1)O[C@@H](c1ccc(O)c(O)c1)[C@H](O)C2
REMARK SMILES IDX 21 1 19 2 10 3 9 4 7 5 8 6 2 7 3 8 4 9 6 10 20 11 11 13
REMARK SMILES IDX 18 14 12 15 16 16 13 17 14 18 17 19 15 21 5 23 1 25
REMARK H PARENT 20 12 17 20 15 22 5 24 1 26
REMARK Flexibility Score: inf
ROOT
ATOM      1  C   UNL     1      41.996  20.377  11.802  1.00  0.00     0.079 C 
ATOM      2  C   UNL     1      42.660  21.173  10.655  1.00  0.00     0.164 C 
ATOM      3  C   UNL     1      42.664  20.357   9.331  1.00  0.00     0.232 C 
ATOM      4  O   UNL     1      41.332  19.904   9.060  1.00  0.00    -0.482 OA
ATOM      5  C   UNL     1      40.415  19.528  10.044  1.00  0.00     0.131 A 
ATOM      6  C   UNL     1      39.195  18.972   9.653  1.00  0.00     0.093 A 
ATOM      7  C   UNL     1      38.255  18.581  10.612  1.00  0.00     0.122 A 
ATOM      8  C   UNL     1      38.544  18.739  11.970  1.00  0.00     0.092 A 
ATOM      9  C   UNL     1      39.768  19.288  12.378  1.00  0.00     0.126 A 
ATOM     10  C   UNL     1      40.695  19.730  11.406  1.00  0.00     0.039 A 
ENDROOT
BRANCH   2  11
ATOM     11  O   UNL     1      43.952  21.543  11.065  1.00  0.00    -0.389 OA
ATOM     12  H   UNL     1      44.077  21.224  11.998  1.00  0.00     0.211 HD
ENDBRANCH   2  11
BRANCH   3  13
ATOM     13  C   UNL     1      43.185  21.122   8.105  1.00  0.00    -0.001 A 
ATOM     14  C   UNL     1      43.300  20.464   6.855  1.00  0.00     0.057 A 
ATOM     15  C   UNL     1      43.682  22.443   8.199  1.00  0.00     0.012 A 
ATOM     16  C   UNL     1      43.827  21.121   5.735  1.00  0.00     0.157 A 
ATOM     17  C   UNL     1      44.186  23.102   7.073  1.00  0.00     0.050 A 
ATOM     18  C   UNL     1      44.252  22.446   5.839  1.00  0.00     0.157 A 
BRANCH  16  19
ATOM     19  O   UNL     1      43.935  20.457   4.513  1.00  0.00    -0.504 OA
ATOM     20  H   UNL     1      43.120  20.214   3.962  1.00  0.00     0.293 HD
ENDBRANCH  16  19
BRANCH  18  21
ATOM     21  O   UNL     1      44.745  23.103   4.713  1.00  0.00    -0.504 OA
ATOM     22  H   UNL     1      44.867  22.615   3.830  1.00  0.00     0.293 HD
ENDBRANCH  18  21
ENDBRANCH   3  13
BRANCH   9  23
ATOM     23  O   UNL     1      40.035  19.367  13.744  1.00  0.00    -0.507 OA
ATOM     24  H   UNL     1      40.732  18.790  14.198  1.00  0.00     0.293 HD
ENDBRANCH   9  23
BRANCH   7  25
ATOM     25  O   UNL     1      37.044  18.026  10.203  1.00  0.00    -0.508 OA
ATOM     26  H   UNL     1      36.631  18.253   9.306  1.00  0.00     0.293 HD
ENDBRANCH   7  25
TORSDOF 6
ENDMDL
