MODEL 1
REMARK VINA RESULT:    -3.301      0.000      0.000
REMARK INTER + INTRA:          -3.954
REMARK INTER:                  -3.880
REMARK INTRA:                  -0.074
REMARK UNBOUND:                -0.074
REMARK SMILES O=C([O-])CCC(=O)[O-]
REMARK SMILES IDX 4 1 2 2 1 3 3 4 5 5 6 6 7 7 8 8
REMARK H PARENT
REMARK Flexibility Score: inf
ROOT
ATOM      1  C   UNL     1      -5.959  29.401  33.879  1.00  0.00     0.059 C 
ENDROOT
BRANCH   1   2
ATOM      2  C   UNL     1      -5.575  30.274  35.034  1.00  0.00     0.042 C 
ATOM      3  O   UNL     1      -5.129  29.763  36.095  1.00  0.00    -0.550 OA
ATOM      4  O   UNL     1      -5.749  31.650  34.953  1.00  0.00    -0.550 OA
ENDBRANCH   1   2
BRANCH   1   5
ATOM      5  C   UNL     1      -6.182  27.950  34.319  1.00  0.00     0.059 C 
BRANCH   5   6
ATOM      6  C   UNL     1      -5.191  27.023  33.683  1.00  0.00     0.042 C 
ATOM      7  O   UNL     1      -4.773  26.015  34.311  1.00  0.00    -0.550 OA
ATOM      8  O   UNL     1      -4.700  27.295  32.412  1.00  0.00    -0.550 OA
ENDBRANCH   5   6
ENDBRANCH   1   5
TORSDOF 3
ENDMDL
MODEL 2
REMARK VINA RESULT:    -3.194     14.470     15.269
REMARK INTER + INTRA:          -3.828
REMARK INTER:                  -3.751
REMARK INTRA:                  -0.077
REMARK UNBOUND:                -0.074
REMARK SMILES O=C([O-])CCC(=O)[O-]
REMARK SMILES IDX 4 1 2 2 1 3 3 4 5 5 6 6 7 7 8 8
REMARK H PARENT
REMARK Flexibility Score: inf
ROOT
ATOM      1  C   UNL     1      -6.518  37.196  22.389  1.00  0.00     0.059 C 
ENDROOT
BRANCH   1   2
ATOM      2  C   UNL     1      -6.764  38.592  22.875  1.00  0.00     0.042 C 
ATOM      3  O   UNL     1      -7.775  39.232  22.482  1.00  0.00    -0.550 OA
ATOM      4  O   UNL     1      -5.855  39.200  23.731  1.00  0.00    -0.550 OA
ENDBRANCH   1   2
BRANCH   1   5
ATOM      5  C   UNL     1      -5.698  37.186  21.095  1.00  0.00     0.059 C 
BRANCH   5   6
ATOM      6  C   UNL     1      -4.331  36.611  21.314  1.00  0.00     0.042 C 
ATOM      7  O   UNL     1      -3.403  36.856  20.499  1.00  0.00    -0.550 OA
ATOM      8  O   UNL     1      -4.094  35.773  22.396  1.00  0.00    -0.550 OA
ENDBRANCH   5   6
ENDBRANCH   1   5
TORSDOF 3
ENDMDL
MODEL 3
REMARK VINA RESULT:    -3.185     15.676     16.733
REMARK INTER + INTRA:          -3.818
REMARK INTER:                  -3.651
REMARK INTRA:                  -0.167
REMARK UNBOUND:                -0.074
REMARK SMILES O=C([O-])CCC(=O)[O-]
REMARK SMILES IDX 4 1 2 2 1 3 3 4 5 5 6 6 7 7 8 8
REMARK H PARENT
REMARK Flexibility Score: inf
ROOT
ATOM      1  C   UNL     1      -7.546  39.072  21.711  1.00  0.00     0.059 C 
ENDROOT
BRANCH   1   2
ATOM      2  C   UNL     1      -6.638  38.280  22.600  1.00  0.00     0.042 C 
ATOM      3  O   UNL     1      -6.638  37.021  22.547  1.00  0.00    -0.550 OA
ATOM      4  O   UNL     1      -5.820  38.930  23.514  1.00  0.00    -0.550 OA
ENDBRANCH   1   2
BRANCH   1   5
ATOM      5  C   UNL     1      -7.175  38.906  20.233  1.00  0.00     0.059 C 
BRANCH   5   6
ATOM      6  C   UNL     1      -5.746  39.277  19.979  1.00  0.00     0.042 C 
ATOM      7  O   UNL     1      -4.968  38.459  19.423  1.00  0.00    -0.550 OA
ATOM      8  O   UNL     1      -5.264  40.512  20.393  1.00  0.00    -0.550 OA
ENDBRANCH   5   6
ENDBRANCH   1   5
TORSDOF 3
ENDMDL
MODEL 4
REMARK VINA RESULT:    -3.182     15.673     16.758
REMARK INTER + INTRA:          -3.814
REMARK INTER:                  -3.644
REMARK INTRA:                  -0.170
REMARK UNBOUND:                -0.074
REMARK SMILES O=C([O-])CCC(=O)[O-]
REMARK SMILES IDX 4 1 2 2 1 3 3 4 5 5 6 6 7 7 8 8
REMARK H PARENT
REMARK Flexibility Score: inf
ROOT
ATOM      1  C   UNL     1      -7.175  38.938  20.250  1.00  0.00     0.059 C 
ENDROOT
BRANCH   1   2
ATOM      2  C   UNL     1      -5.744  39.307  20.009  1.00  0.00     0.042 C 
ATOM      3  O   UNL     1      -4.960  38.485  19.463  1.00  0.00    -0.550 OA
ATOM      4  O   UNL     1      -5.266  40.543  20.422  1.00  0.00    -0.550 OA
ENDBRANCH   1   2
BRANCH   1   5
ATOM      5  C   UNL     1      -7.570  39.141  21.717  1.00  0.00     0.059 C 
BRANCH   5   6
ATOM      6  C   UNL     1      -6.702  38.337  22.637  1.00  0.00     0.042 C 
ATOM      7  O   UNL     1      -6.708  37.080  22.578  1.00  0.00    -0.550 OA
ATOM      8  O   UNL     1      -5.917  38.978  23.588  1.00  0.00    -0.550 OA
ENDBRANCH   5   6
ENDBRANCH   1   5
TORSDOF 3
ENDMDL
MODEL 5
REMARK VINA RESULT:    -3.170     14.623     15.659
REMARK INTER + INTRA:          -3.800
REMARK INTER:                  -3.709
REMARK INTRA:                  -0.091
REMARK UNBOUND:                -0.074
REMARK SMILES O=C([O-])CCC(=O)[O-]
REMARK SMILES IDX 4 1 2 2 1 3 3 4 5 5 6 6 7 7 8 8
REMARK H PARENT
REMARK Flexibility Score: inf
ROOT
ATOM      1  C   UNL     1      -5.677  37.262  21.004  1.00  0.00     0.059 C 
ENDROOT
BRANCH   1   2
ATOM      2  C   UNL     1      -4.325  36.636  21.160  1.00  0.00     0.042 C 
ATOM      3  O   UNL     1      -4.080  35.893  22.147  1.00  0.00    -0.550 OA
ATOM      4  O   UNL     1      -3.323  36.906  20.237  1.00  0.00    -0.550 OA
ENDBRANCH   1   2
BRANCH   1   5
ATOM      5  C   UNL     1      -6.484  37.193  22.305  1.00  0.00     0.059 C 
BRANCH   5   6
ATOM      6  C   UNL     1      -6.679  38.552  22.905  1.00  0.00     0.042 C 
ATOM      7  O   UNL     1      -7.717  39.216  22.646  1.00  0.00    -0.550 OA
ATOM      8  O   UNL     1      -5.695  39.101  23.717  1.00  0.00    -0.550 OA
ENDBRANCH   5   6
ENDBRANCH   1   5
TORSDOF 3
ENDMDL
MODEL 6
REMARK VINA RESULT:    -3.156     14.740     15.883
REMARK INTER + INTRA:          -3.784
REMARK INTER:                  -3.670
REMARK INTRA:                  -0.114
REMARK UNBOUND:                -0.074
REMARK SMILES O=C([O-])CCC(=O)[O-]
REMARK SMILES IDX 4 1 2 2 1 3 3 4 5 5 6 6 7 7 8 8
REMARK H PARENT
REMARK Flexibility Score: inf
ROOT
ATOM      1  C   UNL     1      -4.997  37.738  22.456  1.00  0.00     0.059 C 
ENDROOT
BRANCH   1   2
ATOM      2  C   UNL     1      -4.346  36.583  21.760  1.00  0.00     0.042 C 
ATOM      3  O   UNL     1      -4.152  35.500  22.374  1.00  0.00    -0.550 OA
ATOM      4  O   UNL     1      -3.916  36.715  20.446  1.00  0.00    -0.550 OA
ENDBRANCH   1   2
BRANCH   1   5
ATOM      5  C   UNL     1      -6.522  37.590  22.489  1.00  0.00     0.059 C 
BRANCH   5   6
ATOM      6  C   UNL     1      -7.187  38.508  21.509  1.00  0.00     0.042 C 
ATOM      7  O   UNL     1      -7.904  39.458  21.918  1.00  0.00    -0.550 OA
ATOM      8  O   UNL     1      -7.046  38.288  20.145  1.00  0.00    -0.550 OA
ENDBRANCH   5   6
ENDBRANCH   1   5
TORSDOF 3
ENDMDL
MODEL 7
REMARK VINA RESULT:    -3.141     17.872     18.420
REMARK INTER + INTRA:          -3.766
REMARK INTER:                  -3.652
REMARK INTRA:                  -0.114
REMARK UNBOUND:                -0.074
REMARK SMILES O=C([O-])CCC(=O)[O-]
REMARK SMILES IDX 4 1 2 2 1 3 3 4 5 5 6 6 7 7 8 8
REMARK H PARENT
REMARK Flexibility Score: inf
ROOT
ATOM      1  C   UNL     1      -0.295  32.450  17.865  1.00  0.00     0.059 C 
ENDROOT
BRANCH   1   2
ATOM      2  C   UNL     1      -0.779  33.551  16.973  1.00  0.00     0.042 C 
ATOM      3  O   UNL     1      -0.204  33.778  15.875  1.00  0.00    -0.550 OA
ATOM      4  O   UNL     1      -1.841  34.352  17.372  1.00  0.00    -0.550 OA
ENDBRANCH   1   2
BRANCH   1   5
ATOM      5  C   UNL     1      -0.844  31.088  17.429  1.00  0.00     0.059 C 
BRANCH   5   6
ATOM      6  C   UNL     1       0.254  30.161  17.003  1.00  0.00     0.042 C 
ATOM      7  O   UNL     1       1.356  30.624  16.609  1.00  0.00    -0.550 OA
ATOM      8  O   UNL     1       0.044  28.788  17.002  1.00  0.00    -0.550 OA
ENDBRANCH   5   6
ENDBRANCH   1   5
TORSDOF 3
ENDMDL
MODEL 8
REMARK VINA RESULT:    -3.070      6.704      8.011
REMARK INTER + INTRA:          -3.682
REMARK INTER:                  -3.529
REMARK INTRA:                  -0.154
REMARK UNBOUND:                -0.074
REMARK SMILES O=C([O-])CCC(=O)[O-]
REMARK SMILES IDX 4 1 2 2 1 3 3 4 5 5 6 6 7 7 8 8
REMARK H PARENT
REMARK Flexibility Score: inf
ROOT
ATOM      1  C   UNL     1      -6.107  21.786  31.413  1.00  0.00     0.059 C 
ENDROOT
BRANCH   1   2
ATOM      2  C   UNL     1      -5.953  22.912  30.438  1.00  0.00     0.042 C 
ATOM      3  O   UNL     1      -5.649  22.675  29.238  1.00  0.00    -0.550 OA
ATOM      4  O   UNL     1      -6.104  24.225  30.862  1.00  0.00    -0.550 OA
ENDBRANCH   1   2
BRANCH   1   5
ATOM      5  C   UNL     1      -7.282  20.875  31.041  1.00  0.00     0.059 C 
BRANCH   5   6
ATOM      6  C   UNL     1      -8.599  21.536  31.313  1.00  0.00     0.042 C 
ATOM      7  O   UNL     1      -9.030  21.629  32.492  1.00  0.00    -0.550 OA
ATOM      8  O   UNL     1      -9.369  22.011  30.259  1.00  0.00    -0.550 OA
ENDBRANCH   5   6
ENDBRANCH   1   5
TORSDOF 3
ENDMDL
MODEL 9
REMARK VINA RESULT:    -3.042     15.885     16.803
REMARK INTER + INTRA:          -3.650
REMARK INTER:                  -3.479
REMARK INTRA:                  -0.171
REMARK UNBOUND:                -0.074
REMARK SMILES O=C([O-])CCC(=O)[O-]
REMARK SMILES IDX 4 1 2 2 1 3 3 4 5 5 6 6 7 7 8 8
REMARK H PARENT
REMARK Flexibility Score: inf
ROOT
ATOM      1  C   UNL     1      -6.819  38.836  19.634  1.00  0.00     0.059 C 
ENDROOT
BRANCH   1   2
ATOM      2  C   UNL     1      -7.046  39.632  20.882  1.00  0.00     0.042 C 
ATOM      3  O   UNL     1      -7.924  39.275  21.712  1.00  0.00    -0.550 OA
ATOM      4  O   UNL     1      -6.316  40.791  21.109  1.00  0.00    -0.550 OA
ENDBRANCH   1   2
BRANCH   1   5
ATOM      5  C   UNL     1      -6.480  37.376  19.950  1.00  0.00     0.059 C 
BRANCH   5   6
ATOM      6  C   UNL     1      -5.231  37.265  20.772  1.00  0.00     0.042 C 
ATOM      7  O   UNL     1      -4.114  37.549  20.268  1.00  0.00    -0.550 OA
ATOM      8  O   UNL     1      -5.300  36.810  22.083  1.00  0.00    -0.550 OA
ENDBRANCH   5   6
ENDBRANCH   1   5
TORSDOF 3
ENDMDL
