MODEL 1
REMARK VINA RESULT:    -3.055      0.000      0.000
REMARK INTER + INTRA:          -3.894
REMARK INTER:                  -3.769
REMARK INTRA:                  -0.125
REMARK UNBOUND:                -0.125
REMARK SMILES CCCCCC(=O)[O-]
REMARK SMILES IDX 4 1 5 2 6 3 7 4 8 5 3 6 2 7 1 8
REMARK H PARENT
REMARK Flexibility Score: inf
ROOT
ATOM      1  C   UNL     1      56.212  28.920  50.748  1.00  0.00     0.006 C 
ENDROOT
BRANCH   1   2
ATOM      2  C   UNL     1      57.446  28.015  50.694  1.00  0.00     0.053 C 
BRANCH   2   3
ATOM      3  C   UNL     1      58.536  28.661  49.898  1.00  0.00     0.041 C 
ATOM      4  O   UNL     1      58.489  29.893  49.641  1.00  0.00    -0.550 OA
ATOM      5  O   UNL     1      59.631  27.913  49.483  1.00  0.00    -0.550 OA
ENDBRANCH   2   3
ENDBRANCH   1   2
BRANCH   1   6
ATOM      6  C   UNL     1      54.926  28.107  50.540  1.00  0.00     0.000 C 
BRANCH   6   7
ATOM      7  C   UNL     1      55.203  26.621  50.267  1.00  0.00    -0.003 C 
ATOM      8  C   UNL     1      53.995  25.893  49.679  1.00  0.00     0.004 C 
ENDBRANCH   6   7
ENDBRANCH   1   6
TORSDOF 4
ENDMDL
MODEL 2
REMARK VINA RESULT:    -2.992      1.077      1.742
REMARK INTER + INTRA:          -3.816
REMARK INTER:                  -3.729
REMARK INTRA:                  -0.087
REMARK UNBOUND:                -0.125
REMARK SMILES CCCCCC(=O)[O-]
REMARK SMILES IDX 4 1 5 2 6 3 7 4 8 5 3 6 2 7 1 8
REMARK H PARENT
REMARK Flexibility Score: inf
ROOT
ATOM      1  C   UNL     1      56.482  28.898  50.731  1.00  0.00     0.006 C 
ENDROOT
BRANCH   1   2
ATOM      2  C   UNL     1      57.836  28.185  50.778  1.00  0.00     0.053 C 
BRANCH   2   3
ATOM      3  C   UNL     1      58.788  28.799  49.801  1.00  0.00     0.041 C 
ATOM      4  O   UNL     1      58.578  29.958  49.355  1.00  0.00    -0.550 OA
ATOM      5  O   UNL     1      59.935  28.113  49.421  1.00  0.00    -0.550 OA
ENDBRANCH   2   3
ENDBRANCH   1   2
BRANCH   1   6
ATOM      6  C   UNL     1      55.330  27.885  50.656  1.00  0.00     0.000 C 
BRANCH   6   7
ATOM      7  C   UNL     1      53.977  28.549  50.361  1.00  0.00    -0.003 C 
ATOM      8  C   UNL     1      53.938  30.020  50.775  1.00  0.00     0.004 C 
ENDBRANCH   6   7
ENDBRANCH   1   6
TORSDOF 4
ENDMDL
MODEL 3
REMARK VINA RESULT:    -2.931      1.823      2.211
REMARK INTER + INTRA:          -3.741
REMARK INTER:                  -3.714
REMARK INTRA:                  -0.027
REMARK UNBOUND:                -0.125
REMARK SMILES CCCCCC(=O)[O-]
REMARK SMILES IDX 4 1 5 2 6 3 7 4 8 5 3 6 2 7 1 8
REMARK H PARENT
REMARK Flexibility Score: inf
ROOT
ATOM      1  C   UNL     1      57.818  29.243  50.884  1.00  0.00     0.006 C 
ENDROOT
BRANCH   1   2
ATOM      2  C   UNL     1      58.671  29.210  49.613  1.00  0.00     0.053 C 
BRANCH   2   3
ATOM      3  C   UNL     1      59.662  28.091  49.674  1.00  0.00     0.041 C 
ATOM      4  O   UNL     1      59.272  26.896  49.612  1.00  0.00    -0.550 OA
ATOM      5  O   UNL     1      61.021  28.369  49.749  1.00  0.00    -0.550 OA
ENDBRANCH   2   3
ENDBRANCH   1   2
BRANCH   1   6
ATOM      6  C   UNL     1      56.504  28.474  50.684  1.00  0.00     0.000 C 
BRANCH   6   7
ATOM      7  C   UNL     1      55.265  29.367  50.853  1.00  0.00    -0.003 C 
ATOM      8  C   UNL     1      53.980  28.692  50.373  1.00  0.00     0.004 C 
ENDBRANCH   6   7
ENDBRANCH   1   6
TORSDOF 4
ENDMDL
MODEL 4
REMARK VINA RESULT:    -2.888      2.680      4.085
REMARK INTER + INTRA:          -3.688
REMARK INTER:                  -3.592
REMARK INTRA:                  -0.096
REMARK UNBOUND:                -0.125
REMARK SMILES CCCCCC(=O)[O-]
REMARK SMILES IDX 4 1 5 2 6 3 7 4 8 5 3 6 2 7 1 8
REMARK H PARENT
REMARK Flexibility Score: inf
ROOT
ATOM      1  C   UNL     1      57.081  28.447  50.770  1.00  0.00     0.006 C 
ENDROOT
BRANCH   1   2
ATOM      2  C   UNL     1      55.734  29.161  50.908  1.00  0.00     0.053 C 
BRANCH   2   3
ATOM      3  C   UNL     1      54.623  28.285  50.422  1.00  0.00     0.041 C 
ATOM      4  O   UNL     1      53.479  28.769  50.216  1.00  0.00    -0.550 OA
ATOM      5  O   UNL     1      54.863  26.944  50.148  1.00  0.00    -0.550 OA
ENDBRANCH   2   3
ENDBRANCH   1   2
BRANCH   1   6
ATOM      6  C   UNL     1      58.115  29.351  50.082  1.00  0.00     0.000 C 
BRANCH   6   7
ATOM      7  C   UNL     1      59.327  28.569  49.555  1.00  0.00    -0.003 C 
ATOM      8  C   UNL     1      59.199  27.061  49.773  1.00  0.00     0.004 C 
ENDBRANCH   6   7
ENDBRANCH   1   6
TORSDOF 4
ENDMDL
MODEL 5
REMARK VINA RESULT:    -2.737      2.799      4.211
REMARK INTER + INTRA:          -3.501
REMARK INTER:                  -3.353
REMARK INTRA:                  -0.148
REMARK UNBOUND:                -0.125
REMARK SMILES CCCCCC(=O)[O-]
REMARK SMILES IDX 4 1 5 2 6 3 7 4 8 5 3 6 2 7 1 8
REMARK H PARENT
REMARK Flexibility Score: inf
ROOT
ATOM      1  C   UNL     1      55.477  28.535  51.549  1.00  0.00     0.006 C 
ENDROOT
BRANCH   1   2
ATOM      2  C   UNL     1      54.635  27.992  50.391  1.00  0.00     0.053 C 
BRANCH   2   3
ATOM      3  C   UNL     1      54.784  26.507  50.284  1.00  0.00     0.041 C 
ATOM      4  O   UNL     1      55.594  25.896  51.031  1.00  0.00    -0.550 OA
ATOM      5  O   UNL     1      53.992  25.790  49.396  1.00  0.00    -0.550 OA
ENDBRANCH   2   3
ENDBRANCH   1   2
BRANCH   1   6
ATOM      6  C   UNL     1      56.598  29.447  51.032  1.00  0.00     0.000 C 
BRANCH   6   7
ATOM      7  C   UNL     1      57.775  28.659  50.436  1.00  0.00    -0.003 C 
ATOM      8  C   UNL     1      58.704  29.531  49.593  1.00  0.00     0.004 C 
ENDBRANCH   6   7
ENDBRANCH   1   6
TORSDOF 4
ENDMDL
MODEL 6
REMARK VINA RESULT:    -2.669     13.188     14.246
REMARK INTER + INTRA:          -3.417
REMARK INTER:                  -3.331
REMARK INTRA:                  -0.087
REMARK UNBOUND:                -0.125
REMARK SMILES CCCCCC(=O)[O-]
REMARK SMILES IDX 4 1 5 2 6 3 7 4 8 5 3 6 2 7 1 8
REMARK H PARENT
REMARK Flexibility Score: inf
ROOT
ATOM      1  C   UNL     1      63.408  34.321  60.808  1.00  0.00     0.006 C 
ENDROOT
BRANCH   1   2
ATOM      2  C   UNL     1      63.277  33.393  59.598  1.00  0.00     0.053 C 
BRANCH   2   3
ATOM      3  C   UNL     1      63.886  32.059  59.890  1.00  0.00     0.041 C 
ATOM      4  O   UNL     1      64.631  31.502  59.041  1.00  0.00    -0.550 OA
ATOM      5  O   UNL     1      63.674  31.452  61.122  1.00  0.00    -0.550 OA
ENDBRANCH   2   3
ENDBRANCH   1   2
BRANCH   1   6
ATOM      6  C   UNL     1      62.243  35.320  60.864  1.00  0.00     0.000 C 
BRANCH   6   7
ATOM      7  C   UNL     1      62.414  36.366  61.976  1.00  0.00    -0.003 C 
ATOM      8  C   UNL     1      63.574  36.045  62.917  1.00  0.00     0.004 C 
ENDBRANCH   6   7
ENDBRANCH   1   6
TORSDOF 4
ENDMDL
MODEL 7
REMARK VINA RESULT:    -2.666     13.952     15.076
REMARK INTER + INTRA:          -3.413
REMARK INTER:                  -3.339
REMARK INTRA:                  -0.075
REMARK UNBOUND:                -0.125
REMARK SMILES CCCCCC(=O)[O-]
REMARK SMILES IDX 4 1 5 2 6 3 7 4 8 5 3 6 2 7 1 8
REMARK H PARENT
REMARK Flexibility Score: inf
ROOT
ATOM      1  C   UNL     1      63.737  34.810  61.646  1.00  0.00     0.006 C 
ENDROOT
BRANCH   1   2
ATOM      2  C   UNL     1      62.621  34.858  60.600  1.00  0.00     0.053 C 
BRANCH   2   3
ATOM      3  C   UNL     1      62.630  33.616  59.765  1.00  0.00     0.041 C 
ATOM      4  O   UNL     1      63.584  32.800  59.854  1.00  0.00    -0.550 OA
ATOM      5  O   UNL     1      61.558  33.335  58.927  1.00  0.00    -0.550 OA
ENDBRANCH   2   3
ENDBRANCH   1   2
BRANCH   1   6
ATOM      6  C   UNL     1      64.005  36.205  62.230  1.00  0.00     0.000 C 
BRANCH   6   7
ATOM      7  C   UNL     1      62.860  36.700  63.126  1.00  0.00    -0.003 C 
ATOM      8  C   UNL     1      63.251  36.769  64.601  1.00  0.00     0.004 C 
ENDBRANCH   6   7
ENDBRANCH   1   6
TORSDOF 4
ENDMDL
MODEL 8
REMARK VINA RESULT:    -2.591     17.167     18.392
REMARK INTER + INTRA:          -3.321
REMARK INTER:                  -3.090
REMARK INTRA:                  -0.230
REMARK UNBOUND:                -0.125
REMARK SMILES CCCCCC(=O)[O-]
REMARK SMILES IDX 4 1 5 2 6 3 7 4 8 5 3 6 2 7 1 8
REMARK H PARENT
REMARK Flexibility Score: inf
ROOT
ATOM      1  C   UNL     1      72.054  30.206  61.994  1.00  0.00     0.006 C 
ENDROOT
BRANCH   1   2
ATOM      2  C   UNL     1      71.276  29.036  61.387  1.00  0.00     0.053 C 
BRANCH   2   3
ATOM      3  C   UNL     1      69.803  29.256  61.526  1.00  0.00     0.041 C 
ATOM      4  O   UNL     1      69.279  29.332  62.669  1.00  0.00    -0.550 OA
ATOM      5  O   UNL     1      69.015  29.428  60.395  1.00  0.00    -0.550 OA
ENDBRANCH   2   3
ENDBRANCH   1   2
BRANCH   1   6
ATOM      6  C   UNL     1      72.515  31.184  60.904  1.00  0.00     0.000 C 
BRANCH   6   7
ATOM      7  C   UNL     1      71.601  32.413  60.785  1.00  0.00    -0.003 C 
ATOM      8  C   UNL     1      70.843  32.460  59.459  1.00  0.00     0.004 C 
ENDBRANCH   6   7
ENDBRANCH   1   6
TORSDOF 4
ENDMDL
MODEL 9
REMARK VINA RESULT:    -2.564     17.172     17.883
REMARK INTER + INTRA:          -3.289
REMARK INTER:                  -3.155
REMARK INTRA:                  -0.134
REMARK UNBOUND:                -0.125
REMARK SMILES CCCCCC(=O)[O-]
REMARK SMILES IDX 4 1 5 2 6 3 7 4 8 5 3 6 2 7 1 8
REMARK H PARENT
REMARK Flexibility Score: inf
ROOT
ATOM      1  C   UNL     1      70.007  30.326  60.010  1.00  0.00     0.006 C 
ENDROOT
BRANCH   1   2
ATOM      2  C   UNL     1      71.492  30.637  59.811  1.00  0.00     0.053 C 
BRANCH   2   3
ATOM      3  C   UNL     1      71.985  31.555  60.884  1.00  0.00     0.041 C 
ATOM      4  O   UNL     1      71.710  32.783  60.843  1.00  0.00    -0.550 OA
ATOM      5  O   UNL     1      72.705  31.047  61.958  1.00  0.00    -0.550 OA
ENDBRANCH   2   3
ENDBRANCH   1   2
BRANCH   1   6
ATOM      6  C   UNL     1      69.819  29.029  60.810  1.00  0.00     0.000 C 
BRANCH   6   7
ATOM      7  C   UNL     1      69.206  29.273  62.197  1.00  0.00    -0.003 C 
ATOM      8  C   UNL     1      67.960  28.425  62.451  1.00  0.00     0.004 C 
ENDBRANCH   6   7
ENDBRANCH   1   6
TORSDOF 4
ENDMDL
