MODEL 1
REMARK VINA RESULT:     6.945      0.000      0.000
REMARK INTER + INTRA:           7.889
REMARK INTER:                   7.555
REMARK INTRA:                   0.334
REMARK UNBOUND:                 0.334
REMARK SMILES CC1(C)CC[C@]2(C(=O)[O-])CC[C@]3(C)C(=CC[C@@H]4[C@]5(C)CC[C@H](O)C(C)(C)[C@@H]5CC[C@@]43C)[C@@H]2C1
REMARK SMILES IDX 6 1 5 2 10 3 32 4 4 5 11 6 14 7 33 8 2 9 12 10 15 11 1 12
REMARK SMILES IDX 3 13 13 14 30 15 16 16 17 17 29 18 31 19 18 20 28 21 27 22
REMARK SMILES IDX 20 23 19 24 24 25 21 26 22 27 25 28 26 29 7 30 8 31 9 32
REMARK SMILES IDX 23 33
REMARK H PARENT 23 34
REMARK Flexibility Score: inf
ROOT
ATOM      1  C   UNL     1     -45.901  26.449  -1.923  1.00  0.00     0.017 C 
ATOM      2  C   UNL     1     -47.122  26.934  -2.738  1.00  0.00     0.014 C 
ATOM      3  C   UNL     1     -46.366  25.786  -0.605  1.00  0.00     0.014 C 
ATOM      4  C   UNL     1     -44.922  27.622  -1.590  1.00  0.00     0.028 C 
ATOM      5  C   UNL     1     -46.705  27.618  -4.041  1.00  0.00     0.007 C 
ATOM      6  C   UNL     1     -47.057  26.753   0.358  1.00  0.00     0.013 C 
ATOM      7  C   UNL     1     -45.008  28.211  -0.165  1.00  0.00    -0.064 C 
ATOM      8  C   UNL     1     -44.767  28.720  -2.707  1.00  0.00     0.015 C 
ATOM      9  C   UNL     1     -45.884  28.905  -3.802  1.00  0.00    -0.035 C 
ATOM     10  C   UNL     1     -46.225  28.035   0.757  1.00  0.00    -0.006 C 
ATOM     11  C   UNL     1     -43.935  28.901   0.257  1.00  0.00    -0.027 C 
ATOM     12  C   UNL     1     -45.197  29.287  -5.138  1.00  0.00     0.011 C 
ATOM     13  C   UNL     1     -46.836  30.079  -3.451  1.00  0.00     0.011 C 
ATOM     14  C   UNL     1     -47.125  29.267   0.468  1.00  0.00     0.017 C 
ATOM     15  C   UNL     1     -45.809  28.000   2.320  1.00  0.00    -0.020 C 
ATOM     16  C   UNL     1     -43.627  29.198   1.689  1.00  0.00     0.032 C 
ATOM     17  C   UNL     1     -44.823  29.177   2.683  1.00  0.00     0.006 C 
ATOM     18  C   UNL     1     -45.095  26.649   2.678  1.00  0.00     0.008 C 
ATOM     19  C   UNL     1     -47.125  28.134   3.161  1.00  0.00     0.012 C 
ATOM     20  C   UNL     1     -44.365  29.225   4.239  1.00  0.00    -0.025 C 
ATOM     21  C   UNL     1     -44.047  26.688   3.819  1.00  0.00     0.005 C 
ATOM     22  C   UNL     1     -44.317  27.765   4.904  1.00  0.00     0.003 C 
ATOM     23  C   UNL     1     -42.981  29.961   4.379  1.00  0.00     0.010 C 
ATOM     24  C   UNL     1     -45.404  30.121   4.997  1.00  0.00     0.012 C 
ATOM     25  C   UNL     1     -43.421  27.604   6.225  1.00  0.00    -0.006 C 
ATOM     26  C   UNL     1     -42.337  29.862   5.761  1.00  0.00     0.033 C 
ATOM     27  C   UNL     1     -42.091  28.406   6.137  1.00  0.00     0.120 C 
ATOM     28  C   UNL     1     -43.063  26.118   6.523  1.00  0.00     0.014 C 
ATOM     29  C   UNL     1     -44.214  28.064   7.488  1.00  0.00     0.014 C 
ENDROOT
BRANCH   1  30
ATOM     30  C   UNL     1     -45.188  25.368  -2.745  1.00  0.00     0.048 C 
ATOM     31  O   UNL     1     -44.600  25.661  -3.821  1.00  0.00    -0.550 OA
ATOM     32  O   UNL     1     -45.242  24.032  -2.355  1.00  0.00    -0.550 OA
ENDBRANCH   1  30
BRANCH  27  33
ATOM     33  O   UNL     1     -41.219  27.835   5.188  1.00  0.00    -0.393 OA
ATOM     34  H   UNL     1     -41.151  26.864   5.384  1.00  0.00     0.210 HD
ENDBRANCH  27  33
TORSDOF 2
ENDMDL
