MODEL 1
REMARK VINA RESULT:    -2.463      0.000      0.000
REMARK INTER + INTRA:          -3.043
REMARK INTER:                  -2.607
REMARK INTRA:                  -0.435
REMARK UNBOUND:                -0.435
REMARK SMILES CC1=CC[C@@H]2[C@H]3[C@H](C(C)C)CC[C@]2(C)[C@@H]13
REMARK SMILES IDX 1 1 2 2 3 3 4 4 5 5 6 6 15 7 13 8 12 9 11 10 7 11 14 12 8 13
REMARK SMILES IDX 9 14 10 15
REMARK H PARENT
REMARK Flexibility Score: inf
ROOT
ATOM      1  C   UNL     1     161.001 160.005 140.854  1.00  0.00     0.039 C 
ATOM      2  C   UNL     1     161.492 159.810 139.451  1.00  0.00    -0.073 C 
ATOM      3  C   UNL     1     160.640 159.856 138.392  1.00  0.00    -0.027 C 
ATOM      4  C   UNL     1     161.204 159.671 136.979  1.00  0.00     0.031 C 
ATOM      5  C   UNL     1     162.746 159.412 137.038  1.00  0.00     0.003 C 
ATOM      6  C   UNL     1     162.998 158.356 138.138  1.00  0.00     0.004 C 
ATOM      7  C   UNL     1     162.967 159.531 139.146  1.00  0.00     0.024 C 
ATOM      8  C   UNL     1     163.451 160.421 137.972  1.00  0.00    -0.022 C 
ATOM      9  C   UNL     1     164.988 160.291 137.771  1.00  0.00     0.008 C 
ATOM     10  C   UNL     1     165.512 158.876 138.121  1.00  0.00     0.005 C 
ATOM     11  C   UNL     1     164.431 157.752 137.985  1.00  0.00    -0.005 C 
ATOM     12  C   UNL     1     163.014 161.905 137.930  1.00  0.00     0.012 C 
ENDROOT
BRANCH  11  13
ATOM     13  C   UNL     1     164.700 156.580 138.985  1.00  0.00    -0.014 C 
ATOM     14  C   UNL     1     165.499 157.034 140.221  1.00  0.00     0.007 C 
ATOM     15  C   UNL     1     163.382 155.938 139.458  1.00  0.00     0.007 C 
ENDBRANCH  11  13
TORSDOF 1
ENDMDL
MODEL 2
REMARK VINA RESULT:    -2.459     13.057     15.985
REMARK INTER + INTRA:          -3.038
REMARK INTER:                  -2.609
REMARK INTRA:                  -0.430
REMARK UNBOUND:                -0.435
REMARK SMILES CC1=CC[C@@H]2[C@H]3[C@H](C(C)C)CC[C@]2(C)[C@@H]13
REMARK SMILES IDX 1 1 2 2 3 3 4 4 5 5 6 6 15 7 13 8 12 9 11 10 7 11 14 12 8 13
REMARK SMILES IDX 9 14 10 15
REMARK H PARENT
REMARK Flexibility Score: inf
ROOT
ATOM      1  C   UNL     1     165.968 170.847 139.198  1.00  0.00     0.039 C 
ATOM      2  C   UNL     1     167.003 171.868 139.565  1.00  0.00    -0.073 C 
ATOM      3  C   UNL     1     168.098 171.531 140.298  1.00  0.00    -0.027 C 
ATOM      4  C   UNL     1     169.132 172.613 140.625  1.00  0.00     0.031 C 
ATOM      5  C   UNL     1     168.679 173.994 140.044  1.00  0.00     0.003 C 
ATOM      6  C   UNL     1     167.188 174.183 140.409  1.00  0.00     0.004 C 
ATOM      7  C   UNL     1     166.867 173.336 139.152  1.00  0.00     0.024 C 
ATOM      8  C   UNL     1     168.209 173.860 138.578  1.00  0.00    -0.022 C 
ATOM      9  C   UNL     1     168.041 175.286 137.980  1.00  0.00     0.008 C 
ATOM     10  C   UNL     1     166.984 176.125 138.742  1.00  0.00     0.005 C 
ATOM     11  C   UNL     1     166.778 175.680 140.228  1.00  0.00    -0.005 C 
ATOM     12  C   UNL     1     169.015 172.953 137.617  1.00  0.00     0.012 C 
ENDROOT
BRANCH  11  13
ATOM     13  C   UNL     1     165.317 175.966 140.710  1.00  0.00    -0.014 C 
ATOM     14  C   UNL     1     164.323 176.078 139.539  1.00  0.00     0.007 C 
ATOM     15  C   UNL     1     164.824 174.869 141.672  1.00  0.00     0.007 C 
ENDBRANCH  11  13
TORSDOF 1
ENDMDL
MODEL 3
REMARK VINA RESULT:    -2.449      2.105      4.441
REMARK INTER + INTRA:          -3.028
REMARK INTER:                  -2.591
REMARK INTRA:                  -0.437
REMARK UNBOUND:                -0.435
REMARK SMILES CC1=CC[C@@H]2[C@H]3[C@H](C(C)C)CC[C@]2(C)[C@@H]13
REMARK SMILES IDX 1 1 2 2 3 3 4 4 5 5 6 6 15 7 13 8 12 9 11 10 7 11 14 12 8 13
REMARK SMILES IDX 9 14 10 15
REMARK H PARENT
REMARK Flexibility Score: inf
ROOT
ATOM      1  C   UNL     1     164.364 158.475 142.555  1.00  0.00     0.039 C 
ATOM      2  C   UNL     1     164.838 157.861 141.272  1.00  0.00    -0.073 C 
ATOM      3  C   UNL     1     165.573 156.717 141.266  1.00  0.00    -0.027 C 
ATOM      4  C   UNL     1     166.011 156.125 139.922  1.00  0.00     0.031 C 
ATOM      5  C   UNL     1     165.524 157.033 138.743  1.00  0.00     0.003 C 
ATOM      6  C   UNL     1     165.860 158.495 139.114  1.00  0.00     0.004 C 
ATOM      7  C   UNL     1     164.534 158.501 139.914  1.00  0.00     0.024 C 
ATOM      8  C   UNL     1     164.039 157.426 138.912  1.00  0.00    -0.022 C 
ATOM      9  C   UNL     1     163.548 158.081 137.589  1.00  0.00     0.008 C 
ATOM     10  C   UNL     1     164.341 159.365 137.236  1.00  0.00     0.005 C 
ATOM     11  C   UNL     1     165.782 159.402 137.844  1.00  0.00    -0.005 C 
ATOM     12  C   UNL     1     163.036 156.354 139.400  1.00  0.00     0.012 C 
ENDROOT
BRANCH  11  13
ATOM     13  C   UNL     1     166.243 160.871 138.124  1.00  0.00    -0.014 C 
ATOM     14  C   UNL     1     165.056 161.825 138.354  1.00  0.00     0.007 C 
ATOM     15  C   UNL     1     167.174 160.938 139.349  1.00  0.00     0.007 C 
ENDBRANCH  11  13
TORSDOF 1
ENDMDL
MODEL 4
REMARK VINA RESULT:    -2.446      1.631      3.435
REMARK INTER + INTRA:          -3.025
REMARK INTER:                  -2.593
REMARK INTRA:                  -0.432
REMARK UNBOUND:                -0.435
REMARK SMILES CC1=CC[C@@H]2[C@H]3[C@H](C(C)C)CC[C@]2(C)[C@@H]13
REMARK SMILES IDX 1 1 2 2 3 3 4 4 5 5 6 6 15 7 13 8 12 9 11 10 7 11 14 12 8 13
REMARK SMILES IDX 9 14 10 15
REMARK H PARENT
REMARK Flexibility Score: inf
ROOT
ATOM      1  C   UNL     1     165.890 161.218 138.938  1.00  0.00     0.039 C 
ATOM      2  C   UNL     1     164.912 160.164 139.360  1.00  0.00    -0.073 C 
ATOM      3  C   UNL     1     163.796 160.480 140.071  1.00  0.00    -0.027 C 
ATOM      4  C   UNL     1     162.822 159.361 140.456  1.00  0.00     0.031 C 
ATOM      5  C   UNL     1     163.355 157.978 139.955  1.00  0.00     0.003 C 
ATOM      6  C   UNL     1     164.852 157.892 140.332  1.00  0.00     0.004 C 
ATOM      7  C   UNL     1     165.131 158.684 139.031  1.00  0.00     0.024 C 
ATOM      8  C   UNL     1     163.824 158.056 138.484  1.00  0.00    -0.022 C 
ATOM      9  C   UNL     1     164.073 156.610 137.967  1.00  0.00     0.008 C 
ATOM     10  C   UNL     1     165.171 155.875 138.776  1.00  0.00     0.005 C 
ATOM     11  C   UNL     1     165.345 156.413 140.235  1.00  0.00    -0.005 C 
ATOM     12  C   UNL     1     162.972 158.861 137.473  1.00  0.00     0.012 C 
ENDROOT
BRANCH  11  13
ATOM     13  C   UNL     1     166.817 156.236 140.735  1.00  0.00    -0.014 C 
ATOM     14  C   UNL     1     167.823 156.127 139.574  1.00  0.00     0.007 C 
ATOM     15  C   UNL     1     167.240 157.405 141.645  1.00  0.00     0.007 C 
ENDBRANCH  11  13
TORSDOF 1
ENDMDL
MODEL 5
REMARK VINA RESULT:    -2.442     12.565     15.163
REMARK INTER + INTRA:          -3.020
REMARK INTER:                  -2.587
REMARK INTRA:                  -0.433
REMARK UNBOUND:                -0.435
REMARK SMILES CC1=CC[C@@H]2[C@H]3[C@H](C(C)C)CC[C@]2(C)[C@@H]13
REMARK SMILES IDX 1 1 2 2 3 3 4 4 5 5 6 6 15 7 13 8 12 9 11 10 7 11 14 12 8 13
REMARK SMILES IDX 9 14 10 15
REMARK H PARENT
REMARK Flexibility Score: inf
ROOT
ATOM      1  C   UNL     1     167.597 173.526 142.565  1.00  0.00     0.039 C 
ATOM      2  C   UNL     1     167.135 174.144 141.280  1.00  0.00    -0.073 C 
ATOM      3  C   UNL     1     166.404 175.290 141.270  1.00  0.00    -0.027 C 
ATOM      4  C   UNL     1     165.978 175.886 139.924  1.00  0.00     0.031 C 
ATOM      5  C   UNL     1     166.470 174.980 138.747  1.00  0.00     0.003 C 
ATOM      6  C   UNL     1     166.127 173.517 139.112  1.00  0.00     0.004 C 
ATOM      7  C   UNL     1     167.447 173.506 139.923  1.00  0.00     0.024 C 
ATOM      8  C   UNL     1     167.952 174.581 138.927  1.00  0.00    -0.022 C 
ATOM      9  C   UNL     1     168.452 173.927 137.606  1.00  0.00     0.008 C 
ATOM     10  C   UNL     1     167.657 172.647 137.244  1.00  0.00     0.005 C 
ATOM     11  C   UNL     1     166.212 172.613 137.841  1.00  0.00    -0.005 C 
ATOM     12  C   UNL     1     168.956 175.649 139.425  1.00  0.00     0.012 C 
ENDROOT
BRANCH  11  13
ATOM     13  C   UNL     1     165.744 171.145 138.114  1.00  0.00    -0.014 C 
ATOM     14  C   UNL     1     166.927 170.174 138.284  1.00  0.00     0.007 C 
ATOM     15  C   UNL     1     164.858 171.069 139.372  1.00  0.00     0.007 C 
ENDBRANCH  11  13
TORSDOF 1
ENDMDL
MODEL 6
REMARK VINA RESULT:    -2.439     12.677     15.583
REMARK INTER + INTRA:          -3.017
REMARK INTER:                  -2.586
REMARK INTRA:                  -0.431
REMARK UNBOUND:                -0.435
REMARK SMILES CC1=CC[C@@H]2[C@H]3[C@H](C(C)C)CC[C@]2(C)[C@@H]13
REMARK SMILES IDX 1 1 2 2 3 3 4 4 5 5 6 6 15 7 13 8 12 9 11 10 7 11 14 12 8 13
REMARK SMILES IDX 9 14 10 15
REMARK H PARENT
REMARK Flexibility Score: inf
ROOT
ATOM      1  C   UNL     1     170.923 171.830 140.828  1.00  0.00     0.039 C 
ATOM      2  C   UNL     1     170.452 172.075 139.427  1.00  0.00    -0.073 C 
ATOM      3  C   UNL     1     171.317 172.054 138.377  1.00  0.00    -0.027 C 
ATOM      4  C   UNL     1     170.773 172.291 136.964  1.00  0.00     0.031 C 
ATOM      5  C   UNL     1     169.233 172.563 137.012  1.00  0.00     0.003 C 
ATOM      6  C   UNL     1     168.977 173.586 138.143  1.00  0.00     0.004 C 
ATOM      7  C   UNL     1     168.984 172.378 139.112  1.00  0.00     0.024 C 
ATOM      8  C   UNL     1     168.507 171.532 137.905  1.00  0.00    -0.022 C 
ATOM      9  C   UNL     1     166.973 171.684 137.688  1.00  0.00     0.008 C 
ATOM     10  C   UNL     1     166.459 173.092 138.077  1.00  0.00     0.005 C 
ATOM     11  C   UNL     1     167.552 174.208 137.991  1.00  0.00    -0.005 C 
ATOM     12  C   UNL     1     168.929 170.045 137.820  1.00  0.00     0.012 C 
ENDROOT
BRANCH  11  13
ATOM     13  C   UNL     1     167.282 175.351 139.025  1.00  0.00    -0.014 C 
ATOM     14  C   UNL     1     166.553 174.844 140.283  1.00  0.00     0.007 C 
ATOM     15  C   UNL     1     168.594 176.034 139.456  1.00  0.00     0.007 C 
ENDBRANCH  11  13
TORSDOF 1
ENDMDL
MODEL 7
REMARK VINA RESULT:    -2.377     12.674     15.508
REMARK INTER + INTRA:          -2.951
REMARK INTER:                  -2.526
REMARK INTRA:                  -0.425
REMARK UNBOUND:                -0.435
REMARK SMILES CC1=CC[C@@H]2[C@H]3[C@H](C(C)C)CC[C@]2(C)[C@@H]13
REMARK SMILES IDX 1 1 2 2 3 3 4 4 5 5 6 6 15 7 13 8 12 9 11 10 7 11 14 12 8 13
REMARK SMILES IDX 9 14 10 15
REMARK H PARENT
REMARK Flexibility Score: inf
ROOT
ATOM      1  C   UNL     1     166.930 170.717 140.725  1.00  0.00     0.039 C 
ATOM      2  C   UNL     1     165.976 171.767 140.243  1.00  0.00    -0.073 C 
ATOM      3  C   UNL     1     164.803 171.433 139.642  1.00  0.00    -0.027 C 
ATOM      4  C   UNL     1     163.857 172.550 139.189  1.00  0.00     0.031 C 
ATOM      5  C   UNL     1     164.484 173.952 139.494  1.00  0.00     0.003 C 
ATOM      6  C   UNL     1     165.955 173.915 139.021  1.00  0.00     0.004 C 
ATOM      7  C   UNL     1     166.283 173.261 140.386  1.00  0.00     0.024 C 
ATOM      8  C   UNL     1     165.044 174.015 140.933  1.00  0.00    -0.022 C 
ATOM      9  C   UNL     1     165.393 175.495 141.263  1.00  0.00     0.008 C 
ATOM     10  C   UNL     1     166.468 176.075 140.310  1.00  0.00     0.005 C 
ATOM     11  C   UNL     1     166.521 175.367 138.916  1.00  0.00    -0.005 C 
ATOM     12  C   UNL     1     164.226 173.375 142.080  1.00  0.00     0.012 C 
ENDROOT
BRANCH  11  13
ATOM     13  C   UNL     1     167.963 175.409 138.311  1.00  0.00    -0.014 C 
ATOM     14  C   UNL     1     169.043 175.644 139.384  1.00  0.00     0.007 C 
ATOM     15  C   UNL     1     168.290 174.104 137.560  1.00  0.00     0.007 C 
ENDBRANCH  11  13
TORSDOF 1
ENDMDL
MODEL 8
REMARK VINA RESULT:    -2.351      2.528      4.816
REMARK INTER + INTRA:          -2.923
REMARK INTER:                  -2.502
REMARK INTRA:                  -0.421
REMARK UNBOUND:                -0.435
REMARK SMILES CC1=CC[C@@H]2[C@H]3[C@H](C(C)C)CC[C@]2(C)[C@@H]13
REMARK SMILES IDX 1 1 2 2 3 3 4 4 5 5 6 6 15 7 13 8 12 9 11 10 7 11 14 12 8 13
REMARK SMILES IDX 9 14 10 15
REMARK H PARENT
REMARK Flexibility Score: inf
ROOT
ATOM      1  C   UNL     1     165.408 161.259 140.685  1.00  0.00     0.039 C 
ATOM      2  C   UNL     1     166.266 160.115 140.235  1.00  0.00    -0.073 C 
ATOM      3  C   UNL     1     167.473 160.327 139.646  1.00  0.00    -0.027 C 
ATOM      4  C   UNL     1     168.315 159.117 139.226  1.00  0.00     0.031 C 
ATOM      5  C   UNL     1     167.554 157.787 139.545  1.00  0.00     0.003 C 
ATOM      6  C   UNL     1     166.100 157.954 139.048  1.00  0.00     0.004 C 
ATOM      7  C   UNL     1     165.817 158.660 140.397  1.00  0.00     0.024 C 
ATOM      8  C   UNL     1     166.971 157.802 140.976  1.00  0.00    -0.022 C 
ATOM      9  C   UNL     1     166.480 156.368 141.325  1.00  0.00     0.008 C 
ATOM     10  C   UNL     1     165.367 155.875 140.365  1.00  0.00     0.005 C 
ATOM     11  C   UNL     1     165.400 156.560 138.958  1.00  0.00    -0.005 C 
ATOM     12  C   UNL     1     167.831 158.383 142.124  1.00  0.00     0.012 C 
ENDROOT
BRANCH  11  13
ATOM     13  C   UNL     1     163.969 156.644 138.333  1.00  0.00    -0.014 C 
ATOM     14  C   UNL     1     162.857 156.508 139.390  1.00  0.00     0.007 C 
ATOM     15  C   UNL     1     163.769 157.970 137.575  1.00  0.00     0.007 C 
ENDBRANCH  11  13
TORSDOF 1
ENDMDL
MODEL 9
REMARK VINA RESULT:     0.318     13.551     15.676
REMARK INTER + INTRA:          -0.099
REMARK INTER:                   0.326
REMARK INTRA:                  -0.424
REMARK UNBOUND:                -0.435
REMARK SMILES CC1=CC[C@@H]2[C@H]3[C@H](C(C)C)CC[C@]2(C)[C@@H]13
REMARK SMILES IDX 1 1 2 2 3 3 4 4 5 5 6 6 15 7 13 8 12 9 11 10 7 11 14 12 8 13
REMARK SMILES IDX 9 14 10 15
REMARK H PARENT
REMARK Flexibility Score: inf
ROOT
ATOM      1  C   UNL     1     166.098 171.672 141.629  1.00  0.00     0.039 C 
ATOM      2  C   UNL     1     165.807 172.862 140.764  1.00  0.00    -0.073 C 
ATOM      3  C   UNL     1     164.532 173.207 140.444  1.00  0.00    -0.027 C 
ATOM      4  C   UNL     1     164.296 174.447 139.573  1.00  0.00     0.031 C 
ATOM      5  C   UNL     1     165.662 175.095 139.168  1.00  0.00     0.003 C 
ATOM      6  C   UNL     1     166.593 173.956 138.693  1.00  0.00     0.004 C 
ATOM      7  C   UNL     1     166.929 173.731 140.188  1.00  0.00     0.024 C 
ATOM      8  C   UNL     1     166.603 175.233 140.386  1.00  0.00    -0.022 C 
ATOM      9  C   UNL     1     167.810 176.125 139.980  1.00  0.00     0.008 C 
ATOM     10  C   UNL     1     168.630 175.514 138.815  1.00  0.00     0.005 C 
ATOM     11  C   UNL     1     167.804 174.548 137.903  1.00  0.00    -0.005 C 
ATOM     12  C   UNL     1     166.007 175.697 141.737  1.00  0.00     0.012 C 
ENDROOT
BRANCH  11  13
ATOM     13  C   UNL     1     168.714 173.440 137.277  1.00  0.00    -0.014 C 
ATOM     14  C   UNL     1     169.888 173.055 138.197  1.00  0.00     0.007 C 
ATOM     15  C   UNL     1     167.904 172.170 136.955  1.00  0.00     0.007 C 
ENDBRANCH  11  13
TORSDOF 1
ENDMDL
