MODEL 1
REMARK VINA RESULT:    -4.896      0.000      0.000
REMARK INTER + INTRA:          -5.380
REMARK INTER:                  -5.325
REMARK INTRA:                  -0.054
REMARK UNBOUND:                -0.054
REMARK SMILES Cc1ccc(C(C)C)c(O)c1
REMARK SMILES IDX 1 1 2 2 11 3 9 4 5 5 4 6 3 7 10 8 6 10 7 11 8 12
REMARK H PARENT 10 9
REMARK Flexibility Score: inf
ROOT
ATOM      1  C   UNL     1     -28.284 -12.025   0.556  1.00  0.00     0.044 C 
ATOM      2  C   UNL     1     -28.702 -11.321   1.813  1.00  0.00    -0.047 A 
ATOM      3  C   UNL     1     -29.989 -10.780   1.923  1.00  0.00     0.049 A 
ATOM      4  C   UNL     1     -30.402 -10.152   3.109  1.00  0.00     0.119 A 
ATOM      5  C   UNL     1     -29.519 -10.071   4.209  1.00  0.00    -0.004 A 
ATOM      6  C   UNL     1     -28.235 -10.636   4.093  1.00  0.00     0.008 A 
ATOM      7  C   UNL     1     -27.834 -11.260   2.910  1.00  0.00     0.004 A 
ENDROOT
BRANCH   4   8
ATOM      8  O   UNL     1     -31.686  -9.613   3.190  1.00  0.00    -0.508 OA
ATOM      9  H   UNL     1     -31.858  -8.623   3.055  1.00  0.00     0.293 HD
ENDBRANCH   4   8
BRANCH   5  10
ATOM     10  C   UNL     1     -29.943  -9.395   5.506  1.00  0.00     0.017 C 
ATOM     11  C   UNL     1     -28.990  -9.755   6.652  1.00  0.00     0.012 C 
ATOM     12  C   UNL     1     -30.044  -7.875   5.329  1.00  0.00     0.012 C 
ENDBRANCH   5  10
TORSDOF 2
ENDMDL
MODEL 2
REMARK VINA RESULT:    -4.861      1.750      3.414
REMARK INTER + INTRA:          -5.342
REMARK INTER:                  -5.468
REMARK INTRA:                   0.126
REMARK UNBOUND:                -0.054
REMARK SMILES Cc1ccc(C(C)C)c(O)c1
REMARK SMILES IDX 1 1 2 2 11 3 9 4 5 5 4 6 3 7 10 8 6 10 7 11 8 12
REMARK H PARENT 10 9
REMARK Flexibility Score: inf
ROOT
ATOM      1  C   UNL     1     -27.128 -11.600   3.752  1.00  0.00     0.044 C 
ATOM      2  C   UNL     1     -28.342 -10.871   3.259  1.00  0.00    -0.047 A 
ATOM      3  C   UNL     1     -29.000  -9.954   4.088  1.00  0.00     0.049 A 
ATOM      4  C   UNL     1     -30.115  -9.240   3.623  1.00  0.00     0.119 A 
ATOM      5  C   UNL     1     -30.578  -9.435   2.302  1.00  0.00    -0.004 A 
ATOM      6  C   UNL     1     -29.896 -10.345   1.471  1.00  0.00     0.008 A 
ATOM      7  C   UNL     1     -28.787 -11.050   1.943  1.00  0.00     0.004 A 
ENDROOT
BRANCH   4   8
ATOM      8  O   UNL     1     -30.758  -8.339   4.472  1.00  0.00    -0.508 OA
ATOM      9  H   UNL     1     -31.675  -8.534   4.860  1.00  0.00     0.293 HD
ENDBRANCH   4   8
BRANCH   5  10
ATOM     10  C   UNL     1     -31.785  -8.673   1.773  1.00  0.00     0.017 C 
ATOM     11  C   UNL     1     -32.030  -8.987   0.293  1.00  0.00     0.012 C 
ATOM     12  C   UNL     1     -33.034  -8.965   2.614  1.00  0.00     0.012 C 
ENDBRANCH   5  10
TORSDOF 2
ENDMDL
MODEL 3
REMARK VINA RESULT:    -4.791      1.637      2.431
REMARK INTER + INTRA:          -5.265
REMARK INTER:                  -5.221
REMARK INTRA:                  -0.044
REMARK UNBOUND:                -0.054
REMARK SMILES Cc1ccc(C(C)C)c(O)c1
REMARK SMILES IDX 1 1 2 2 11 3 9 4 5 5 4 6 3 7 10 8 6 10 7 11 8 12
REMARK H PARENT 10 9
REMARK Flexibility Score: inf
ROOT
ATOM      1  C   UNL     1     -28.685 -12.375   0.096  1.00  0.00     0.044 C 
ATOM      2  C   UNL     1     -28.866 -11.577   1.354  1.00  0.00    -0.047 A 
ATOM      3  C   UNL     1     -27.928 -11.669   2.389  1.00  0.00     0.049 A 
ATOM      4  C   UNL     1     -28.068 -10.899   3.554  1.00  0.00     0.119 A 
ATOM      5  C   UNL     1     -29.159 -10.011   3.685  1.00  0.00    -0.004 A 
ATOM      6  C   UNL     1     -30.085  -9.912   2.629  1.00  0.00     0.008 A 
ATOM      7  C   UNL     1     -29.936 -10.681   1.474  1.00  0.00     0.004 A 
ENDROOT
BRANCH   4   8
ATOM      8  O   UNL     1     -27.124 -11.017   4.574  1.00  0.00    -0.508 OA
ATOM      9  H   UNL     1     -27.383 -11.317   5.507  1.00  0.00     0.293 HD
ENDBRANCH   4   8
BRANCH   5  10
ATOM     10  C   UNL     1     -29.334  -9.164   4.939  1.00  0.00     0.017 C 
ATOM     11  C   UNL     1     -30.356  -8.044   4.709  1.00  0.00     0.012 C 
ATOM     12  C   UNL     1     -29.726 -10.031   6.141  1.00  0.00     0.012 C 
ENDBRANCH   5  10
TORSDOF 2
ENDMDL
MODEL 4
REMARK VINA RESULT:    -4.771      1.742      4.367
REMARK INTER + INTRA:          -5.243
REMARK INTER:                  -5.369
REMARK INTRA:                   0.126
REMARK UNBOUND:                -0.054
REMARK SMILES Cc1ccc(C(C)C)c(O)c1
REMARK SMILES IDX 1 1 2 2 11 3 9 4 5 5 4 6 3 7 10 8 6 10 7 11 8 12
REMARK H PARENT 10 9
REMARK Flexibility Score: inf
ROOT
ATOM      1  C   UNL     1     -29.267  -9.617   7.004  1.00  0.00     0.044 C 
ATOM      2  C   UNL     1     -29.335  -9.814   5.519  1.00  0.00    -0.047 A 
ATOM      3  C   UNL     1     -28.334 -10.537   4.857  1.00  0.00     0.049 A 
ATOM      4  C   UNL     1     -28.408 -10.758   3.473  1.00  0.00     0.119 A 
ATOM      5  C   UNL     1     -29.505 -10.259   2.735  1.00  0.00    -0.004 A 
ATOM      6  C   UNL     1     -30.514  -9.551   3.415  1.00  0.00     0.008 A 
ATOM      7  C   UNL     1     -30.433  -9.337   4.793  1.00  0.00     0.004 A 
ENDROOT
BRANCH   4   8
ATOM      8  O   UNL     1     -27.393 -11.474   2.836  1.00  0.00    -0.508 OA
ATOM      9  H   UNL     1     -26.945 -12.269   3.277  1.00  0.00     0.293 HD
ENDBRANCH   4   8
BRANCH   5  10
ATOM     10  C   UNL     1     -29.608 -10.486   1.233  1.00  0.00     0.017 C 
ATOM     11  C   UNL     1     -29.630 -11.983   0.902  1.00  0.00     0.012 C 
ATOM     12  C   UNL     1     -30.835  -9.774   0.650  1.00  0.00     0.012 C 
ENDBRANCH   5  10
TORSDOF 2
ENDMDL
MODEL 5
REMARK VINA RESULT:    -4.524      2.115      3.342
REMARK INTER + INTRA:          -4.975
REMARK INTER:                  -5.095
REMARK INTRA:                   0.120
REMARK UNBOUND:                -0.054
REMARK SMILES Cc1ccc(C(C)C)c(O)c1
REMARK SMILES IDX 1 1 2 2 11 3 9 4 5 5 4 6 3 7 10 8 6 10 7 11 8 12
REMARK H PARENT 10 9
REMARK Flexibility Score: inf
ROOT
ATOM      1  C   UNL     1     -32.371  -7.875   0.292  1.00  0.00     0.044 C 
ATOM      2  C   UNL     1     -31.543  -8.646   1.277  1.00  0.00    -0.047 A 
ATOM      3  C   UNL     1     -30.879  -9.814   0.880  1.00  0.00     0.049 A 
ATOM      4  C   UNL     1     -30.073 -10.522   1.784  1.00  0.00     0.119 A 
ATOM      5  C   UNL     1     -29.916 -10.052   3.108  1.00  0.00    -0.004 A 
ATOM      6  C   UNL     1     -30.572  -8.866   3.490  1.00  0.00     0.008 A 
ATOM      7  C   UNL     1     -31.372  -8.168   2.582  1.00  0.00     0.004 A 
ENDROOT
BRANCH   4   8
ATOM      8  O   UNL     1     -29.430 -11.687   1.366  1.00  0.00    -0.508 OA
ATOM      9  H   UNL     1     -29.166 -11.831   0.398  1.00  0.00     0.293 HD
ENDBRANCH   4   8
BRANCH   5  10
ATOM     10  C   UNL     1     -29.047 -10.801   4.108  1.00  0.00     0.017 C 
ATOM     11  C   UNL     1     -27.598 -10.896   3.616  1.00  0.00     0.012 C 
ATOM     12  C   UNL     1     -29.117 -10.153   5.496  1.00  0.00     0.012 C 
ENDBRANCH   5  10
TORSDOF 2
ENDMDL
MODEL 6
REMARK VINA RESULT:    -4.415      0.951      4.023
REMARK INTER + INTRA:          -4.856
REMARK INTER:                  -5.027
REMARK INTRA:                   0.170
REMARK UNBOUND:                -0.054
REMARK SMILES Cc1ccc(C(C)C)c(O)c1
REMARK SMILES IDX 1 1 2 2 11 3 9 4 5 5 4 6 3 7 10 8 6 10 7 11 8 12
REMARK H PARENT 10 9
REMARK Flexibility Score: inf
ROOT
ATOM      1  C   UNL     1     -28.986  -9.520   7.137  1.00  0.00     0.044 C 
ATOM      2  C   UNL     1     -29.305  -9.928   5.729  1.00  0.00    -0.047 A 
ATOM      3  C   UNL     1     -30.516  -9.542   5.141  1.00  0.00     0.049 A 
ATOM      4  C   UNL     1     -30.808  -9.887   3.812  1.00  0.00     0.119 A 
ATOM      5  C   UNL     1     -29.871 -10.621   3.051  1.00  0.00    -0.004 A 
ATOM      6  C   UNL     1     -28.649 -10.986   3.647  1.00  0.00     0.008 A 
ATOM      7  C   UNL     1     -28.367 -10.638   4.970  1.00  0.00     0.004 A 
ENDROOT
BRANCH   4   8
ATOM      8  O   UNL     1     -32.026  -9.498   3.252  1.00  0.00    -0.508 OA
ATOM      9  H   UNL     1     -32.760 -10.169   3.055  1.00  0.00     0.293 HD
ENDBRANCH   4   8
BRANCH   5  10
ATOM     10  C   UNL     1     -30.164 -11.008   1.607  1.00  0.00     0.017 C 
ATOM     11  C   UNL     1     -30.458  -9.768   0.754  1.00  0.00     0.012 C 
ATOM     12  C   UNL     1     -29.014 -11.829   1.011  1.00  0.00     0.012 C 
ENDBRANCH   5  10
TORSDOF 2
ENDMDL
MODEL 7
REMARK VINA RESULT:    -3.991      1.548      2.094
REMARK INTER + INTRA:          -4.396
REMARK INTER:                  -4.276
REMARK INTRA:                  -0.120
REMARK UNBOUND:                -0.054
REMARK SMILES Cc1ccc(C(C)C)c(O)c1
REMARK SMILES IDX 1 1 2 2 11 3 9 4 5 5 4 6 3 7 10 8 6 10 7 11 8 12
REMARK H PARENT 10 9
REMARK Flexibility Score: inf
ROOT
ATOM      1  C   UNL     1     -28.065 -12.374   0.657  1.00  0.00     0.044 C 
ATOM      2  C   UNL     1     -28.853 -11.314   1.368  1.00  0.00    -0.047 A 
ATOM      3  C   UNL     1     -29.841 -10.592   0.687  1.00  0.00     0.049 A 
ATOM      4  C   UNL     1     -30.609  -9.625   1.353  1.00  0.00     0.119 A 
ATOM      5  C   UNL     1     -30.396  -9.379   2.728  1.00  0.00    -0.004 A 
ATOM      6  C   UNL     1     -29.414 -10.125   3.407  1.00  0.00     0.008 A 
ATOM      7  C   UNL     1     -28.656 -11.087   2.736  1.00  0.00     0.004 A 
ENDROOT
BRANCH   4   8
ATOM      8  O   UNL     1     -31.580  -8.913   0.648  1.00  0.00    -0.508 OA
ATOM      9  H   UNL     1     -31.727  -9.054  -0.345  1.00  0.00     0.293 HD
ENDBRANCH   4   8
BRANCH   5  10
ATOM     10  C   UNL     1     -31.216  -8.335   3.474  1.00  0.00     0.017 C 
ATOM     11  C   UNL     1     -32.620  -8.862   3.793  1.00  0.00     0.012 C 
ATOM     12  C   UNL     1     -30.497  -7.875   4.748  1.00  0.00     0.012 C 
ENDBRANCH   5  10
TORSDOF 2
ENDMDL
