MODEL 1
REMARK VINA RESULT:    -7.192      0.000      0.000
REMARK INTER + INTRA:         -10.148
REMARK INTER:                  -9.715
REMARK INTRA:                  -0.433
REMARK UNBOUND:                -0.433
REMARK SMILES O=c1c(-c2ccc(O)cc2)coc2c([C@@H]3O[C@@H](CO)[C@@H](O)[C@@H](O)[C@@H]3O)c(O)ccc12
REMARK SMILES IDX 3 1 11 2 12 3 13 4 30 5 2 6 1 7 29 8 28 9 26 10 14 11 4 12
REMARK SMILES IDX 5 13 6 14 7 15 10 16 9 17 8 18 15 20 24 21 16 22 22 23 17 24
REMARK SMILES IDX 20 25 25 26 23 28 18 30 19 31 21 33 27 35
REMARK H PARENT 8 19 25 27 23 29 19 32 21 34 27 36
REMARK Flexibility Score: inf
ROOT
ATOM      1  C   UNL     1      19.546  -1.221 -18.595  1.00  0.00     0.065 A 
ATOM      2  C   UNL     1      19.254  -2.586 -18.721  1.00  0.00     0.208 A 
ATOM      3  O   UNL     1      18.630  -3.242 -17.750  1.00  0.00    -0.463 OA
ATOM      4  C   UNL     1      18.244  -2.667 -16.613  1.00  0.00     0.147 A 
ATOM      5  C   UNL     1      18.499  -1.291 -16.403  1.00  0.00     0.066 A 
ATOM      6  C   UNL     1      19.151  -0.565 -17.416  1.00  0.00     0.200 A 
ATOM      7  O   UNL     1      19.365   0.672 -17.275  1.00  0.00    -0.288 OA
ATOM      8  C   UNL     1      18.103  -0.689 -15.200  1.00  0.00     0.020 A 
ATOM      9  C   UNL     1      17.478  -1.443 -14.210  1.00  0.00     0.047 A 
ATOM     10  C   UNL     1      17.224  -2.807 -14.404  1.00  0.00     0.125 A 
ATOM     11  C   UNL     1      17.582  -3.431 -15.624  1.00  0.00     0.069 A 
ENDROOT
BRANCH   1  12
ATOM     12  C   UNL     1      20.248  -0.511 -19.693  1.00  0.00    -0.011 A 
ATOM     13  C   UNL     1      20.866   0.733 -19.463  1.00  0.00     0.013 A 
ATOM     14  C   UNL     1      21.535   1.392 -20.498  1.00  0.00     0.047 A 
ATOM     15  C   UNL     1      21.599   0.817 -21.774  1.00  0.00     0.115 A 
ATOM     16  C   UNL     1      20.325  -1.083 -20.975  1.00  0.00     0.013 A 
ATOM     17  C   UNL     1      20.993  -0.421 -22.008  1.00  0.00     0.047 A 
BRANCH  15  18
ATOM     18  O   UNL     1      22.262   1.466 -22.813  1.00  0.00    -0.508 OA
ATOM     19  H   UNL     1      22.264   1.092 -23.756  1.00  0.00     0.293 HD
ENDBRANCH  15  18
ENDBRANCH   1  12
BRANCH  11  20
ATOM     20  C   UNL     1      17.338  -4.918 -15.856  1.00  0.00     0.188 C 
ATOM     21  C   UNL     1      18.570  -5.740 -15.420  1.00  0.00     0.179 C 
ATOM     22  O   UNL     1      16.168  -5.337 -15.172  1.00  0.00    -0.362 OA
ATOM     23  C   UNL     1      18.343  -7.220 -15.744  1.00  0.00     0.177 C 
ATOM     24  C   UNL     1      15.823  -6.691 -15.432  1.00  0.00     0.176 C 
ATOM     25  C   UNL     1      16.986  -7.693 -15.174  1.00  0.00     0.177 C 
BRANCH  21  26
ATOM     26  O   UNL     1      18.796  -5.599 -14.039  1.00  0.00    -0.387 OA
ATOM     27  H   UNL     1      18.230  -4.846 -13.726  1.00  0.00     0.211 HD
ENDBRANCH  21  26
BRANCH  23  28
ATOM     28  O   UNL     1      18.412  -7.415 -17.133  1.00  0.00    -0.387 OA
ATOM     29  H   UNL     1      18.783  -8.324 -17.282  1.00  0.00     0.211 HD
ENDBRANCH  23  28
BRANCH  24  30
ATOM     30  C   UNL     1      15.053  -6.862 -16.763  1.00  0.00     0.191 C 
BRANCH  30  31
ATOM     31  O   UNL     1      15.836  -7.465 -17.753  1.00  0.00    -0.394 OA
ATOM     32  H   UNL     1      16.153  -8.324 -17.371  1.00  0.00     0.210 HD
ENDBRANCH  30  31
ENDBRANCH  24  30
BRANCH  25  33
ATOM     33  O   UNL     1      16.652  -8.967 -15.663  1.00  0.00    -0.388 OA
ATOM     34  H   UNL     1      17.122  -9.627 -15.090  1.00  0.00     0.211 HD
ENDBRANCH  25  33
ENDBRANCH  11  20
BRANCH  10  35
ATOM     35  O   UNL     1      16.625  -3.540 -13.378  1.00  0.00    -0.507 OA
ATOM     36  H   UNL     1      16.739  -3.286 -12.404  1.00  0.00     0.293 HD
ENDBRANCH  10  35
TORSDOF 9
ENDMDL
MODEL 2
REMARK VINA RESULT:    -7.073      6.114     11.964
REMARK INTER + INTRA:          -9.987
REMARK INTER:                  -8.796
REMARK INTRA:                  -1.191
REMARK UNBOUND:                -0.433
REMARK SMILES O=c1c(-c2ccc(O)cc2)coc2c([C@@H]3O[C@@H](CO)[C@@H](O)[C@@H](O)[C@@H]3O)c(O)ccc12
REMARK SMILES IDX 3 1 11 2 12 3 13 4 30 5 2 6 1 7 29 8 28 9 26 10 14 11 4 12
REMARK SMILES IDX 5 13 6 14 7 15 10 16 9 17 8 18 15 20 24 21 16 22 22 23 17 24
REMARK SMILES IDX 20 25 25 26 23 28 18 30 19 31 21 33 27 35
REMARK H PARENT 8 19 25 27 23 29 19 32 21 34 27 36
REMARK Flexibility Score: inf
ROOT
ATOM      1  C   UNL     1      11.488  -7.170 -10.118  1.00  0.00     0.065 A 
ATOM      2  C   UNL     1      12.016  -5.889  -9.903  1.00  0.00     0.208 A 
ATOM      3  O   UNL     1      13.081  -5.470 -10.574  1.00  0.00    -0.463 OA
ATOM      4  C   UNL     1      13.712  -6.215 -11.480  1.00  0.00     0.147 A 
ATOM      5  C   UNL     1      13.246  -7.521 -11.758  1.00  0.00     0.066 A 
ATOM      6  C   UNL     1      12.114  -7.994 -11.070  1.00  0.00     0.200 A 
ATOM      7  O   UNL     1      11.652  -9.142 -11.319  1.00  0.00    -0.288 OA
ATOM      8  C   UNL     1      13.919  -8.310 -12.703  1.00  0.00     0.020 A 
ATOM      9  C   UNL     1      15.050  -7.818 -13.351  1.00  0.00     0.047 A 
ATOM     10  C   UNL     1      15.524  -6.528 -13.080  1.00  0.00     0.125 A 
ATOM     11  C   UNL     1      14.842  -5.698 -12.157  1.00  0.00     0.069 A 
ENDROOT
BRANCH   1  12
ATOM     12  C   UNL     1      10.299  -7.617  -9.350  1.00  0.00    -0.011 A 
ATOM     13  C   UNL     1       9.010  -7.524  -9.908  1.00  0.00     0.013 A 
ATOM     14  C   UNL     1       7.894  -7.956  -9.185  1.00  0.00     0.047 A 
ATOM     15  C   UNL     1       8.051  -8.490  -7.899  1.00  0.00     0.115 A 
ATOM     16  C   UNL     1      10.448  -8.162  -8.063  1.00  0.00     0.013 A 
ATOM     17  C   UNL     1       9.330  -8.592  -7.342  1.00  0.00     0.047 A 
BRANCH  15  18
ATOM     18  O   UNL     1       6.947  -8.923  -7.169  1.00  0.00    -0.508 OA
ATOM     19  H   UNL     1       6.356  -8.271  -6.666  1.00  0.00     0.293 HD
ENDBRANCH  15  18
ENDBRANCH   1  12
BRANCH  11  20
ATOM     20  C   UNL     1      15.346  -4.298 -11.826  1.00  0.00     0.188 C 
ATOM     21  C   UNL     1      16.467  -4.366 -10.767  1.00  0.00     0.179 C 
ATOM     22  O   UNL     1      15.786  -3.642 -13.004  1.00  0.00    -0.362 OA
ATOM     23  C   UNL     1      16.898  -2.948 -10.380  1.00  0.00     0.177 C 
ATOM     24  C   UNL     1      16.171  -2.292 -12.783  1.00  0.00     0.176 C 
ATOM     25  C   UNL     1      17.222  -2.121 -11.646  1.00  0.00     0.177 C 
BRANCH  21  26
ATOM     26  O   UNL     1      17.579  -5.066 -11.268  1.00  0.00    -0.387 OA
ATOM     27  H   UNL     1      18.301  -4.402 -11.417  1.00  0.00     0.211 HD
ENDBRANCH  21  26
BRANCH  23  28
ATOM     28  O   UNL     1      15.890  -2.341  -9.614  1.00  0.00    -0.387 OA
ATOM     29  H   UNL     1      15.409  -3.068  -9.137  1.00  0.00     0.211 HD
ENDBRANCH  23  28
BRANCH  24  30
ATOM     30  C   UNL     1      14.962  -1.328 -12.750  1.00  0.00     0.191 C 
BRANCH  30  31
ATOM     31  O   UNL     1      14.682  -0.873 -11.458  1.00  0.00    -0.394 OA
ATOM     32  H   UNL     1      14.394   0.073 -11.554  1.00  0.00     0.210 HD
ENDBRANCH  30  31
ENDBRANCH  24  30
BRANCH  25  33
ATOM     33  O   UNL     1      17.382  -0.761 -11.330  1.00  0.00    -0.388 OA
ATOM     34  H   UNL     1      16.524  -0.455 -10.935  1.00  0.00     0.211 HD
ENDBRANCH  25  33
ENDBRANCH  11  20
BRANCH  10  35
ATOM     35  O   UNL     1      16.678  -6.079 -13.724  1.00  0.00    -0.507 OA
ATOM     36  H   UNL     1      16.964  -5.107 -13.691  1.00  0.00     0.293 HD
ENDBRANCH  10  35
TORSDOF 9
ENDMDL
MODEL 3
REMARK VINA RESULT:    -6.735      3.513      6.553
REMARK INTER + INTRA:          -9.531
REMARK INTER:                  -8.614
REMARK INTRA:                  -0.917
REMARK UNBOUND:                -0.433
REMARK SMILES O=c1c(-c2ccc(O)cc2)coc2c([C@@H]3O[C@@H](CO)[C@@H](O)[C@@H](O)[C@@H]3O)c(O)ccc12
REMARK SMILES IDX 3 1 11 2 12 3 13 4 30 5 2 6 1 7 29 8 28 9 26 10 14 11 4 12
REMARK SMILES IDX 5 13 6 14 7 15 10 16 9 17 8 18 15 20 24 21 16 22 22 23 17 24
REMARK SMILES IDX 20 25 25 26 23 28 18 30 19 31 21 33 27 35
REMARK H PARENT 8 19 25 27 23 29 19 32 21 34 27 36
REMARK Flexibility Score: inf
ROOT
ATOM      1  C   UNL     1      18.478  -0.724 -16.298  1.00  0.00     0.065 A 
ATOM      2  C   UNL     1      18.167   0.245 -15.334  1.00  0.00     0.208 A 
ATOM      3  O   UNL     1      17.490  -0.078 -14.239  1.00  0.00    -0.463 OA
ATOM      4  C   UNL     1      17.067  -1.314 -13.980  1.00  0.00     0.147 A 
ATOM      5  C   UNL     1      17.338  -2.353 -14.902  1.00  0.00     0.066 A 
ATOM      6  C   UNL     1      18.061  -2.047 -16.069  1.00  0.00     0.200 A 
ATOM      7  O   UNL     1      18.349  -2.957 -16.896  1.00  0.00    -0.288 OA
ATOM      8  C   UNL     1      16.882  -3.652 -14.634  1.00  0.00     0.020 A 
ATOM      9  C   UNL     1      16.151  -3.916 -13.479  1.00  0.00     0.047 A 
ATOM     10  C   UNL     1      15.871  -2.894 -12.562  1.00  0.00     0.125 A 
ATOM     11  C   UNL     1      16.351  -1.582 -12.790  1.00  0.00     0.069 A 
ENDROOT
BRANCH   1  12
ATOM     12  C   UNL     1      19.233  -0.337 -17.517  1.00  0.00    -0.011 A 
ATOM     13  C   UNL     1      18.717  -0.614 -18.797  1.00  0.00     0.013 A 
ATOM     14  C   UNL     1      19.427  -0.239 -19.941  1.00  0.00     0.047 A 
ATOM     15  C   UNL     1      20.657   0.422 -19.823  1.00  0.00     0.115 A 
ATOM     16  C   UNL     1      20.464   0.333 -17.408  1.00  0.00     0.013 A 
ATOM     17  C   UNL     1      21.172   0.706 -18.554  1.00  0.00     0.047 A 
BRANCH  15  18
ATOM     18  O   UNL     1      21.374   0.799 -20.956  1.00  0.00    -0.508 OA
ATOM     19  H   UNL     1      21.733   1.742 -21.066  1.00  0.00     0.293 HD
ENDBRANCH  15  18
ENDBRANCH   1  12
BRANCH  11  20
ATOM     20  C   UNL     1      16.046  -0.445 -11.821  1.00  0.00     0.188 C 
ATOM     21  C   UNL     1      14.674   0.185 -12.146  1.00  0.00     0.179 C 
ATOM     22  O   UNL     1      16.096  -0.914 -10.482  1.00  0.00    -0.362 OA
ATOM     23  C   UNL     1      14.425   1.381 -11.222  1.00  0.00     0.177 C 
ATOM     24  C   UNL     1      15.924   0.120  -9.521  1.00  0.00     0.176 C 
ATOM     25  C   UNL     1      14.642   0.975  -9.746  1.00  0.00     0.177 C 
BRANCH  21  26
ATOM     26  O   UNL     1      13.644  -0.756 -11.972  1.00  0.00    -0.387 OA
ATOM     27  H   UNL     1      13.475  -1.172 -12.857  1.00  0.00     0.211 HD
ENDBRANCH  21  26
BRANCH  23  28
ATOM     28  O   UNL     1      15.264   2.445 -11.590  1.00  0.00    -0.387 OA
ATOM     29  H   UNL     1      15.425   2.365 -12.567  1.00  0.00     0.211 HD
ENDBRANCH  23  28
BRANCH  24  30
ATOM     30  C   UNL     1      17.231   0.901  -9.251  1.00  0.00     0.191 C 
BRANCH  30  31
ATOM     31  O   UNL     1      17.412   1.175  -7.891  1.00  0.00    -0.394 OA
ATOM     32  H   UNL     1      18.239   0.696  -7.620  1.00  0.00     0.210 HD
ENDBRANCH  30  31
ENDBRANCH  24  30
BRANCH  25  33
ATOM     33  O   UNL     1      14.656   2.104  -8.911  1.00  0.00    -0.388 OA
ATOM     34  H   UNL     1      13.868   2.027  -8.311  1.00  0.00     0.211 HD
ENDBRANCH  25  33
ENDBRANCH  11  20
BRANCH  10  35
ATOM     35  O   UNL     1      15.109  -3.187 -11.430  1.00  0.00    -0.507 OA
ATOM     36  H   UNL     1      14.629  -4.074 -11.324  1.00  0.00     0.293 HD
ENDBRANCH  10  35
TORSDOF 9
ENDMDL
MODEL 4
REMARK VINA RESULT:    -6.702      4.274      7.768
REMARK INTER + INTRA:          -9.486
REMARK INTER:                  -8.512
REMARK INTRA:                  -0.973
REMARK UNBOUND:                -0.433
REMARK SMILES O=c1c(-c2ccc(O)cc2)coc2c([C@@H]3O[C@@H](CO)[C@@H](O)[C@@H](O)[C@@H]3O)c(O)ccc12
REMARK SMILES IDX 3 1 11 2 12 3 13 4 30 5 2 6 1 7 29 8 28 9 26 10 14 11 4 12
REMARK SMILES IDX 5 13 6 14 7 15 10 16 9 17 8 18 15 20 24 21 16 22 22 23 17 24
REMARK SMILES IDX 20 25 25 26 23 28 18 30 19 31 21 33 27 35
REMARK H PARENT 8 19 25 27 23 29 19 32 21 34 27 36
REMARK Flexibility Score: inf
ROOT
ATOM      1  C   UNL     1      18.585  -2.422 -10.058  1.00  0.00     0.065 A 
ATOM      2  C   UNL     1      19.259  -2.877 -11.200  1.00  0.00     0.208 A 
ATOM      3  O   UNL     1      18.680  -3.727 -12.038  1.00  0.00    -0.463 OA
ATOM      4  C   UNL     1      17.448  -4.200 -11.862  1.00  0.00     0.147 A 
ATOM      5  C   UNL     1      16.697  -3.793 -10.734  1.00  0.00     0.066 A 
ATOM      6  C   UNL     1      17.277  -2.886  -9.831  1.00  0.00     0.200 A 
ATOM      7  O   UNL     1      16.622  -2.476  -8.832  1.00  0.00    -0.288 OA
ATOM      8  C   UNL     1      15.403  -4.302 -10.544  1.00  0.00     0.020 A 
ATOM      9  C   UNL     1      14.868  -5.215 -11.448  1.00  0.00     0.047 A 
ATOM     10  C   UNL     1      15.603  -5.630 -12.565  1.00  0.00     0.125 A 
ATOM     11  C   UNL     1      16.897  -5.105 -12.801  1.00  0.00     0.069 A 
ENDROOT
BRANCH   1  12
ATOM     12  C   UNL     1      19.255  -1.473  -9.133  1.00  0.00    -0.011 A 
ATOM     13  C   UNL     1      20.014  -1.947  -8.047  1.00  0.00     0.013 A 
ATOM     14  C   UNL     1      20.652  -1.050  -7.185  1.00  0.00     0.047 A 
ATOM     15  C   UNL     1      20.543   0.331  -7.399  1.00  0.00     0.115 A 
ATOM     16  C   UNL     1      19.158  -0.087  -9.344  1.00  0.00     0.013 A 
ATOM     17  C   UNL     1      19.796   0.808  -8.479  1.00  0.00     0.047 A 
BRANCH  15  18
ATOM     18  O   UNL     1      21.173   1.234  -6.546  1.00  0.00    -0.508 OA
ATOM     19  H   UNL     1      22.146   1.491  -6.671  1.00  0.00     0.293 HD
ENDBRANCH  15  18
ENDBRANCH   1  12
BRANCH  11  20
ATOM     20  C   UNL     1      17.730  -5.552 -13.996  1.00  0.00     0.188 C 
ATOM     21  C   UNL     1      18.323  -6.956 -13.744  1.00  0.00     0.179 C 
ATOM     22  O   UNL     1      16.947  -5.527 -15.179  1.00  0.00    -0.362 OA
ATOM     23  C   UNL     1      19.229  -7.351 -14.915  1.00  0.00     0.177 C 
ATOM     24  C   UNL     1      17.692  -5.833 -16.350  1.00  0.00     0.176 C 
ATOM     25  C   UNL     1      18.482  -7.171 -16.256  1.00  0.00     0.177 C 
BRANCH  21  26
ATOM     26  O   UNL     1      17.297  -7.910 -13.611  1.00  0.00    -0.387 OA
ATOM     27  H   UNL     1      16.769  -7.662 -12.808  1.00  0.00     0.211 HD
ENDBRANCH  21  26
BRANCH  23  28
ATOM     28  O   UNL     1      20.408  -6.589 -14.876  1.00  0.00    -0.387 OA
ATOM     29  H   UNL     1      21.168  -7.228 -14.874  1.00  0.00     0.211 HD
ENDBRANCH  23  28
BRANCH  24  30
ATOM     30  C   UNL     1      18.471  -4.612 -16.892  1.00  0.00     0.191 C 
BRANCH  30  31
ATOM     31  O   UNL     1      18.505  -4.583 -18.290  1.00  0.00    -0.394 OA
ATOM     32  H   UNL     1      19.245  -5.187 -18.562  1.00  0.00     0.210 HD
ENDBRANCH  30  31
ENDBRANCH  24  30
BRANCH  25  33
ATOM     33  O   UNL     1      19.365  -7.294 -17.342  1.00  0.00    -0.388 OA
ATOM     34  H   UNL     1      19.277  -6.464 -17.880  1.00  0.00     0.211 HD
ENDBRANCH  25  33
ENDBRANCH  11  20
BRANCH  10  35
ATOM     35  O   UNL     1      15.048  -6.571 -13.434  1.00  0.00    -0.507 OA
ATOM     36  H   UNL     1      14.174  -6.401 -13.918  1.00  0.00     0.293 HD
ENDBRANCH  10  35
TORSDOF 9
ENDMDL
MODEL 5
REMARK VINA RESULT:    -6.647      7.659     11.153
REMARK INTER + INTRA:          -9.412
REMARK INTER:                  -8.931
REMARK INTRA:                  -0.480
REMARK UNBOUND:                -0.433
REMARK SMILES O=c1c(-c2ccc(O)cc2)coc2c([C@@H]3O[C@@H](CO)[C@@H](O)[C@@H](O)[C@@H]3O)c(O)ccc12
REMARK SMILES IDX 3 1 11 2 12 3 13 4 30 5 2 6 1 7 29 8 28 9 26 10 14 11 4 12
REMARK SMILES IDX 5 13 6 14 7 15 10 16 9 17 8 18 15 20 24 21 16 22 22 23 17 24
REMARK SMILES IDX 20 25 25 26 23 28 18 30 19 31 21 33 27 35
REMARK H PARENT 8 19 25 27 23 29 19 32 21 34 27 36
REMARK Flexibility Score: inf
ROOT
ATOM      1  C   UNL     1      13.826  -5.701 -11.289  1.00  0.00     0.065 A 
ATOM      2  C   UNL     1      12.882  -5.249 -10.356  1.00  0.00     0.208 A 
ATOM      3  O   UNL     1      11.819  -5.982 -10.053  1.00  0.00    -0.463 OA
ATOM      4  C   UNL     1      11.575  -7.173 -10.597  1.00  0.00     0.147 A 
ATOM      5  C   UNL     1      12.477  -7.705 -11.549  1.00  0.00     0.066 A 
ATOM      6  C   UNL     1      13.618  -6.957 -11.887  1.00  0.00     0.200 A 
ATOM      7  O   UNL     1      14.461  -7.417 -12.708  1.00  0.00    -0.288 OA
ATOM      8  C   UNL     1      12.212  -8.954 -12.130  1.00  0.00     0.020 A 
ATOM      9  C   UNL     1      11.061  -9.658 -11.787  1.00  0.00     0.047 A 
ATOM     10  C   UNL     1      10.158  -9.140 -10.851  1.00  0.00     0.125 A 
ATOM     11  C   UNL     1      10.419  -7.898 -10.222  1.00  0.00     0.069 A 
ENDROOT
BRANCH   1  12
ATOM     12  C   UNL     1      15.005  -4.860 -11.615  1.00  0.00    -0.011 A 
ATOM     13  C   UNL     1      15.002  -4.033 -12.754  1.00  0.00     0.013 A 
ATOM     14  C   UNL     1      16.111  -3.235 -13.051  1.00  0.00     0.047 A 
ATOM     15  C   UNL     1      17.235  -3.250 -12.213  1.00  0.00     0.115 A 
ATOM     16  C   UNL     1      16.133  -4.862 -10.776  1.00  0.00     0.013 A 
ATOM     17  C   UNL     1      17.241  -4.064 -11.077  1.00  0.00     0.047 A 
BRANCH  15  18
ATOM     18  O   UNL     1      18.345  -2.460 -12.500  1.00  0.00    -0.508 OA
ATOM     19  H   UNL     1      18.517  -1.589 -12.010  1.00  0.00     0.293 HD
ENDBRANCH  15  18
ENDBRANCH   1  12
BRANCH  11  20
ATOM     20  C   UNL     1       9.446  -7.298  -9.214  1.00  0.00     0.188 C 
ATOM     21  C   UNL     1       9.765  -7.804  -7.791  1.00  0.00     0.179 C 
ATOM     22  O   UNL     1       9.482  -5.881  -9.279  1.00  0.00    -0.362 OA
ATOM     23  C   UNL     1       8.724  -7.263  -6.805  1.00  0.00     0.177 C 
ATOM     24  C   UNL     1       8.521  -5.257  -8.438  1.00  0.00     0.176 C 
ATOM     25  C   UNL     1       8.587  -5.731  -6.956  1.00  0.00     0.177 C 
BRANCH  21  26
ATOM     26  O   UNL     1      11.045  -7.380  -7.390  1.00  0.00    -0.387 OA
ATOM     27  H   UNL     1      11.436  -6.873  -8.148  1.00  0.00     0.211 HD
ENDBRANCH  21  26
BRANCH  23  28
ATOM     28  O   UNL     1       7.496  -7.912  -7.014  1.00  0.00    -0.387 OA
ATOM     29  H   UNL     1       6.972  -7.348  -7.642  1.00  0.00     0.211 HD
ENDBRANCH  23  28
BRANCH  24  30
ATOM     30  C   UNL     1       7.115  -5.208  -9.080  1.00  0.00     0.191 C 
BRANCH  30  31
ATOM     31  O   UNL     1       6.318  -4.195  -8.533  1.00  0.00    -0.394 OA
ATOM     32  H   UNL     1       6.487  -4.208  -7.555  1.00  0.00     0.210 HD
ENDBRANCH  30  31
ENDBRANCH  24  30
BRANCH  25  33
ATOM     33  O   UNL     1       7.476  -5.253  -6.241  1.00  0.00    -0.388 OA
ATOM     34  H   UNL     1       6.711  -5.842  -6.472  1.00  0.00     0.211 HD
ENDBRANCH  25  33
ENDBRANCH  11  20
BRANCH  10  35
ATOM     35  O   UNL     1       8.998  -9.858 -10.554  1.00  0.00    -0.507 OA
ATOM     36  H   UNL     1       8.075  -9.470 -10.710  1.00  0.00     0.293 HD
ENDBRANCH  10  35
TORSDOF 9
ENDMDL
MODEL 6
REMARK VINA RESULT:    -6.646      5.047     10.177
REMARK INTER + INTRA:          -9.410
REMARK INTER:                  -8.189
REMARK INTRA:                  -1.220
REMARK UNBOUND:                -0.433
REMARK SMILES O=c1c(-c2ccc(O)cc2)coc2c([C@@H]3O[C@@H](CO)[C@@H](O)[C@@H](O)[C@@H]3O)c(O)ccc12
REMARK SMILES IDX 3 1 11 2 12 3 13 4 30 5 2 6 1 7 29 8 28 9 26 10 14 11 4 12
REMARK SMILES IDX 5 13 6 14 7 15 10 16 9 17 8 18 15 20 24 21 16 22 22 23 17 24
REMARK SMILES IDX 20 25 25 26 23 28 18 30 19 31 21 33 27 35
REMARK H PARENT 8 19 25 27 23 29 19 32 21 34 27 36
REMARK Flexibility Score: inf
ROOT
ATOM      1  C   UNL     1      12.718  -7.287 -11.483  1.00  0.00     0.065 A 
ATOM      2  C   UNL     1      13.476  -7.767 -12.560  1.00  0.00     0.208 A 
ATOM      3  O   UNL     1      14.624  -7.191 -12.896  1.00  0.00    -0.463 OA
ATOM      4  C   UNL     1      15.129  -6.141 -12.251  1.00  0.00     0.147 A 
ATOM      5  C   UNL     1      14.429  -5.593 -11.151  1.00  0.00     0.066 A 
ATOM      6  C   UNL     1      13.213  -6.184 -10.763  1.00  0.00     0.200 A 
ATOM      7  O   UNL     1      12.579  -5.741  -9.765  1.00  0.00    -0.288 OA
ATOM      8  C   UNL     1      14.956  -4.479 -10.480  1.00  0.00     0.020 A 
ATOM      9  C   UNL     1      16.152  -3.906 -10.903  1.00  0.00     0.047 A 
ATOM     10  C   UNL     1      16.852  -4.437 -11.994  1.00  0.00     0.125 A 
ATOM     11  C   UNL     1      16.360  -5.582 -12.667  1.00  0.00     0.069 A 
ENDROOT
BRANCH   1  12
ATOM     12  C   UNL     1      11.436  -7.945 -11.130  1.00  0.00    -0.011 A 
ATOM     13  C   UNL     1      11.404  -9.000 -10.199  1.00  0.00     0.013 A 
ATOM     14  C   UNL     1      10.192  -9.610  -9.862  1.00  0.00     0.047 A 
ATOM     15  C   UNL     1       8.996  -9.172 -10.448  1.00  0.00     0.115 A 
ATOM     16  C   UNL     1      10.230  -7.508 -11.706  1.00  0.00     0.013 A 
ATOM     17  C   UNL     1       9.020  -8.120 -11.368  1.00  0.00     0.047 A 
BRANCH  15  18
ATOM     18  O   UNL     1       7.783  -9.773 -10.121  1.00  0.00    -0.508 OA
ATOM     19  H   UNL     1       7.459 -10.607 -10.598  1.00  0.00     0.293 HD
ENDBRANCH  15  18
ENDBRANCH   1  12
BRANCH  11  20
ATOM     20  C   UNL     1      17.088  -6.170 -13.870  1.00  0.00     0.188 C 
ATOM     21  C   UNL     1      16.686  -5.422 -15.160  1.00  0.00     0.179 C 
ATOM     22  O   UNL     1      18.491  -6.127 -13.665  1.00  0.00    -0.362 OA
ATOM     23  C   UNL     1      17.356  -6.083 -16.369  1.00  0.00     0.177 C 
ATOM     24  C   UNL     1      19.228  -6.757 -14.704  1.00  0.00     0.176 C 
ATOM     25  C   UNL     1      18.876  -6.231 -16.127  1.00  0.00     0.177 C 
BRANCH  21  26
ATOM     26  O   UNL     1      17.079  -4.074 -15.094  1.00  0.00    -0.387 OA
ATOM     27  H   UNL     1      16.978  -3.785 -14.150  1.00  0.00     0.211 HD
ENDBRANCH  21  26
BRANCH  23  28
ATOM     28  O   UNL     1      16.753  -7.327 -16.621  1.00  0.00    -0.387 OA
ATOM     29  H   UNL     1      16.238  -7.235 -17.465  1.00  0.00     0.211 HD
ENDBRANCH  23  28
BRANCH  24  30
ATOM     30  C   UNL     1      19.294  -8.293 -14.538  1.00  0.00     0.191 C 
BRANCH  30  31
ATOM     31  O   UNL     1      18.496  -8.961 -15.473  1.00  0.00    -0.394 OA
ATOM     32  H   UNL     1      19.119  -9.346 -16.144  1.00  0.00     0.210 HD
ENDBRANCH  30  31
ENDBRANCH  24  30
BRANCH  25  33
ATOM     33  O   UNL     1      19.465  -7.045 -17.108  1.00  0.00    -0.388 OA
ATOM     34  H   UNL     1      20.301  -7.408 -16.716  1.00  0.00     0.211 HD
ENDBRANCH  25  33
ENDBRANCH  11  20
BRANCH  10  35
ATOM     35  O   UNL     1      18.031  -3.817 -12.412  1.00  0.00    -0.507 OA
ATOM     36  H   UNL     1      18.891  -3.894 -11.882  1.00  0.00     0.293 HD
ENDBRANCH  10  35
TORSDOF 9
ENDMDL
MODEL 7
REMARK VINA RESULT:    -6.580      6.469     11.657
REMARK INTER + INTRA:          -9.321
REMARK INTER:                  -8.970
REMARK INTRA:                  -0.351
REMARK UNBOUND:                -0.433
REMARK SMILES O=c1c(-c2ccc(O)cc2)coc2c([C@@H]3O[C@@H](CO)[C@@H](O)[C@@H](O)[C@@H]3O)c(O)ccc12
REMARK SMILES IDX 3 1 11 2 12 3 13 4 30 5 2 6 1 7 29 8 28 9 26 10 14 11 4 12
REMARK SMILES IDX 5 13 6 14 7 15 10 16 9 17 8 18 15 20 24 21 16 22 22 23 17 24
REMARK SMILES IDX 20 25 25 26 23 28 18 30 19 31 21 33 27 35
REMARK H PARENT 8 19 25 27 23 29 19 32 21 34 27 36
REMARK Flexibility Score: inf
ROOT
ATOM      1  C   UNL     1      12.100  -6.832 -10.487  1.00  0.00     0.065 A 
ATOM      2  C   UNL     1      12.677  -5.656  -9.988  1.00  0.00     0.208 A 
ATOM      3  O   UNL     1      13.808  -5.184 -10.495  1.00  0.00    -0.463 OA
ATOM      4  C   UNL     1      14.463  -5.775 -11.493  1.00  0.00     0.147 A 
ATOM      5  C   UNL     1      13.950  -6.968 -12.056  1.00  0.00     0.066 A 
ATOM      6  C   UNL     1      12.749  -7.491 -11.547  1.00  0.00     0.200 A 
ATOM      7  O   UNL     1      12.246  -8.535 -12.049  1.00  0.00    -0.288 OA
ATOM      8  C   UNL     1      14.648  -7.596 -13.099  1.00  0.00     0.020 A 
ATOM      9  C   UNL     1      15.846  -7.061 -13.565  1.00  0.00     0.047 A 
ATOM     10  C   UNL     1      16.366  -5.884 -13.011  1.00  0.00     0.125 A 
ATOM     11  C   UNL     1      15.664  -5.210 -11.983  1.00  0.00     0.069 A 
ENDROOT
BRANCH   1  12
ATOM     12  C   UNL     1      10.836  -7.343  -9.899  1.00  0.00    -0.011 A 
ATOM     13  C   UNL     1      10.855  -8.130  -8.733  1.00  0.00     0.013 A 
ATOM     14  C   UNL     1       9.662  -8.600  -8.177  1.00  0.00     0.047 A 
ATOM     15  C   UNL     1       8.434  -8.288  -8.777  1.00  0.00     0.115 A 
ATOM     16  C   UNL     1       9.599  -7.028 -10.489  1.00  0.00     0.013 A 
ATOM     17  C   UNL     1       8.408  -7.501  -9.932  1.00  0.00     0.047 A 
BRANCH  15  18
ATOM     18  O   UNL     1       7.239  -8.752  -8.233  1.00  0.00    -0.508 OA
ATOM     19  H   UNL     1       7.136  -8.908  -7.236  1.00  0.00     0.293 HD
ENDBRANCH  15  18
ENDBRANCH   1  12
BRANCH  11  20
ATOM     20  C   UNL     1      16.215  -3.939 -11.347  1.00  0.00     0.188 C 
ATOM     21  C   UNL     1      15.668  -2.692 -12.076  1.00  0.00     0.179 C 
ATOM     22  O   UNL     1      15.902  -3.907  -9.963  1.00  0.00    -0.362 OA
ATOM     23  C   UNL     1      16.301  -1.430 -11.482  1.00  0.00     0.177 C 
ATOM     24  C   UNL     1      16.478  -2.797  -9.285  1.00  0.00     0.176 C 
ATOM     25  C   UNL     1      16.150  -1.425  -9.944  1.00  0.00     0.177 C 
BRANCH  21  26
ATOM     26  O   UNL     1      14.270  -2.615 -11.944  1.00  0.00    -0.387 OA
ATOM     27  H   UNL     1      14.000  -1.703 -12.225  1.00  0.00     0.211 HD
ENDBRANCH  21  26
BRANCH  23  28
ATOM     28  O   UNL     1      17.650  -1.353 -11.867  1.00  0.00    -0.387 OA
ATOM     29  H   UNL     1      17.666  -1.242 -12.854  1.00  0.00     0.211 HD
ENDBRANCH  23  28
BRANCH  24  30
ATOM     30  C   UNL     1      17.957  -3.039  -8.902  1.00  0.00     0.191 C 
BRANCH  30  31
ATOM     31  O   UNL     1      18.085  -3.841  -7.764  1.00  0.00    -0.394 OA
ATOM     32  H   UNL     1      18.566  -4.660  -8.054  1.00  0.00     0.210 HD
ENDBRANCH  30  31
ENDBRANCH  24  30
BRANCH  25  33
ATOM     33  O   UNL     1      16.928  -0.408  -9.366  1.00  0.00    -0.388 OA
ATOM     34  H   UNL     1      17.565  -0.850  -8.747  1.00  0.00     0.211 HD
ENDBRANCH  25  33
ENDBRANCH  11  20
BRANCH  10  35
ATOM     35  O   UNL     1      17.586  -5.394 -13.481  1.00  0.00    -0.507 OA
ATOM     36  H   UNL     1      17.965  -5.676 -14.377  1.00  0.00     0.293 HD
ENDBRANCH  10  35
TORSDOF 9
ENDMDL
MODEL 8
REMARK VINA RESULT:    -6.400      6.299      9.647
REMARK INTER + INTRA:          -9.078
REMARK INTER:                  -7.868
REMARK INTRA:                  -1.210
REMARK UNBOUND:                -0.433
REMARK SMILES O=c1c(-c2ccc(O)cc2)coc2c([C@@H]3O[C@@H](CO)[C@@H](O)[C@@H](O)[C@@H]3O)c(O)ccc12
REMARK SMILES IDX 3 1 11 2 12 3 13 4 30 5 2 6 1 7 29 8 28 9 26 10 14 11 4 12
REMARK SMILES IDX 5 13 6 14 7 15 10 16 9 17 8 18 15 20 24 21 16 22 22 23 17 24
REMARK SMILES IDX 20 25 25 26 23 28 18 30 19 31 21 33 27 35
REMARK H PARENT 8 19 25 27 23 29 19 32 21 34 27 36
REMARK Flexibility Score: inf
ROOT
ATOM      1  C   UNL     1      15.015  -4.842 -12.164  1.00  0.00     0.065 A 
ATOM      2  C   UNL     1      13.869  -4.515 -11.426  1.00  0.00     0.208 A 
ATOM      3  O   UNL     1      12.961  -5.437 -11.133  1.00  0.00    -0.463 OA
ATOM      4  C   UNL     1      13.069  -6.711 -11.507  1.00  0.00     0.147 A 
ATOM      5  C   UNL     1      14.195  -7.128 -12.255  1.00  0.00     0.066 A 
ATOM      6  C   UNL     1      15.180  -6.177 -12.575  1.00  0.00     0.200 A 
ATOM      7  O   UNL     1      16.215  -6.522 -13.213  1.00  0.00    -0.288 OA
ATOM      8  C   UNL     1      14.302  -8.467 -12.658  1.00  0.00     0.020 A 
ATOM      9  C   UNL     1      13.297  -9.378 -12.341  1.00  0.00     0.047 A 
ATOM     10  C   UNL     1      12.175  -8.976 -11.605  1.00  0.00     0.125 A 
ATOM     11  C   UNL     1      12.060  -7.638 -11.155  1.00  0.00     0.069 A 
ENDROOT
BRANCH   1  12
ATOM     12  C   UNL     1      16.014  -3.791 -12.483  1.00  0.00    -0.011 A 
ATOM     13  C   UNL     1      15.923  -3.056 -13.680  1.00  0.00     0.013 A 
ATOM     14  C   UNL     1      16.860  -2.060 -13.971  1.00  0.00     0.047 A 
ATOM     15  C   UNL     1      17.897  -1.783 -13.070  1.00  0.00     0.115 A 
ATOM     16  C   UNL     1      17.053  -3.501 -11.582  1.00  0.00     0.013 A 
ATOM     17  C   UNL     1      17.989  -2.505 -11.876  1.00  0.00     0.047 A 
BRANCH  15  18
ATOM     18  O   UNL     1      18.837  -0.794 -13.350  1.00  0.00    -0.508 OA
ATOM     19  H   UNL     1      19.827  -1.006 -13.408  1.00  0.00     0.293 HD
ENDBRANCH  15  18
ENDBRANCH   1  12
BRANCH  11  20
ATOM     20  C   UNL     1      10.841  -7.166 -10.371  1.00  0.00     0.188 C 
ATOM     21  C   UNL     1       9.679  -6.835 -11.332  1.00  0.00     0.179 C 
ATOM     22  O   UNL     1      10.460  -8.146  -9.418  1.00  0.00    -0.362 OA
ATOM     23  C   UNL     1       8.494  -6.277 -10.535  1.00  0.00     0.177 C 
ATOM     24  C   UNL     1       9.392  -7.725  -8.579  1.00  0.00     0.176 C 
ATOM     25  C   UNL     1       8.145  -7.221  -9.362  1.00  0.00     0.177 C 
BRANCH  21  26
ATOM     26  O   UNL     1       9.267  -7.986 -12.027  1.00  0.00    -0.387 OA
ATOM     27  H   UNL     1       9.436  -7.822 -12.991  1.00  0.00     0.211 HD
ENDBRANCH  21  26
BRANCH  23  28
ATOM     28  O   UNL     1       8.799  -4.984 -10.081  1.00  0.00    -0.387 OA
ATOM     29  H   UNL     1       9.548  -4.648 -10.640  1.00  0.00     0.211 HD
ENDBRANCH  23  28
BRANCH  24  30
ATOM     30  C   UNL     1       9.873  -6.835  -7.409  1.00  0.00     0.191 C 
BRANCH  30  31
ATOM     31  O   UNL     1       9.515  -5.494  -7.581  1.00  0.00    -0.394 OA
ATOM     32  H   UNL     1       9.394  -5.363  -8.558  1.00  0.00     0.210 HD
ENDBRANCH  30  31
ENDBRANCH  24  30
BRANCH  25  33
ATOM     33  O   UNL     1       7.230  -6.614  -8.485  1.00  0.00    -0.388 OA
ATOM     34  H   UNL     1       7.303  -7.092  -7.618  1.00  0.00     0.211 HD
ENDBRANCH  25  33
ENDBRANCH  11  20
BRANCH  10  35
ATOM     35  O   UNL     1      11.172  -9.908 -11.333  1.00  0.00    -0.507 OA
ATOM     36  H   UNL     1      10.459  -9.736 -10.634  1.00  0.00     0.293 HD
ENDBRANCH  10  35
TORSDOF 9
ENDMDL
MODEL 9
REMARK VINA RESULT:    -6.389      6.322     10.407
REMARK INTER + INTRA:          -9.064
REMARK INTER:                  -8.163
REMARK INTRA:                  -0.901
REMARK UNBOUND:                -0.433
REMARK SMILES O=c1c(-c2ccc(O)cc2)coc2c([C@@H]3O[C@@H](CO)[C@@H](O)[C@@H](O)[C@@H]3O)c(O)ccc12
REMARK SMILES IDX 3 1 11 2 12 3 13 4 30 5 2 6 1 7 29 8 28 9 26 10 14 11 4 12
REMARK SMILES IDX 5 13 6 14 7 15 10 16 9 17 8 18 15 20 24 21 16 22 22 23 17 24
REMARK SMILES IDX 20 25 25 26 23 28 18 30 19 31 21 33 27 35
REMARK H PARENT 8 19 25 27 23 29 19 32 21 34 27 36
REMARK Flexibility Score: inf
ROOT
ATOM      1  C   UNL     1      14.770  -8.203 -13.805  1.00  0.00     0.065 A 
ATOM      2  C   UNL     1      14.077  -7.890 -12.628  1.00  0.00     0.208 A 
ATOM      3  O   UNL     1      12.797  -8.211 -12.485  1.00  0.00    -0.463 OA
ATOM      4  C   UNL     1      12.094  -8.840 -13.425  1.00  0.00     0.147 A 
ATOM      5  C   UNL     1      12.716  -9.193 -14.646  1.00  0.00     0.066 A 
ATOM      6  C   UNL     1      14.074  -8.875 -14.826  1.00  0.00     0.200 A 
ATOM      7  O   UNL     1      14.669  -9.205 -15.890  1.00  0.00    -0.288 OA
ATOM      8  C   UNL     1      11.971  -9.844 -15.640  1.00  0.00     0.020 A 
ATOM      9  C   UNL     1      10.622 -10.125 -15.436  1.00  0.00     0.047 A 
ATOM     10  C   UNL     1       9.994  -9.776 -14.234  1.00  0.00     0.125 A 
ATOM     11  C   UNL     1      10.732  -9.150 -13.200  1.00  0.00     0.069 A 
ENDROOT
BRANCH   1  12
ATOM     12  C   UNL     1      16.200  -7.829 -13.943  1.00  0.00    -0.011 A 
ATOM     13  C   UNL     1      17.216  -8.735 -13.582  1.00  0.00     0.013 A 
ATOM     14  C   UNL     1      18.561  -8.381 -13.723  1.00  0.00     0.047 A 
ATOM     15  C   UNL     1      18.909  -7.121 -14.229  1.00  0.00     0.115 A 
ATOM     16  C   UNL     1      16.559  -6.571 -14.457  1.00  0.00     0.013 A 
ATOM     17  C   UNL     1      17.905  -6.220 -14.595  1.00  0.00     0.047 A 
BRANCH  15  18
ATOM     18  O   UNL     1      20.246  -6.758 -14.372  1.00  0.00    -0.508 OA
ATOM     19  H   UNL     1      20.856  -7.229 -15.032  1.00  0.00     0.293 HD
ENDBRANCH  15  18
ENDBRANCH   1  12
BRANCH  11  20
ATOM     20  C   UNL     1      10.071  -8.739 -11.889  1.00  0.00     0.188 C 
ATOM     21  C   UNL     1       9.442  -7.335 -12.021  1.00  0.00     0.179 C 
ATOM     22  O   UNL     1       9.106  -9.704 -11.502  1.00  0.00    -0.362 OA
ATOM     23  C   UNL     1       8.862  -6.902 -10.670  1.00  0.00     0.177 C 
ATOM     24  C   UNL     1       8.525  -9.436 -10.232  1.00  0.00     0.176 C 
ATOM     25  C   UNL     1       7.934  -8.001 -10.106  1.00  0.00     0.177 C 
BRANCH  21  26
ATOM     26  O   UNL     1       8.417  -7.341 -12.983  1.00  0.00    -0.387 OA
ATOM     27  H   UNL     1       7.575  -7.574 -12.513  1.00  0.00     0.211 HD
ENDBRANCH  21  26
BRANCH  23  28
ATOM     28  O   UNL     1       9.908  -6.607  -9.781  1.00  0.00    -0.387 OA
ATOM     29  H   UNL     1       9.547  -6.708  -8.862  1.00  0.00     0.211 HD
ENDBRANCH  23  28
BRANCH  24  30
ATOM     30  C   UNL     1       9.413  -9.917  -9.061  1.00  0.00     0.191 C 
BRANCH  30  31
ATOM     31  O   UNL     1       9.414  -9.015  -7.991  1.00  0.00    -0.394 OA
ATOM     32  H   UNL     1      10.035  -8.284  -8.247  1.00  0.00     0.210 HD
ENDBRANCH  30  31
ENDBRANCH  24  30
BRANCH  25  33
ATOM     33  O   UNL     1       7.588  -7.731  -8.772  1.00  0.00    -0.388 OA
ATOM     34  H   UNL     1       7.529  -8.607  -8.307  1.00  0.00     0.211 HD
ENDBRANCH  25  33
ENDBRANCH  11  20
BRANCH  10  35
ATOM     35  O   UNL     1       8.633 -10.044 -14.075  1.00  0.00    -0.507 OA
ATOM     36  H   UNL     1       8.111  -9.704 -13.276  1.00  0.00     0.293 HD
ENDBRANCH  10  35
TORSDOF 9
ENDMDL
