MODEL 1
REMARK VINA RESULT:    -4.946      0.000      0.000
REMARK INTER + INTRA:          -5.090
REMARK INTER:                  -5.090
REMARK INTRA:                   0.000
REMARK UNBOUND:                 0.000
REMARK SMILES Oc1ccc2[nH]ccc2c1
REMARK SMILES IDX 3 1 4 2 5 3 9 4 8 5 7 6 6 7 10 8 2 9 1 11
REMARK H PARENT 6 10 1 12
REMARK Flexibility Score: inf
ROOT
ATOM      1  C   UNL     1      18.066  19.934  18.517  1.00  0.00     0.048 A 
ATOM      2  C   UNL     1      17.875  20.119  17.135  1.00  0.00     0.030 A 
ATOM      3  C   UNL     1      17.603  18.993  16.359  1.00  0.00     0.046 A 
ATOM      4  C   UNL     1      17.521  17.743  16.910  1.00  0.00     0.003 A 
ATOM      5  C   UNL     1      17.243  16.861  15.889  1.00  0.00     0.028 A 
ATOM      6  C   UNL     1      17.170  17.644  14.742  1.00  0.00     0.083 A 
ATOM      7  N   UNL     1      17.391  18.947  15.034  1.00  0.00    -0.361 N 
ATOM      8  C   UNL     1      17.703  17.525  18.274  1.00  0.00     0.056 A 
ATOM      9  C   UNL     1      17.981  18.643  19.089  1.00  0.00     0.116 A 
ATOM     10  H   UNL     1      17.395  19.747  14.364  1.00  0.00     0.166 HD
ENDROOT
BRANCH   9  11
ATOM     11  O   UNL     1      18.173  18.488  20.459  1.00  0.00    -0.508 OA
ATOM     12  H   UNL     1      17.762  19.130  21.126  1.00  0.00     0.293 HD
ENDBRANCH   9  11
TORSDOF 1
ENDMDL
MODEL 2
REMARK VINA RESULT:    -4.925      1.468      1.640
REMARK INTER + INTRA:          -5.069
REMARK INTER:                  -5.069
REMARK INTRA:                   0.000
REMARK UNBOUND:                 0.000
REMARK SMILES Oc1ccc2[nH]ccc2c1
REMARK SMILES IDX 3 1 4 2 5 3 9 4 8 5 7 6 6 7 10 8 2 9 1 11
REMARK H PARENT 6 10 1 12
REMARK Flexibility Score: inf
ROOT
ATOM      1  C   UNL     1      18.321  19.504  18.963  1.00  0.00     0.048 A 
ATOM      2  C   UNL     1      17.818  20.456  18.057  1.00  0.00     0.030 A 
ATOM      3  C   UNL     1      16.947  20.012  17.064  1.00  0.00     0.046 A 
ATOM      4  C   UNL     1      16.584  18.696  16.961  1.00  0.00     0.003 A 
ATOM      5  C   UNL     1      15.724  18.589  15.890  1.00  0.00     0.028 A 
ATOM      6  C   UNL     1      15.609  19.881  15.386  1.00  0.00     0.083 A 
ATOM      7  N   UNL     1      16.358  20.747  16.107  1.00  0.00    -0.361 N 
ATOM      8  C   UNL     1      17.062  17.729  17.841  1.00  0.00     0.056 A 
ATOM      9  C   UNL     1      17.947  18.144  18.860  1.00  0.00     0.116 A 
ATOM     10  H   UNL     1      16.455  21.774  15.948  1.00  0.00     0.166 HD
ENDROOT
BRANCH   9  11
ATOM     11  O   UNL     1      18.459  17.222  19.769  1.00  0.00    -0.508 OA
ATOM     12  H   UNL     1      19.062  17.511  20.530  1.00  0.00     0.293 HD
ENDBRANCH   9  11
TORSDOF 1
ENDMDL
MODEL 3
REMARK VINA RESULT:    -4.894      2.786      3.867
REMARK INTER + INTRA:          -5.037
REMARK INTER:                  -5.037
REMARK INTRA:                   0.000
REMARK UNBOUND:                 0.000
REMARK SMILES Oc1ccc2[nH]ccc2c1
REMARK SMILES IDX 3 1 4 2 5 3 9 4 8 5 7 6 6 7 10 8 2 9 1 11
REMARK H PARENT 6 10 1 12
REMARK Flexibility Score: inf
ROOT
ATOM      1  C   UNL     1      15.526  19.279  15.859  1.00  0.00     0.048 A 
ATOM      2  C   UNL     1      15.588  18.258  16.825  1.00  0.00     0.030 A 
ATOM      3  C   UNL     1      16.638  18.292  17.741  1.00  0.00     0.046 A 
ATOM      4  C   UNL     1      17.584  19.281  17.714  1.00  0.00     0.003 A 
ATOM      5  C   UNL     1      18.470  19.031  18.738  1.00  0.00     0.028 A 
ATOM      6  C   UNL     1      18.003  17.871  19.348  1.00  0.00     0.083 A 
ATOM      7  N   UNL     1      16.883  17.423  18.735  1.00  0.00    -0.361 N 
ATOM      8  C   UNL     1      17.551  20.307  16.772  1.00  0.00     0.056 A 
ATOM      9  C   UNL     1      16.501  20.303  15.829  1.00  0.00     0.116 A 
ATOM     10  H   UNL     1      16.327  16.576  18.987  1.00  0.00     0.166 HD
ENDROOT
BRANCH   9  11
ATOM     11  O   UNL     1      16.416  21.302  14.863  1.00  0.00    -0.508 OA
ATOM     12  H   UNL     1      17.156  21.445  14.185  1.00  0.00     0.293 HD
ENDBRANCH   9  11
TORSDOF 1
ENDMDL
MODEL 4
REMARK VINA RESULT:    -4.782      1.404      2.129
REMARK INTER + INTRA:          -4.922
REMARK INTER:                  -4.922
REMARK INTRA:                   0.000
REMARK UNBOUND:                 0.000
REMARK SMILES Oc1ccc2[nH]ccc2c1
REMARK SMILES IDX 3 1 4 2 5 3 9 4 8 5 7 6 6 7 10 8 2 9 1 11
REMARK H PARENT 6 10 1 12
REMARK Flexibility Score: inf
ROOT
ATOM      1  C   UNL     1      18.110  18.820  19.466  1.00  0.00     0.048 A 
ATOM      2  C   UNL     1      17.897  17.586  18.822  1.00  0.00     0.030 A 
ATOM      3  C   UNL     1      17.606  17.606  17.459  1.00  0.00     0.046 A 
ATOM      4  C   UNL     1      17.528  18.779  16.757  1.00  0.00     0.003 A 
ATOM      5  C   UNL     1      17.230  18.457  15.451  1.00  0.00     0.028 A 
ATOM      6  C   UNL     1      17.139  17.069  15.430  1.00  0.00     0.083 A 
ATOM      7  N   UNL     1      17.370  16.553  16.660  1.00  0.00    -0.361 N 
ATOM      8  C   UNL     1      17.735  20.016  17.363  1.00  0.00     0.056 A 
ATOM      9  C   UNL     1      18.031  20.032  18.743  1.00  0.00     0.116 A 
ATOM     10  H   UNL     1      17.365  15.544  16.927  1.00  0.00     0.166 HD
ENDROOT
BRANCH   9  11
ATOM     11  O   UNL     1      18.247  21.239  19.404  1.00  0.00    -0.508 OA
ATOM     12  H   UNL     1      18.675  22.028  18.935  1.00  0.00     0.293 HD
ENDBRANCH   9  11
TORSDOF 1
ENDMDL
MODEL 5
REMARK VINA RESULT:    -4.713      1.213      2.222
REMARK INTER + INTRA:          -4.851
REMARK INTER:                  -4.851
REMARK INTRA:                   0.000
REMARK UNBOUND:                 0.000
REMARK SMILES Oc1ccc2[nH]ccc2c1
REMARK SMILES IDX 3 1 4 2 5 3 9 4 8 5 7 6 6 7 10 8 2 9 1 11
REMARK H PARENT 6 10 1 12
REMARK Flexibility Score: inf
ROOT
ATOM      1  C   UNL     1      17.746  17.679  17.957  1.00  0.00     0.048 A 
ATOM      2  C   UNL     1      17.336  17.486  16.624  1.00  0.00     0.030 A 
ATOM      3  C   UNL     1      17.117  18.619  15.841  1.00  0.00     0.046 A 
ATOM      4  C   UNL     1      17.292  19.882  16.339  1.00  0.00     0.003 A 
ATOM      5  C   UNL     1      16.999  20.767  15.324  1.00  0.00     0.028 A 
ATOM      6  C   UNL     1      16.652  19.973  14.237  1.00  0.00     0.083 A 
ATOM      7  N   UNL     1      16.726  18.660  14.557  1.00  0.00    -0.361 N 
ATOM      8  C   UNL     1      17.698  20.107  17.652  1.00  0.00     0.056 A 
ATOM      9  C   UNL     1      17.927  18.983  18.473  1.00  0.00     0.116 A 
ATOM     10  H   UNL     1      16.520  17.850  13.932  1.00  0.00     0.166 HD
ENDROOT
BRANCH   9  11
ATOM     11  O   UNL     1      18.334  19.145  19.795  1.00  0.00    -0.508 OA
ATOM     12  H   UNL     1      17.790  18.771  20.564  1.00  0.00     0.293 HD
ENDBRANCH   9  11
TORSDOF 1
ENDMDL
MODEL 6
REMARK VINA RESULT:    -4.535      2.566      3.641
REMARK INTER + INTRA:          -4.668
REMARK INTER:                  -4.668
REMARK INTRA:                   0.000
REMARK UNBOUND:                 0.000
REMARK SMILES Oc1ccc2[nH]ccc2c1
REMARK SMILES IDX 3 1 4 2 5 3 9 4 8 5 7 6 6 7 10 8 2 9 1 11
REMARK H PARENT 6 10 1 12
REMARK Flexibility Score: inf
ROOT
ATOM      1  C   UNL     1      16.905  19.680  15.095  1.00  0.00     0.048 A 
ATOM      2  C   UNL     1      17.236  20.492  16.195  1.00  0.00     0.030 A 
ATOM      3  C   UNL     1      17.614  19.861  17.379  1.00  0.00     0.046 A 
ATOM      4  C   UNL     1      17.667  18.497  17.482  1.00  0.00     0.003 A 
ATOM      5  C   UNL     1      18.072  18.196  18.764  1.00  0.00     0.028 A 
ATOM      6  C   UNL     1      18.247  19.427  19.388  1.00  0.00     0.083 A 
ATOM      7  N   UNL     1      17.966  20.442  18.537  1.00  0.00    -0.361 N 
ATOM      8  C   UNL     1      17.348  17.665  16.412  1.00  0.00     0.056 A 
ATOM      9  C   UNL     1      16.960  18.271  15.198  1.00  0.00     0.116 A 
ATOM     10  H   UNL     1      18.014  21.464  18.744  1.00  0.00     0.166 HD
ENDROOT
BRANCH   9  11
ATOM     11  O   UNL     1      16.628  17.490  14.094  1.00  0.00    -0.508 OA
ATOM     12  H   UNL     1      15.776  17.653  13.569  1.00  0.00     0.293 HD
ENDBRANCH   9  11
TORSDOF 1
ENDMDL
MODEL 7
REMARK VINA RESULT:    -4.369      1.875      1.990
REMARK INTER + INTRA:          -4.497
REMARK INTER:                  -4.497
REMARK INTRA:                   0.000
REMARK UNBOUND:                 0.000
REMARK SMILES Oc1ccc2[nH]ccc2c1
REMARK SMILES IDX 3 1 4 2 5 3 9 4 8 5 7 6 6 7 10 8 2 9 1 11
REMARK H PARENT 6 10 1 12
REMARK Flexibility Score: inf
ROOT
ATOM      1  C   UNL     1      17.903  20.360  16.867  1.00  0.00     0.048 A 
ATOM      2  C   UNL     1      16.788  20.270  16.013  1.00  0.00     0.030 A 
ATOM      3  C   UNL     1      15.956  19.158  16.144  1.00  0.00     0.046 A 
ATOM      4  C   UNL     1      16.204  18.180  17.069  1.00  0.00     0.003 A 
ATOM      5  C   UNL     1      15.210  17.234  16.944  1.00  0.00     0.028 A 
ATOM      6  C   UNL     1      14.390  17.702  15.921  1.00  0.00     0.083 A 
ATOM      7  N   UNL     1      14.851  18.878  15.436  1.00  0.00    -0.361 N 
ATOM      8  C   UNL     1      17.298  18.239  17.930  1.00  0.00     0.056 A 
ATOM      9  C   UNL     1      18.160  19.351  17.824  1.00  0.00     0.116 A 
ATOM     10  H   UNL     1      14.429  19.447  14.668  1.00  0.00     0.166 HD
ENDROOT
BRANCH   9  11
ATOM     11  O   UNL     1      19.270  19.465  18.657  1.00  0.00    -0.508 OA
ATOM     12  H   UNL     1      20.113  19.938  18.352  1.00  0.00     0.293 HD
ENDBRANCH   9  11
TORSDOF 1
ENDMDL
MODEL 8
REMARK VINA RESULT:    -4.235      8.161      8.913
REMARK INTER + INTRA:          -4.359
REMARK INTER:                  -4.359
REMARK INTRA:                   0.000
REMARK UNBOUND:                 0.000
REMARK SMILES Oc1ccc2[nH]ccc2c1
REMARK SMILES IDX 3 1 4 2 5 3 9 4 8 5 7 6 6 7 10 8 2 9 1 11
REMARK H PARENT 6 10 1 12
REMARK Flexibility Score: inf
ROOT
ATOM      1  C   UNL     1      19.956  19.266   8.363  1.00  0.00     0.048 A 
ATOM      2  C   UNL     1      20.845  18.761   9.331  1.00  0.00     0.030 A 
ATOM      3  C   UNL     1      20.555  17.520   9.895  1.00  0.00     0.046 A 
ATOM      4  C   UNL     1      19.447  16.805   9.529  1.00  0.00     0.003 A 
ATOM      5  C   UNL     1      19.451  15.638  10.261  1.00  0.00     0.028 A 
ATOM      6  C   UNL     1      20.591  15.710  11.055  1.00  0.00     0.083 A 
ATOM      7  N   UNL     1      21.263  16.862  10.828  1.00  0.00    -0.361 N 
ATOM      8  C   UNL     1      18.549  17.274   8.574  1.00  0.00     0.056 A 
ATOM      9  C   UNL     1      18.811  18.528   7.982  1.00  0.00     0.116 A 
ATOM     10  H   UNL     1      22.149  17.172  11.285  1.00  0.00     0.166 HD
ENDROOT
BRANCH   9  11
ATOM     11  O   UNL     1      17.949  19.050   7.022  1.00  0.00    -0.508 OA
ATOM     12  H   UNL     1      17.539  18.462   6.305  1.00  0.00     0.293 HD
ENDBRANCH   9  11
TORSDOF 1
ENDMDL
MODEL 9
REMARK VINA RESULT:    -4.225      5.741      7.230
REMARK INTER + INTRA:          -4.348
REMARK INTER:                  -4.348
REMARK INTRA:                   0.000
REMARK UNBOUND:                 0.000
REMARK SMILES Oc1ccc2[nH]ccc2c1
REMARK SMILES IDX 3 1 4 2 5 3 9 4 8 5 7 6 6 7 10 8 2 9 1 11
REMARK H PARENT 6 10 1 12
REMARK Flexibility Score: inf
ROOT
ATOM      1  C   UNL     1      19.771  13.741  11.108  1.00  0.00     0.048 A 
ATOM      2  C   UNL     1      18.774  12.981  11.747  1.00  0.00     0.030 A 
ATOM      3  C   UNL     1      18.344  13.399  13.005  1.00  0.00     0.046 A 
ATOM      4  C   UNL     1      18.863  14.512  13.610  1.00  0.00     0.003 A 
ATOM      5  C   UNL     1      18.233  14.651  14.827  1.00  0.00     0.028 A 
ATOM      6  C   UNL     1      17.341  13.585  14.898  1.00  0.00     0.083 A 
ATOM      7  N   UNL     1      17.413  12.823  13.782  1.00  0.00    -0.361 N 
ATOM      8  C   UNL     1      19.849  15.287  13.004  1.00  0.00     0.056 A 
ATOM      9  C   UNL     1      20.309  14.892  11.730  1.00  0.00     0.116 A 
ATOM     10  H   UNL     1      16.856  11.965  13.573  1.00  0.00     0.166 HD
ENDROOT
BRANCH   9  11
ATOM     11  O   UNL     1      21.293  15.627  11.075  1.00  0.00    -0.508 OA
ATOM     12  H   UNL     1      21.632  16.506  11.449  1.00  0.00     0.293 HD
ENDBRANCH   9  11
TORSDOF 1
ENDMDL
