MODEL 1
REMARK VINA RESULT:    -4.603      0.000      0.000
REMARK INTER + INTRA:          -4.603
REMARK INTER:                  -4.603
REMARK INTRA:                   0.000
REMARK UNBOUND:                 0.000
REMARK SMILES O=c1ccc2ccc3occc3c2o1
REMARK SMILES IDX 6 1 7 2 8 3 12 4 11 5 10 6 9 7 13 8 5 9 4 10 3 11 2 12 1 13
REMARK SMILES IDX 14 14
REMARK H PARENT
REMARK Flexibility Score: inf
ROOT
ATOM      1  C   UNL     1      74.089  41.386  22.832  1.00  0.00     0.016 A 
ATOM      2  C   UNL     1      75.095  42.355  22.652  1.00  0.00     0.048 A 
ATOM      3  C   UNL     1      75.832  42.323  21.469  1.00  0.00     0.137 A 
ATOM      4  C   UNL     1      75.601  41.385  20.498  1.00  0.00     0.064 A 
ATOM      5  C   UNL     1      76.492  41.637  19.479  1.00  0.00     0.054 A 
ATOM      6  C   UNL     1      77.220  42.738  19.916  1.00  0.00     0.196 A 
ATOM      7  O   UNL     1      76.803  43.125  21.107  1.00  0.00    -0.464 OA
ATOM      8  C   UNL     1      74.616  40.411  20.639  1.00  0.00     0.149 A 
ATOM      9  C   UNL     1      73.847  40.415  21.831  1.00  0.00     0.018 A 
ATOM     10  C   UNL     1      72.856  39.439  21.979  1.00  0.00     0.019 A 
ATOM     11  C   UNL     1      72.658  38.505  20.960  1.00  0.00     0.094 A 
ATOM     12  C   UNL     1      73.458  38.566  19.812  1.00  0.00     0.336 A 
ATOM     13  O   UNL     1      73.292  37.731  18.886  1.00  0.00    -0.246 OA
ATOM     14  O   UNL     1      74.396  39.503  19.692  1.00  0.00    -0.422 OA
ENDROOT
TORSDOF 0
ENDMDL
MODEL 2
REMARK VINA RESULT:    -4.495      2.453      3.819
REMARK INTER + INTRA:          -4.495
REMARK INTER:                  -4.495
REMARK INTRA:                   0.000
REMARK UNBOUND:                 0.000
REMARK SMILES O=c1ccc2ccc3occc3c2o1
REMARK SMILES IDX 6 1 7 2 8 3 12 4 11 5 10 6 9 7 13 8 5 9 4 10 3 11 2 12 1 13
REMARK SMILES IDX 14 14
REMARK H PARENT
REMARK Flexibility Score: inf
ROOT
ATOM      1  C   UNL     1      74.507  41.963  21.893  1.00  0.00     0.016 A 
ATOM      2  C   UNL     1      73.730  42.842  22.672  1.00  0.00     0.048 A 
ATOM      3  C   UNL     1      72.430  42.456  22.996  1.00  0.00     0.137 A 
ATOM      4  C   UNL     1      71.904  41.263  22.579  1.00  0.00     0.064 A 
ATOM      5  C   UNL     1      70.619  41.200  23.067  1.00  0.00     0.054 A 
ATOM      6  C   UNL     1      70.450  42.391  23.763  1.00  0.00     0.196 A 
ATOM      7  O   UNL     1      71.550  43.121  23.703  1.00  0.00    -0.464 OA
ATOM      8  C   UNL     1      72.641  40.367  21.808  1.00  0.00     0.149 A 
ATOM      9  C   UNL     1      73.968  40.728  21.460  1.00  0.00     0.018 A 
ATOM     10  C   UNL     1      74.713  39.833  20.686  1.00  0.00     0.019 A 
ATOM     11  C   UNL     1      74.133  38.627  20.286  1.00  0.00     0.094 A 
ATOM     12  C   UNL     1      72.816  38.342  20.669  1.00  0.00     0.336 A 
ATOM     13  O   UNL     1      72.279  37.260  20.315  1.00  0.00    -0.246 OA
ATOM     14  O   UNL     1      72.125  39.209  21.406  1.00  0.00    -0.422 OA
ENDROOT
TORSDOF 0
ENDMDL
MODEL 3
REMARK VINA RESULT:    -4.454      1.184      4.262
REMARK INTER + INTRA:          -4.454
REMARK INTER:                  -4.454
REMARK INTRA:                   0.000
REMARK UNBOUND:                 0.000
REMARK SMILES O=c1ccc2ccc3occc3c2o1
REMARK SMILES IDX 6 1 7 2 8 3 12 4 11 5 10 6 9 7 13 8 5 9 4 10 3 11 2 12 1 13
REMARK SMILES IDX 14 14
REMARK H PARENT
REMARK Flexibility Score: inf
ROOT
ATOM      1  C   UNL     1      73.635  40.878  22.674  1.00  0.00     0.016 A 
ATOM      2  C   UNL     1      72.876  39.768  22.253  1.00  0.00     0.048 A 
ATOM      3  C   UNL     1      73.177  39.199  21.017  1.00  0.00     0.137 A 
ATOM      4  C   UNL     1      74.176  39.688  20.219  1.00  0.00     0.064 A 
ATOM      5  C   UNL     1      74.204  38.904  19.088  1.00  0.00     0.054 A 
ATOM      6  C   UNL     1      73.192  37.972  19.284  1.00  0.00     0.196 A 
ATOM      7  O   UNL     1      72.596  38.173  20.445  1.00  0.00    -0.464 OA
ATOM      8  C   UNL     1      74.950  40.782  20.600  1.00  0.00     0.149 A 
ATOM      9  C   UNL     1      74.670  41.386  21.853  1.00  0.00     0.018 A 
ATOM     10  C   UNL     1      75.442  42.485  22.241  1.00  0.00     0.019 A 
ATOM     11  C   UNL     1      76.452  42.946  21.393  1.00  0.00     0.094 A 
ATOM     12  C   UNL     1      76.667  42.297  20.171  1.00  0.00     0.336 A 
ATOM     13  O   UNL     1      77.572  42.701  19.396  1.00  0.00    -0.246 OA
ATOM     14  O   UNL     1      75.920  41.252  19.821  1.00  0.00    -0.422 OA
ENDROOT
TORSDOF 0
ENDMDL
MODEL 4
REMARK VINA RESULT:    -4.405      1.505      2.802
REMARK INTER + INTRA:          -4.405
REMARK INTER:                  -4.405
REMARK INTRA:                   0.000
REMARK UNBOUND:                 0.000
REMARK SMILES O=c1ccc2ccc3occc3c2o1
REMARK SMILES IDX 6 1 7 2 8 3 12 4 11 5 10 6 9 7 13 8 5 9 4 10 3 11 2 12 1 13
REMARK SMILES IDX 14 14
REMARK H PARENT
REMARK Flexibility Score: inf
ROOT
ATOM      1  C   UNL     1      75.440  40.153  19.360  1.00  0.00     0.016 A 
ATOM      2  C   UNL     1      75.905  41.219  20.155  1.00  0.00     0.048 A 
ATOM      3  C   UNL     1      75.128  41.611  21.244  1.00  0.00     0.137 A 
ATOM      4  C   UNL     1      73.945  40.994  21.550  1.00  0.00     0.064 A 
ATOM      5  C   UNL     1      73.444  41.620  22.668  1.00  0.00     0.054 A 
ATOM      6  C   UNL     1      74.382  42.600  22.970  1.00  0.00     0.196 A 
ATOM      7  O   UNL     1      75.377  42.570  22.101  1.00  0.00    -0.464 OA
ATOM      8  C   UNL     1      73.452  39.937  20.788  1.00  0.00     0.149 A 
ATOM      9  C   UNL     1      74.217  39.511  19.672  1.00  0.00     0.018 A 
ATOM     10  C   UNL     1      73.727  38.451  18.904  1.00  0.00     0.019 A 
ATOM     11  C   UNL     1      72.516  37.852  19.255  1.00  0.00     0.094 A 
ATOM     12  C   UNL     1      71.817  38.329  20.372  1.00  0.00     0.336 A 
ATOM     13  O   UNL     1      70.724  37.801  20.702  1.00  0.00    -0.246 OA
ATOM     14  O   UNL     1      72.302  39.340  21.090  1.00  0.00    -0.422 OA
ENDROOT
TORSDOF 0
ENDMDL
MODEL 5
REMARK VINA RESULT:    -4.389      2.260      4.788
REMARK INTER + INTRA:          -4.389
REMARK INTER:                  -4.389
REMARK INTRA:                   0.000
REMARK UNBOUND:                 0.000
REMARK SMILES O=c1ccc2ccc3occc3c2o1
REMARK SMILES IDX 6 1 7 2 8 3 12 4 11 5 10 6 9 7 13 8 5 9 4 10 3 11 2 12 1 13
REMARK SMILES IDX 14 14
REMARK H PARENT
REMARK Flexibility Score: inf
ROOT
ATOM      1  C   UNL     1      72.004  42.087  20.195  1.00  0.00     0.016 A 
ATOM      2  C   UNL     1      71.368  41.011  19.546  1.00  0.00     0.048 A 
ATOM      3  C   UNL     1      71.769  39.717  19.876  1.00  0.00     0.137 A 
ATOM      4  C   UNL     1      72.750  39.477  20.800  1.00  0.00     0.064 A 
ATOM      5  C   UNL     1      72.895  38.111  20.884  1.00  0.00     0.054 A 
ATOM      6  C   UNL     1      71.969  37.605  19.979  1.00  0.00     0.196 A 
ATOM      7  O   UNL     1      71.311  38.589  19.392  1.00  0.00    -0.464 OA
ATOM      8  C   UNL     1      73.401  40.514  21.465  1.00  0.00     0.149 A 
ATOM      9  C   UNL     1      73.018  41.844  21.153  1.00  0.00     0.018 A 
ATOM     10  C   UNL     1      73.668  42.889  21.815  1.00  0.00     0.019 A 
ATOM     11  C   UNL     1      74.661  42.594  22.751  1.00  0.00     0.094 A 
ATOM     12  C   UNL     1      74.985  41.255  23.005  1.00  0.00     0.336 A 
ATOM     13  O   UNL     1      75.878  40.972  23.845  1.00  0.00    -0.246 OA
ATOM     14  O   UNL     1      74.353  40.275  22.362  1.00  0.00    -0.422 OA
ENDROOT
TORSDOF 0
ENDMDL
MODEL 6
REMARK VINA RESULT:    -4.377      1.572      4.969
REMARK INTER + INTRA:          -4.377
REMARK INTER:                  -4.377
REMARK INTRA:                   0.000
REMARK UNBOUND:                 0.000
REMARK SMILES O=c1ccc2ccc3occc3c2o1
REMARK SMILES IDX 6 1 7 2 8 3 12 4 11 5 10 6 9 7 13 8 5 9 4 10 3 11 2 12 1 13
REMARK SMILES IDX 14 14
REMARK H PARENT
REMARK Flexibility Score: inf
ROOT
ATOM      1  C   UNL     1      75.350  39.741  19.211  1.00  0.00     0.016 A 
ATOM      2  C   UNL     1      74.436  38.723  18.875  1.00  0.00     0.048 A 
ATOM      3  C   UNL     1      73.256  38.632  19.611  1.00  0.00     0.137 A 
ATOM      4  C   UNL     1      72.973  39.497  20.634  1.00  0.00     0.064 A 
ATOM      5  C   UNL     1      71.746  39.131  21.140  1.00  0.00     0.054 A 
ATOM      6  C   UNL     1      71.361  38.041  20.368  1.00  0.00     0.196 A 
ATOM      7  O   UNL     1      72.284  37.767  19.463  1.00  0.00    -0.464 OA
ATOM      8  C   UNL     1      73.850  40.517  20.996  1.00  0.00     0.149 A 
ATOM      9  C   UNL     1      75.062  40.637  20.268  1.00  0.00     0.018 A 
ATOM     10  C   UNL     1      75.946  41.659  20.626  1.00  0.00     0.019 A 
ATOM     11  C   UNL     1      75.613  42.516  21.677  1.00  0.00     0.094 A 
ATOM     12  C   UNL     1      74.398  42.333  22.349  1.00  0.00     0.336 A 
ATOM     13  O   UNL     1      74.083  43.098  23.298  1.00  0.00    -0.246 OA
ATOM     14  O   UNL     1      73.570  41.354  21.991  1.00  0.00    -0.422 OA
ENDROOT
TORSDOF 0
ENDMDL
MODEL 7
REMARK VINA RESULT:    -4.367      1.563      2.174
REMARK INTER + INTRA:          -4.367
REMARK INTER:                  -4.367
REMARK INTRA:                   0.000
REMARK UNBOUND:                 0.000
REMARK SMILES O=c1ccc2ccc3occc3c2o1
REMARK SMILES IDX 6 1 7 2 8 3 12 4 11 5 10 6 9 7 13 8 5 9 4 10 3 11 2 12 1 13
REMARK SMILES IDX 14 14
REMARK H PARENT
REMARK Flexibility Score: inf
ROOT
ATOM      1  C   UNL     1      71.448  40.816  22.396  1.00  0.00     0.016 A 
ATOM      2  C   UNL     1      72.366  41.716  22.971  1.00  0.00     0.048 A 
ATOM      3  C   UNL     1      73.707  41.609  22.605  1.00  0.00     0.137 A 
ATOM      4  C   UNL     1      74.141  40.664  21.715  1.00  0.00     0.064 A 
ATOM      5  C   UNL     1      75.500  40.835  21.581  1.00  0.00     0.054 A 
ATOM      6  C   UNL     1      75.803  41.899  22.422  1.00  0.00     0.196 A 
ATOM      7  O   UNL     1      74.711  42.341  23.020  1.00  0.00    -0.464 OA
ATOM      8  C   UNL     1      73.265  39.756  21.124  1.00  0.00     0.149 A 
ATOM      9  C   UNL     1      71.892  39.837  21.475  1.00  0.00     0.018 A 
ATOM     10  C   UNL     1      71.008  38.929  20.885  1.00  0.00     0.019 A 
ATOM     11  C   UNL     1      71.498  37.983  19.982  1.00  0.00     0.094 A 
ATOM     12  C   UNL     1      72.867  37.966  19.687  1.00  0.00     0.336 A 
ATOM     13  O   UNL     1      73.325  37.120  18.875  1.00  0.00    -0.246 OA
ATOM     14  O   UNL     1      73.692  38.840  20.259  1.00  0.00    -0.422 OA
ENDROOT
TORSDOF 0
ENDMDL
MODEL 8
REMARK VINA RESULT:    -3.999      1.980      4.390
REMARK INTER + INTRA:          -3.999
REMARK INTER:                  -3.999
REMARK INTRA:                   0.000
REMARK UNBOUND:                 0.000
REMARK SMILES O=c1ccc2ccc3occc3c2o1
REMARK SMILES IDX 6 1 7 2 8 3 12 4 11 5 10 6 9 7 13 8 5 9 4 10 3 11 2 12 1 13
REMARK SMILES IDX 14 14
REMARK H PARENT
REMARK Flexibility Score: inf
ROOT
ATOM      1  C   UNL     1      72.673  38.954  20.184  1.00  0.00     0.016 A 
ATOM      2  C   UNL     1      71.671  39.248  21.129  1.00  0.00     0.048 A 
ATOM      3  C   UNL     1      71.812  40.404  21.895  1.00  0.00     0.137 A 
ATOM      4  C   UNL     1      72.884  41.242  21.750  1.00  0.00     0.064 A 
ATOM      5  C   UNL     1      72.713  42.272  22.647  1.00  0.00     0.054 A 
ATOM      6  C   UNL     1      71.517  41.977  23.292  1.00  0.00     0.196 A 
ATOM      7  O   UNL     1      71.002  40.856  22.821  1.00  0.00    -0.464 OA
ATOM      8  C   UNL     1      73.895  40.987  20.826  1.00  0.00     0.149 A 
ATOM      9  C   UNL     1      73.783  39.818  20.029  1.00  0.00     0.018 A 
ATOM     10  C   UNL     1      74.795  39.555  19.100  1.00  0.00     0.019 A 
ATOM     11  C   UNL     1      75.868  40.441  18.988  1.00  0.00     0.094 A 
ATOM     12  C   UNL     1      75.908  41.574  19.810  1.00  0.00     0.336 A 
ATOM     13  O   UNL     1      76.869  42.381  19.721  1.00  0.00    -0.246 OA
ATOM     14  O   UNL     1      74.935  41.805  20.688  1.00  0.00    -0.422 OA
ENDROOT
TORSDOF 0
ENDMDL
