MODEL 1
REMARK VINA RESULT:    -6.941      0.000      0.000
REMARK INTER + INTRA:          -8.728
REMARK INTER:                  -8.361
REMARK INTRA:                  -0.366
REMARK UNBOUND:                -0.366
REMARK SMILES Oc1cc(O)c2c(c1)O[C@@H](c1ccc(O)c(O)c1)[C@H](O)C2
REMARK SMILES IDX 21 1 19 2 10 3 9 4 7 5 8 6 2 7 3 8 4 9 6 10 20 11 11 13
REMARK SMILES IDX 18 14 12 15 16 16 13 17 14 18 17 19 15 21 5 23 1 25
REMARK H PARENT 20 12 17 20 15 22 5 24 1 26
REMARK Flexibility Score: inf
ROOT
ATOM      1  C   UNL     1      -4.703  15.966   9.304  1.00  0.00     0.079 C 
ATOM      2  C   UNL     1      -4.986  15.166  10.590  1.00  0.00     0.164 C 
ATOM      3  C   UNL     1      -6.452  14.682  10.600  1.00  0.00     0.232 C 
ATOM      4  O   UNL     1      -6.723  13.922   9.420  1.00  0.00    -0.482 OA
ATOM      5  C   UNL     1      -6.169  14.243   8.176  1.00  0.00     0.131 A 
ATOM      6  C   UNL     1      -6.609  13.565   7.035  1.00  0.00     0.093 A 
ATOM      7  C   UNL     1      -6.071  13.867   5.782  1.00  0.00     0.122 A 
ATOM      8  C   UNL     1      -5.085  14.855   5.667  1.00  0.00     0.092 A 
ATOM      9  C   UNL     1      -4.631  15.539   6.805  1.00  0.00     0.126 A 
ATOM     10  C   UNL     1      -5.158  15.221   8.071  1.00  0.00     0.039 A 
ENDROOT
BRANCH   2  11
ATOM     11  O   UNL     1      -4.694  15.940  11.727  1.00  0.00    -0.389 OA
ATOM     12  H   UNL     1      -5.402  16.630  11.813  1.00  0.00     0.211 HD
ENDBRANCH   2  11
BRANCH   3  13
ATOM     13  C   UNL     1      -6.739  13.842  11.822  1.00  0.00    -0.001 A 
ATOM     14  C   UNL     1      -6.228  12.538  11.920  1.00  0.00     0.057 A 
ATOM     15  C   UNL     1      -7.558  14.336  12.852  1.00  0.00     0.012 A 
ATOM     16  C   UNL     1      -6.515  11.743  13.039  1.00  0.00     0.157 A 
ATOM     17  C   UNL     1      -7.844  13.546  13.968  1.00  0.00     0.050 A 
ATOM     18  C   UNL     1      -7.323  12.248  14.066  1.00  0.00     0.157 A 
BRANCH  16  19
ATOM     19  O   UNL     1      -6.003  10.450  13.138  1.00  0.00    -0.504 OA
ATOM     20  H   UNL     1      -5.873   9.998  14.036  1.00  0.00     0.293 HD
ENDBRANCH  16  19
BRANCH  18  21
ATOM     21  O   UNL     1      -7.605  11.457  15.178  1.00  0.00    -0.504 OA
ATOM     22  H   UNL     1      -8.557  11.294  15.484  1.00  0.00     0.293 HD
ENDBRANCH  18  21
ENDBRANCH   3  13
BRANCH   9  23
ATOM     23  O   UNL     1      -3.659  16.532   6.679  1.00  0.00    -0.507 OA
ATOM     24  H   UNL     1      -2.891  16.442   6.025  1.00  0.00     0.293 HD
ENDBRANCH   9  23
BRANCH   7  25
ATOM     25  O   UNL     1      -6.524  13.183   4.657  1.00  0.00    -0.508 OA
ATOM     26  H   UNL     1      -6.996  13.662   3.899  1.00  0.00     0.293 HD
ENDBRANCH   7  25
TORSDOF 6
ENDMDL
MODEL 2
REMARK VINA RESULT:    -6.931      4.283      6.742
REMARK INTER + INTRA:          -8.715
REMARK INTER:                  -8.355
REMARK INTRA:                  -0.359
REMARK UNBOUND:                -0.366
REMARK SMILES Oc1cc(O)c2c(c1)O[C@@H](c1ccc(O)c(O)c1)[C@H](O)C2
REMARK SMILES IDX 21 1 19 2 10 3 9 4 7 5 8 6 2 7 3 8 4 9 6 10 20 11 11 13
REMARK SMILES IDX 18 14 12 15 16 16 13 17 14 18 17 19 15 21 5 23 1 25
REMARK H PARENT 20 12 17 20 15 22 5 24 1 26
REMARK Flexibility Score: inf
ROOT
ATOM      1  C   UNL     1      -2.061  15.008   9.007  1.00  0.00     0.079 C 
ATOM      2  C   UNL     1      -3.303  14.471   8.270  1.00  0.00     0.164 C 
ATOM      3  C   UNL     1      -3.929  15.588   7.406  1.00  0.00     0.232 C 
ATOM      4  O   UNL     1      -2.952  16.114   6.506  1.00  0.00    -0.482 OA
ATOM      5  C   UNL     1      -1.607  16.265   6.861  1.00  0.00     0.131 A 
ATOM      6  C   UNL     1      -0.742  16.942   5.996  1.00  0.00     0.093 A 
ATOM      7  C   UNL     1       0.605  17.105   6.328  1.00  0.00     0.122 A 
ATOM      8  C   UNL     1       1.092  16.588   7.535  1.00  0.00     0.092 A 
ATOM      9  C   UNL     1       0.236  15.901   8.409  1.00  0.00     0.126 A 
ATOM     10  C   UNL     1      -1.117  15.719   8.065  1.00  0.00     0.039 A 
ENDROOT
BRANCH   2  11
ATOM     11  O   UNL     1      -4.234  13.949   9.186  1.00  0.00    -0.389 OA
ATOM     12  H   UNL     1      -5.100  13.848   8.711  1.00  0.00     0.211 HD
ENDBRANCH   2  11
BRANCH   3  13
ATOM     13  C   UNL     1      -5.114  15.070   6.625  1.00  0.00    -0.001 A 
ATOM     14  C   UNL     1      -6.377  15.665   6.778  1.00  0.00     0.057 A 
ATOM     15  C   UNL     1      -4.978  13.960   5.775  1.00  0.00     0.012 A 
ATOM     16  C   UNL     1      -7.486  15.170   6.078  1.00  0.00     0.157 A 
ATOM     17  C   UNL     1      -6.083  13.466   5.075  1.00  0.00     0.050 A 
ATOM     18  C   UNL     1      -7.339  14.069   5.224  1.00  0.00     0.157 A 
BRANCH  16  19
ATOM     19  O   UNL     1      -8.738  15.763   6.227  1.00  0.00    -0.504 OA
ATOM     20  H   UNL     1      -8.835  16.731   6.514  1.00  0.00     0.293 HD
ENDBRANCH  16  19
BRANCH  18  21
ATOM     21  O   UNL     1      -8.443  13.580   4.527  1.00  0.00    -0.504 OA
ATOM     22  H   UNL     1      -9.308  14.103   4.472  1.00  0.00     0.293 HD
ENDBRANCH  18  21
ENDBRANCH   3  13
BRANCH   9  23
ATOM     23  O   UNL     1       0.727  15.402   9.616  1.00  0.00    -0.507 OA
ATOM     24  H   UNL     1       1.337  14.594   9.647  1.00  0.00     0.293 HD
ENDBRANCH   9  23
BRANCH   7  25
ATOM     25  O   UNL     1       1.451  17.785   5.455  1.00  0.00    -0.508 OA
ATOM     26  H   UNL     1       2.447  17.607   5.437  1.00  0.00     0.293 HD
ENDBRANCH   7  25
TORSDOF 6
ENDMDL
MODEL 3
REMARK VINA RESULT:    -6.622      3.871      6.327
REMARK INTER + INTRA:          -8.343
REMARK INTER:                  -7.969
REMARK INTRA:                  -0.375
REMARK UNBOUND:                -0.366
REMARK SMILES Oc1cc(O)c2c(c1)O[C@@H](c1ccc(O)c(O)c1)[C@H](O)C2
REMARK SMILES IDX 21 1 19 2 10 3 9 4 7 5 8 6 2 7 3 8 4 9 6 10 20 11 11 13
REMARK SMILES IDX 18 14 12 15 16 16 13 17 14 18 17 19 15 21 5 23 1 25
REMARK H PARENT 20 12 17 20 15 22 5 24 1 26
REMARK Flexibility Score: inf
ROOT
ATOM      1  C   UNL     1      -5.760  15.892   9.035  1.00  0.00     0.079 C 
ATOM      2  C   UNL     1      -4.265  16.261   8.993  1.00  0.00     0.164 C 
ATOM      3  C   UNL     1      -3.430  15.035   8.562  1.00  0.00     0.232 C 
ATOM      4  O   UNL     1      -3.900  14.541   7.307  1.00  0.00    -0.482 OA
ATOM      5  C   UNL     1      -5.256  14.539   6.960  1.00  0.00     0.131 A 
ATOM      6  C   UNL     1      -5.663  13.887   5.793  1.00  0.00     0.093 A 
ATOM      7  C   UNL     1      -7.011  13.871   5.426  1.00  0.00     0.122 A 
ATOM      8  C   UNL     1      -7.960  14.512   6.232  1.00  0.00     0.092 A 
ATOM      9  C   UNL     1      -7.563  15.174   7.403  1.00  0.00     0.126 A 
ATOM     10  C   UNL     1      -6.203  15.208   7.763  1.00  0.00     0.039 A 
ENDROOT
BRANCH   2  11
ATOM     11  O   UNL     1      -3.843  16.757  10.239  1.00  0.00    -0.389 OA
ATOM     12  H   UNL     1      -3.938  17.745  10.218  1.00  0.00     0.211 HD
ENDBRANCH   2  11
BRANCH   3  13
ATOM     13  C   UNL     1      -1.965  15.388   8.453  1.00  0.00    -0.001 A 
ATOM     14  C   UNL     1      -1.513  16.225   7.420  1.00  0.00     0.057 A 
ATOM     15  C   UNL     1      -1.031  14.845   9.352  1.00  0.00     0.012 A 
ATOM     16  C   UNL     1      -0.151  16.531   7.296  1.00  0.00     0.157 A 
ATOM     17  C   UNL     1       0.327  15.150   9.231  1.00  0.00     0.050 A 
ATOM     18  C   UNL     1       0.771  15.995   8.205  1.00  0.00     0.157 A 
BRANCH  16  19
ATOM     19  O   UNL     1       0.296  17.366   6.273  1.00  0.00    -0.504 OA
ATOM     20  H   UNL     1       0.835  18.203   6.469  1.00  0.00     0.293 HD
ENDBRANCH  16  19
BRANCH  18  21
ATOM     21  O   UNL     1       2.125  16.303   8.080  1.00  0.00    -0.504 OA
ATOM     22  H   UNL     1       2.600  16.888   8.757  1.00  0.00     0.293 HD
ENDBRANCH  18  21
ENDBRANCH   3  13
BRANCH   9  23
ATOM     23  O   UNL     1      -8.518  15.798   8.207  1.00  0.00    -0.507 OA
ATOM     24  H   UNL     1      -9.313  15.291   8.578  1.00  0.00     0.293 HD
ENDBRANCH   9  23
BRANCH   7  25
ATOM     25  O   UNL     1      -7.398  13.213   4.260  1.00  0.00    -0.508 OA
ATOM     26  H   UNL     1      -7.468  13.701   3.375  1.00  0.00     0.293 HD
ENDBRANCH   7  25
TORSDOF 6
ENDMDL
MODEL 4
REMARK VINA RESULT:    -6.598      4.745      6.558
REMARK INTER + INTRA:          -8.314
REMARK INTER:                  -8.060
REMARK INTRA:                  -0.254
REMARK UNBOUND:                -0.366
REMARK SMILES Oc1cc(O)c2c(c1)O[C@@H](c1ccc(O)c(O)c1)[C@H](O)C2
REMARK SMILES IDX 21 1 19 2 10 3 9 4 7 5 8 6 2 7 3 8 4 9 6 10 20 11 11 13
REMARK SMILES IDX 18 14 12 15 16 16 13 17 14 18 17 19 15 21 5 23 1 25
REMARK H PARENT 20 12 17 20 15 22 5 24 1 26
REMARK Flexibility Score: inf
ROOT
ATOM      1  C   UNL     1      -7.241  14.089   5.464  1.00  0.00     0.079 C 
ATOM      2  C   UNL     1      -5.852  14.040   6.127  1.00  0.00     0.164 C 
ATOM      3  C   UNL     1      -5.305  15.472   6.315  1.00  0.00     0.232 C 
ATOM      4  O   UNL     1      -6.235  16.255   7.065  1.00  0.00    -0.482 OA
ATOM      5  C   UNL     1      -7.621  16.118   6.922  1.00  0.00     0.131 A 
ATOM      6  C   UNL     1      -8.468  17.031   7.557  1.00  0.00     0.093 A 
ATOM      7  C   UNL     1      -9.854  16.915   7.430  1.00  0.00     0.122 A 
ATOM      8  C   UNL     1     -10.398  15.879   6.660  1.00  0.00     0.092 A 
ATOM      9  C   UNL     1      -9.559  14.954   6.022  1.00  0.00     0.126 A 
ATOM     10  C   UNL     1      -8.163  15.058   6.167  1.00  0.00     0.039 A 
ENDROOT
BRANCH   2  11
ATOM     11  O   UNL     1      -4.969  13.249   5.370  1.00  0.00    -0.389 OA
ATOM     12  H   UNL     1      -4.084  13.271   5.819  1.00  0.00     0.211 HD
ENDBRANCH   2  11
BRANCH   3  13
ATOM     13  C   UNL     1      -3.969  15.455   7.020  1.00  0.00    -0.001 A 
ATOM     14  C   UNL     1      -2.928  16.291   6.584  1.00  0.00     0.057 A 
ATOM     15  C   UNL     1      -3.736  14.570   8.087  1.00  0.00     0.012 A 
ATOM     16  C   UNL     1      -1.677  16.258   7.217  1.00  0.00     0.157 A 
ATOM     17  C   UNL     1      -2.490  14.537   8.719  1.00  0.00     0.050 A 
ATOM     18  C   UNL     1      -1.458  15.381   8.287  1.00  0.00     0.157 A 
BRANCH  16  19
ATOM     19  O   UNL     1      -0.646  17.091   6.786  1.00  0.00    -0.504 OA
ATOM     20  H   UNL     1      -0.653  17.510   5.862  1.00  0.00     0.293 HD
ENDBRANCH  16  19
BRANCH  18  21
ATOM     21  O   UNL     1      -0.214  15.352   8.914  1.00  0.00    -0.504 OA
ATOM     22  H   UNL     1       0.109  14.531   9.413  1.00  0.00     0.293 HD
ENDBRANCH  18  21
ENDBRANCH   3  13
BRANCH   9  23
ATOM     23  O   UNL     1     -10.110  13.934   5.245  1.00  0.00    -0.507 OA
ATOM     24  H   UNL     1      -9.979  13.901   4.241  1.00  0.00     0.293 HD
ENDBRANCH   9  23
BRANCH   7  25
ATOM     25  O   UNL     1     -10.682  17.835   8.068  1.00  0.00    -0.508 OA
ATOM     26  H   UNL     1     -11.671  17.658   8.196  1.00  0.00     0.293 HD
ENDBRANCH   7  25
TORSDOF 6
ENDMDL
MODEL 5
REMARK VINA RESULT:    -6.406      4.184      6.721
REMARK INTER + INTRA:          -8.083
REMARK INTER:                  -7.954
REMARK INTRA:                  -0.129
REMARK UNBOUND:                -0.366
REMARK SMILES Oc1cc(O)c2c(c1)O[C@@H](c1ccc(O)c(O)c1)[C@H](O)C2
REMARK SMILES IDX 21 1 19 2 10 3 9 4 7 5 8 6 2 7 3 8 4 9 6 10 20 11 11 13
REMARK SMILES IDX 18 14 12 15 16 16 13 17 14 18 17 19 15 21 5 23 1 25
REMARK H PARENT 20 12 17 20 15 22 5 24 1 26
REMARK Flexibility Score: inf
ROOT
ATOM      1  C   UNL     1      -9.949  15.796   5.598  1.00  0.00     0.079 C 
ATOM      2  C   UNL     1      -8.587  15.154   5.926  1.00  0.00     0.164 C 
ATOM      3  C   UNL     1      -7.729  16.133   6.758  1.00  0.00     0.232 C 
ATOM      4  O   UNL     1      -8.440  16.525   7.935  1.00  0.00    -0.482 OA
ATOM      5  C   UNL     1      -9.824  16.730   7.944  1.00  0.00     0.131 A 
ATOM      6  C   UNL     1     -10.428  17.277   9.079  1.00  0.00     0.093 A 
ATOM      7  C   UNL     1     -11.808  17.490   9.112  1.00  0.00     0.122 A 
ATOM      8  C   UNL     1     -12.591  17.154   8.001  1.00  0.00     0.092 A 
ATOM      9  C   UNL     1     -11.998  16.599   6.857  1.00  0.00     0.126 A 
ATOM     10  C   UNL     1     -10.611  16.365   6.831  1.00  0.00     0.039 A 
ENDROOT
BRANCH   2  11
ATOM     11  O   UNL     1      -7.925  14.768   4.747  1.00  0.00    -0.389 OA
ATOM     12  H   UNL     1      -6.962  14.985   4.857  1.00  0.00     0.211 HD
ENDBRANCH   2  11
BRANCH   3  13
ATOM     13  C   UNL     1      -6.412  15.504   7.147  1.00  0.00    -0.001 A 
ATOM     14  C   UNL     1      -6.233  14.973   8.435  1.00  0.00     0.057 A 
ATOM     15  C   UNL     1      -5.335  15.487   6.243  1.00  0.00     0.012 A 
ATOM     16  C   UNL     1      -5.002  14.415   8.810  1.00  0.00     0.157 A 
ATOM     17  C   UNL     1      -4.109  14.930   6.615  1.00  0.00     0.050 A 
ATOM     18  C   UNL     1      -3.939  14.392   7.898  1.00  0.00     0.157 A 
BRANCH  16  19
ATOM     19  O   UNL     1      -4.828  13.884  10.086  1.00  0.00    -0.504 OA
ATOM     20  H   UNL     1      -3.958  13.440  10.362  1.00  0.00     0.293 HD
ENDBRANCH  16  19
BRANCH  18  21
ATOM     21  O   UNL     1      -2.717  13.835   8.274  1.00  0.00    -0.504 OA
ATOM     22  H   UNL     1      -1.868  14.024   7.756  1.00  0.00     0.293 HD
ENDBRANCH  18  21
ENDBRANCH   3  13
BRANCH   9  23
ATOM     23  O   UNL     1     -12.784  16.281   5.749  1.00  0.00    -0.507 OA
ATOM     24  H   UNL     1     -12.950  16.949   5.006  1.00  0.00     0.293 HD
ENDBRANCH   9  23
BRANCH   7  25
ATOM     25  O   UNL     1     -12.392  18.038  10.252  1.00  0.00    -0.508 OA
ATOM     26  H   UNL     1     -13.114  17.548  10.765  1.00  0.00     0.293 HD
ENDBRANCH   7  25
TORSDOF 6
ENDMDL
MODEL 6
REMARK VINA RESULT:    -6.216      8.065     11.347
REMARK INTER + INTRA:          -7.853
REMARK INTER:                  -7.495
REMARK INTRA:                  -0.358
REMARK UNBOUND:                -0.366
REMARK SMILES Oc1cc(O)c2c(c1)O[C@@H](c1ccc(O)c(O)c1)[C@H](O)C2
REMARK SMILES IDX 21 1 19 2 10 3 9 4 7 5 8 6 2 7 3 8 4 9 6 10 20 11 11 13
REMARK SMILES IDX 18 14 12 15 16 16 13 17 14 18 17 19 15 21 5 23 1 25
REMARK H PARENT 20 12 17 20 15 22 5 24 1 26
REMARK Flexibility Score: inf
ROOT
ATOM      1  C   UNL     1       0.502  20.699  14.139  1.00  0.00     0.079 C 
ATOM      2  C   UNL     1      -0.040  22.035  13.595  1.00  0.00     0.164 C 
ATOM      3  C   UNL     1      -1.061  21.770  12.467  1.00  0.00     0.232 C 
ATOM      4  O   UNL     1      -2.104  20.917  12.943  1.00  0.00    -0.482 OA
ATOM      5  C   UNL     1      -1.868  19.872  13.843  1.00  0.00     0.131 A 
ATOM      6  C   UNL     1      -2.897  18.972  14.133  1.00  0.00     0.093 A 
ATOM      7  C   UNL     1      -2.686  17.921  15.028  1.00  0.00     0.122 A 
ATOM      8  C   UNL     1      -1.435  17.767  15.639  1.00  0.00     0.092 A 
ATOM      9  C   UNL     1      -0.395  18.666  15.360  1.00  0.00     0.126 A 
ATOM     10  C   UNL     1      -0.613  19.737  14.474  1.00  0.00     0.039 A 
ENDROOT
BRANCH   2  11
ATOM     11  O   UNL     1       1.014  22.853  13.152  1.00  0.00    -0.389 OA
ATOM     12  H   UNL     1       0.661  23.434  12.428  1.00  0.00     0.211 HD
ENDBRANCH   2  11
BRANCH   3  13
ATOM     13  C   UNL     1      -1.654  23.063  11.958  1.00  0.00    -0.001 A 
ATOM     14  C   UNL     1      -2.270  23.958  12.849  1.00  0.00     0.057 A 
ATOM     15  C   UNL     1      -1.643  23.362  10.585  1.00  0.00     0.012 A 
ATOM     16  C   UNL     1      -2.848  25.145  12.378  1.00  0.00     0.157 A 
ATOM     17  C   UNL     1      -2.218  24.545  10.115  1.00  0.00     0.050 A 
ATOM     18  C   UNL     1      -2.821  25.441  11.009  1.00  0.00     0.157 A 
BRANCH  16  19
ATOM     19  O   UNL     1      -3.454  26.035  13.263  1.00  0.00    -0.504 OA
ATOM     20  H   UNL     1      -3.010  26.909  13.524  1.00  0.00     0.293 HD
ENDBRANCH  16  19
BRANCH  18  21
ATOM     21  O   UNL     1      -3.396  26.622  10.544  1.00  0.00    -0.504 OA
ATOM     22  H   UNL     1      -4.018  26.630   9.745  1.00  0.00     0.293 HD
ENDBRANCH  18  21
ENDBRANCH   3  13
BRANCH   9  23
ATOM     23  O   UNL     1       0.852  18.496  15.962  1.00  0.00    -0.507 OA
ATOM     24  H   UNL     1       1.691  18.907  15.571  1.00  0.00     0.293 HD
ENDBRANCH   9  23
BRANCH   7  25
ATOM     25  O   UNL     1      -3.724  17.033  15.303  1.00  0.00    -0.508 OA
ATOM     26  H   UNL     1      -4.015  16.334  14.630  1.00  0.00     0.293 HD
ENDBRANCH   7  25
TORSDOF 6
ENDMDL
MODEL 7
REMARK VINA RESULT:    -6.143      5.114      6.354
REMARK INTER + INTRA:          -7.766
REMARK INTER:                  -7.398
REMARK INTRA:                  -0.368
REMARK UNBOUND:                -0.366
REMARK SMILES Oc1cc(O)c2c(c1)O[C@@H](c1ccc(O)c(O)c1)[C@H](O)C2
REMARK SMILES IDX 21 1 19 2 10 3 9 4 7 5 8 6 2 7 3 8 4 9 6 10 20 11 11 13
REMARK SMILES IDX 18 14 12 15 16 16 13 17 14 18 17 19 15 21 5 23 1 25
REMARK H PARENT 20 12 17 20 15 22 5 24 1 26
REMARK Flexibility Score: inf
ROOT
ATOM      1  C   UNL     1     -11.890  14.210  12.000  1.00  0.00     0.079 C 
ATOM      2  C   UNL     1     -10.888  13.438  12.880  1.00  0.00     0.164 C 
ATOM      3  C   UNL     1      -9.442  13.763  12.443  1.00  0.00     0.232 C 
ATOM      4  O   UNL     1      -9.225  15.175  12.487  1.00  0.00    -0.482 OA
ATOM      5  C   UNL     1     -10.215  16.099  12.138  1.00  0.00     0.131 A 
ATOM      6  C   UNL     1      -9.884  17.453  12.039  1.00  0.00     0.093 A 
ATOM      7  C   UNL     1     -10.855  18.395  11.693  1.00  0.00     0.122 A 
ATOM      8  C   UNL     1     -12.170  17.980  11.443  1.00  0.00     0.092 A 
ATOM      9  C   UNL     1     -12.517  16.625  11.545  1.00  0.00     0.126 A 
ATOM     10  C   UNL     1     -11.543  15.678  11.914  1.00  0.00     0.039 A 
ENDROOT
BRANCH   2  11
ATOM     11  O   UNL     1     -11.142  12.057  12.824  1.00  0.00    -0.389 OA
ATOM     12  H   UNL     1     -10.660  11.630  13.580  1.00  0.00     0.211 HD
ENDBRANCH   2  11
BRANCH   3  13
ATOM     13  C   UNL     1      -8.438  13.066  13.330  1.00  0.00    -0.001 A 
ATOM     14  C   UNL     1      -7.632  12.037  12.815  1.00  0.00     0.057 A 
ATOM     15  C   UNL     1      -8.331  13.403  14.691  1.00  0.00     0.012 A 
ATOM     16  C   UNL     1      -6.719  11.367  13.642  1.00  0.00     0.157 A 
ATOM     17  C   UNL     1      -7.421  12.737  15.515  1.00  0.00     0.050 A 
ATOM     18  C   UNL     1      -6.612  11.718  14.993  1.00  0.00     0.157 A 
BRANCH  16  19
ATOM     19  O   UNL     1      -5.917  10.349  13.128  1.00  0.00    -0.504 OA
ATOM     20  H   UNL     1      -5.975   9.400  13.481  1.00  0.00     0.293 HD
ENDBRANCH  16  19
BRANCH  18  21
ATOM     21  O   UNL     1      -5.702  11.051  15.812  1.00  0.00    -0.504 OA
ATOM     22  H   UNL     1      -5.337  10.139  15.566  1.00  0.00     0.293 HD
ENDBRANCH  18  21
ENDBRANCH   3  13
BRANCH   9  23
ATOM     23  O   UNL     1     -13.825  16.219  11.281  1.00  0.00    -0.507 OA
ATOM     24  H   UNL     1     -14.183  16.164  10.335  1.00  0.00     0.293 HD
ENDBRANCH   9  23
BRANCH   7  25
ATOM     25  O   UNL     1     -10.506  19.740  11.596  1.00  0.00    -0.508 OA
ATOM     26  H   UNL     1     -10.966  20.361  10.942  1.00  0.00     0.293 HD
ENDBRANCH   7  25
TORSDOF 6
ENDMDL
MODEL 8
REMARK VINA RESULT:    -6.135      5.615      6.893
REMARK INTER + INTRA:          -7.756
REMARK INTER:                  -7.533
REMARK INTRA:                  -0.223
REMARK UNBOUND:                -0.366
REMARK SMILES Oc1cc(O)c2c(c1)O[C@@H](c1ccc(O)c(O)c1)[C@H](O)C2
REMARK SMILES IDX 21 1 19 2 10 3 9 4 7 5 8 6 2 7 3 8 4 9 6 10 20 11 11 13
REMARK SMILES IDX 18 14 12 15 16 16 13 17 14 18 17 19 15 21 5 23 1 25
REMARK H PARENT 20 12 17 20 15 22 5 24 1 26
REMARK Flexibility Score: inf
ROOT
ATOM      1  C   UNL     1      -9.118  16.939   7.484  1.00  0.00     0.079 C 
ATOM      2  C   UNL     1     -10.554  16.486   7.810  1.00  0.00     0.164 C 
ATOM      3  C   UNL     1     -11.240  15.947   6.536  1.00  0.00     0.232 C 
ATOM      4  O   UNL     1     -10.457  14.895   5.968  1.00  0.00    -0.482 OA
ATOM      5  C   UNL     1      -9.058  14.911   5.976  1.00  0.00     0.131 A 
ATOM      6  C   UNL     1      -8.358  13.940   5.255  1.00  0.00     0.093 A 
ATOM      7  C   UNL     1      -6.961  13.935   5.248  1.00  0.00     0.122 A 
ATOM      8  C   UNL     1      -6.257  14.908   5.969  1.00  0.00     0.092 A 
ATOM      9  C   UNL     1      -6.948  15.885   6.701  1.00  0.00     0.126 A 
ATOM     10  C   UNL     1      -8.355  15.879   6.724  1.00  0.00     0.039 A 
ENDROOT
BRANCH   2  11
ATOM     11  O   UNL     1     -11.288  17.541   8.381  1.00  0.00    -0.389 OA
ATOM     12  H   UNL     1     -10.740  18.366   8.304  1.00  0.00     0.211 HD
ENDBRANCH   2  11
BRANCH   3  13
ATOM     13  C   UNL     1     -12.629  15.438   6.841  1.00  0.00    -0.001 A 
ATOM     14  C   UNL     1     -12.888  14.769   8.049  1.00  0.00     0.057 A 
ATOM     15  C   UNL     1     -13.665  15.583   5.903  1.00  0.00     0.012 A 
ATOM     16  C   UNL     1     -14.169  14.269   8.325  1.00  0.00     0.157 A 
ATOM     17  C   UNL     1     -14.942  15.086   6.177  1.00  0.00     0.050 A 
ATOM     18  C   UNL     1     -15.198  14.429   7.388  1.00  0.00     0.157 A 
BRANCH  16  19
ATOM     19  O   UNL     1     -14.426  13.610   9.526  1.00  0.00    -0.504 OA
ATOM     20  H   UNL     1     -15.024  12.791   9.564  1.00  0.00     0.293 HD
ENDBRANCH  16  19
BRANCH  18  21
ATOM     21  O   UNL     1     -16.470  13.932   7.666  1.00  0.00    -0.504 OA
ATOM     22  H   UNL     1     -16.871  13.173   7.129  1.00  0.00     0.293 HD
ENDBRANCH  18  21
ENDBRANCH   3  13
BRANCH   9  23
ATOM     23  O   UNL     1      -6.239  16.860   7.404  1.00  0.00    -0.507 OA
ATOM     24  H   UNL     1      -5.524  17.421   6.958  1.00  0.00     0.293 HD
ENDBRANCH   9  23
BRANCH   7  25
ATOM     25  O   UNL     1      -6.280  12.961   4.522  1.00  0.00    -0.508 OA
ATOM     26  H   UNL     1      -5.835  12.174   4.978  1.00  0.00     0.293 HD
ENDBRANCH   7  25
TORSDOF 6
ENDMDL
MODEL 9
REMARK VINA RESULT:    -6.056      1.519      1.793
REMARK INTER + INTRA:          -7.661
REMARK INTER:                  -7.294
REMARK INTRA:                  -0.367
REMARK UNBOUND:                -0.366
REMARK SMILES Oc1cc(O)c2c(c1)O[C@@H](c1ccc(O)c(O)c1)[C@H](O)C2
REMARK SMILES IDX 21 1 19 2 10 3 9 4 7 5 8 6 2 7 3 8 4 9 6 10 20 11 11 13
REMARK SMILES IDX 18 14 12 15 16 16 13 17 14 18 17 19 15 21 5 23 1 25
REMARK H PARENT 20 12 17 20 15 22 5 24 1 26
REMARK Flexibility Score: inf
ROOT
ATOM      1  C   UNL     1      -4.496  15.525   9.476  1.00  0.00     0.079 C 
ATOM      2  C   UNL     1      -5.382  15.167  10.685  1.00  0.00     0.164 C 
ATOM      3  C   UNL     1      -6.865  15.439  10.351  1.00  0.00     0.232 C 
ATOM      4  O   UNL     1      -7.240  14.721   9.174  1.00  0.00    -0.482 OA
ATOM      5  C   UNL     1      -6.369  14.542   8.093  1.00  0.00     0.131 A 
ATOM      6  C   UNL     1      -6.854  13.981   6.909  1.00  0.00     0.093 A 
ATOM      7  C   UNL     1      -6.005  13.792   5.817  1.00  0.00     0.122 A 
ATOM      8  C   UNL     1      -4.658  14.167   5.908  1.00  0.00     0.092 A 
ATOM      9  C   UNL     1      -4.158  14.726   7.094  1.00  0.00     0.126 A 
ATOM     10  C   UNL     1      -5.009  14.898   8.201  1.00  0.00     0.039 A 
ENDROOT
BRANCH   2  11
ATOM     11  O   UNL     1      -4.974  15.880  11.826  1.00  0.00    -0.389 OA
ATOM     12  H   UNL     1      -5.789  16.242  12.263  1.00  0.00     0.211 HD
ENDBRANCH   2  11
BRANCH   3  13
ATOM     13  C   UNL     1      -7.762  15.038  11.499  1.00  0.00    -0.001 A 
ATOM     14  C   UNL     1      -7.989  13.680  11.778  1.00  0.00     0.057 A 
ATOM     15  C   UNL     1      -8.417  16.014  12.268  1.00  0.00     0.012 A 
ATOM     16  C   UNL     1      -8.844  13.302  12.824  1.00  0.00     0.157 A 
ATOM     17  C   UNL     1      -9.269  15.639  13.311  1.00  0.00     0.050 A 
ATOM     18  C   UNL     1      -9.483  14.283  13.592  1.00  0.00     0.157 A 
BRANCH  16  19
ATOM     19  O   UNL     1      -9.065  11.954  13.103  1.00  0.00    -0.504 OA
ATOM     20  H   UNL     1      -9.172  11.621  14.055  1.00  0.00     0.293 HD
ENDBRANCH  16  19
BRANCH  18  21
ATOM     21  O   UNL     1     -10.331  13.904  14.632  1.00  0.00    -0.504 OA
ATOM     22  H   UNL     1     -11.109  13.274  14.478  1.00  0.00     0.293 HD
ENDBRANCH  18  21
ENDBRANCH   3  13
BRANCH   9  23
ATOM     23  O   UNL     1      -2.819  15.111   7.171  1.00  0.00    -0.507 OA
ATOM     24  H   UNL     1      -2.068  14.470   6.944  1.00  0.00     0.293 HD
ENDBRANCH   9  23
BRANCH   7  25
ATOM     25  O   UNL     1      -6.507  13.233   4.643  1.00  0.00    -0.508 OA
ATOM     26  H   UNL     1      -6.408  12.246   4.442  1.00  0.00     0.293 HD
ENDBRANCH   7  25
TORSDOF 6
ENDMDL
