MODEL 1
REMARK VINA RESULT:    -4.200      0.000      0.000
REMARK INTER + INTRA:          -5.227
REMARK INTER:                  -5.182
REMARK INTRA:                  -0.044
REMARK UNBOUND:                -0.044
REMARK SMILES CCCCCC(=O)[O-]
REMARK SMILES IDX 4 1 5 2 6 3 7 4 8 5 3 6 2 7 1 8
REMARK H PARENT
REMARK Flexibility Score: inf
ROOT
ATOM      1  C   UNL     1       0.857   8.249  19.504  1.00  0.00     0.006 C 
ENDROOT
BRANCH   1   2
ATOM      2  C   UNL     1       0.201   6.960  20.015  1.00  0.00     0.053 C 
BRANCH   2   3
ATOM      3  C   UNL     1       0.480   6.777  21.474  1.00  0.00     0.041 C 
ATOM      4  O   UNL     1       1.666   6.772  21.896  1.00  0.00    -0.550 OA
ATOM      5  O   UNL     1      -0.572   6.659  22.374  1.00  0.00    -0.550 OA
ENDBRANCH   2   3
ENDBRANCH   1   2
BRANCH   1   6
ATOM      6  C   UNL     1       0.900   8.322  17.969  1.00  0.00     0.000 C 
BRANCH   6   7
ATOM      7  C   UNL     1       2.187   8.973  17.445  1.00  0.00    -0.003 C 
ATOM      8  C   UNL     1       1.917   9.787  16.182  1.00  0.00     0.004 C 
ENDBRANCH   6   7
ENDBRANCH   1   6
TORSDOF 4
ENDMDL
MODEL 2
REMARK VINA RESULT:    -4.126      2.572      4.726
REMARK INTER + INTRA:          -5.135
REMARK INTER:                  -5.024
REMARK INTRA:                  -0.112
REMARK UNBOUND:                -0.044
REMARK SMILES CCCCCC(=O)[O-]
REMARK SMILES IDX 4 1 5 2 6 3 7 4 8 5 3 6 2 7 1 8
REMARK H PARENT
REMARK Flexibility Score: inf
ROOT
ATOM      1  C   UNL     1       0.325   7.334  20.519  1.00  0.00     0.006 C 
ENDROOT
BRANCH   1   2
ATOM      2  C   UNL     1       0.839   8.482  19.642  1.00  0.00     0.053 C 
BRANCH   2   3
ATOM      3  C   UNL     1       0.907   8.054  18.210  1.00  0.00     0.041 C 
ATOM      4  O   UNL     1       1.552   8.739  17.373  1.00  0.00    -0.550 OA
ATOM      5  O   UNL     1       0.298   6.871  17.808  1.00  0.00    -0.550 OA
ENDBRANCH   2   3
ENDBRANCH   1   2
BRANCH   1   6
ATOM      6  C   UNL     1       1.400   6.792  21.475  1.00  0.00     0.000 C 
BRANCH   6   7
ATOM      7  C   UNL     1       0.907   6.697  22.926  1.00  0.00    -0.003 C 
ATOM      8  C   UNL     1      -0.604   6.486  22.980  1.00  0.00     0.004 C 
ENDBRANCH   6   7
ENDBRANCH   1   6
TORSDOF 4
ENDMDL
MODEL 3
REMARK VINA RESULT:    -4.108      1.355      1.870
REMARK INTER + INTRA:          -5.113
REMARK INTER:                  -5.020
REMARK INTRA:                  -0.093
REMARK UNBOUND:                -0.044
REMARK SMILES CCCCCC(=O)[O-]
REMARK SMILES IDX 4 1 5 2 6 3 7 4 8 5 3 6 2 7 1 8
REMARK H PARENT
REMARK Flexibility Score: inf
ROOT
ATOM      1  C   UNL     1       0.903   8.269  18.040  1.00  0.00     0.006 C 
ENDROOT
BRANCH   1   2
ATOM      2  C   UNL     1       0.839   8.254  19.572  1.00  0.00     0.053 C 
BRANCH   2   3
ATOM      3  C   UNL     1       0.223   6.979  20.055  1.00  0.00     0.041 C 
ATOM      4  O   UNL     1      -0.132   6.862  21.257  1.00  0.00    -0.550 OA
ATOM      5  O   UNL     1      -0.003   5.935  19.165  1.00  0.00    -0.550 OA
ENDBRANCH   2   3
ENDBRANCH   1   2
BRANCH   1   6
ATOM      6  C   UNL     1       2.182   8.936  17.507  1.00  0.00     0.000 C 
BRANCH   6   7
ATOM      7  C   UNL     1       1.935   9.756  16.233  1.00  0.00    -0.003 C 
ATOM      8  C   UNL     1       0.724   9.231  15.468  1.00  0.00     0.004 C 
ENDBRANCH   6   7
ENDBRANCH   1   6
TORSDOF 4
ENDMDL
MODEL 4
REMARK VINA RESULT:    -3.898      0.989      1.394
REMARK INTER + INTRA:          -4.853
REMARK INTER:                  -4.765
REMARK INTRA:                  -0.089
REMARK UNBOUND:                -0.044
REMARK SMILES CCCCCC(=O)[O-]
REMARK SMILES IDX 4 1 5 2 6 3 7 4 8 5 3 6 2 7 1 8
REMARK H PARENT
REMARK Flexibility Score: inf
ROOT
ATOM      1  C   UNL     1      -0.069   6.613  19.950  1.00  0.00     0.006 C 
ENDROOT
BRANCH   1   2
ATOM      2  C   UNL     1       0.955   7.196  20.932  1.00  0.00     0.053 C 
BRANCH   2   3
ATOM      3  C   UNL     1       0.695   6.690  22.316  1.00  0.00     0.041 C 
ATOM      4  O   UNL     1       1.656   6.428  23.085  1.00  0.00    -0.550 OA
ATOM      5  O   UNL     1      -0.610   6.554  22.773  1.00  0.00    -0.550 OA
ENDBRANCH   2   3
ENDBRANCH   1   2
BRANCH   1   6
ATOM      6  C   UNL     1       0.287   6.903  18.482  1.00  0.00     0.000 C 
BRANCH   6   7
ATOM      7  C   UNL     1       0.914   8.291  18.290  1.00  0.00    -0.003 C 
ATOM      8  C   UNL     1       1.398   8.481  16.855  1.00  0.00     0.004 C 
ENDBRANCH   6   7
ENDBRANCH   1   6
TORSDOF 4
ENDMDL
MODEL 5
REMARK VINA RESULT:    -3.753      3.024      4.673
REMARK INTER + INTRA:          -4.674
REMARK INTER:                  -4.573
REMARK INTRA:                  -0.102
REMARK UNBOUND:                -0.044
REMARK SMILES CCCCCC(=O)[O-]
REMARK SMILES IDX 4 1 5 2 6 3 7 4 8 5 3 6 2 7 1 8
REMARK H PARENT
REMARK Flexibility Score: inf
ROOT
ATOM      1  C   UNL     1       0.253   7.031  20.462  1.00  0.00     0.006 C 
ENDROOT
BRANCH   1   2
ATOM      2  C   UNL     1      -0.126   6.091  19.310  1.00  0.00     0.053 C 
BRANCH   2   3
ATOM      3  C   UNL     1       0.330   6.660  18.003  1.00  0.00     0.041 C 
ATOM      4  O   UNL     1       0.297   5.956  16.960  1.00  0.00    -0.550 OA
ATOM      5  O   UNL     1       0.745   7.984  17.928  1.00  0.00    -0.550 OA
ENDBRANCH   2   3
ENDBRANCH   1   2
BRANCH   1   6
ATOM      6  C   UNL     1      -0.500   6.706  21.763  1.00  0.00     0.000 C 
BRANCH   6   7
ATOM      7  C   UNL     1       0.441   6.538  22.964  1.00  0.00    -0.003 C 
ATOM      8  C   UNL     1       1.899   6.723  22.550  1.00  0.00     0.004 C 
ENDBRANCH   6   7
ENDBRANCH   1   6
TORSDOF 4
ENDMDL
MODEL 6
REMARK VINA RESULT:    -3.731      3.829      4.754
REMARK INTER + INTRA:          -4.647
REMARK INTER:                  -4.564
REMARK INTRA:                  -0.083
REMARK UNBOUND:                -0.044
REMARK SMILES CCCCCC(=O)[O-]
REMARK SMILES IDX 4 1 5 2 6 3 7 4 8 5 3 6 2 7 1 8
REMARK H PARENT
REMARK Flexibility Score: inf
ROOT
ATOM      1  C   UNL     1      -0.156   6.040  18.421  1.00  0.00     0.006 C 
ENDROOT
BRANCH   1   2
ATOM      2  C   UNL     1      -0.098   5.458  17.003  1.00  0.00     0.053 C 
BRANCH   2   3
ATOM      3  C   UNL     1      -1.277   4.571  16.756  1.00  0.00     0.041 C 
ATOM      4  O   UNL     1      -1.147   3.319  16.790  1.00  0.00    -0.550 OA
ATOM      5  O   UNL     1      -2.531   5.127  16.535  1.00  0.00    -0.550 OA
ENDBRANCH   2   3
ENDBRANCH   1   2
BRANCH   1   6
ATOM      6  C   UNL     1       0.536   7.409  18.527  1.00  0.00     0.000 C 
BRANCH   6   7
ATOM      7  C   UNL     1       0.552   7.954  19.962  1.00  0.00    -0.003 C 
ATOM      8  C   UNL     1       0.053   6.906  20.953  1.00  0.00     0.004 C 
ENDBRANCH   6   7
ENDBRANCH   1   6
TORSDOF 4
ENDMDL
MODEL 7
REMARK VINA RESULT:    -3.724      2.566      3.359
REMARK INTER + INTRA:          -4.639
REMARK INTER:                  -4.587
REMARK INTRA:                  -0.052
REMARK UNBOUND:                -0.044
REMARK SMILES CCCCCC(=O)[O-]
REMARK SMILES IDX 4 1 5 2 6 3 7 4 8 5 3 6 2 7 1 8
REMARK H PARENT
REMARK Flexibility Score: inf
ROOT
ATOM      1  C   UNL     1      -0.121   5.749  18.883  1.00  0.00     0.006 C 
ENDROOT
BRANCH   1   2
ATOM      2  C   UNL     1       0.239   7.109  19.496  1.00  0.00     0.053 C 
BRANCH   2   3
ATOM      3  C   UNL     1       0.513   6.964  20.960  1.00  0.00     0.041 C 
ATOM      4  O   UNL     1       1.681   7.117  21.404  1.00  0.00    -0.550 OA
ATOM      5  O   UNL     1      -0.531   6.707  21.841  1.00  0.00    -0.550 OA
ENDBRANCH   2   3
ENDBRANCH   1   2
BRANCH   1   6
ATOM      6  C   UNL     1       0.032   5.731  17.354  1.00  0.00     0.000 C 
BRANCH   6   7
ATOM      7  C   UNL     1      -1.224   5.210  16.641  1.00  0.00    -0.003 C 
ATOM      8  C   UNL     1      -1.209   3.687  16.543  1.00  0.00     0.004 C 
ENDBRANCH   6   7
ENDBRANCH   1   6
TORSDOF 4
ENDMDL
MODEL 8
REMARK VINA RESULT:    -3.691      2.824      4.835
REMARK INTER + INTRA:          -4.598
REMARK INTER:                  -4.493
REMARK INTRA:                  -0.105
REMARK UNBOUND:                -0.044
REMARK SMILES CCCCCC(=O)[O-]
REMARK SMILES IDX 4 1 5 2 6 3 7 4 8 5 3 6 2 7 1 8
REMARK H PARENT
REMARK Flexibility Score: inf
ROOT
ATOM      1  C   UNL     1       0.313   8.209  19.690  1.00  0.00     0.006 C 
ENDROOT
BRANCH   1   2
ATOM      2  C   UNL     1       1.649   8.639  19.072  1.00  0.00     0.053 C 
BRANCH   2   3
ATOM      3  C   UNL     1       1.563   8.617  17.578  1.00  0.00     0.041 C 
ATOM      4  O   UNL     1       0.835   7.769  16.998  1.00  0.00    -0.550 OA
ATOM      5  O   UNL     1       2.249   9.565  16.828  1.00  0.00    -0.550 OA
ENDBRANCH   2   3
ENDBRANCH   1   2
BRANCH   1   6
ATOM      6  C   UNL     1       0.368   6.795  20.292  1.00  0.00     0.000 C 
BRANCH   6   7
ATOM      7  C   UNL     1      -0.011   6.772  21.780  1.00  0.00    -0.003 C 
ATOM      8  C   UNL     1       1.234   6.727  22.662  1.00  0.00     0.004 C 
ENDBRANCH   6   7
ENDBRANCH   1   6
TORSDOF 4
ENDMDL
MODEL 9
REMARK VINA RESULT:    -3.539      6.371      7.319
REMARK INTER + INTRA:          -4.411
REMARK INTER:                  -4.162
REMARK INTRA:                  -0.248
REMARK UNBOUND:                -0.044
REMARK SMILES CCCCCC(=O)[O-]
REMARK SMILES IDX 4 1 5 2 6 3 7 4 8 5 3 6 2 7 1 8
REMARK H PARENT
REMARK Flexibility Score: inf
ROOT
ATOM      1  C   UNL     1      -3.064   4.972  15.795  1.00  0.00     0.006 C 
ENDROOT
BRANCH   1   2
ATOM      2  C   UNL     1      -2.136   3.781  15.525  1.00  0.00     0.053 C 
BRANCH   2   3
ATOM      3  C   UNL     1      -1.388   3.411  16.767  1.00  0.00     0.041 C 
ATOM      4  O   UNL     1      -0.658   4.259  17.343  1.00  0.00    -0.550 OA
ATOM      5  O   UNL     1      -1.536   2.143  17.316  1.00  0.00    -0.550 OA
ENDBRANCH   2   3
ENDBRANCH   1   2
BRANCH   1   6
ATOM      6  C   UNL     1      -4.341   4.568  16.550  1.00  0.00     0.000 C 
BRANCH   6   7
ATOM      7  C   UNL     1      -4.964   3.274  16.008  1.00  0.00    -0.003 C 
ATOM      8  C   UNL     1      -5.113   2.232  17.113  1.00  0.00     0.004 C 
ENDBRANCH   6   7
ENDBRANCH   1   6
TORSDOF 4
ENDMDL
