MODEL 1
REMARK VINA RESULT:    -3.800      0.000      0.000
REMARK INTER + INTRA:          -3.800
REMARK INTER:                  -3.800
REMARK INTRA:                   0.000
REMARK UNBOUND:                 0.000
REMARK SMILES C=C1[C@@H]2CC[C@@H](C2)C1(C)C
REMARK SMILES IDX 9 1 8 2 6 3 5 4 4 5 3 6 7 7 2 8 1 9 10 10
REMARK H PARENT
REMARK Flexibility Score: inf
ROOT
ATOM      1  C   UNL     1     138.118 138.498 133.913  1.00  0.00     0.016 C 
ATOM      2  C   UNL     1     139.374 137.848 134.539  1.00  0.00    -0.012 C 
ATOM      3  C   UNL     1     140.279 138.850 135.338  1.00  0.00    -0.001 C 
ATOM      4  C   UNL     1     139.439 139.704 136.317  1.00  0.00     0.005 C 
ATOM      5  C   UNL     1     138.973 138.669 137.363  1.00  0.00     0.008 C 
ATOM      6  C   UNL     1     139.689 137.383 136.918  1.00  0.00     0.015 C 
ATOM      7  C   UNL     1     140.974 137.938 136.343  1.00  0.00     0.012 C 
ATOM      8  C   UNL     1     139.016 136.902 135.660  1.00  0.00    -0.068 C 
ATOM      9  C   UNL     1     138.198 135.847 135.581  1.00  0.00     0.008 C 
ATOM     10  C   UNL     1     140.175 137.131 133.429  1.00  0.00     0.016 C 
ENDROOT
TORSDOF 0
ENDMDL
MODEL 2
REMARK VINA RESULT:    -3.785      4.143      5.258
REMARK INTER + INTRA:          -3.785
REMARK INTER:                  -3.785
REMARK INTRA:                   0.000
REMARK UNBOUND:                 0.000
REMARK SMILES C=C1[C@@H]2CC[C@@H](C2)C1(C)C
REMARK SMILES IDX 9 1 8 2 6 3 5 4 4 5 3 6 7 7 2 8 1 9 10 10
REMARK H PARENT
REMARK Flexibility Score: inf
ROOT
ATOM      1  C   UNL     1     134.069 138.121 133.918  1.00  0.00     0.016 C 
ATOM      2  C   UNL     1     134.755 139.366 134.527  1.00  0.00    -0.012 C 
ATOM      3  C   UNL     1     133.795 140.269 135.379  1.00  0.00    -0.001 C 
ATOM      4  C   UNL     1     132.979 139.423 136.386  1.00  0.00     0.005 C 
ATOM      5  C   UNL     1     134.057 138.940 137.380  1.00  0.00     0.008 C 
ATOM      6  C   UNL     1     135.327 139.654 136.885  1.00  0.00     0.015 C 
ATOM      7  C   UNL     1     134.755 140.947 136.349  1.00  0.00     0.012 C 
ATOM      8  C   UNL     1     135.747 138.991 135.601  1.00  0.00    -0.068 C 
ATOM      9  C   UNL     1     136.792 138.166 135.466  1.00  0.00     0.008 C 
ATOM     10  C   UNL     1     135.427 140.174 133.394  1.00  0.00     0.016 C 
ENDROOT
TORSDOF 0
ENDMDL
MODEL 3
REMARK VINA RESULT:    -3.781      3.627      5.687
REMARK INTER + INTRA:          -3.781
REMARK INTER:                  -3.781
REMARK INTRA:                   0.000
REMARK UNBOUND:                 0.000
REMARK SMILES C=C1[C@@H]2CC[C@@H](C2)C1(C)C
REMARK SMILES IDX 9 1 8 2 6 3 5 4 4 5 3 6 7 7 2 8 1 9 10 10
REMARK H PARENT
REMARK Flexibility Score: inf
ROOT
ATOM      1  C   UNL     1     137.514 135.377 136.817  1.00  0.00     0.016 C 
ATOM      2  C   UNL     1     138.158 133.983 136.991  1.00  0.00    -0.012 C 
ATOM      3  C   UNL     1     137.140 132.793 136.887  1.00  0.00    -0.001 C 
ATOM      4  C   UNL     1     136.237 132.937 135.637  1.00  0.00     0.005 C 
ATOM      5  C   UNL     1     137.227 132.717 134.473  1.00  0.00     0.008 C 
ATOM      6  C   UNL     1     138.538 132.367 135.196  1.00  0.00     0.015 C 
ATOM      7  C   UNL     1     138.023 131.642 136.419  1.00  0.00     0.012 C 
ATOM      8  C   UNL     1     139.056 133.631 135.829  1.00  0.00    -0.068 C 
ATOM      9  C   UNL     1     140.102 134.340 135.389  1.00  0.00     0.008 C 
ATOM     10  C   UNL     1     138.927 133.947 138.330  1.00  0.00     0.016 C 
ENDROOT
TORSDOF 0
ENDMDL
MODEL 4
REMARK VINA RESULT:    -3.778      5.691      7.446
REMARK INTER + INTRA:          -3.778
REMARK INTER:                  -3.778
REMARK INTRA:                   0.000
REMARK UNBOUND:                 0.000
REMARK SMILES C=C1[C@@H]2CC[C@@H](C2)C1(C)C
REMARK SMILES IDX 9 1 8 2 6 3 5 4 4 5 3 6 7 7 2 8 1 9 10 10
REMARK H PARENT
REMARK Flexibility Score: inf
ROOT
ATOM      1  C   UNL     1     134.377 135.899 134.272  1.00  0.00     0.016 C 
ATOM      2  C   UNL     1     133.036 135.900 135.041  1.00  0.00    -0.012 C 
ATOM      3  C   UNL     1     132.363 134.486 135.149  1.00  0.00    -0.001 C 
ATOM      4  C   UNL     1     133.378 133.419 135.623  1.00  0.00     0.005 C 
ATOM      5  C   UNL     1     133.660 133.838 137.082  1.00  0.00     0.008 C 
ATOM      6  C   UNL     1     132.696 135.018 137.295  1.00  0.00     0.015 C 
ATOM      7  C   UNL     1     131.530 134.614 136.420  1.00  0.00     0.012 C 
ATOM      8  C   UNL     1     133.231 136.186 136.510  1.00  0.00    -0.068 C 
ATOM      9  C   UNL     1     133.826 137.261 137.040  1.00  0.00     0.008 C 
ATOM     10  C   UNL     1     132.083 136.926 134.387  1.00  0.00     0.016 C 
ENDROOT
TORSDOF 0
ENDMDL
MODEL 5
REMARK VINA RESULT:    -3.772      1.073      3.183
REMARK INTER + INTRA:          -3.772
REMARK INTER:                  -3.772
REMARK INTRA:                   0.000
REMARK UNBOUND:                 0.000
REMARK SMILES C=C1[C@@H]2CC[C@@H](C2)C1(C)C
REMARK SMILES IDX 9 1 8 2 6 3 5 4 4 5 3 6 7 7 2 8 1 9 10 10
REMARK H PARENT
REMARK Flexibility Score: inf
ROOT
ATOM      1  C   UNL     1     137.228 137.496 136.582  1.00  0.00     0.016 C 
ATOM      2  C   UNL     1     138.625 138.103 136.847  1.00  0.00    -0.012 C 
ATOM      3  C   UNL     1     139.797 137.062 136.770  1.00  0.00    -0.001 C 
ATOM      4  C   UNL     1     139.699 136.204 135.486  1.00  0.00     0.005 C 
ATOM      5  C   UNL     1     139.999 137.225 134.367  1.00  0.00     0.008 C 
ATOM      6  C   UNL     1     140.338 138.505 135.151  1.00  0.00     0.015 C 
ATOM      7  C   UNL     1     140.989 137.935 136.391  1.00  0.00     0.012 C 
ATOM      8  C   UNL     1     139.054 139.031 135.736  1.00  0.00    -0.068 C 
ATOM      9  C   UNL     1     138.391 140.105 135.295  1.00  0.00     0.008 C 
ATOM     10  C   UNL     1     138.607 138.828 138.212  1.00  0.00     0.016 C 
ENDROOT
TORSDOF 0
ENDMDL
MODEL 6
REMARK VINA RESULT:    -3.770      5.396      7.524
REMARK INTER + INTRA:          -3.770
REMARK INTER:                  -3.770
REMARK INTRA:                   0.000
REMARK UNBOUND:                 0.000
REMARK SMILES C=C1[C@@H]2CC[C@@H](C2)C1(C)C
REMARK SMILES IDX 9 1 8 2 6 3 5 4 4 5 3 6 7 7 2 8 1 9 10 10
REMARK H PARENT
REMARK Flexibility Score: inf
ROOT
ATOM      1  C   UNL     1     135.307 135.165 136.766  1.00  0.00     0.016 C 
ATOM      2  C   UNL     1     133.916 134.509 136.923  1.00  0.00    -0.012 C 
ATOM      3  C   UNL     1     132.719 135.514 136.792  1.00  0.00    -0.001 C 
ATOM      4  C   UNL     1     132.873 136.409 135.538  1.00  0.00     0.005 C 
ATOM      5  C   UNL     1     132.681 135.409 134.378  1.00  0.00     0.008 C 
ATOM      6  C   UNL     1     132.333 134.099 135.106  1.00  0.00     0.015 C 
ATOM      7  C   UNL     1     131.583 134.616 136.313  1.00  0.00     0.012 C 
ATOM      8  C   UNL     1     133.592 133.598 135.762  1.00  0.00    -0.068 C 
ATOM      9  C   UNL     1     134.318 132.556 135.341  1.00  0.00     0.008 C 
ATOM     10  C   UNL     1     133.867 133.749 138.267  1.00  0.00     0.016 C 
ENDROOT
TORSDOF 0
ENDMDL
MODEL 7
REMARK VINA RESULT:    -3.763      4.569      5.730
REMARK INTER + INTRA:          -3.763
REMARK INTER:                  -3.763
REMARK INTRA:                   0.000
REMARK UNBOUND:                 0.000
REMARK SMILES C=C1[C@@H]2CC[C@@H](C2)C1(C)C
REMARK SMILES IDX 9 1 8 2 6 3 5 4 4 5 3 6 7 7 2 8 1 9 10 10
REMARK H PARENT
REMARK Flexibility Score: inf
ROOT
ATOM      1  C   UNL     1     136.517 134.218 134.095  1.00  0.00     0.016 C 
ATOM      2  C   UNL     1     136.584 132.925 134.940  1.00  0.00    -0.012 C 
ATOM      3  C   UNL     1     138.022 132.306 135.045  1.00  0.00    -0.001 C 
ATOM      4  C   UNL     1     139.067 133.382 135.426  1.00  0.00     0.005 C 
ATOM      5  C   UNL     1     138.680 133.736 136.879  1.00  0.00     0.008 C 
ATOM      6  C   UNL     1     137.541 132.748 137.182  1.00  0.00     0.015 C 
ATOM      7  C   UNL     1     137.960 131.546 136.365  1.00  0.00     0.012 C 
ATOM      8  C   UNL     1     136.333 133.197 136.404  1.00  0.00    -0.068 C 
ATOM      9  C   UNL     1     135.254 133.787 136.930  1.00  0.00     0.008 C 
ATOM     10  C   UNL     1     135.573 131.902 134.375  1.00  0.00     0.016 C 
ENDROOT
TORSDOF 0
ENDMDL
MODEL 8
REMARK VINA RESULT:    -3.750      4.379      5.779
REMARK INTER + INTRA:          -3.750
REMARK INTER:                  -3.750
REMARK INTRA:                   0.000
REMARK UNBOUND:                 0.000
REMARK SMILES C=C1[C@@H]2CC[C@@H](C2)C1(C)C
REMARK SMILES IDX 9 1 8 2 6 3 5 4 4 5 3 6 7 7 2 8 1 9 10 10
REMARK H PARENT
REMARK Flexibility Score: inf
ROOT
ATOM      1  C   UNL     1     135.186 137.179 136.477  1.00  0.00     0.016 C 
ATOM      2  C   UNL     1     134.545 138.548 136.803  1.00  0.00    -0.012 C 
ATOM      3  C   UNL     1     135.553 139.750 136.751  1.00  0.00    -0.001 C 
ATOM      4  C   UNL     1     136.391 139.722 135.450  1.00  0.00     0.005 C 
ATOM      5  C   UNL     1     135.343 140.034 134.360  1.00  0.00     0.008 C 
ATOM      6  C   UNL     1     134.068 140.309 135.175  1.00  0.00     0.015 C 
ATOM      7  C   UNL     1     134.642 140.930 136.429  1.00  0.00     0.012 C 
ATOM      8  C   UNL     1     133.588 138.991 135.722  1.00  0.00    -0.068 C 
ATOM      9  C   UNL     1     132.524 138.314 135.275  1.00  0.00     0.008 C 
ATOM     10  C   UNL     1     133.845 138.462 138.177  1.00  0.00     0.016 C 
ENDROOT
TORSDOF 0
ENDMDL
MODEL 9
REMARK VINA RESULT:    -3.647      0.881      2.572
REMARK INTER + INTRA:          -3.647
REMARK INTER:                  -3.647
REMARK INTRA:                   0.000
REMARK UNBOUND:                 0.000
REMARK SMILES C=C1[C@@H]2CC[C@@H](C2)C1(C)C
REMARK SMILES IDX 9 1 8 2 6 3 5 4 4 5 3 6 7 7 2 8 1 9 10 10
REMARK H PARENT
REMARK Flexibility Score: inf
ROOT
ATOM      1  C   UNL     1     137.732 136.413 135.612  1.00  0.00     0.016 C 
ATOM      2  C   UNL     1     138.052 137.922 135.506  1.00  0.00    -0.012 C 
ATOM      3  C   UNL     1     138.640 138.542 136.822  1.00  0.00    -0.001 C 
ATOM      4  C   UNL     1     139.792 137.675 137.383  1.00  0.00     0.005 C 
ATOM      5  C   UNL     1     140.904 137.857 136.327  1.00  0.00     0.008 C 
ATOM      6  C   UNL     1     140.294 138.884 135.359  1.00  0.00     0.015 C 
ATOM      7  C   UNL     1     139.453 139.720 136.297  1.00  0.00     0.012 C 
ATOM      8  C   UNL     1     139.214 138.185 134.578  1.00  0.00    -0.068 C 
ATOM      9  C   UNL     1     139.308 137.816 133.295  1.00  0.00     0.008 C 
ATOM     10  C   UNL     1     136.783 138.675 135.049  1.00  0.00     0.016 C 
ENDROOT
TORSDOF 0
ENDMDL
