MODEL 1
REMARK VINA RESULT:    -4.111      0.000      0.000
REMARK INTER + INTRA:          -6.665
REMARK INTER:                  -6.034
REMARK INTRA:                  -0.631
REMARK UNBOUND:                -0.631
REMARK SMILES C=C1C=C[C@H](C(C)C)CCC(C)=CCC1
REMARK SMILES IDX 3 1 4 2 5 3 9 4 10 5 11 6 12 7 13 8 6 10 7 11 8 12 2 13 1 14
REMARK SMILES IDX 15 15 14 16
REMARK H PARENT
REMARK Flexibility Score: 70.00
ROOT
ATOM      1  C   UNL     1     143.459 144.309 162.841  1.00  0.00    -0.001 C 
ATOM      2  C   UNL     1     142.811 145.456 162.592  1.00  0.00    -0.023 C 
ENDROOT
BRANCH   2   3
ATOM      3  C   UNL     1     142.494 146.533 163.612  1.00  0.00     0.014 C 
BRANCH   3   4
ATOM      4  C   UNL     1     143.401 147.764 163.385  1.00  0.00     0.012 C 
BRANCH   4   5
ATOM      5  C   UNL     1     144.221 148.161 164.627  1.00  0.00     0.031 C 
BRANCH   5   6
ATOM      6  C   UNL     1     145.698 147.840 164.478  1.00  0.00    -0.077 C 
ATOM      7  C   UNL     1     146.599 148.904 163.905  1.00  0.00     0.039 C 
ATOM      8  C   UNL     1     146.264 146.665 164.847  1.00  0.00    -0.028 CG0
ATOM      9  G   UNL     1     145.571 145.502 165.519  1.00  0.00     0.000 G0
ENDBRANCH   5   6
ENDBRANCH   4   5
ENDBRANCH   3   4
BRANCH   3  10
ATOM     10  C   UNL     1     140.983 146.914 163.603  1.00  0.00    -0.010 C 
ATOM     11  C   UNL     1     140.566 147.566 164.930  1.00  0.00     0.008 C 
ATOM     12  C   UNL     1     140.046 145.736 163.279  1.00  0.00     0.008 C 
ENDBRANCH   3  10
ENDBRANCH   2   3
BRANCH   1  13
ATOM     13  C   UNL     1     144.059 143.915 164.138  1.00  0.00    -0.055 C 
ATOM     14  C   UNL     1     143.315 143.175 164.965  1.00  0.00     0.012 C 
BRANCH  13  15
ATOM     15  C   UNL     1     145.474 144.280 164.560  1.00  0.00     0.039 C 
BRANCH  15  16
ATOM     16  C   UNL     1     145.585 145.491 165.517  1.00  0.00     0.032 CG0
ATOM     17  G   UNL     1     146.252 146.664 164.836  1.00  0.00     0.000 G0
ENDBRANCH  15  16
ENDBRANCH  13  15
ENDBRANCH   1  13
TORSDOF 1
ENDMDL
MODEL 2
REMARK VINA RESULT:    -4.090      1.526      4.200
REMARK INTER + INTRA:          -6.633
REMARK INTER:                  -6.109
REMARK INTRA:                  -0.525
REMARK UNBOUND:                -0.631
REMARK SMILES C=C1C=C[C@H](C(C)C)CCC(C)=CCC1
REMARK SMILES IDX 3 1 4 2 5 3 9 4 10 5 11 6 12 7 13 8 6 10 7 11 8 12 2 13 1 14
REMARK SMILES IDX 15 15 14 16
REMARK H PARENT
REMARK Flexibility Score: 70.00
ROOT
ATOM      1  C   UNL     1     143.632 147.941 162.953  1.00  0.00    -0.001 C 
ATOM      2  C   UNL     1     144.699 148.723 163.175  1.00  0.00    -0.023 C 
ENDROOT
BRANCH   2   3
ATOM      3  C   UNL     1     145.598 148.668 164.394  1.00  0.00     0.014 C 
BRANCH   3   4
ATOM      4  C   UNL     1     146.731 147.639 164.174  1.00  0.00     0.012 C 
BRANCH   4   5
ATOM      5  C   UNL     1     146.842 146.597 165.303  1.00  0.00     0.031 C 
BRANCH   5   6
ATOM      6  C   UNL     1     146.885 145.172 164.779  1.00  0.00    -0.077 C 
ATOM      7  C   UNL     1     148.235 144.563 164.493  1.00  0.00     0.039 C 
ATOM      8  C   UNL     1     145.790 144.402 164.572  1.00  0.00    -0.028 CG0
ATOM      9  G   UNL     1     144.356 144.775 164.874  1.00  0.00     0.000 G0
ENDBRANCH   5   6
ENDBRANCH   4   5
ENDBRANCH   3   4
BRANCH   3  10
ATOM     10  C   UNL     1     146.156 150.074 164.768  1.00  0.00    -0.010 C 
ATOM     11  C   UNL     1     145.664 151.147 163.785  1.00  0.00     0.008 C 
ATOM     12  C   UNL     1     147.690 150.126 164.878  1.00  0.00     0.008 C 
ENDBRANCH   3  10
ENDBRANCH   2   3
BRANCH   1  13
ATOM     13  C   UNL     1     143.181 146.823 163.817  1.00  0.00    -0.055 C 
ATOM     14  C   UNL     1     142.295 147.101 164.777  1.00  0.00     0.012 C 
BRANCH  13  15
ATOM     15  C   UNL     1     143.647 145.385 163.649  1.00  0.00     0.039 C 
BRANCH  15  16
ATOM     16  C   UNL     1     144.353 144.773 164.882  1.00  0.00     0.032 CG0
ATOM     17  G   UNL     1     145.786 144.409 164.564  1.00  0.00     0.000 G0
ENDBRANCH  15  16
ENDBRANCH  13  15
ENDBRANCH   1  13
TORSDOF 1
ENDMDL
MODEL 3
REMARK VINA RESULT:    -4.056      2.186      4.588
REMARK INTER + INTRA:          -6.585
REMARK INTER:                  -5.959
REMARK INTRA:                  -0.625
REMARK UNBOUND:                -0.631
REMARK SMILES C=C1C=C[C@H](C(C)C)CCC(C)=CCC1
REMARK SMILES IDX 3 1 4 2 5 3 9 4 10 5 11 6 12 7 13 8 6 10 7 11 8 12 2 13 1 14
REMARK SMILES IDX 15 15 14 16
REMARK H PARENT
REMARK Flexibility Score: 70.00
ROOT
ATOM      1  C   UNL     1     143.137 143.684 164.861  1.00  0.00    -0.001 C 
ATOM      2  C   UNL     1     144.048 142.724 165.079  1.00  0.00    -0.023 C 
ENDROOT
BRANCH   2   3
ATOM      3  C   UNL     1     145.130 142.295 164.108  1.00  0.00     0.014 C 
BRANCH   3   4
ATOM      4  C   UNL     1     146.489 142.906 164.522  1.00  0.00     0.012 C 
BRANCH   4   5
ATOM      5  C   UNL     1     147.156 143.734 163.408  1.00  0.00     0.031 C 
BRANCH   5   6
ATOM      6  C   UNL     1     147.248 145.210 163.754  1.00  0.00    -0.077 C 
ATOM      7  C   UNL     1     148.482 145.693 164.474  1.00  0.00     0.039 C 
ATOM      8  C   UNL     1     146.302 146.128 163.438  1.00  0.00    -0.028 CG0
ATOM      9  G   UNL     1     145.038 145.883 162.646  1.00  0.00     0.000 G0
ENDBRANCH   5   6
ENDBRANCH   4   5
ENDBRANCH   3   4
BRANCH   3  10
ATOM     10  C   UNL     1     145.208 140.745 163.973  1.00  0.00    -0.010 C 
ATOM     11  C   UNL     1     144.922 140.298 162.531  1.00  0.00     0.008 C 
ATOM     12  C   UNL     1     144.290 139.989 164.950  1.00  0.00     0.008 C 
ENDBRANCH   3  10
ENDBRANCH   2   3
BRANCH   1  13
ATOM     13  C   UNL     1     143.068 144.560 163.666  1.00  0.00    -0.055 C 
ATOM     14  C   UNL     1     142.304 144.158 162.647  1.00  0.00     0.012 C 
BRANCH  13  15
ATOM     15  C   UNL     1     143.790 145.893 163.555  1.00  0.00     0.039 C 
BRANCH  15  16
ATOM     16  C   UNL     1     145.040 145.892 162.642  1.00  0.00     0.032 CG0
ATOM     17  G   UNL     1     146.298 146.136 163.442  1.00  0.00     0.000 G0
ENDBRANCH  15  16
ENDBRANCH  13  15
ENDBRANCH   1  13
TORSDOF 1
ENDMDL
MODEL 4
REMARK VINA RESULT:    -4.052      1.739      4.562
REMARK INTER + INTRA:          -6.578
REMARK INTER:                  -6.069
REMARK INTRA:                  -0.508
REMARK UNBOUND:                -0.631
REMARK SMILES C=C1C=C[C@H](C(C)C)CCC(C)=CCC1
REMARK SMILES IDX 3 1 4 2 5 3 9 4 10 5 11 6 12 7 13 8 6 10 7 11 8 12 2 13 1 14
REMARK SMILES IDX 15 15 14 16
REMARK H PARENT
REMARK Flexibility Score: 70.00
ROOT
ATOM      1  C   UNL     1     147.646 147.293 164.872  1.00  0.00    -0.001 C 
ATOM      2  C   UNL     1     146.769 148.306 164.922  1.00  0.00    -0.023 C 
ENDROOT
BRANCH   2   3
ATOM      3  C   UNL     1     145.593 148.505 163.985  1.00  0.00     0.014 C 
BRANCH   3   4
ATOM      4  C   UNL     1     144.307 147.922 164.614  1.00  0.00     0.012 C 
BRANCH   4   5
ATOM      5  C   UNL     1     143.386 147.225 163.595  1.00  0.00     0.031 C 
BRANCH   5   6
ATOM      6  C   UNL     1     143.176 145.754 163.908  1.00  0.00    -0.077 C 
ATOM      7  C   UNL     1     141.845 145.335 164.478  1.00  0.00     0.039 C 
ATOM      8  C   UNL     1     144.101 144.788 163.689  1.00  0.00    -0.028 CG0
ATOM      9  G   UNL     1     145.458 144.968 163.048  1.00  0.00     0.000 G0
ENDBRANCH   5   6
ENDBRANCH   4   5
ENDBRANCH   3   4
BRANCH   3  10
ATOM     10  C   UNL     1     145.418 150.001 163.585  1.00  0.00    -0.010 C 
ATOM     11  C   UNL     1     145.888 150.250 162.144  1.00  0.00     0.008 C 
ATOM     12  C   UNL     1     146.111 150.987 164.542  1.00  0.00     0.008 C 
ENDBRANCH   3  10
ENDBRANCH   2   3
BRANCH   1  13
ATOM     13  C   UNL     1     147.584 146.136 163.947  1.00  0.00    -0.055 C 
ATOM     14  C   UNL     1     148.466 146.096 162.945  1.00  0.00     0.012 C 
BRANCH  13  15
ATOM     15  C   UNL     1     146.598 144.988 164.096  1.00  0.00     0.039 C 
BRANCH  15  16
ATOM     16  C   UNL     1     145.468 144.949 163.038  1.00  0.00     0.032 CG0
ATOM     17  G   UNL     1     144.116 144.782 163.693  1.00  0.00     0.000 G0
ENDBRANCH  15  16
ENDBRANCH  13  15
ENDBRANCH   1  13
TORSDOF 1
ENDMDL
MODEL 5
REMARK VINA RESULT:    -4.029      1.357      3.570
REMARK INTER + INTRA:          -6.545
REMARK INTER:                  -5.957
REMARK INTRA:                  -0.588
REMARK UNBOUND:                -0.631
REMARK SMILES C=C1C=C[C@H](C(C)C)CCC(C)=CCC1
REMARK SMILES IDX 3 1 4 2 5 3 9 4 10 5 11 6 12 7 13 8 6 10 7 11 8 12 2 13 1 14
REMARK SMILES IDX 15 15 14 16
REMARK H PARENT
REMARK Flexibility Score: 70.00
ROOT
ATOM      1  C   UNL     1     143.360 147.487 165.085  1.00  0.00    -0.001 C 
ATOM      2  C   UNL     1     142.363 146.617 164.869  1.00  0.00    -0.023 C 
ENDROOT
BRANCH   2   3
ATOM      3  C   UNL     1     142.325 145.571 163.771  1.00  0.00     0.014 C 
BRANCH   3   4
ATOM      4  C   UNL     1     142.920 144.239 164.284  1.00  0.00     0.012 C 
BRANCH   4   5
ATOM      5  C   UNL     1     143.959 143.623 163.329  1.00  0.00     0.031 C 
BRANCH   5   6
ATOM      6  C   UNL     1     145.286 143.342 164.013  1.00  0.00    -0.077 C 
ATOM      7  C   UNL     1     145.525 141.955 164.553  1.00  0.00     0.039 C 
ATOM      8  C   UNL     1     146.280 144.253 164.151  1.00  0.00    -0.028 CG0
ATOM      9  G   UNL     1     146.291 145.665 163.611  1.00  0.00     0.000 G0
ENDBRANCH   5   6
ENDBRANCH   4   5
ENDBRANCH   3   4
BRANCH   3  10
ATOM     10  C   UNL     1     140.888 145.383 163.199  1.00  0.00    -0.010 C 
ATOM     11  C   UNL     1     140.731 146.093 161.846  1.00  0.00     0.008 C 
ATOM     12  C   UNL     1     139.772 145.831 164.161  1.00  0.00     0.008 C 
ENDBRANCH   3  10
ENDBRANCH   2   3
BRANCH   1  13
ATOM     13  C   UNL     1     144.644 147.538 164.345  1.00  0.00    -0.055 C 
ATOM     14  C   UNL     1     144.742 148.405 163.333  1.00  0.00     0.012 C 
BRANCH  13  15
ATOM     15  C   UNL     1     145.854 146.685 164.694  1.00  0.00     0.039 C 
BRANCH  15  16
ATOM     16  C   UNL     1     146.289 145.679 163.601  1.00  0.00     0.032 CG0
ATOM     17  G   UNL     1     146.287 144.264 164.133  1.00  0.00     0.000 G0
ENDBRANCH  15  16
ENDBRANCH  13  15
ENDBRANCH   1  13
TORSDOF 1
ENDMDL
MODEL 6
REMARK VINA RESULT:    -4.004      4.212      6.045
REMARK INTER + INTRA:          -6.507
REMARK INTER:                  -5.940
REMARK INTRA:                  -0.568
REMARK UNBOUND:                -0.631
REMARK SMILES C=C1C=C[C@H](C(C)C)CCC(C)=CCC1
REMARK SMILES IDX 3 1 4 2 5 3 9 4 10 5 11 6 12 7 13 8 6 10 7 11 8 12 2 13 1 14
REMARK SMILES IDX 15 15 14 16
REMARK H PARENT
REMARK Flexibility Score: 70.00
ROOT
ATOM      1  C   UNL     1     147.961 149.530 160.326  1.00  0.00    -0.001 C 
ATOM      2  C   UNL     1     147.624 149.569 161.624  1.00  0.00    -0.023 C 
ENDROOT
BRANCH   2   3
ATOM      3  C   UNL     1     146.859 148.494 162.371  1.00  0.00     0.014 C 
BRANCH   3   4
ATOM      4  C   UNL     1     147.816 147.700 163.289  1.00  0.00     0.012 C 
BRANCH   4   5
ATOM      5  C   UNL     1     147.831 146.187 162.999  1.00  0.00     0.031 C 
BRANCH   5   6
ATOM      6  C   UNL     1     149.135 145.726 162.372  1.00  0.00    -0.077 C 
ATOM      7  C   UNL     1     150.250 145.298 163.292  1.00  0.00     0.039 C 
ATOM      8  C   UNL     1     149.355 145.652 161.037  1.00  0.00    -0.028 CG0
ATOM      9  G   UNL     1     148.355 145.943 159.942  1.00  0.00     0.000 G0
ENDBRANCH   5   6
ENDBRANCH   4   5
ENDBRANCH   3   4
BRANCH   3  10
ATOM     10  C   UNL     1     145.653 149.085 163.162  1.00  0.00    -0.010 C 
ATOM     11  C   UNL     1     145.658 150.620 163.119  1.00  0.00     0.008 C 
ATOM     12  C   UNL     1     145.567 148.600 164.620  1.00  0.00     0.008 C 
ENDBRANCH   3  10
ENDBRANCH   2   3
BRANCH   1  13
ATOM     13  C   UNL     1     147.721 148.397 159.401  1.00  0.00    -0.055 C 
ATOM     14  C   UNL     1     146.588 148.404 158.694  1.00  0.00     0.012 C 
BRANCH  13  15
ATOM     15  C   UNL     1     148.702 147.253 159.194  1.00  0.00     0.039 C 
BRANCH  15  16
ATOM     16  C   UNL     1     148.356 145.944 159.943  1.00  0.00     0.032 CG0
ATOM     17  G   UNL     1     149.365 145.656 161.031  1.00  0.00     0.000 G0
ENDBRANCH  15  16
ENDBRANCH  13  15
ENDBRANCH   1  13
TORSDOF 1
ENDMDL
MODEL 7
REMARK VINA RESULT:    -3.967      2.601      5.255
REMARK INTER + INTRA:          -6.453
REMARK INTER:                  -5.948
REMARK INTRA:                  -0.505
REMARK UNBOUND:                -0.631
REMARK SMILES C=C1C=C[C@H](C(C)C)CCC(C)=CCC1
REMARK SMILES IDX 3 1 4 2 5 3 9 4 10 5 11 6 12 7 13 8 6 10 7 11 8 12 2 13 1 14
REMARK SMILES IDX 15 15 14 16
REMARK H PARENT
REMARK Flexibility Score: 70.00
ROOT
ATOM      1  C   UNL     1     146.801 143.216 164.818  1.00  0.00    -0.001 C 
ATOM      2  C   UNL     1     147.797 144.080 165.063  1.00  0.00    -0.023 C 
ENDROOT
BRANCH   2   3
ATOM      3  C   UNL     1     148.397 145.045 164.059  1.00  0.00     0.014 C 
BRANCH   3   4
ATOM      4  C   UNL     1     147.912 146.484 164.349  1.00  0.00     0.012 C 
BRANCH   4   5
ATOM      5  C   UNL     1     146.659 146.542 165.242  1.00  0.00     0.031 C 
BRANCH   5   6
ATOM      6  C   UNL     1     145.435 147.050 164.499  1.00  0.00    -0.077 C 
ATOM      7  C   UNL     1     145.396 148.507 164.113  1.00  0.00     0.039 C 
ATOM      8  C   UNL     1     144.383 146.274 164.141  1.00  0.00    -0.028 CG0
ATOM      9  G   UNL     1     144.253 144.783 164.346  1.00  0.00     0.000 G0
ENDBRANCH   5   6
ENDBRANCH   4   5
ENDBRANCH   3   4
BRANCH   3  10
ATOM     10  C   UNL     1     149.952 144.952 164.023  1.00  0.00    -0.010 C 
ATOM     11  C   UNL     1     150.483 145.078 162.587  1.00  0.00     0.008 C 
ATOM     12  C   UNL     1     150.515 143.681 164.683  1.00  0.00     0.008 C 
ENDBRANCH   3  10
ENDBRANCH   2   3
BRANCH   1  13
ATOM     13  C   UNL     1     146.047 143.097 163.548  1.00  0.00    -0.055 C 
ATOM     14  C   UNL     1     146.382 142.105 162.718  1.00  0.00     0.012 C 
BRANCH  13  15
ATOM     15  C   UNL     1     144.903 144.019 163.156  1.00  0.00     0.039 C 
BRANCH  15  16
ATOM     16  C   UNL     1     144.242 144.783 164.329  1.00  0.00     0.032 CG0
ATOM     17  G   UNL     1     144.382 146.278 164.153  1.00  0.00     0.000 G0
ENDBRANCH  15  16
ENDBRANCH  13  15
ENDBRANCH   1  13
TORSDOF 1
ENDMDL
MODEL 8
REMARK VINA RESULT:    -3.940      4.164      6.204
REMARK INTER + INTRA:          -6.415
REMARK INTER:                  -5.766
REMARK INTRA:                  -0.648
REMARK UNBOUND:                -0.631
REMARK SMILES C=C1C=C[C@H](C(C)C)CCC(C)=CCC1
REMARK SMILES IDX 3 1 4 2 5 3 9 4 10 5 11 6 12 7 13 8 6 10 7 11 8 12 2 13 1 14
REMARK SMILES IDX 15 15 14 16
REMARK H PARENT
REMARK Flexibility Score: 70.00
ROOT
ATOM      1  C   UNL     1     150.448 145.028 163.214  1.00  0.00    -0.001 C 
ATOM      2  C   UNL     1     150.199 145.360 161.938  1.00  0.00    -0.023 C 
ENDROOT
BRANCH   2   3
ATOM      3  C   UNL     1     149.036 144.858 161.105  1.00  0.00     0.014 C 
BRANCH   3   4
ATOM      4  C   UNL     1     148.238 146.052 160.531  1.00  0.00     0.012 C 
BRANCH   4   5
ATOM      5  C   UNL     1     147.927 147.141 161.574  1.00  0.00     0.031 C 
BRANCH   5   6
ATOM      6  C   UNL     1     146.692 146.824 162.399  1.00  0.00    -0.077 C 
ATOM      7  C   UNL     1     145.345 146.949 161.734  1.00  0.00     0.039 C 
ATOM      8  C   UNL     1     146.722 146.413 163.691  1.00  0.00    -0.028 CG0
ATOM      9  G   UNL     1     147.956 146.136 164.519  1.00  0.00     0.000 G0
ENDBRANCH   5   6
ENDBRANCH   4   5
ENDBRANCH   3   4
BRANCH   3  10
ATOM     10  C   UNL     1     149.504 143.881 159.985  1.00  0.00    -0.010 C 
ATOM     11  C   UNL     1     148.580 143.954 158.761  1.00  0.00     0.008 C 
ATOM     12  C   UNL     1     149.644 142.421 160.452  1.00  0.00     0.008 C 
ENDBRANCH   3  10
ENDBRANCH   2   3
BRANCH   1  13
ATOM     13  C   UNL     1     149.591 144.174 164.071  1.00  0.00    -0.055 C 
ATOM     14  C   UNL     1     150.051 142.962 164.394  1.00  0.00     0.012 C 
BRANCH  13  15
ATOM     15  C   UNL     1     148.244 144.613 164.622  1.00  0.00     0.039 C 
BRANCH  15  16
ATOM     16  C   UNL     1     147.955 146.131 164.525  1.00  0.00     0.032 CG0
ATOM     17  G   UNL     1     146.718 146.398 163.699  1.00  0.00     0.000 G0
ENDBRANCH  15  16
ENDBRANCH  13  15
ENDBRANCH   1  13
TORSDOF 1
ENDMDL
MODEL 9
REMARK VINA RESULT:    -3.888      2.224      4.627
REMARK INTER + INTRA:          -6.337
REMARK INTER:                  -5.863
REMARK INTRA:                  -0.474
REMARK UNBOUND:                -0.631
REMARK SMILES C=C1C=C[C@H](C(C)C)CCC(C)=CCC1
REMARK SMILES IDX 3 1 4 2 5 3 9 4 10 5 11 6 12 7 13 8 6 10 7 11 8 12 2 13 1 14
REMARK SMILES IDX 15 15 14 16
REMARK H PARENT
REMARK Flexibility Score: 70.00
ROOT
ATOM      1  C   UNL     1     143.511 144.569 165.050  1.00  0.00    -0.001 C 
ATOM      2  C   UNL     1     143.738 143.248 165.002  1.00  0.00    -0.023 C 
ENDROOT
BRANCH   2   3
ATOM      3  C   UNL     1     144.621 142.539 163.994  1.00  0.00     0.014 C 
BRANCH   3   4
ATOM      4  C   UNL     1     146.072 142.456 164.522  1.00  0.00     0.012 C 
BRANCH   4   5
ATOM      5  C   UNL     1     147.120 142.986 163.527  1.00  0.00     0.031 C 
BRANCH   5   6
ATOM      6  C   UNL     1     148.033 144.032 164.143  1.00  0.00    -0.077 C 
ATOM      7  C   UNL     1     149.322 143.566 164.770  1.00  0.00     0.039 C 
ATOM      8  C   UNL     1     147.775 145.363 164.147  1.00  0.00    -0.028 CG0
ATOM      9  G   UNL     1     146.596 146.054 163.501  1.00  0.00     0.000 G0
ENDBRANCH   5   6
ENDBRANCH   4   5
ENDBRANCH   3   4
BRANCH   3  10
ATOM     10  C   UNL     1     144.059 141.135 163.616  1.00  0.00    -0.010 C 
ATOM     11  C   UNL     1     143.702 140.323 164.870  1.00  0.00     0.008 C 
ATOM     12  C   UNL     1     144.991 140.316 162.706  1.00  0.00     0.008 C 
ENDBRANCH   3  10
ENDBRANCH   2   3
BRANCH   1  13
ATOM     13  C   UNL     1     144.142 145.590 164.180  1.00  0.00    -0.055 C 
ATOM     14  C   UNL     1     143.506 145.924 163.054  1.00  0.00     0.012 C 
BRANCH  13  15
ATOM     15  C   UNL     1     145.448 146.294 164.516  1.00  0.00     0.039 C 
BRANCH  15  16
ATOM     16  C   UNL     1     146.596 146.072 163.502  1.00  0.00     0.032 CG0
ATOM     17  G   UNL     1     147.766 145.368 164.150  1.00  0.00     0.000 G0
ENDBRANCH  15  16
ENDBRANCH  13  15
ENDBRANCH   1  13
TORSDOF 1
ENDMDL
