MODEL 1
REMARK VINA RESULT:     2.450      0.000      0.000
REMARK INTER + INTRA:           2.553
REMARK INTER:                   2.879
REMARK INTRA:                  -0.326
REMARK UNBOUND:                -0.326
REMARK SMILES CCCC[C@H]1OC(=O)C2=C1CCC=C2
REMARK SMILES IDX 3 1 2 2 1 3 4 4 5 5 10 6 6 7 9 8 11 9 7 10 14 11 12 12 8 13
REMARK SMILES IDX 13 14
REMARK H PARENT
REMARK Flexibility Score: inf
ROOT
ATOM      1  C   UNL     1      18.422  99.477   8.087  1.00  0.00     0.004 C 
ENDROOT
BRANCH   1   2
ATOM      2  C   UNL     1      18.822 100.206   9.378  1.00  0.00    -0.003 C 
ATOM      3  C   UNL     1      19.992  99.536  10.098  1.00  0.00     0.004 C 
ENDBRANCH   1   2
BRANCH   1   4
ATOM      4  C   UNL     1      17.013  98.869   8.166  1.00  0.00     0.050 C 
BRANCH   4   5
ATOM      5  C   UNL     1      16.877  97.937   9.378  1.00  0.00     0.204 C 
ATOM      6  C   UNL     1      17.067  96.489   8.989  1.00  0.00    -0.015 C 
ATOM      7  O   UNL     1      15.537  97.959   9.881  1.00  0.00    -0.454 OA
ATOM      8  C   UNL     1      15.965  95.793   9.213  1.00  0.00     0.062 C 
ATOM      9  C   UNL     1      18.248  95.882   8.282  1.00  0.00     0.040 C 
ATOM     10  C   UNL     1      14.991  96.691   9.776  1.00  0.00     0.338 C 
ATOM     11  C   UNL     1      15.839  94.372   8.873  1.00  0.00     0.011 C 
ATOM     12  C   UNL     1      18.298  94.352   8.503  1.00  0.00     0.032 C 
ATOM     13  O   UNL     1      13.819  96.391  10.123  1.00  0.00    -0.246 OA
ATOM     14  C   UNL     1      16.926  93.705   8.464  1.00  0.00    -0.026 C 
ENDBRANCH   4   5
ENDBRANCH   1   4
TORSDOF 3
ENDMDL
MODEL 2
REMARK VINA RESULT:     2.807      2.153      4.466
REMARK INTER + INTRA:           2.973
REMARK INTER:                   2.942
REMARK INTRA:                   0.031
REMARK UNBOUND:                -0.326
REMARK SMILES CCCC[C@H]1OC(=O)C2=C1CCC=C2
REMARK SMILES IDX 3 1 2 2 1 3 4 4 5 5 10 6 6 7 9 8 11 9 7 10 14 11 12 12 8 13
REMARK SMILES IDX 13 14
REMARK H PARENT
REMARK Flexibility Score: inf
ROOT
ATOM      1  C   UNL     1      18.711  93.834   7.482  1.00  0.00     0.004 C 
ENDROOT
BRANCH   1   2
ATOM      2  C   UNL     1      18.272  93.393   8.886  1.00  0.00    -0.003 C 
ATOM      3  C   UNL     1      19.439  92.910   9.747  1.00  0.00     0.004 C 
ENDBRANCH   1   2
BRANCH   1   4
ATOM      4  C   UNL     1      18.413  95.316   7.210  1.00  0.00     0.050 C 
BRANCH   4   5
ATOM      5  C   UNL     1      18.441  96.137   8.507  1.00  0.00     0.204 C 
ATOM      6  C   UNL     1      17.049  96.509   8.960  1.00  0.00    -0.015 C 
ATOM      7  O   UNL     1      19.056  97.410   8.283  1.00  0.00    -0.454 OA
ATOM      8  C   UNL     1      16.889  97.822   8.958  1.00  0.00     0.062 C 
ATOM      9  C   UNL     1      15.897  95.579   9.225  1.00  0.00     0.040 C 
ATOM     10  C   UNL     1      18.135  98.411   8.542  1.00  0.00     0.338 C 
ATOM     11  C   UNL     1      15.616  98.468   9.295  1.00  0.00     0.011 C 
ATOM     12  C   UNL     1      14.833  96.257  10.121  1.00  0.00     0.032 C 
ATOM     13  O   UNL     1      18.370  99.641   8.421  1.00  0.00    -0.246 OA
ATOM     14  C   UNL     1      14.616  97.718   9.774  1.00  0.00    -0.026 C 
ENDBRANCH   4   5
ENDBRANCH   1   4
TORSDOF 3
ENDMDL
MODEL 3
REMARK VINA RESULT:     2.813      1.201      4.130
REMARK INTER + INTRA:           2.980
REMARK INTER:                   2.293
REMARK INTRA:                   0.688
REMARK UNBOUND:                -0.326
REMARK SMILES CCCC[C@H]1OC(=O)C2=C1CCC=C2
REMARK SMILES IDX 3 1 2 2 1 3 4 4 5 5 10 6 6 7 9 8 11 9 7 10 14 11 12 12 8 13
REMARK SMILES IDX 13 14
REMARK H PARENT
REMARK Flexibility Score: inf
ROOT
ATOM      1  C   UNL     1      18.119  94.244   9.380  1.00  0.00     0.004 C 
ENDROOT
BRANCH   1   2
ATOM      2  C   UNL     1      19.120  93.252   8.770  1.00  0.00    -0.003 C 
ATOM      3  C   UNL     1      19.033  93.184   7.245  1.00  0.00     0.004 C 
ENDBRANCH   1   2
BRANCH   1   4
ATOM      4  C   UNL     1      16.708  94.094   8.792  1.00  0.00     0.050 C 
BRANCH   4   5
ATOM      5  C   UNL     1      16.226  95.407   8.160  1.00  0.00     0.204 C 
ATOM      6  C   UNL     1      17.279  96.487   8.252  1.00  0.00    -0.015 C 
ATOM      7  O   UNL     1      15.137  95.957   8.911  1.00  0.00    -0.454 OA
ATOM      8  C   UNL     1      16.850  97.500   8.987  1.00  0.00     0.062 C 
ATOM      9  C   UNL     1      18.696  96.423   7.753  1.00  0.00     0.040 C 
ATOM     10  C   UNL     1      15.509  97.194   9.410  1.00  0.00     0.338 C 
ATOM     11  C   UNL     1      17.686  98.665   9.299  1.00  0.00     0.011 C 
ATOM     12  C   UNL     1      19.286  97.843   7.582  1.00  0.00     0.032 C 
ATOM     13  O   UNL     1      14.772  97.922  10.125  1.00  0.00    -0.246 OA
ATOM     14  C   UNL     1      18.873  98.791   8.692  1.00  0.00    -0.026 C 
ENDBRANCH   4   5
ENDBRANCH   1   4
TORSDOF 3
ENDMDL
MODEL 4
REMARK VINA RESULT:     3.347      2.028      3.098
REMARK INTER + INTRA:           3.608
REMARK INTER:                   3.073
REMARK INTRA:                   0.536
REMARK UNBOUND:                -0.326
REMARK SMILES CCCC[C@H]1OC(=O)C2=C1CCC=C2
REMARK SMILES IDX 3 1 2 2 1 3 4 4 5 5 10 6 6 7 9 8 11 9 7 10 14 11 12 12 8 13
REMARK SMILES IDX 13 14
REMARK H PARENT
REMARK Flexibility Score: inf
ROOT
ATOM      1  C   UNL     1      19.026  98.107   9.470  1.00  0.00     0.004 C 
ENDROOT
BRANCH   1   2
ATOM      2  C   UNL     1      19.239  99.622   9.609  1.00  0.00    -0.003 C 
ATOM      3  C   UNL     1      18.386 100.432   8.633  1.00  0.00     0.004 C 
ENDBRANCH   1   2
BRANCH   1   4
ATOM      4  C   UNL     1      19.241  97.612   8.032  1.00  0.00     0.050 C 
BRANCH   4   5
ATOM      5  C   UNL     1      18.057  96.758   7.555  1.00  0.00     0.204 C 
ATOM      6  C   UNL     1      16.836  96.970   8.418  1.00  0.00    -0.015 C 
ATOM      7  O   UNL     1      18.337  95.365   7.732  1.00  0.00    -0.454 OA
ATOM      8  C   UNL     1      16.493  95.849   9.030  1.00  0.00     0.062 C 
ATOM      9  C   UNL     1      16.153  98.274   8.728  1.00  0.00     0.040 C 
ATOM     10  C   UNL     1      17.416  94.826   8.614  1.00  0.00     0.338 C 
ATOM     11  C   UNL     1      15.379  95.772   9.982  1.00  0.00     0.011 C 
ATOM     12  C   UNL     1      14.702  98.037   9.211  1.00  0.00     0.032 C 
ATOM     13  O   UNL     1      17.407  93.624   8.985  1.00  0.00    -0.246 OA
ATOM     14  C   UNL     1      14.575  96.833  10.125  1.00  0.00    -0.026 C 
ENDBRANCH   4   5
ENDBRANCH   1   4
TORSDOF 3
ENDMDL
