MODEL 1
REMARK VINA RESULT:    -5.241      0.000      0.000
REMARK INTER + INTRA:          -5.241
REMARK INTER:                  -5.241
REMARK INTRA:                   0.000
REMARK UNBOUND:                 0.000
REMARK SMILES C=C1CCC[C@]2(C)CC(=O)C(=C(C)C)C[C@H]12
REMARK SMILES IDX 13 1 12 2 11 3 15 4 16 5 2 6 1 7 3 8 4 9 5 10 6 11 8 12 9 13
REMARK SMILES IDX 10 14 7 15 14 16
REMARK H PARENT
REMARK Flexibility Score: inf
ROOT
ATOM      1  C   UNL     1      16.687  27.942  29.787  1.00  0.00     0.039 C 
ATOM      2  C   UNL     1      17.888  28.688  29.255  1.00  0.00    -0.070 C 
ATOM      3  C   UNL     1      18.420  29.749  29.929  1.00  0.00    -0.006 C 
ATOM      4  C   UNL     1      17.833  30.280  31.223  1.00  0.00     0.047 C 
ATOM      5  C   UNL     1      17.666  31.831  31.250  1.00  0.00     0.025 C 
ATOM      6  C   UNL     1      16.191  32.207  31.275  1.00  0.00    -0.073 C 
ATOM      7  C   UNL     1      15.542  32.341  32.443  1.00  0.00     0.008 C 
ATOM      8  C   UNL     1      15.434  32.278  29.974  1.00  0.00     0.031 C 
ATOM      9  C   UNL     1      16.180  33.167  28.983  1.00  0.00     0.005 C 
ATOM     10  C   UNL     1      17.622  32.684  28.789  1.00  0.00     0.008 C 
ATOM     11  C   UNL     1      18.439  32.612  30.123  1.00  0.00    -0.018 C 
ATOM     12  C   UNL     1      19.802  31.921  29.849  1.00  0.00     0.088 C 
ATOM     13  C   UNL     1      19.625  30.481  29.462  1.00  0.00     0.159 C 
ATOM     14  O   UNL     1      20.539  29.904  28.814  1.00  0.00    -0.295 OA
ATOM     15  C   UNL     1      18.736  34.053  30.610  1.00  0.00     0.012 C 
ATOM     16  C   UNL     1      18.445  28.241  27.923  1.00  0.00     0.039 C 
ENDROOT
TORSDOF 0
ENDMDL
MODEL 2
REMARK VINA RESULT:    -4.934      2.156      3.983
REMARK INTER + INTRA:          -4.934
REMARK INTER:                  -4.934
REMARK INTRA:                   0.000
REMARK UNBOUND:                 0.000
REMARK SMILES C=C1CCC[C@]2(C)CC(=O)C(=C(C)C)C[C@H]12
REMARK SMILES IDX 13 1 12 2 11 3 15 4 16 5 2 6 1 7 3 8 4 9 5 10 6 11 8 12 9 13
REMARK SMILES IDX 10 14 7 15 14 16
REMARK H PARENT
REMARK Flexibility Score: inf
ROOT
ATOM      1  C   UNL     1      16.190  29.309  30.035  1.00  0.00     0.039 C 
ATOM      2  C   UNL     1      16.129  30.816  29.952  1.00  0.00    -0.070 C 
ATOM      3  C   UNL     1      17.154  31.539  29.412  1.00  0.00    -0.006 C 
ATOM      4  C   UNL     1      18.430  30.900  28.898  1.00  0.00     0.047 C 
ATOM      5  C   UNL     1      19.731  31.605  29.393  1.00  0.00     0.025 C 
ATOM      6  C   UNL     1      20.510  30.691  30.328  1.00  0.00    -0.073 C 
ATOM      7  C   UNL     1      21.425  29.837  29.840  1.00  0.00     0.008 C 
ATOM      8  C   UNL     1      20.134  30.647  31.786  1.00  0.00     0.031 C 
ATOM      9  C   UNL     1      20.093  32.061  32.358  1.00  0.00     0.005 C 
ATOM     10  C   UNL     1      19.152  32.957  31.544  1.00  0.00     0.008 C 
ATOM     11  C   UNL     1      19.526  33.033  30.025  1.00  0.00    -0.018 C 
ATOM     12  C   UNL     1      18.404  33.786  29.261  1.00  0.00     0.088 C 
ATOM     13  C   UNL     1      17.114  33.017  29.273  1.00  0.00     0.159 C 
ATOM     14  O   UNL     1      16.031  33.635  29.088  1.00  0.00    -0.295 OA
ATOM     15  C   UNL     1      20.830  33.854  29.868  1.00  0.00     0.012 C 
ATOM     16  C   UNL     1      14.910  31.492  30.535  1.00  0.00     0.039 C 
ENDROOT
TORSDOF 0
ENDMDL
MODEL 3
REMARK VINA RESULT:    -4.909      2.829      4.799
REMARK INTER + INTRA:          -4.909
REMARK INTER:                  -4.909
REMARK INTRA:                   0.000
REMARK UNBOUND:                 0.000
REMARK SMILES C=C1CCC[C@]2(C)CC(=O)C(=C(C)C)C[C@H]12
REMARK SMILES IDX 13 1 12 2 11 3 15 4 16 5 2 6 1 7 3 8 4 9 5 10 6 11 8 12 9 13
REMARK SMILES IDX 10 14 7 15 14 16
REMARK H PARENT
REMARK Flexibility Score: inf
ROOT
ATOM      1  C   UNL     1      21.388  25.495  29.030  1.00  0.00     0.039 C 
ATOM      2  C   UNL     1      20.130  26.282  28.746  1.00  0.00    -0.070 C 
ATOM      3  C   UNL     1      20.171  27.625  28.504  1.00  0.00    -0.006 C 
ATOM      4  C   UNL     1      21.457  28.428  28.542  1.00  0.00     0.047 C 
ATOM      5  C   UNL     1      21.350  29.752  29.361  1.00  0.00     0.025 C 
ATOM      6  C   UNL     1      22.215  29.675  30.611  1.00  0.00    -0.073 C 
ATOM      7  C   UNL     1      23.500  30.064  30.575  1.00  0.00     0.008 C 
ATOM      8  C   UNL     1      21.656  29.018  31.846  1.00  0.00     0.031 C 
ATOM      9  C   UNL     1      20.298  29.622  32.191  1.00  0.00     0.005 C 
ATOM     10  C   UNL     1      19.337  29.529  31.000  1.00  0.00     0.008 C 
ATOM     11  C   UNL     1      19.885  30.216  29.703  1.00  0.00    -0.018 C 
ATOM     12  C   UNL     1      18.942  29.887  28.515  1.00  0.00     0.088 C 
ATOM     13  C   UNL     1      18.962  28.424  28.179  1.00  0.00     0.159 C 
ATOM     14  O   UNL     1      17.986  27.925  27.560  1.00  0.00    -0.295 OA
ATOM     15  C   UNL     1      19.869  31.752  29.902  1.00  0.00     0.012 C 
ATOM     16  C   UNL     1      18.820  25.529  28.788  1.00  0.00     0.039 C 
ENDROOT
TORSDOF 0
ENDMDL
MODEL 4
REMARK VINA RESULT:    -4.764      1.008      1.023
REMARK INTER + INTRA:          -4.764
REMARK INTER:                  -4.764
REMARK INTRA:                   0.000
REMARK UNBOUND:                 0.000
REMARK SMILES C=C1CCC[C@]2(C)CC(=O)C(=C(C)C)C[C@H]12
REMARK SMILES IDX 13 1 12 2 11 3 15 4 16 5 2 6 1 7 3 8 4 9 5 10 6 11 8 12 9 13
REMARK SMILES IDX 10 14 7 15 14 16
REMARK H PARENT
REMARK Flexibility Score: inf
ROOT
ATOM      1  C   UNL     1      16.998  27.952  29.038  1.00  0.00     0.039 C 
ATOM      2  C   UNL     1      18.289  28.689  29.305  1.00  0.00    -0.070 C 
ATOM      3  C   UNL     1      18.398  29.580  30.334  1.00  0.00    -0.006 C 
ATOM      4  C   UNL     1      17.239  29.925  31.249  1.00  0.00     0.047 C 
ATOM      5  C   UNL     1      17.047  31.458  31.474  1.00  0.00     0.025 C 
ATOM      6  C   UNL     1      15.744  31.929  30.845  1.00  0.00    -0.073 C 
ATOM      7  C   UNL     1      14.601  31.910  31.550  1.00  0.00     0.008 C 
ATOM      8  C   UNL     1      15.724  32.273  29.378  1.00  0.00     0.031 C 
ATOM      9  C   UNL     1      16.843  33.261  29.057  1.00  0.00     0.005 C 
ATOM     10  C   UNL     1      18.203  32.715  29.506  1.00  0.00     0.008 C 
ATOM     11  C   UNL     1      18.259  32.360  31.030  1.00  0.00    -0.018 C 
ATOM     12  C   UNL     1      19.594  31.629  31.335  1.00  0.00     0.088 C 
ATOM     13  C   UNL     1      19.661  30.292  30.655  1.00  0.00     0.159 C 
ATOM     14  O   UNL     1      20.788  29.769  30.443  1.00  0.00    -0.295 OA
ATOM     15  C   UNL     1      18.247  33.673  31.853  1.00  0.00     0.012 C 
ATOM     16  C   UNL     1      19.439  28.435  28.358  1.00  0.00     0.039 C 
ENDROOT
TORSDOF 0
ENDMDL
MODEL 5
REMARK VINA RESULT:    -4.722      2.310      4.402
REMARK INTER + INTRA:          -4.722
REMARK INTER:                  -4.722
REMARK INTRA:                   0.000
REMARK UNBOUND:                 0.000
REMARK SMILES C=C1CCC[C@]2(C)CC(=O)C(=C(C)C)C[C@H]12
REMARK SMILES IDX 13 1 12 2 11 3 15 4 16 5 2 6 1 7 3 8 4 9 5 10 6 11 8 12 9 13
REMARK SMILES IDX 10 14 7 15 14 16
REMARK H PARENT
REMARK Flexibility Score: inf
ROOT
ATOM      1  C   UNL     1      21.701  27.799  28.914  1.00  0.00     0.039 C 
ATOM      2  C   UNL     1      20.469  26.925  28.915  1.00  0.00    -0.070 C 
ATOM      3  C   UNL     1      19.247  27.419  28.560  1.00  0.00    -0.006 C 
ATOM      4  C   UNL     1      19.025  28.871  28.181  1.00  0.00     0.047 C 
ATOM      5  C   UNL     1      17.796  29.525  28.886  1.00  0.00     0.025 C 
ATOM      6  C   UNL     1      18.251  30.604  29.857  1.00  0.00    -0.073 C 
ATOM      7  C   UNL     1      18.407  31.873  29.444  1.00  0.00     0.008 C 
ATOM      8  C   UNL     1      18.671  30.203  31.248  1.00  0.00     0.031 C 
ATOM      9  C   UNL     1      17.586  29.346  31.895  1.00  0.00     0.005 C 
ATOM     10  C   UNL     1      17.249  28.133  31.019  1.00  0.00     0.008 C 
ATOM     11  C   UNL     1      16.797  28.519  29.570  1.00  0.00    -0.018 C 
ATOM     12  C   UNL     1      16.683  27.231  28.712  1.00  0.00     0.088 C 
ATOM     13  C   UNL     1      18.021  26.581  28.507  1.00  0.00     0.159 C 
ATOM     14  O   UNL     1      18.069  25.356  28.218  1.00  0.00    -0.295 OA
ATOM     15  C   UNL     1      15.389  29.162  29.637  1.00  0.00     0.012 C 
ATOM     16  C   UNL     1      20.638  25.494  29.372  1.00  0.00     0.039 C 
ENDROOT
TORSDOF 0
ENDMDL
MODEL 6
REMARK VINA RESULT:    -4.721      2.359      4.029
REMARK INTER + INTRA:          -4.721
REMARK INTER:                  -4.721
REMARK INTRA:                   0.000
REMARK UNBOUND:                 0.000
REMARK SMILES C=C1CCC[C@]2(C)CC(=O)C(=C(C)C)C[C@H]12
REMARK SMILES IDX 13 1 12 2 11 3 15 4 16 5 2 6 1 7 3 8 4 9 5 10 6 11 8 12 9 13
REMARK SMILES IDX 10 14 7 15 14 16
REMARK H PARENT
REMARK Flexibility Score: inf
ROOT
ATOM      1  C   UNL     1      16.495  28.114  31.964  1.00  0.00     0.039 C 
ATOM      2  C   UNL     1      15.699  29.386  31.789  1.00  0.00    -0.070 C 
ATOM      3  C   UNL     1      15.923  30.225  30.736  1.00  0.00    -0.006 C 
ATOM      4  C   UNL     1      16.998  29.971  29.697  1.00  0.00     0.047 C 
ATOM      5  C   UNL     1      17.879  31.220  29.384  1.00  0.00     0.025 C 
ATOM      6  C   UNL     1      19.307  30.997  29.860  1.00  0.00    -0.073 C 
ATOM      7  C   UNL     1      20.216  30.432  29.048  1.00  0.00     0.008 C 
ATOM      8  C   UNL     1      19.649  31.279  31.300  1.00  0.00     0.031 C 
ATOM      9  C   UNL     1      19.187  32.683  31.682  1.00  0.00     0.005 C 
ATOM     10  C   UNL     1      17.693  32.867  31.394  1.00  0.00     0.008 C 
ATOM     11  C   UNL     1      17.309  32.594  29.900  1.00  0.00    -0.018 C 
ATOM     12  C   UNL     1      15.763  32.603  29.761  1.00  0.00     0.088 C 
ATOM     13  C   UNL     1      15.133  31.461  30.506  1.00  0.00     0.159 C 
ATOM     14  O   UNL     1      13.924  31.548  30.852  1.00  0.00    -0.295 OA
ATOM     15  C   UNL     1      17.864  33.742  29.019  1.00  0.00     0.012 C 
ATOM     16  C   UNL     1      14.678  29.715  32.855  1.00  0.00     0.039 C 
ENDROOT
TORSDOF 0
ENDMDL
MODEL 7
REMARK VINA RESULT:    -4.715      2.798      4.048
REMARK INTER + INTRA:          -4.715
REMARK INTER:                  -4.715
REMARK INTRA:                   0.000
REMARK UNBOUND:                 0.000
REMARK SMILES C=C1CCC[C@]2(C)CC(=O)C(=C(C)C)C[C@H]12
REMARK SMILES IDX 13 1 12 2 11 3 15 4 16 5 2 6 1 7 3 8 4 9 5 10 6 11 8 12 9 13
REMARK SMILES IDX 10 14 7 15 14 16
REMARK H PARENT
REMARK Flexibility Score: inf
ROOT
ATOM      1  C   UNL     1      21.589  26.413  27.884  1.00  0.00     0.039 C 
ATOM      2  C   UNL     1      22.365  27.599  28.406  1.00  0.00    -0.070 C 
ATOM      3  C   UNL     1      22.037  28.199  29.587  1.00  0.00    -0.006 C 
ATOM      4  C   UNL     1      20.861  27.753  30.436  1.00  0.00     0.047 C 
ATOM      5  C   UNL     1      19.954  28.927  30.922  1.00  0.00     0.025 C 
ATOM      6  C   UNL     1      18.582  28.844  30.271  1.00  0.00    -0.073 C 
ATOM      7  C   UNL     1      17.595  28.139  30.848  1.00  0.00     0.008 C 
ATOM      8  C   UNL     1      18.388  29.434  28.898  1.00  0.00     0.031 C 
ATOM      9  C   UNL     1      18.888  30.876  28.874  1.00  0.00     0.005 C 
ATOM     10  C   UNL     1      20.346  30.961  29.341  1.00  0.00     0.008 C 
ATOM     11  C   UNL     1      20.576  30.366  30.772  1.00  0.00    -0.018 C 
ATOM     12  C   UNL     1      22.100  30.309  31.061  1.00  0.00     0.088 C 
ATOM     13  C   UNL     1      22.801  29.339  30.154  1.00  0.00     0.159 C 
ATOM     14  O   UNL     1      24.038  29.470  29.957  1.00  0.00    -0.295 OA
ATOM     15  C   UNL     1      19.936  31.311  31.819  1.00  0.00     0.012 C 
ATOM     16  C   UNL     1      23.489  28.124  27.542  1.00  0.00     0.039 C 
ENDROOT
TORSDOF 0
ENDMDL
MODEL 8
REMARK VINA RESULT:    -4.703      1.672      3.359
REMARK INTER + INTRA:          -4.703
REMARK INTER:                  -4.703
REMARK INTRA:                   0.000
REMARK UNBOUND:                 0.000
REMARK SMILES C=C1CCC[C@]2(C)CC(=O)C(=C(C)C)C[C@H]12
REMARK SMILES IDX 13 1 12 2 11 3 15 4 16 5 2 6 1 7 3 8 4 9 5 10 6 11 8 12 9 13
REMARK SMILES IDX 10 14 7 15 14 16
REMARK H PARENT
REMARK Flexibility Score: inf
ROOT
ATOM      1  C   UNL     1      21.163  29.559  29.096  1.00  0.00     0.039 C 
ATOM      2  C   UNL     1      19.844  28.869  29.354  1.00  0.00    -0.070 C 
ATOM      3  C   UNL     1      18.656  29.489  29.092  1.00  0.00    -0.006 C 
ATOM      4  C   UNL     1      18.568  30.911  28.570  1.00  0.00     0.047 C 
ATOM      5  C   UNL     1      17.538  31.800  29.334  1.00  0.00     0.025 C 
ATOM      6  C   UNL     1      18.253  32.900  30.105  1.00  0.00    -0.073 C 
ATOM      7  C   UNL     1      18.507  34.084  29.525  1.00  0.00     0.008 C 
ATOM      8  C   UNL     1      18.805  32.591  31.473  1.00  0.00     0.031 C 
ATOM      9  C   UNL     1      17.721  31.966  32.346  1.00  0.00     0.005 C 
ATOM     10  C   UNL     1      17.119  30.728  31.672  1.00  0.00     0.008 C 
ATOM     11  C   UNL     1      16.524  31.019  30.253  1.00  0.00    -0.018 C 
ATOM     12  C   UNL     1      16.134  29.677  29.578  1.00  0.00     0.088 C 
ATOM     13  C   UNL     1      17.340  28.830  29.291  1.00  0.00     0.159 C 
ATOM     14  O   UNL     1      17.195  27.586  29.150  1.00  0.00    -0.295 OA
ATOM     15  C   UNL     1      15.230  31.856  30.412  1.00  0.00     0.012 C 
ATOM     16  C   UNL     1      19.894  27.484  29.956  1.00  0.00     0.039 C 
ENDROOT
TORSDOF 0
ENDMDL
MODEL 9
REMARK VINA RESULT:    -4.632      2.387      4.567
REMARK INTER + INTRA:          -4.632
REMARK INTER:                  -4.632
REMARK INTRA:                   0.000
REMARK UNBOUND:                 0.000
REMARK SMILES C=C1CCC[C@]2(C)CC(=O)C(=C(C)C)C[C@H]12
REMARK SMILES IDX 13 1 12 2 11 3 15 4 16 5 2 6 1 7 3 8 4 9 5 10 6 11 8 12 9 13
REMARK SMILES IDX 10 14 7 15 14 16
REMARK H PARENT
REMARK Flexibility Score: inf
ROOT
ATOM      1  C   UNL     1      17.484  25.905  28.938  1.00  0.00     0.039 C 
ATOM      2  C   UNL     1      16.932  27.247  29.359  1.00  0.00    -0.070 C 
ATOM      3  C   UNL     1      17.520  28.413  28.961  1.00  0.00    -0.006 C 
ATOM      4  C   UNL     1      18.776  28.453  28.112  1.00  0.00     0.047 C 
ATOM      5  C   UNL     1      19.865  29.436  28.644  1.00  0.00     0.025 C 
ATOM      6  C   UNL     1      21.088  28.668  29.124  1.00  0.00    -0.073 C 
ATOM      7  C   UNL     1      22.086  28.375  28.275  1.00  0.00     0.008 C 
ATOM      8  C   UNL     1      21.095  28.109  30.523  1.00  0.00     0.031 C 
ATOM      9  C   UNL     1      20.743  29.204  31.526  1.00  0.00     0.005 C 
ATOM     10  C   UNL     1      19.405  29.864  31.172  1.00  0.00     0.008 C 
ATOM     11  C   UNL     1      19.371  30.467  29.727  1.00  0.00    -0.018 C 
ATOM     12  C   UNL     1      17.924  30.918  29.397  1.00  0.00     0.088 C 
ATOM     13  C   UNL     1      16.983  29.751  29.318  1.00  0.00     0.159 C 
ATOM     14  O   UNL     1      15.749  29.947  29.481  1.00  0.00    -0.295 OA
ATOM     15  C   UNL     1      20.275  31.725  29.685  1.00  0.00     0.012 C 
ATOM     16  C   UNL     1      15.732  27.243  30.278  1.00  0.00     0.039 C 
ENDROOT
TORSDOF 0
ENDMDL
