MODEL 1
REMARK VINA RESULT:    -3.687      0.000      0.000
REMARK INTER + INTRA:          -3.911
REMARK INTER:                  -4.549
REMARK INTRA:                   0.638
REMARK UNBOUND:                 0.638
REMARK SMILES C=C1[C@H]2CC[C@@H]3[C@H]2C(C)(C)CCC[C@]13C
REMARK SMILES IDX 14 1 6 2 7 3 3 4 2 5 1 6 4 7 5 8 15 9 8 10 9 11 10 12 11 13
REMARK SMILES IDX 13 15 12 16
REMARK H PARENT
REMARK Flexibility Score: 80.00
ROOT
ATOM      1  C   UNL     1     138.343 137.961 134.942  1.00  0.00    -0.008 C 
ATOM      2  C   UNL     1     138.554 137.455 136.424  1.00  0.00     0.003 C 
ATOM      3  C   UNL     1     139.418 136.185 136.282  1.00  0.00     0.006 C 
ATOM      4  C   UNL     1     140.479 136.881 135.428  1.00  0.00     0.019 C 
ATOM      5  C   UNL     1     139.649 137.504 134.340  1.00  0.00    -0.068 C 
ATOM      6  C   UNL     1     140.051 137.694 133.079  1.00  0.00     0.009 C 
ATOM      7  C   UNL     1     140.905 138.031 136.371  1.00  0.00     0.008 C 
ATOM      8  C   UNL     1     139.598 138.360 137.135  1.00  0.00     0.005 C 
ATOM      9  C   UNL     1     138.198 139.503 134.828  1.00  0.00     0.016 C 
ENDROOT
BRANCH   3  10
ATOM     10  C   UNL     1     138.759 134.830 135.775  1.00  0.00    -0.032 C 
ATOM     11  C   UNL     1     139.681 134.089 134.774  1.00  0.00     0.011 C 
ATOM     12  C   UNL     1     138.606 133.888 137.001  1.00  0.00     0.011 C 
BRANCH  10  13
ATOM     13  C   UNL     1     137.325 134.978 135.191  1.00  0.00     0.007 CG0
ATOM     14  G   UNL     1     137.202 135.841 133.937  1.00  0.00     0.000 G0
ENDBRANCH  10  13
ENDBRANCH   3  10
BRANCH   1  15
ATOM     15  C   UNL     1     137.099 137.327 134.263  1.00  0.00     0.011 C 
BRANCH  15  16
ATOM     16  C   UNL     1     137.202 135.841 133.933  1.00  0.00     0.001 CG0
ATOM     17  G   UNL     1     137.318 134.974 135.185  1.00  0.00     0.000 G0
ENDBRANCH  15  16
ENDBRANCH   1  15
TORSDOF 0
ENDMDL
MODEL 2
REMARK VINA RESULT:    -3.654      2.608      4.417
REMARK INTER + INTRA:          -3.871
REMARK INTER:                  -4.504
REMARK INTRA:                   0.632
REMARK UNBOUND:                 0.638
REMARK SMILES C=C1[C@H]2CC[C@@H]3[C@H]2C(C)(C)CCC[C@]13C
REMARK SMILES IDX 14 1 6 2 7 3 3 4 2 5 1 6 4 7 5 8 15 9 8 10 9 11 10 12 11 13
REMARK SMILES IDX 13 15 12 16
REMARK H PARENT
REMARK Flexibility Score: 80.00
ROOT
ATOM      1  C   UNL     1     137.939 134.343 134.976  1.00  0.00    -0.008 C 
ATOM      2  C   UNL     1     137.415 134.061 136.439  1.00  0.00     0.003 C 
ATOM      3  C   UNL     1     136.144 133.210 136.240  1.00  0.00     0.006 C 
ATOM      4  C   UNL     1     136.847 132.190 135.344  1.00  0.00     0.019 C 
ATOM      5  C   UNL     1     137.485 133.070 134.306  1.00  0.00    -0.068 C 
ATOM      6  C   UNL     1     137.690 132.729 133.028  1.00  0.00     0.009 C 
ATOM      7  C   UNL     1     137.984 131.713 136.278  1.00  0.00     0.008 C 
ATOM      8  C   UNL     1     138.308 132.980 137.109  1.00  0.00     0.005 C 
ATOM      9  C   UNL     1     139.484 134.487 134.887  1.00  0.00     0.016 C 
ENDROOT
BRANCH   3  10
ATOM     10  C   UNL     1     134.798 133.899 135.751  1.00  0.00    -0.032 C 
ATOM     11  C   UNL     1     134.063 133.027 134.700  1.00  0.00     0.011 C 
ATOM     12  C   UNL     1     133.843 133.999 136.972  1.00  0.00     0.011 C 
BRANCH  10  13
ATOM     13  C   UNL     1     134.958 135.357 135.235  1.00  0.00     0.007 CG0
ATOM     14  G   UNL     1     135.840 135.535 134.002  1.00  0.00     0.000 G0
ENDBRANCH  10  13
ENDBRANCH   3  10
BRANCH   1  15
ATOM     15  C   UNL     1     137.318 135.620 134.351  1.00  0.00     0.011 C 
BRANCH  15  16
ATOM     16  C   UNL     1     135.836 135.538 133.996  1.00  0.00     0.001 CG0
ATOM     17  G   UNL     1     134.952 135.361 135.227  1.00  0.00     0.000 G0
ENDBRANCH  15  16
ENDBRANCH   1  15
TORSDOF 0
ENDMDL
MODEL 3
REMARK VINA RESULT:    -3.629      3.749      6.191
REMARK INTER + INTRA:          -3.841
REMARK INTER:                  -4.478
REMARK INTRA:                   0.638
REMARK UNBOUND:                 0.638
REMARK SMILES C=C1[C@H]2CC[C@@H]3[C@H]2C(C)(C)CCC[C@]13C
REMARK SMILES IDX 14 1 6 2 7 3 3 4 2 5 1 6 4 7 5 8 15 9 8 10 9 11 10 12 11 13
REMARK SMILES IDX 13 15 12 16
REMARK H PARENT
REMARK Flexibility Score: 80.00
ROOT
ATOM      1  C   UNL     1     134.651 134.965 135.766  1.00  0.00    -0.008 C 
ATOM      2  C   UNL     1     133.834 135.842 136.795  1.00  0.00     0.003 C 
ATOM      3  C   UNL     1     132.958 136.759 135.916  1.00  0.00     0.006 C 
ATOM      4  C   UNL     1     132.389 135.598 135.099  1.00  0.00     0.019 C 
ATOM      5  C   UNL     1     133.634 134.885 134.654  1.00  0.00    -0.068 C 
ATOM      6  C   UNL     1     133.770 134.220 133.501  1.00  0.00     0.009 C 
ATOM      7  C   UNL     1     131.761 134.733 136.217  1.00  0.00     0.008 C 
ATOM      8  C   UNL     1     132.702 134.983 137.422  1.00  0.00     0.005 C 
ATOM      9  C   UNL     1     134.995 133.546 136.296  1.00  0.00     0.016 C 
ENDROOT
BRANCH   3  10
ATOM     10  C   UNL     1     133.610 138.004 135.174  1.00  0.00    -0.032 C 
ATOM     11  C   UNL     1     133.071 138.149 133.727  1.00  0.00     0.011 C 
ATOM     12  C   UNL     1     133.174 139.290 135.928  1.00  0.00     0.011 C 
BRANCH  10  13
ATOM     13  C   UNL     1     135.165 138.031 135.182  1.00  0.00     0.007 CG0
ATOM     14  G   UNL     1     135.856 136.878 134.458  1.00  0.00     0.000 G0
ENDBRANCH  10  13
ENDBRANCH   3  10
BRANCH   1  15
ATOM     15  C   UNL     1     135.983 135.633 135.332  1.00  0.00     0.011 C 
BRANCH  15  16
ATOM     16  C   UNL     1     135.854 136.879 134.460  1.00  0.00     0.001 CG0
ATOM     17  G   UNL     1     135.157 138.027 135.185  1.00  0.00     0.000 G0
ENDBRANCH  15  16
ENDBRANCH   1  15
TORSDOF 0
ENDMDL
MODEL 4
REMARK VINA RESULT:    -3.620      2.593      4.483
REMARK INTER + INTRA:          -3.828
REMARK INTER:                  -4.466
REMARK INTRA:                   0.637
REMARK UNBOUND:                 0.638
REMARK SMILES C=C1[C@H]2CC[C@@H]3[C@H]2C(C)(C)CCC[C@]13C
REMARK SMILES IDX 14 1 6 2 7 3 3 4 2 5 1 6 4 7 5 8 15 9 8 10 9 11 10 12 11 13
REMARK SMILES IDX 13 15 12 16
REMARK H PARENT
REMARK Flexibility Score: 80.00
ROOT
ATOM      1  C   UNL     1     135.003 137.960 136.063  1.00  0.00    -0.008 C 
ATOM      2  C   UNL     1     135.957 138.887 136.915  1.00  0.00     0.003 C 
ATOM      3  C   UNL     1     136.762 139.683 135.867  1.00  0.00     0.006 C 
ATOM      4  C   UNL     1     135.515 140.153 135.118  1.00  0.00     0.019 C 
ATOM      5  C   UNL     1     134.791 138.859 134.870  1.00  0.00    -0.068 C 
ATOM      6  C   UNL     1     134.020 138.599 133.809  1.00  0.00     0.009 C 
ATOM      7  C   UNL     1     134.748 140.877 136.250  1.00  0.00     0.008 C 
ATOM      8  C   UNL     1     135.136 140.064 137.510  1.00  0.00     0.005 C 
ATOM      9  C   UNL     1     133.651 137.650 136.763  1.00  0.00     0.016 C 
ENDROOT
BRANCH   3  10
ATOM     10  C   UNL     1     137.944 138.978 135.072  1.00  0.00    -0.032 C 
ATOM     11  C   UNL     1     137.938 139.375 133.574  1.00  0.00     0.011 C 
ATOM     12  C   UNL     1     139.287 139.502 135.652  1.00  0.00     0.011 C 
BRANCH  10  13
ATOM     13  C   UNL     1     138.006 137.432 135.227  1.00  0.00     0.007 CG0
ATOM     14  G   UNL     1     136.804 136.659 134.690  1.00  0.00     0.000 G0
ENDBRANCH  10  13
ENDBRANCH   3  10
BRANCH   1  15
ATOM     15  C   UNL     1     135.657 136.600 135.698  1.00  0.00     0.011 C 
BRANCH  15  16
ATOM     16  C   UNL     1     136.807 136.659 134.696  1.00  0.00     0.001 CG0
ATOM     17  G   UNL     1     138.004 137.440 135.231  1.00  0.00     0.000 G0
ENDBRANCH  15  16
ENDBRANCH   1  15
TORSDOF 0
ENDMDL
MODEL 5
REMARK VINA RESULT:    -3.572      3.087      4.892
REMARK INTER + INTRA:          -3.770
REMARK INTER:                  -4.401
REMARK INTRA:                   0.632
REMARK UNBOUND:                 0.638
REMARK SMILES C=C1[C@H]2CC[C@@H]3[C@H]2C(C)(C)CCC[C@]13C
REMARK SMILES IDX 14 1 6 2 7 3 3 4 2 5 1 6 4 7 5 8 15 9 8 10 9 11 10 12 11 13
REMARK SMILES IDX 13 15 12 16
REMARK H PARENT
REMARK Flexibility Score: 80.00
ROOT
ATOM      1  C   UNL     1     134.703 137.983 135.737  1.00  0.00    -0.008 C 
ATOM      2  C   UNL     1     136.001 137.961 136.635  1.00  0.00     0.003 C 
ATOM      3  C   UNL     1     136.699 139.305 136.343  1.00  0.00     0.006 C 
ATOM      4  C   UNL     1     135.445 140.132 136.628  1.00  0.00     0.019 C 
ATOM      5  C   UNL     1     134.423 139.465 135.750  1.00  0.00    -0.068 C 
ATOM      6  C   UNL     1     133.393 140.084 135.161  1.00  0.00     0.009 C 
ATOM      7  C   UNL     1     135.130 139.698 138.079  1.00  0.00     0.008 C 
ATOM      8  C   UNL     1     135.611 138.226 138.115  1.00  0.00     0.005 C 
ATOM      9  C   UNL     1     133.511 137.195 136.349  1.00  0.00     0.016 C 
ENDROOT
BRANCH   3  10
ATOM     10  C   UNL     1     137.489 139.508 134.979  1.00  0.00    -0.032 C 
ATOM     11  C   UNL     1     137.234 140.915 134.379  1.00  0.00     0.011 C 
ATOM     12  C   UNL     1     139.009 139.443 135.295  1.00  0.00     0.011 C 
BRANCH  10  13
ATOM     13  C   UNL     1     137.244 138.406 133.910  1.00  0.00     0.007 CG0
ATOM     14  G   UNL     1     135.811 138.278 133.401  1.00  0.00     0.000 G0
ENDBRANCH  10  13
ENDBRANCH   3  10
BRANCH   1  15
ATOM     15  C   UNL     1     134.948 137.417 134.312  1.00  0.00     0.011 C 
BRANCH  15  16
ATOM     16  C   UNL     1     135.813 138.274 133.393  1.00  0.00     0.001 CG0
ATOM     17  G   UNL     1     137.245 138.412 133.904  1.00  0.00     0.000 G0
ENDBRANCH  15  16
ENDBRANCH   1  15
TORSDOF 0
ENDMDL
MODEL 6
REMARK VINA RESULT:    -3.519      1.400      3.581
REMARK INTER + INTRA:          -3.704
REMARK INTER:                  -4.341
REMARK INTRA:                   0.637
REMARK UNBOUND:                 0.638
REMARK SMILES C=C1[C@H]2CC[C@@H]3[C@H]2C(C)(C)CCC[C@]13C
REMARK SMILES IDX 14 1 6 2 7 3 3 4 2 5 1 6 4 7 5 8 15 9 8 10 9 11 10 12 11 13
REMARK SMILES IDX 13 15 12 16
REMARK H PARENT
REMARK Flexibility Score: 80.00
ROOT
ATOM      1  C   UNL     1     139.617 136.461 134.521  1.00  0.00    -0.008 C 
ATOM      2  C   UNL     1     139.994 137.932 134.958  1.00  0.00     0.003 C 
ATOM      3  C   UNL     1     138.705 138.490 135.597  1.00  0.00     0.006 C 
ATOM      4  C   UNL     1     138.542 137.302 136.546  1.00  0.00     0.019 C 
ATOM      5  C   UNL     1     138.619 136.133 135.604  1.00  0.00    -0.068 C 
ATOM      6  C   UNL     1     137.975 134.972 135.764  1.00  0.00     0.009 C 
ATOM      7  C   UNL     1     139.890 137.347 137.305  1.00  0.00     0.008 C 
ATOM      8  C   UNL     1     140.875 137.881 136.237  1.00  0.00     0.005 C 
ATOM      9  C   UNL     1     140.817 135.475 134.564  1.00  0.00     0.016 C 
ENDROOT
BRANCH   3  10
ATOM     10  C   UNL     1     137.491 138.936 134.673  1.00  0.00    -0.032 C 
ATOM     11  C   UNL     1     136.131 138.487 135.265  1.00  0.00     0.011 C 
ATOM     12  C   UNL     1     137.460 140.490 134.646  1.00  0.00     0.011 C 
BRANCH  10  13
ATOM     13  C   UNL     1     137.608 138.503 133.184  1.00  0.00     0.007 CG0
ATOM     14  G   UNL     1     137.613 136.999 132.925  1.00  0.00     0.000 G0
ENDBRANCH  10  13
ENDBRANCH   3  10
BRANCH   1  15
ATOM     15  C   UNL     1     139.015 136.395 133.092  1.00  0.00     0.011 C 
BRANCH  15  16
ATOM     16  C   UNL     1     137.626 137.006 132.923  1.00  0.00     0.001 CG0
ATOM     17  G   UNL     1     137.615 138.508 133.190  1.00  0.00     0.000 G0
ENDBRANCH  15  16
ENDBRANCH   1  15
TORSDOF 0
ENDMDL
MODEL 7
REMARK VINA RESULT:    -3.472      1.931      3.929
REMARK INTER + INTRA:          -3.646
REMARK INTER:                  -4.286
REMARK INTRA:                   0.639
REMARK UNBOUND:                 0.638
REMARK SMILES C=C1[C@H]2CC[C@@H]3[C@H]2C(C)(C)CCC[C@]13C
REMARK SMILES IDX 14 1 6 2 7 3 3 4 2 5 1 6 4 7 5 8 15 9 8 10 9 11 10 12 11 13
REMARK SMILES IDX 13 15 12 16
REMARK H PARENT
REMARK Flexibility Score: 80.00
ROOT
ATOM      1  C   UNL     1     139.437 138.229 135.835  1.00  0.00    -0.008 C 
ATOM      2  C   UNL     1     138.740 139.304 136.759  1.00  0.00     0.003 C 
ATOM      3  C   UNL     1     137.239 138.950 136.704  1.00  0.00     0.006 C 
ATOM      4  C   UNL     1     137.469 137.485 137.075  1.00  0.00     0.019 C 
ATOM      5  C   UNL     1     138.507 137.065 136.072  1.00  0.00    -0.068 C 
ATOM      6  C   UNL     1     138.626 135.837 135.555  1.00  0.00     0.009 C 
ATOM      7  C   UNL     1     138.201 137.636 138.430  1.00  0.00     0.008 C 
ATOM      8  C   UNL     1     139.000 138.951 138.250  1.00  0.00     0.005 C 
ATOM      9  C   UNL     1     140.883 137.874 136.279  1.00  0.00     0.016 C 
ENDROOT
BRANCH   3  10
ATOM     10  C   UNL     1     136.386 139.316 135.414  1.00  0.00    -0.032 C 
ATOM     11  C   UNL     1     135.415 138.169 135.031  1.00  0.00     0.011 C 
ATOM     12  C   UNL     1     135.494 140.539 135.764  1.00  0.00     0.011 C 
BRANCH  10  13
ATOM     13  C   UNL     1     137.222 139.758 134.179  1.00  0.00     0.007 CG0
ATOM     14  G   UNL     1     138.176 138.711 133.610  1.00  0.00     0.000 G0
ENDBRANCH  10  13
ENDBRANCH   3  10
BRANCH   1  15
ATOM     15  C   UNL     1     139.504 138.669 134.348  1.00  0.00     0.011 C 
BRANCH  15  16
ATOM     16  C   UNL     1     138.172 138.717 133.605  1.00  0.00     0.001 CG0
ATOM     17  G   UNL     1     137.224 139.767 134.178  1.00  0.00     0.000 G0
ENDBRANCH  15  16
ENDBRANCH   1  15
TORSDOF 0
ENDMDL
MODEL 8
REMARK VINA RESULT:    -3.463      3.974      5.115
REMARK INTER + INTRA:          -3.635
REMARK INTER:                  -4.267
REMARK INTRA:                   0.632
REMARK UNBOUND:                 0.638
REMARK SMILES C=C1[C@H]2CC[C@@H]3[C@H]2C(C)(C)CCC[C@]13C
REMARK SMILES IDX 14 1 6 2 7 3 3 4 2 5 1 6 4 7 5 8 15 9 8 10 9 11 10 12 11 13
REMARK SMILES IDX 13 15 12 16
REMARK H PARENT
REMARK Flexibility Score: 80.00
ROOT
ATOM      1  C   UNL     1     134.481 139.454 135.819  1.00  0.00    -0.008 C 
ATOM      2  C   UNL     1     133.415 138.776 136.767  1.00  0.00     0.003 C 
ATOM      3  C   UNL     1     133.728 137.267 136.687  1.00  0.00     0.006 C 
ATOM      4  C   UNL     1     135.208 137.455 137.018  1.00  0.00     0.019 C 
ATOM      5  C   UNL     1     135.627 138.492 136.013  1.00  0.00    -0.068 C 
ATOM      6  C   UNL     1     136.842 138.585 135.463  1.00  0.00     0.009 C 
ATOM      7  C   UNL     1     135.115 138.177 138.383  1.00  0.00     0.008 C 
ATOM      8  C   UNL     1     133.817 139.011 138.249  1.00  0.00     0.005 C 
ATOM      9  C   UNL     1     134.886 140.886 136.266  1.00  0.00     0.016 C 
ENDROOT
BRANCH   3  10
ATOM     10  C   UNL     1     133.303 136.437 135.400  1.00  0.00    -0.032 C 
ATOM     11  C   UNL     1     134.413 135.440 134.976  1.00  0.00     0.011 C 
ATOM     12  C   UNL     1     132.068 135.573 135.776  1.00  0.00     0.011 C 
BRANCH  10  13
ATOM     13  C   UNL     1     132.849 137.296 134.186  1.00  0.00     0.007 CG0
ATOM     14  G   UNL     1     133.907 138.222 133.591  1.00  0.00     0.000 G0
ENDBRANCH  10  13
ENDBRANCH   3  10
BRANCH   1  15
ATOM     15  C   UNL     1     134.002 139.548 134.346  1.00  0.00     0.011 C 
BRANCH  15  16
ATOM     16  C   UNL     1     133.905 138.226 133.589  1.00  0.00     0.001 CG0
ATOM     17  G   UNL     1     132.847 137.296 134.176  1.00  0.00     0.000 G0
ENDBRANCH  15  16
ENDBRANCH   1  15
TORSDOF 0
ENDMDL
MODEL 9
REMARK VINA RESULT:    -3.458      1.578      4.154
REMARK INTER + INTRA:          -3.629
REMARK INTER:                  -4.255
REMARK INTRA:                   0.626
REMARK UNBOUND:                 0.638
REMARK SMILES C=C1[C@H]2CC[C@@H]3[C@H]2C(C)(C)CCC[C@]13C
REMARK SMILES IDX 14 1 6 2 7 3 3 4 2 5 1 6 4 7 5 8 15 9 8 10 9 11 10 12 11 13
REMARK SMILES IDX 13 15 12 16
REMARK H PARENT
REMARK Flexibility Score: 80.00
ROOT
ATOM      1  C   UNL     1     138.190 133.270 135.809  1.00  0.00    -0.008 C 
ATOM      2  C   UNL     1     139.277 133.961 136.723  1.00  0.00     0.003 C 
ATOM      3  C   UNL     1     138.930 135.464 136.671  1.00  0.00     0.006 C 
ATOM      4  C   UNL     1     137.467 135.242 137.055  1.00  0.00     0.019 C 
ATOM      5  C   UNL     1     137.033 134.206 136.056  1.00  0.00    -0.068 C 
ATOM      6  C   UNL     1     135.799 134.093 135.551  1.00  0.00     0.009 C 
ATOM      7  C   UNL     1     137.627 134.509 138.409  1.00  0.00     0.008 C 
ATOM      8  C   UNL     1     138.936 133.703 138.217  1.00  0.00     0.005 C 
ATOM      9  C   UNL     1     137.831 131.826 136.256  1.00  0.00     0.016 C 
ENDROOT
BRANCH   3  10
ATOM     10  C   UNL     1     139.289 136.315 135.377  1.00  0.00    -0.032 C 
ATOM     11  C   UNL     1     138.146 137.296 135.009  1.00  0.00     0.011 C 
ATOM     12  C   UNL     1     140.523 137.196 135.714  1.00  0.00     0.011 C 
BRANCH  10  13
ATOM     13  C   UNL     1     139.710 135.476 134.137  1.00  0.00     0.007 CG0
ATOM     14  G   UNL     1     138.648 134.532 133.579  1.00  0.00     0.000 G0
ENDBRANCH  10  13
ENDBRANCH   3  10
BRANCH   1  15
ATOM     15  C   UNL     1     138.615 133.200 134.318  1.00  0.00     0.011 C 
BRANCH  15  16
ATOM     16  C   UNL     1     138.655 134.531 133.571  1.00  0.00     0.001 CG0
ATOM     17  G   UNL     1     139.709 135.482 134.134  1.00  0.00     0.000 G0
ENDBRANCH  15  16
ENDBRANCH   1  15
TORSDOF 0
ENDMDL
