MODEL 1
REMARK VINA RESULT:    -5.042      0.000      0.000
REMARK INTER + INTRA:          -6.292
REMARK INTER:                  -6.074
REMARK INTRA:                  -0.219
REMARK UNBOUND:                -0.219
REMARK SMILES O=c1c(O)c(-c2ccc(O)c(O)c2)oc2cc(O)cc(O)c12
REMARK SMILES IDX 5 1 3 2 2 3 1 4 22 5 20 6 19 7 17 8 16 9 15 10 14 11 6 12
REMARK SMILES IDX 7 13 8 14 9 15 13 16 11 17 10 18 12 20 4 22 21 24 18 26
REMARK H PARENT 10 19 12 21 4 23 21 25 18 27
REMARK Flexibility Score: inf
ROOT
ATOM      1  C   UNL     1      44.575  30.675  25.273  1.00  0.00     0.180 A 
ATOM      2  C   UNL     1      45.583  31.361  24.574  1.00  0.00     0.208 A 
ATOM      3  C   UNL     1      45.256  32.013  23.374  1.00  0.00     0.238 A 
ATOM      4  O   UNL     1      46.150  32.670  22.781  1.00  0.00    -0.285 OA
ATOM      5  C   UNL     1      43.930  31.959  22.882  1.00  0.00     0.111 A 
ATOM      6  C   UNL     1      43.495  32.551  21.659  1.00  0.00     0.134 A 
ATOM      7  C   UNL     1      42.132  32.546  21.335  1.00  0.00     0.093 A 
ATOM      8  C   UNL     1      41.199  31.917  22.157  1.00  0.00     0.123 A 
ATOM      9  C   UNL     1      41.621  31.284  23.327  1.00  0.00     0.094 A 
ATOM     10  C   UNL     1      42.968  31.303  23.694  1.00  0.00     0.146 A 
ATOM     11  O   UNL     1      43.328  30.698  24.821  1.00  0.00    -0.452 OA
ENDROOT
BRANCH   1  12
ATOM     12  C   UNL     1      44.848  29.942  26.531  1.00  0.00     0.025 A 
ATOM     13  C   UNL     1      45.647  28.786  26.545  1.00  0.00     0.016 A 
ATOM     14  C   UNL     1      45.872  28.097  27.740  1.00  0.00     0.051 A 
ATOM     15  C   UNL     1      45.292  28.544  28.934  1.00  0.00     0.157 A 
ATOM     16  C   UNL     1      44.253  30.375  27.728  1.00  0.00     0.062 A 
ATOM     17  C   UNL     1      44.475  29.688  28.926  1.00  0.00     0.158 A 
BRANCH  15  18
ATOM     18  O   UNL     1      45.519  27.856  30.125  1.00  0.00    -0.504 OA
ATOM     19  H   UNL     1      46.133  27.052  30.164  1.00  0.00     0.293 HD
ENDBRANCH  15  18
BRANCH  17  20
ATOM     20  O   UNL     1      43.878  30.155  30.096  1.00  0.00    -0.504 OA
ATOM     21  H   UNL     1      44.310  30.038  31.005  1.00  0.00     0.293 HD
ENDBRANCH  17  20
ENDBRANCH   1  12
BRANCH   2  22
ATOM     22  O   UNL     1      46.882  31.419  25.089  1.00  0.00    -0.502 OA
ATOM     23  H   UNL     1      47.674  31.001  24.615  1.00  0.00     0.293 HD
ENDBRANCH   2  22
BRANCH   6  24
ATOM     24  O   UNL     1      44.357  33.125  20.720  1.00  0.00    -0.507 OA
ATOM     25  H   UNL     1      45.010  32.611  20.148  1.00  0.00     0.293 HD
ENDBRANCH   6  24
BRANCH   8  26
ATOM     26  O   UNL     1      39.853  31.918  21.797  1.00  0.00    -0.508 OA
ATOM     27  H   UNL     1      39.549  31.600  20.884  1.00  0.00     0.293 HD
ENDBRANCH   8  26
TORSDOF 6
ENDMDL
MODEL 2
REMARK VINA RESULT:    -4.943      1.993      6.697
REMARK INTER + INTRA:          -6.173
REMARK INTER:                  -5.838
REMARK INTRA:                  -0.335
REMARK UNBOUND:                -0.219
REMARK SMILES O=c1c(O)c(-c2ccc(O)c(O)c2)oc2cc(O)cc(O)c12
REMARK SMILES IDX 5 1 3 2 2 3 1 4 22 5 20 6 19 7 17 8 16 9 15 10 14 11 6 12
REMARK SMILES IDX 7 13 8 14 9 15 13 16 11 17 10 18 12 20 4 22 21 24 18 26
REMARK H PARENT 10 19 12 21 4 23 21 25 18 27
REMARK Flexibility Score: inf
ROOT
ATOM      1  C   UNL     1      44.893  30.557  24.949  1.00  0.00     0.180 A 
ATOM      2  C   UNL     1      46.103  30.533  25.664  1.00  0.00     0.208 A 
ATOM      3  C   UNL     1      46.130  29.943  26.937  1.00  0.00     0.238 A 
ATOM      4  O   UNL     1      47.227  29.877  27.549  1.00  0.00    -0.285 OA
ATOM      5  C   UNL     1      44.945  29.398  27.486  1.00  0.00     0.111 A 
ATOM      6  C   UNL     1      44.848  28.812  28.784  1.00  0.00     0.134 A 
ATOM      7  C   UNL     1      43.656  28.187  29.172  1.00  0.00     0.093 A 
ATOM      8  C   UNL     1      42.539  28.184  28.338  1.00  0.00     0.123 A 
ATOM      9  C   UNL     1      42.605  28.806  27.091  1.00  0.00     0.094 A 
ATOM     10  C   UNL     1      43.790  29.406  26.661  1.00  0.00     0.146 A 
ATOM     11  O   UNL     1      43.814  29.979  25.463  1.00  0.00    -0.452 OA
ENDROOT
BRANCH   1  12
ATOM     12  C   UNL     1      44.780  31.183  23.611  1.00  0.00     0.025 A 
ATOM     13  C   UNL     1      44.470  32.546  23.466  1.00  0.00     0.016 A 
ATOM     14  C   UNL     1      44.344  33.111  22.194  1.00  0.00     0.051 A 
ATOM     15  C   UNL     1      44.513  32.320  21.050  1.00  0.00     0.157 A 
ATOM     16  C   UNL     1      44.928  30.390  22.461  1.00  0.00     0.062 A 
ATOM     17  C   UNL     1      44.803  30.952  21.186  1.00  0.00     0.158 A 
BRANCH  15  18
ATOM     18  O   UNL     1      44.389  32.886  19.782  1.00  0.00    -0.504 OA
ATOM     19  H   UNL     1      44.398  32.318  18.944  1.00  0.00     0.293 HD
ENDBRANCH  15  18
BRANCH  17  20
ATOM     20  O   UNL     1      44.970  30.136  20.067  1.00  0.00    -0.504 OA
ATOM     21  H   UNL     1      44.234  30.002  19.384  1.00  0.00     0.293 HD
ENDBRANCH  17  20
ENDBRANCH   1  12
BRANCH   2  22
ATOM     22  O   UNL     1      47.267  31.058  25.093  1.00  0.00    -0.502 OA
ATOM     23  H   UNL     1      47.713  30.640  24.286  1.00  0.00     0.293 HD
ENDBRANCH   2  22
BRANCH   6  24
ATOM     24  O   UNL     1      45.875  28.841  29.732  1.00  0.00    -0.507 OA
ATOM     25  H   UNL     1      46.026  28.137  30.438  1.00  0.00     0.293 HD
ENDBRANCH   6  24
BRANCH   8  26
ATOM     26  O   UNL     1      41.365  27.567  28.763  1.00  0.00    -0.508 OA
ATOM     27  H   UNL     1      40.573  28.105  29.093  1.00  0.00     0.293 HD
ENDBRANCH   8  26
TORSDOF 6
ENDMDL
MODEL 3
REMARK VINA RESULT:    -4.939      2.054      7.394
REMARK INTER + INTRA:          -6.168
REMARK INTER:                  -5.844
REMARK INTRA:                  -0.324
REMARK UNBOUND:                -0.219
REMARK SMILES O=c1c(O)c(-c2ccc(O)c(O)c2)oc2cc(O)cc(O)c12
REMARK SMILES IDX 5 1 3 2 2 3 1 4 22 5 20 6 19 7 17 8 16 9 15 10 14 11 6 12
REMARK SMILES IDX 7 13 8 14 9 15 13 16 11 17 10 18 12 20 4 22 21 24 18 26
REMARK H PARENT 10 19 12 21 4 23 21 25 18 27
REMARK Flexibility Score: inf
ROOT
ATOM      1  C   UNL     1      44.797  30.316  25.216  1.00  0.00     0.180 A 
ATOM      2  C   UNL     1      43.595  30.069  25.901  1.00  0.00     0.208 A 
ATOM      3  C   UNL     1      43.644  29.456  27.163  1.00  0.00     0.238 A 
ATOM      4  O   UNL     1      42.568  29.286  27.794  1.00  0.00    -0.285 OA
ATOM      5  C   UNL     1      44.892  29.084  27.718  1.00  0.00     0.111 A 
ATOM      6  C   UNL     1      45.056  28.423  28.971  1.00  0.00     0.134 A 
ATOM      7  C   UNL     1      46.345  28.221  29.482  1.00  0.00     0.093 A 
ATOM      8  C   UNL     1      47.475  28.597  28.757  1.00  0.00     0.123 A 
ATOM      9  C   UNL     1      47.326  29.191  27.503  1.00  0.00     0.094 A 
ATOM     10  C   UNL     1      46.053  29.439  26.983  1.00  0.00     0.146 A 
ATOM     11  O   UNL     1      45.955  30.016  25.791  1.00  0.00    -0.452 OA
ENDROOT
BRANCH   1  12
ATOM     12  C   UNL     1      44.825  30.935  23.871  1.00  0.00     0.025 A 
ATOM     13  C   UNL     1      44.878  32.329  23.708  1.00  0.00     0.016 A 
ATOM     14  C   UNL     1      44.879  32.892  22.429  1.00  0.00     0.051 A 
ATOM     15  C   UNL     1      44.814  32.072  21.296  1.00  0.00     0.157 A 
ATOM     16  C   UNL     1      44.740  30.117  22.731  1.00  0.00     0.062 A 
ATOM     17  C   UNL     1      44.741  30.677  21.449  1.00  0.00     0.158 A 
BRANCH  15  18
ATOM     18  O   UNL     1      44.818  32.636  20.021  1.00  0.00    -0.504 OA
ATOM     19  H   UNL     1      45.016  33.619  19.876  1.00  0.00     0.293 HD
ENDBRANCH  15  18
BRANCH  17  20
ATOM     20  O   UNL     1      44.669  29.833  20.341  1.00  0.00    -0.504 OA
ATOM     21  H   UNL     1      43.964  29.111  20.260  1.00  0.00     0.293 HD
ENDBRANCH  17  20
ENDBRANCH   1  12
BRANCH   2  22
ATOM     22  O   UNL     1      42.374  30.463  25.343  1.00  0.00    -0.502 OA
ATOM     23  H   UNL     1      41.854  29.874  24.704  1.00  0.00     0.293 HD
ENDBRANCH   2  22
BRANCH   6  24
ATOM     24  O   UNL     1      43.997  27.923  29.735  1.00  0.00    -0.507 OA
ATOM     25  H   UNL     1      43.021  28.042  29.512  1.00  0.00     0.293 HD
ENDBRANCH   6  24
BRANCH   8  26
ATOM     26  O   UNL     1      48.741  28.366  29.288  1.00  0.00    -0.508 OA
ATOM     27  H   UNL     1      48.868  27.857  30.154  1.00  0.00     0.293 HD
ENDBRANCH   8  26
TORSDOF 6
ENDMDL
MODEL 4
REMARK VINA RESULT:    -4.910      1.569      2.217
REMARK INTER + INTRA:          -6.133
REMARK INTER:                  -5.928
REMARK INTRA:                  -0.206
REMARK UNBOUND:                -0.219
REMARK SMILES O=c1c(O)c(-c2ccc(O)c(O)c2)oc2cc(O)cc(O)c12
REMARK SMILES IDX 5 1 3 2 2 3 1 4 22 5 20 6 19 7 17 8 16 9 15 10 14 11 6 12
REMARK SMILES IDX 7 13 8 14 9 15 13 16 11 17 10 18 12 20 4 22 21 24 18 26
REMARK H PARENT 10 19 12 21 4 23 21 25 18 27
REMARK Flexibility Score: inf
ROOT
ATOM      1  C   UNL     1      44.960  30.128  25.878  1.00  0.00     0.180 A 
ATOM      2  C   UNL     1      45.563  31.228  25.242  1.00  0.00     0.208 A 
ATOM      3  C   UNL     1      44.860  31.896  24.228  1.00  0.00     0.238 A 
ATOM      4  O   UNL     1      45.382  32.912  23.699  1.00  0.00    -0.285 OA
ATOM      5  C   UNL     1      43.570  31.449  23.852  1.00  0.00     0.111 A 
ATOM      6  C   UNL     1      42.784  32.027  22.811  1.00  0.00     0.134 A 
ATOM      7  C   UNL     1      41.469  31.587  22.613  1.00  0.00     0.093 A 
ATOM      8  C   UNL     1      40.934  30.548  23.374  1.00  0.00     0.123 A 
ATOM      9  C   UNL     1      41.716  29.936  24.355  1.00  0.00     0.094 A 
ATOM     10  C   UNL     1      43.018  30.377  24.600  1.00  0.00     0.146 A 
ATOM     11  O   UNL     1      43.724  29.774  25.550  1.00  0.00    -0.452 OA
ENDROOT
BRANCH   1  12
ATOM     12  C   UNL     1      45.649  29.357  26.939  1.00  0.00     0.025 A 
ATOM     13  C   UNL     1      45.235  29.426  28.280  1.00  0.00     0.016 A 
ATOM     14  C   UNL     1      45.915  28.709  29.268  1.00  0.00     0.051 A 
ATOM     15  C   UNL     1      47.025  27.923  28.933  1.00  0.00     0.157 A 
ATOM     16  C   UNL     1      46.775  28.583  26.612  1.00  0.00     0.062 A 
ATOM     17  C   UNL     1      47.459  27.863  27.598  1.00  0.00     0.158 A 
BRANCH  15  18
ATOM     18  O   UNL     1      47.700  27.206  29.920  1.00  0.00    -0.504 OA
ATOM     19  H   UNL     1      47.594  26.204  30.014  1.00  0.00     0.293 HD
ENDBRANCH  15  18
BRANCH  17  20
ATOM     20  O   UNL     1      48.564  27.096  27.233  1.00  0.00    -0.504 OA
ATOM     21  H   UNL     1      48.565  26.515  26.403  1.00  0.00     0.293 HD
ENDBRANCH  17  20
ENDBRANCH   1  12
BRANCH   2  22
ATOM     22  O   UNL     1      46.829  31.665  25.643  1.00  0.00    -0.502 OA
ATOM     23  H   UNL     1      47.672  31.427  25.135  1.00  0.00     0.293 HD
ENDBRANCH   2  22
BRANCH   6  24
ATOM     24  O   UNL     1      43.252  33.008  21.932  1.00  0.00    -0.507 OA
ATOM     25  H   UNL     1      44.149  32.987  21.472  1.00  0.00     0.293 HD
ENDBRANCH   6  24
BRANCH   8  26
ATOM     26  O   UNL     1      39.628  30.125  23.139  1.00  0.00    -0.508 OA
ATOM     27  H   UNL     1      39.226  29.342  23.642  1.00  0.00     0.293 HD
ENDBRANCH   8  26
TORSDOF 6
ENDMDL
MODEL 5
REMARK VINA RESULT:    -4.797      8.446     11.369
REMARK INTER + INTRA:          -5.997
REMARK INTER:                  -5.729
REMARK INTRA:                  -0.268
REMARK UNBOUND:                -0.219
REMARK SMILES O=c1c(O)c(-c2ccc(O)c(O)c2)oc2cc(O)cc(O)c12
REMARK SMILES IDX 5 1 3 2 2 3 1 4 22 5 20 6 19 7 17 8 16 9 15 10 14 11 6 12
REMARK SMILES IDX 7 13 8 14 9 15 13 16 11 17 10 18 12 20 4 22 21 24 18 26
REMARK H PARENT 10 19 12 21 4 23 21 25 18 27
REMARK Flexibility Score: inf
ROOT
ATOM      1  C   UNL     1      34.393  30.579  25.219  1.00  0.00     0.180 A 
ATOM      2  C   UNL     1      34.134  29.708  26.292  1.00  0.00     0.208 A 
ATOM      3  C   UNL     1      32.832  29.638  26.813  1.00  0.00     0.238 A 
ATOM      4  O   UNL     1      32.595  28.818  27.737  1.00  0.00    -0.285 OA
ATOM      5  C   UNL     1      31.810  30.450  26.265  1.00  0.00     0.111 A 
ATOM      6  C   UNL     1      30.465  30.489  26.740  1.00  0.00     0.134 A 
ATOM      7  C   UNL     1      29.506  31.232  26.039  1.00  0.00     0.093 A 
ATOM      8  C   UNL     1      29.856  31.986  24.920  1.00  0.00     0.123 A 
ATOM      9  C   UNL     1      31.181  32.002  24.483  1.00  0.00     0.094 A 
ATOM     10  C   UNL     1      32.152  31.243  25.139  1.00  0.00     0.146 A 
ATOM     11  O   UNL     1      33.400  31.278  24.684  1.00  0.00    -0.452 OA
ENDROOT
BRANCH   1  12
ATOM     12  C   UNL     1      35.745  30.726  24.633  1.00  0.00     0.025 A 
ATOM     13  C   UNL     1      36.284  29.746  23.782  1.00  0.00     0.016 A 
ATOM     14  C   UNL     1      37.572  29.894  23.260  1.00  0.00     0.051 A 
ATOM     15  C   UNL     1      38.344  31.016  23.590  1.00  0.00     0.157 A 
ATOM     16  C   UNL     1      36.531  31.839  24.977  1.00  0.00     0.062 A 
ATOM     17  C   UNL     1      37.820  31.991  24.455  1.00  0.00     0.158 A 
BRANCH  15  18
ATOM     18  O   UNL     1      39.627  31.163  23.066  1.00  0.00    -0.504 OA
ATOM     19  H   UNL     1      40.157  30.368  22.729  1.00  0.00     0.293 HD
ENDBRANCH  15  18
BRANCH  17  20
ATOM     20  O   UNL     1      38.565  33.116  24.808  1.00  0.00    -0.504 OA
ATOM     21  H   UNL     1      39.574  33.088  24.896  1.00  0.00     0.293 HD
ENDBRANCH  17  20
ENDBRANCH   1  12
BRANCH   2  22
ATOM     22  O   UNL     1      35.154  28.900  26.804  1.00  0.00    -0.502 OA
ATOM     23  H   UNL     1      36.096  28.912  26.431  1.00  0.00     0.293 HD
ENDBRANCH   2  22
BRANCH   6  24
ATOM     24  O   UNL     1      30.028  29.846  27.902  1.00  0.00    -0.507 OA
ATOM     25  H   UNL     1      30.622  29.592  28.677  1.00  0.00     0.293 HD
ENDBRANCH   6  24
BRANCH   8  26
ATOM     26  O   UNL     1      28.880  32.726  24.257  1.00  0.00    -0.508 OA
ATOM     27  H   UNL     1      28.897  33.739  24.249  1.00  0.00     0.293 HD
ENDBRANCH   8  26
TORSDOF 6
ENDMDL
MODEL 6
REMARK VINA RESULT:    -4.721      2.178      7.111
REMARK INTER + INTRA:          -5.906
REMARK INTER:                  -5.596
REMARK INTRA:                  -0.309
REMARK UNBOUND:                -0.219
REMARK SMILES O=c1c(O)c(-c2ccc(O)c(O)c2)oc2cc(O)cc(O)c12
REMARK SMILES IDX 5 1 3 2 2 3 1 4 22 5 20 6 19 7 17 8 16 9 15 10 14 11 6 12
REMARK SMILES IDX 7 13 8 14 9 15 13 16 11 17 10 18 12 20 4 22 21 24 18 26
REMARK H PARENT 10 19 12 21 4 23 21 25 18 27
REMARK Flexibility Score: inf
ROOT
ATOM      1  C   UNL     1      45.402  29.185  25.605  1.00  0.00     0.180 A 
ATOM      2  C   UNL     1      46.332  29.778  26.476  1.00  0.00     0.208 A 
ATOM      3  C   UNL     1      46.843  29.022  27.543  1.00  0.00     0.238 A 
ATOM      4  O   UNL     1      47.715  29.540  28.287  1.00  0.00    -0.285 OA
ATOM      5  C   UNL     1      46.407  27.689  27.735  1.00  0.00     0.111 A 
ATOM      6  C   UNL     1      46.829  26.845  28.805  1.00  0.00     0.134 A 
ATOM      7  C   UNL     1      46.433  25.501  28.822  1.00  0.00     0.093 A 
ATOM      8  C   UNL     1      45.581  24.989  27.845  1.00  0.00     0.123 A 
ATOM      9  C   UNL     1      45.115  25.822  26.827  1.00  0.00     0.094 A 
ATOM     10  C   UNL     1      45.520  27.156  26.763  1.00  0.00     0.146 A 
ATOM     11  O   UNL     1      45.062  27.912  25.772  1.00  0.00    -0.452 OA
ENDROOT
BRANCH   1  12
ATOM     12  C   UNL     1      44.799  29.926  24.472  1.00  0.00     0.025 A 
ATOM     13  C   UNL     1      45.466  30.049  23.242  1.00  0.00     0.016 A 
ATOM     14  C   UNL     1      44.889  30.773  22.195  1.00  0.00     0.051 A 
ATOM     15  C   UNL     1      43.645  31.394  22.366  1.00  0.00     0.157 A 
ATOM     16  C   UNL     1      43.561  30.567  24.646  1.00  0.00     0.062 A 
ATOM     17  C   UNL     1      42.980  31.293  23.600  1.00  0.00     0.158 A 
BRANCH  15  18
ATOM     18  O   UNL     1      43.071  32.114  21.320  1.00  0.00    -0.504 OA
ATOM     19  H   UNL     1      43.558  32.881  20.873  1.00  0.00     0.293 HD
ENDBRANCH  15  18
BRANCH  17  20
ATOM     20  O   UNL     1      41.745  31.905  23.805  1.00  0.00    -0.504 OA
ATOM     21  H   UNL     1      41.086  31.569  24.498  1.00  0.00     0.293 HD
ENDBRANCH  17  20
ENDBRANCH   1  12
BRANCH   2  22
ATOM     22  O   UNL     1      46.765  31.089  26.255  1.00  0.00    -0.502 OA
ATOM     23  H   UNL     1      47.159  31.390  25.372  1.00  0.00     0.293 HD
ENDBRANCH   2  22
BRANCH   6  24
ATOM     24  O   UNL     1      47.606  27.280  29.882  1.00  0.00    -0.507 OA
ATOM     25  H   UNL     1      47.287  27.904  30.607  1.00  0.00     0.293 HD
ENDBRANCH   6  24
BRANCH   8  26
ATOM     26  O   UNL     1      45.194  23.652  27.902  1.00  0.00    -0.508 OA
ATOM     27  H   UNL     1      45.302  23.104  28.748  1.00  0.00     0.293 HD
ENDBRANCH   8  26
TORSDOF 6
ENDMDL
MODEL 7
REMARK VINA RESULT:    -4.703      5.471      8.424
REMARK INTER + INTRA:          -5.884
REMARK INTER:                  -5.832
REMARK INTRA:                  -0.052
REMARK UNBOUND:                -0.219
REMARK SMILES O=c1c(O)c(-c2ccc(O)c(O)c2)oc2cc(O)cc(O)c12
REMARK SMILES IDX 5 1 3 2 2 3 1 4 22 5 20 6 19 7 17 8 16 9 15 10 14 11 6 12
REMARK SMILES IDX 7 13 8 14 9 15 13 16 11 17 10 18 12 20 4 22 21 24 18 26
REMARK H PARENT 10 19 12 21 4 23 21 25 18 27
REMARK Flexibility Score: inf
ROOT
ATOM      1  C   UNL     1      42.213  26.637  29.260  1.00  0.00     0.180 A 
ATOM      2  C   UNL     1      42.839  25.432  29.624  1.00  0.00     0.208 A 
ATOM      3  C   UNL     1      44.238  25.400  29.740  1.00  0.00     0.238 A 
ATOM      4  O   UNL     1      44.788  24.334  30.118  1.00  0.00    -0.285 OA
ATOM      5  C   UNL     1      44.993  26.568  29.477  1.00  0.00     0.111 A 
ATOM      6  C   UNL     1      46.418  26.639  29.526  1.00  0.00     0.134 A 
ATOM      7  C   UNL     1      47.053  27.878  29.375  1.00  0.00     0.093 A 
ATOM      8  C   UNL     1      46.321  29.036  29.113  1.00  0.00     0.123 A 
ATOM      9  C   UNL     1      44.932  28.967  29.004  1.00  0.00     0.094 A 
ATOM     10  C   UNL     1      44.267  27.752  29.186  1.00  0.00     0.146 A 
ATOM     11  O   UNL     1      42.943  27.732  29.084  1.00  0.00    -0.452 OA
ENDROOT
BRANCH   1  12
ATOM     12  C   UNL     1      40.745  26.743  29.093  1.00  0.00     0.025 A 
ATOM     13  C   UNL     1      39.863  26.379  30.125  1.00  0.00     0.016 A 
ATOM     14  C   UNL     1      38.481  26.464  29.936  1.00  0.00     0.051 A 
ATOM     15  C   UNL     1      37.960  26.901  28.712  1.00  0.00     0.157 A 
ATOM     16  C   UNL     1      40.217  27.162  27.860  1.00  0.00     0.062 A 
ATOM     17  C   UNL     1      38.834  27.248  27.667  1.00  0.00     0.158 A 
BRANCH  15  18
ATOM     18  O   UNL     1      36.581  26.987  28.527  1.00  0.00    -0.504 OA
ATOM     19  H   UNL     1      36.180  27.233  27.630  1.00  0.00     0.293 HD
ENDBRANCH  15  18
BRANCH  17  20
ATOM     20  O   UNL     1      38.348  27.680  26.434  1.00  0.00    -0.504 OA
ATOM     21  H   UNL     1      37.620  27.181  25.938  1.00  0.00     0.293 HD
ENDBRANCH  17  20
ENDBRANCH   1  12
BRANCH   2  22
ATOM     22  O   UNL     1      42.072  24.297  29.900  1.00  0.00    -0.502 OA
ATOM     23  H   UNL     1      41.826  23.620  29.187  1.00  0.00     0.293 HD
ENDBRANCH   2  22
BRANCH   6  24
ATOM     24  O   UNL     1      47.250  25.527  29.690  1.00  0.00    -0.507 OA
ATOM     25  H   UNL     1      47.057  24.606  29.328  1.00  0.00     0.293 HD
ENDBRANCH   6  24
BRANCH   8  26
ATOM     26  O   UNL     1      46.987  30.249  28.953  1.00  0.00    -0.508 OA
ATOM     27  H   UNL     1      47.990  30.289  28.815  1.00  0.00     0.293 HD
ENDBRANCH   8  26
TORSDOF 6
ENDMDL
MODEL 8
REMARK VINA RESULT:    -4.672      1.488      3.170
REMARK INTER + INTRA:          -5.847
REMARK INTER:                  -5.530
REMARK INTRA:                  -0.317
REMARK UNBOUND:                -0.219
REMARK SMILES O=c1c(O)c(-c2ccc(O)c(O)c2)oc2cc(O)cc(O)c12
REMARK SMILES IDX 5 1 3 2 2 3 1 4 22 5 20 6 19 7 17 8 16 9 15 10 14 11 6 12
REMARK SMILES IDX 7 13 8 14 9 15 13 16 11 17 10 18 12 20 4 22 21 24 18 26
REMARK H PARENT 10 19 12 21 4 23 21 25 18 27
REMARK Flexibility Score: inf
ROOT
ATOM      1  C   UNL     1      44.048  30.287  24.922  1.00  0.00     0.180 A 
ATOM      2  C   UNL     1      42.826  30.533  24.271  1.00  0.00     0.208 A 
ATOM      3  C   UNL     1      42.839  31.145  23.008  1.00  0.00     0.238 A 
ATOM      4  O   UNL     1      41.746  31.314  22.408  1.00  0.00    -0.285 OA
ATOM      5  C   UNL     1      44.071  31.516  22.418  1.00  0.00     0.111 A 
ATOM      6  C   UNL     1      44.200  32.177  21.160  1.00  0.00     0.134 A 
ATOM      7  C   UNL     1      45.473  32.380  20.612  1.00  0.00     0.093 A 
ATOM      8  C   UNL     1      46.623  32.004  21.305  1.00  0.00     0.123 A 
ATOM      9  C   UNL     1      46.510  31.410  22.563  1.00  0.00     0.094 A 
ATOM     10  C   UNL     1      45.253  31.163  23.119  1.00  0.00     0.146 A 
ATOM     11  O   UNL     1      45.189  30.587  24.314  1.00  0.00    -0.452 OA
ENDROOT
BRANCH   1  12
ATOM     12  C   UNL     1      44.114  29.669  26.267  1.00  0.00     0.025 A 
ATOM     13  C   UNL     1      44.100  28.273  26.431  1.00  0.00     0.016 A 
ATOM     14  C   UNL     1      44.139  27.713  27.711  1.00  0.00     0.051 A 
ATOM     15  C   UNL     1      44.180  28.537  28.843  1.00  0.00     0.157 A 
ATOM     16  C   UNL     1      44.135  30.491  27.406  1.00  0.00     0.062 A 
ATOM     17  C   UNL     1      44.174  29.933  28.688  1.00  0.00     0.158 A 
BRANCH  15  18
ATOM     18  O   UNL     1      44.221  27.974  30.118  1.00  0.00    -0.504 OA
ATOM     19  H   UNL     1      44.085  26.982  30.265  1.00  0.00     0.293 HD
ENDBRANCH  15  18
BRANCH  17  20
ATOM     20  O   UNL     1      44.207  30.781  29.795  1.00  0.00    -0.504 OA
ATOM     21  H   UNL     1      45.076  31.061  30.232  1.00  0.00     0.293 HD
ENDBRANCH  17  20
ENDBRANCH   1  12
BRANCH   2  22
ATOM     22  O   UNL     1      41.623  30.139  24.864  1.00  0.00    -0.502 OA
ATOM     23  H   UNL     1      41.573  29.397  25.552  1.00  0.00     0.293 HD
ENDBRANCH   2  22
BRANCH   6  24
ATOM     24  O   UNL     1      43.119  32.677  20.426  1.00  0.00    -0.507 OA
ATOM     25  H   UNL     1      42.150  32.472  20.617  1.00  0.00     0.293 HD
ENDBRANCH   6  24
BRANCH   8  26
ATOM     26  O   UNL     1      47.874  32.234  20.739  1.00  0.00    -0.508 OA
ATOM     27  H   UNL     1      48.722  32.191  21.290  1.00  0.00     0.293 HD
ENDBRANCH   8  26
TORSDOF 6
ENDMDL
MODEL 9
REMARK VINA RESULT:    -4.596      2.058      7.448
REMARK INTER + INTRA:          -5.755
REMARK INTER:                  -5.443
REMARK INTRA:                  -0.312
REMARK UNBOUND:                -0.219
REMARK SMILES O=c1c(O)c(-c2ccc(O)c(O)c2)oc2cc(O)cc(O)c12
REMARK SMILES IDX 5 1 3 2 2 3 1 4 22 5 20 6 19 7 17 8 16 9 15 10 14 11 6 12
REMARK SMILES IDX 7 13 8 14 9 15 13 16 11 17 10 18 12 20 4 22 21 24 18 26
REMARK H PARENT 10 19 12 21 4 23 21 25 18 27
REMARK Flexibility Score: inf
ROOT
ATOM      1  C   UNL     1      45.375  29.513  25.967  1.00  0.00     0.180 A 
ATOM      2  C   UNL     1      44.972  29.723  27.298  1.00  0.00     0.208 A 
ATOM      3  C   UNL     1      45.311  28.769  28.270  1.00  0.00     0.238 A 
ATOM      4  O   UNL     1      44.995  28.988  29.468  1.00  0.00    -0.285 OA
ATOM      5  C   UNL     1      46.036  27.611  27.898  1.00  0.00     0.111 A 
ATOM      6  C   UNL     1      46.399  26.560  28.793  1.00  0.00     0.134 A 
ATOM      7  C   UNL     1      47.228  25.525  28.342  1.00  0.00     0.093 A 
ATOM      8  C   UNL     1      47.653  25.468  27.016  1.00  0.00     0.123 A 
ATOM      9  C   UNL     1      47.254  26.459  26.118  1.00  0.00     0.094 A 
ATOM     10  C   UNL     1      46.458  27.523  26.546  1.00  0.00     0.146 A 
ATOM     11  O   UNL     1      46.109  28.451  25.661  1.00  0.00    -0.452 OA
ENDROOT
BRANCH   1  12
ATOM     12  C   UNL     1      45.033  30.461  24.882  1.00  0.00     0.025 A 
ATOM     13  C   UNL     1      43.765  30.452  24.275  1.00  0.00     0.016 A 
ATOM     14  C   UNL     1      43.473  31.339  23.236  1.00  0.00     0.051 A 
ATOM     15  C   UNL     1      44.445  32.239  22.780  1.00  0.00     0.157 A 
ATOM     16  C   UNL     1      46.010  31.352  24.407  1.00  0.00     0.062 A 
ATOM     17  C   UNL     1      45.721  32.242  23.367  1.00  0.00     0.158 A 
BRANCH  15  18
ATOM     18  O   UNL     1      44.150  33.125  21.745  1.00  0.00    -0.504 OA
ATOM     19  H   UNL     1      44.202  32.843  20.773  1.00  0.00     0.293 HD
ENDBRANCH  15  18
BRANCH  17  20
ATOM     20  O   UNL     1      46.713  33.120  22.932  1.00  0.00    -0.504 OA
ATOM     21  H   UNL     1      46.601  34.126  22.983  1.00  0.00     0.293 HD
ENDBRANCH  17  20
ENDBRANCH   1  12
BRANCH   2  22
ATOM     22  O   UNL     1      44.276  30.884  27.647  1.00  0.00    -0.502 OA
ATOM     23  H   UNL     1      43.313  30.867  27.961  1.00  0.00     0.293 HD
ENDBRANCH   2  22
BRANCH   6  24
ATOM     24  O   UNL     1      45.953  26.472  30.115  1.00  0.00    -0.507 OA
ATOM     25  H   UNL     1      45.134  26.936  30.478  1.00  0.00     0.293 HD
ENDBRANCH   6  24
BRANCH   8  26
ATOM     26  O   UNL     1      48.464  24.415  26.598  1.00  0.00    -0.508 OA
ATOM     27  H   UNL     1      48.185  23.449  26.724  1.00  0.00     0.293 HD
ENDBRANCH   8  26
TORSDOF 6
ENDMDL
