MODEL 1
REMARK VINA RESULT:    -1.465      0.000      0.000
REMARK INTER + INTRA:          -7.229
REMARK INTER:                  -3.178
REMARK INTRA:                  -4.050
REMARK UNBOUND:                -4.050
REMARK SMILES CCCCCCCCCCCCCCCCCCCCCC(=O)[O-]
REMARK SMILES IDX 12 1 11 2 10 3 9 4 8 5 7 6 6 7 5 8 4 9 3 10 2 11 1 12 13 13
REMARK SMILES IDX 14 14 15 15 16 16 17 17 18 18 19 19 20 20 21 21 22 22 23 23
REMARK SMILES IDX 24 24
REMARK H PARENT
REMARK Flexibility Score: inf
ROOT
ATOM      1  C   UNL     1     -31.967 -34.133  18.331  1.00  0.00     0.000 C 
ENDROOT
BRANCH   1   2
ATOM      2  C   UNL     1     -31.199 -33.556  17.130  1.00  0.00     0.000 C 
BRANCH   2   3
ATOM      3  C   UNL     1     -31.756 -32.198  16.669  1.00  0.00     0.000 C 
BRANCH   3   4
ATOM      4  C   UNL     1     -32.942 -31.725  17.526  1.00  0.00    -0.000 C 
BRANCH   4   5
ATOM      5  C   UNL     1     -34.137 -31.256  16.681  1.00  0.00    -0.000 C 
BRANCH   5   6
ATOM      6  C   UNL     1     -33.659 -30.604  15.374  1.00  0.00    -0.000 C 
BRANCH   6   7
ATOM      7  C   UNL     1     -34.675 -30.756  14.229  1.00  0.00    -0.000 C 
BRANCH   7   8
ATOM      8  C   UNL     1     -34.020 -31.220  12.917  1.00  0.00    -0.000 C 
BRANCH   8   9
ATOM      9  C   UNL     1     -32.484 -31.282  13.002  1.00  0.00    -0.000 C 
BRANCH   9  10
ATOM     10  C   UNL     1     -31.740 -30.226  12.165  1.00  0.00    -0.000 C 
BRANCH  10  11
ATOM     11  C   UNL     1     -30.440 -29.745  12.827  1.00  0.00    -0.003 C 
ATOM     12  C   UNL     1     -29.888 -30.799  13.782  1.00  0.00     0.004 C 
ENDBRANCH  10  11
ENDBRANCH   9  10
ENDBRANCH   8   9
ENDBRANCH   7   8
ENDBRANCH   6   7
ENDBRANCH   5   6
ENDBRANCH   4   5
ENDBRANCH   3   4
ENDBRANCH   2   3
ENDBRANCH   1   2
BRANCH   1  13
ATOM     13  C   UNL     1     -32.816 -35.358  17.959  1.00  0.00     0.000 C 
BRANCH  13  14
ATOM     14  C   UNL     1     -32.558 -35.785  16.508  1.00  0.00     0.000 C 
BRANCH  14  15
ATOM     15  C   UNL     1     -33.868 -35.837  15.708  1.00  0.00     0.000 C 
BRANCH  15  16
ATOM     16  C   UNL     1     -34.172 -34.517  14.983  1.00  0.00     0.000 C 
BRANCH  16  17
ATOM     17  C   UNL     1     -34.535 -34.723  13.505  1.00  0.00     0.000 C 
BRANCH  17  18
ATOM     18  C   UNL     1     -33.478 -35.576  12.795  1.00  0.00     0.000 C 
BRANCH  18  19
ATOM     19  C   UNL     1     -32.580 -34.713  11.901  1.00  0.00     0.000 C 
BRANCH  19  20
ATOM     20  C   UNL     1     -31.095 -34.985  12.186  1.00  0.00     0.006 C 
BRANCH  20  21
ATOM     21  C   UNL     1     -30.666 -34.481  13.570  1.00  0.00     0.053 C 
BRANCH  21  22
ATOM     22  C   UNL     1     -29.176 -34.469  13.723  1.00  0.00     0.041 C 
ATOM     23  O   UNL     1     -28.657 -34.327  14.862  1.00  0.00    -0.550 OA
ATOM     24  O   UNL     1     -28.360 -34.588  12.605  1.00  0.00    -0.550 OA
ENDBRANCH  21  22
ENDBRANCH  20  21
ENDBRANCH  19  20
ENDBRANCH  18  19
ENDBRANCH  17  18
ENDBRANCH  16  17
ENDBRANCH  15  16
ENDBRANCH  14  15
ENDBRANCH  13  14
ENDBRANCH   1  13
TORSDOF 20
ENDMDL
MODEL 2
REMARK VINA RESULT:    -1.385     20.565     22.863
REMARK INTER + INTRA:          -7.055
REMARK INTER:                  -2.575
REMARK INTRA:                  -4.480
REMARK UNBOUND:                -4.050
REMARK SMILES CCCCCCCCCCCCCCCCCCCCCC(=O)[O-]
REMARK SMILES IDX 12 1 11 2 10 3 9 4 8 5 7 6 6 7 5 8 4 9 3 10 2 11 1 12 13 13
REMARK SMILES IDX 14 14 15 15 16 16 17 17 18 18 19 19 20 20 21 21 22 22 23 23
REMARK SMILES IDX 24 24
REMARK H PARENT
REMARK Flexibility Score: inf
ROOT
ATOM      1  C   UNL     1     -15.478 -21.775  29.775  1.00  0.00     0.000 C 
ENDROOT
BRANCH   1   2
ATOM      2  C   UNL     1     -16.175 -21.505  31.120  1.00  0.00     0.000 C 
BRANCH   2   3
ATOM      3  C   UNL     1     -16.008 -22.666  32.116  1.00  0.00     0.000 C 
BRANCH   3   4
ATOM      4  C   UNL     1     -14.967 -23.698  31.649  1.00  0.00    -0.000 C 
BRANCH   4   5
ATOM      5  C   UNL     1     -15.498 -25.140  31.696  1.00  0.00    -0.000 C 
BRANCH   5   6
ATOM      6  C   UNL     1     -15.354 -25.821  30.327  1.00  0.00    -0.000 C 
BRANCH   6   7
ATOM      7  C   UNL     1     -16.691 -26.350  29.782  1.00  0.00    -0.000 C 
BRANCH   7   8
ATOM      8  C   UNL     1     -17.886 -25.476  30.201  1.00  0.00    -0.000 C 
BRANCH   8   9
ATOM      9  C   UNL     1     -18.309 -24.475  29.112  1.00  0.00    -0.000 C 
BRANCH   9  10
ATOM     10  C   UNL     1     -19.303 -23.392  29.569  1.00  0.00    -0.000 C 
BRANCH  10  11
ATOM     11  C   UNL     1     -19.492 -23.359  31.093  1.00  0.00    -0.003 C 
ATOM     12  C   UNL     1     -19.852 -21.956  31.572  1.00  0.00     0.004 C 
ENDBRANCH  10  11
ENDBRANCH   9  10
ENDBRANCH   8   9
ENDBRANCH   7   8
ENDBRANCH   6   7
ENDBRANCH   5   6
ENDBRANCH   4   5
ENDBRANCH   3   4
ENDBRANCH   2   3
ENDBRANCH   1   2
BRANCH   1  13
ATOM     13  C   UNL     1     -16.340 -21.376  28.569  1.00  0.00     0.000 C 
BRANCH  13  14
ATOM     14  C   UNL     1     -15.833 -22.045  27.285  1.00  0.00     0.000 C 
BRANCH  14  15
ATOM     15  C   UNL     1     -15.178 -23.400  27.592  1.00  0.00     0.000 C 
BRANCH  15  16
ATOM     16  C   UNL     1     -15.000 -24.271  26.339  1.00  0.00     0.000 C 
BRANCH  16  17
ATOM     17  C   UNL     1     -15.906 -25.511  26.345  1.00  0.00     0.000 C 
BRANCH  17  18
ATOM     18  C   UNL     1     -17.252 -25.209  25.677  1.00  0.00     0.000 C 
BRANCH  18  19
ATOM     19  C   UNL     1     -17.071 -24.316  24.445  1.00  0.00     0.000 C 
BRANCH  19  20
ATOM     20  C   UNL     1     -17.952 -23.061  24.539  1.00  0.00     0.006 C 
BRANCH  20  21
ATOM     21  C   UNL     1     -18.994 -23.165  25.659  1.00  0.00     0.053 C 
BRANCH  21  22
ATOM     22  C   UNL     1     -20.393 -23.057  25.134  1.00  0.00     0.041 C 
ATOM     23  O   UNL     1     -21.083 -22.031  25.373  1.00  0.00    -0.550 OA
ATOM     24  O   UNL     1     -20.944 -24.101  24.402  1.00  0.00    -0.550 OA
ENDBRANCH  21  22
ENDBRANCH  20  21
ENDBRANCH  19  20
ENDBRANCH  18  19
ENDBRANCH  17  18
ENDBRANCH  16  17
ENDBRANCH  15  16
ENDBRANCH  14  15
ENDBRANCH  13  14
ENDBRANCH   1  13
TORSDOF 20
ENDMDL
MODEL 3
REMARK VINA RESULT:    -1.384     20.198     22.764
REMARK INTER + INTRA:          -7.053
REMARK INTER:                  -2.669
REMARK INTRA:                  -4.384
REMARK UNBOUND:                -4.050
REMARK SMILES CCCCCCCCCCCCCCCCCCCCCC(=O)[O-]
REMARK SMILES IDX 12 1 11 2 10 3 9 4 8 5 7 6 6 7 5 8 4 9 3 10 2 11 1 12 13 13
REMARK SMILES IDX 14 14 15 15 16 16 17 17 18 18 19 19 20 20 21 21 22 22 23 23
REMARK SMILES IDX 24 24
REMARK H PARENT
REMARK Flexibility Score: inf
ROOT
ATOM      1  C   UNL     1     -16.458 -22.791  28.089  1.00  0.00     0.000 C 
ENDROOT
BRANCH   1   2
ATOM      2  C   UNL     1     -16.341 -24.325  28.078  1.00  0.00     0.000 C 
BRANCH   2   3
ATOM      3  C   UNL     1     -17.578 -25.007  27.468  1.00  0.00     0.000 C 
BRANCH   3   4
ATOM      4  C   UNL     1     -18.611 -25.416  28.533  1.00  0.00    -0.000 C 
BRANCH   4   5
ATOM      5  C   UNL     1     -18.164 -26.634  29.356  1.00  0.00    -0.000 C 
BRANCH   5   6
ATOM      6  C   UNL     1     -18.644 -26.517  30.811  1.00  0.00    -0.000 C 
BRANCH   6   7
ATOM      7  C   UNL     1     -19.297 -25.158  31.114  1.00  0.00    -0.000 C 
BRANCH   7   8
ATOM      8  C   UNL     1     -20.622 -25.297  31.882  1.00  0.00    -0.000 C 
BRANCH   8   9
ATOM      9  C   UNL     1     -21.776 -25.811  31.002  1.00  0.00    -0.000 C 
BRANCH   9  10
ATOM     10  C   UNL     1     -22.062 -24.971  29.744  1.00  0.00    -0.000 C 
BRANCH  10  11
ATOM     11  C   UNL     1     -22.487 -25.824  28.539  1.00  0.00    -0.003 C 
ATOM     12  C   UNL     1     -21.830 -27.201  28.582  1.00  0.00     0.004 C 
ENDBRANCH  10  11
ENDBRANCH   9  10
ENDBRANCH   8   9
ENDBRANCH   7   8
ENDBRANCH   6   7
ENDBRANCH   5   6
ENDBRANCH   4   5
ENDBRANCH   3   4
ENDBRANCH   2   3
ENDBRANCH   1   2
BRANCH   1  13
ATOM     13  C   UNL     1     -16.060 -22.176  29.440  1.00  0.00     0.000 C 
BRANCH  13  14
ATOM     14  C   UNL     1     -16.171 -23.210  30.568  1.00  0.00     0.000 C 
BRANCH  14  15
ATOM     15  C   UNL     1     -16.809 -22.591  31.821  1.00  0.00     0.000 C 
BRANCH  15  16
ATOM     16  C   UNL     1     -16.795 -21.054  31.795  1.00  0.00     0.000 C 
BRANCH  16  17
ATOM     17  C   UNL     1     -18.194 -20.446  31.975  1.00  0.00     0.000 C 
BRANCH  17  18
ATOM     18  C   UNL     1     -19.281 -21.511  31.797  1.00  0.00     0.000 C 
BRANCH  18  19
ATOM     19  C   UNL     1     -20.158 -21.207  30.576  1.00  0.00     0.000 C 
BRANCH  19  20
ATOM     20  C   UNL     1     -19.793 -22.119  29.395  1.00  0.00     0.006 C 
BRANCH  20  21
ATOM     21  C   UNL     1     -20.079 -21.459  28.040  1.00  0.00     0.053 C 
BRANCH  21  22
ATOM     22  C   UNL     1     -21.497 -21.672  27.603  1.00  0.00     0.041 C 
ATOM     23  O   UNL     1     -21.814 -22.707  26.960  1.00  0.00    -0.550 OA
ATOM     24  O   UNL     1     -22.463 -20.714  27.884  1.00  0.00    -0.550 OA
ENDBRANCH  21  22
ENDBRANCH  20  21
ENDBRANCH  19  20
ENDBRANCH  18  19
ENDBRANCH  17  18
ENDBRANCH  16  17
ENDBRANCH  15  16
ENDBRANCH  14  15
ENDBRANCH  13  14
ENDBRANCH   1  13
TORSDOF 20
ENDMDL
MODEL 4
REMARK VINA RESULT:    -1.352     20.687     22.962
REMARK INTER + INTRA:          -6.983
REMARK INTER:                  -3.005
REMARK INTRA:                  -3.978
REMARK UNBOUND:                -4.050
REMARK SMILES CCCCCCCCCCCCCCCCCCCCCC(=O)[O-]
REMARK SMILES IDX 12 1 11 2 10 3 9 4 8 5 7 6 6 7 5 8 4 9 3 10 2 11 1 12 13 13
REMARK SMILES IDX 14 14 15 15 16 16 17 17 18 18 19 19 20 20 21 21 22 22 23 23
REMARK SMILES IDX 24 24
REMARK H PARENT
REMARK Flexibility Score: inf
ROOT
ATOM      1  C   UNL     1     -16.033 -21.518  30.539  1.00  0.00     0.000 C 
ENDROOT
BRANCH   1   2
ATOM      2  C   UNL     1     -15.316 -22.877  30.461  1.00  0.00     0.000 C 
BRANCH   2   3
ATOM      3  C   UNL     1     -15.784 -23.856  31.551  1.00  0.00     0.000 C 
BRANCH   3   4
ATOM      4  C   UNL     1     -16.070 -25.263  30.997  1.00  0.00    -0.000 C 
BRANCH   4   5
ATOM      5  C   UNL     1     -17.570 -25.589  30.949  1.00  0.00    -0.000 C 
BRANCH   5   6
ATOM      6  C   UNL     1     -18.274 -24.770  29.856  1.00  0.00    -0.000 C 
BRANCH   6   7
ATOM      7  C   UNL     1     -17.792 -25.129  28.441  1.00  0.00    -0.000 C 
BRANCH   7   8
ATOM      8  C   UNL     1     -18.030 -23.994  27.431  1.00  0.00    -0.000 C 
BRANCH   8   9
ATOM      9  C   UNL     1     -18.614 -22.726  28.079  1.00  0.00    -0.000 C 
BRANCH   9  10
ATOM     10  C   UNL     1     -18.223 -21.403  27.396  1.00  0.00    -0.000 C 
BRANCH  10  11
ATOM     11  C   UNL     1     -16.868 -21.479  26.677  1.00  0.00    -0.003 C 
ATOM     12  C   UNL     1     -15.966 -20.317  27.080  1.00  0.00     0.004 C 
ENDBRANCH  10  11
ENDBRANCH   9  10
ENDBRANCH   8   9
ENDBRANCH   7   8
ENDBRANCH   6   7
ENDBRANCH   5   6
ENDBRANCH   4   5
ENDBRANCH   3   4
ENDBRANCH   2   3
ENDBRANCH   1   2
BRANCH   1  13
ATOM     13  C   UNL     1     -16.394 -21.120  31.979  1.00  0.00     0.000 C 
BRANCH  13  14
ATOM     14  C   UNL     1     -17.815 -20.548  32.051  1.00  0.00     0.000 C 
BRANCH  14  15
ATOM     15  C   UNL     1     -18.859 -21.624  31.717  1.00  0.00     0.000 C 
BRANCH  15  16
ATOM     16  C   UNL     1     -20.084 -21.054  30.984  1.00  0.00     0.000 C 
BRANCH  16  17
ATOM     17  C   UNL     1     -21.236 -22.065  30.880  1.00  0.00     0.000 C 
BRANCH  17  18
ATOM     18  C   UNL     1     -20.962 -23.299  31.747  1.00  0.00     0.000 C 
BRANCH  18  19
ATOM     19  C   UNL     1     -22.209 -24.184  31.859  1.00  0.00     0.000 C 
BRANCH  19  20
ATOM     20  C   UNL     1     -22.766 -24.531  30.470  1.00  0.00     0.006 C 
BRANCH  20  21
ATOM     21  C   UNL     1     -21.882 -25.538  29.724  1.00  0.00     0.053 C 
BRANCH  21  22
ATOM     22  C   UNL     1     -21.645 -25.128  28.302  1.00  0.00     0.041 C 
ATOM     23  O   UNL     1     -21.912 -23.957  27.926  1.00  0.00    -0.550 OA
ATOM     24  O   UNL     1     -21.153 -26.049  27.386  1.00  0.00    -0.550 OA
ENDBRANCH  21  22
ENDBRANCH  20  21
ENDBRANCH  19  20
ENDBRANCH  18  19
ENDBRANCH  17  18
ENDBRANCH  16  17
ENDBRANCH  15  16
ENDBRANCH  14  15
ENDBRANCH  13  14
ENDBRANCH   1  13
TORSDOF 20
ENDMDL
MODEL 5
REMARK VINA RESULT:    -1.347      2.994      5.736
REMARK INTER + INTRA:          -6.972
REMARK INTER:                  -2.847
REMARK INTRA:                  -4.124
REMARK UNBOUND:                -4.050
REMARK SMILES CCCCCCCCCCCCCCCCCCCCCC(=O)[O-]
REMARK SMILES IDX 12 1 11 2 10 3 9 4 8 5 7 6 6 7 5 8 4 9 3 10 2 11 1 12 13 13
REMARK SMILES IDX 14 14 15 15 16 16 17 17 18 18 19 19 20 20 21 21 22 22 23 23
REMARK SMILES IDX 24 24
REMARK H PARENT
REMARK Flexibility Score: inf
ROOT
ATOM      1  C   UNL     1     -31.474 -32.209  15.844  1.00  0.00     0.000 C 
ENDROOT
BRANCH   1   2
ATOM      2  C   UNL     1     -32.766 -32.270  15.012  1.00  0.00     0.000 C 
BRANCH   2   3
ATOM      3  C   UNL     1     -34.031 -32.093  15.870  1.00  0.00     0.000 C 
BRANCH   3   4
ATOM      4  C   UNL     1     -34.094 -33.090  17.040  1.00  0.00    -0.000 C 
BRANCH   4   5
ATOM      5  C   UNL     1     -34.762 -34.419  16.653  1.00  0.00    -0.000 C 
BRANCH   5   6
ATOM      6  C   UNL     1     -33.777 -35.589  16.795  1.00  0.00    -0.000 C 
BRANCH   6   7
ATOM      7  C   UNL     1     -33.292 -36.125  15.437  1.00  0.00    -0.000 C 
BRANCH   7   8
ATOM      8  C   UNL     1     -34.235 -35.745  14.282  1.00  0.00    -0.000 C 
BRANCH   8   9
ATOM      9  C   UNL     1     -33.553 -35.813  12.904  1.00  0.00    -0.000 C 
BRANCH   9  10
ATOM     10  C   UNL     1     -32.052 -35.473  12.899  1.00  0.00    -0.000 C 
BRANCH  10  11
ATOM     11  C   UNL     1     -31.718 -34.252  12.030  1.00  0.00    -0.003 C 
ATOM     12  C   UNL     1     -30.209 -34.084  11.876  1.00  0.00     0.004 C 
ENDBRANCH  10  11
ENDBRANCH   9  10
ENDBRANCH   8   9
ENDBRANCH   7   8
ENDBRANCH   6   7
ENDBRANCH   5   6
ENDBRANCH   4   5
ENDBRANCH   3   4
ENDBRANCH   2   3
ENDBRANCH   1   2
BRANCH   1  13
ATOM     13  C   UNL     1     -30.234 -32.642  15.048  1.00  0.00     0.000 C 
BRANCH  13  14
ATOM     14  C   UNL     1     -29.591 -33.889  15.667  1.00  0.00     0.000 C 
BRANCH  14  15
ATOM     15  C   UNL     1     -30.240 -34.231  17.016  1.00  0.00     0.000 C 
BRANCH  15  16
ATOM     16  C   UNL     1     -30.116 -35.721  17.373  1.00  0.00     0.000 C 
BRANCH  16  17
ATOM     17  C   UNL     1     -30.691 -36.048  18.759  1.00  0.00     0.000 C 
BRANCH  17  18
ATOM     18  C   UNL     1     -30.915 -34.770  19.575  1.00  0.00     0.000 C 
BRANCH  18  19
ATOM     19  C   UNL     1     -32.366 -34.671  20.062  1.00  0.00     0.000 C 
BRANCH  19  20
ATOM     20  C   UNL     1     -32.739 -33.218  20.392  1.00  0.00     0.006 C 
BRANCH  20  21
ATOM     21  C   UNL     1     -31.704 -32.217  19.862  1.00  0.00     0.053 C 
BRANCH  21  22
ATOM     22  C   UNL     1     -31.202 -31.308  20.942  1.00  0.00     0.041 C 
ATOM     23  O   UNL     1     -31.996 -30.842  21.800  1.00  0.00    -0.550 OA
ATOM     24  O   UNL     1     -29.859 -30.954  20.984  1.00  0.00    -0.550 OA
ENDBRANCH  21  22
ENDBRANCH  20  21
ENDBRANCH  19  20
ENDBRANCH  18  19
ENDBRANCH  17  18
ENDBRANCH  16  17
ENDBRANCH  15  16
ENDBRANCH  14  15
ENDBRANCH  13  14
ENDBRANCH   1  13
TORSDOF 20
ENDMDL
MODEL 6
REMARK VINA RESULT:    -1.345     20.953     23.389
REMARK INTER + INTRA:          -6.967
REMARK INTER:                  -2.996
REMARK INTRA:                  -3.971
REMARK UNBOUND:                -4.050
REMARK SMILES CCCCCCCCCCCCCCCCCCCCCC(=O)[O-]
REMARK SMILES IDX 12 1 11 2 10 3 9 4 8 5 7 6 6 7 5 8 4 9 3 10 2 11 1 12 13 13
REMARK SMILES IDX 14 14 15 15 16 16 17 17 18 18 19 19 20 20 21 21 22 22 23 23
REMARK SMILES IDX 24 24
REMARK H PARENT
REMARK Flexibility Score: inf
ROOT
ATOM      1  C   UNL     1     -17.247 -23.453  27.346  1.00  0.00     0.000 C 
ENDROOT
BRANCH   1   2
ATOM      2  C   UNL     1     -16.029 -22.537  27.556  1.00  0.00     0.000 C 
BRANCH   2   3
ATOM      3  C   UNL     1     -16.306 -21.406  28.561  1.00  0.00     0.000 C 
BRANCH   3   4
ATOM      4  C   UNL     1     -15.526 -21.581  29.876  1.00  0.00    -0.000 C 
BRANCH   4   5
ATOM      5  C   UNL     1     -16.427 -21.489  31.118  1.00  0.00    -0.000 C 
BRANCH   5   6
ATOM      6  C   UNL     1     -16.347 -22.779  31.948  1.00  0.00    -0.000 C 
BRANCH   6   7
ATOM      7  C   UNL     1     -17.285 -23.881  31.426  1.00  0.00    -0.000 C 
BRANCH   7   8
ATOM      8  C   UNL     1     -16.531 -24.990  30.673  1.00  0.00    -0.000 C 
BRANCH   8   9
ATOM      9  C   UNL     1     -17.462 -26.093  30.139  1.00  0.00    -0.000 C 
BRANCH   9  10
ATOM     10  C   UNL     1     -16.938 -26.851  28.906  1.00  0.00    -0.000 C 
BRANCH  10  11
ATOM     11  C   UNL     1     -18.042 -27.609  28.156  1.00  0.00    -0.003 C 
ATOM     12  C   UNL     1     -18.280 -27.006  26.774  1.00  0.00     0.004 C 
ENDBRANCH  10  11
ENDBRANCH   9  10
ENDBRANCH   8   9
ENDBRANCH   7   8
ENDBRANCH   6   7
ENDBRANCH   5   6
ENDBRANCH   4   5
ENDBRANCH   3   4
ENDBRANCH   2   3
ENDBRANCH   1   2
BRANCH   1  13
ATOM     13  C   UNL     1     -18.486 -22.980  28.122  1.00  0.00     0.000 C 
BRANCH  13  14
ATOM     14  C   UNL     1     -19.738 -23.746  27.679  1.00  0.00     0.000 C 
BRANCH  14  15
ATOM     15  C   UNL     1     -20.445 -24.388  28.882  1.00  0.00     0.000 C 
BRANCH  15  16
ATOM     16  C   UNL     1     -21.886 -23.885  29.061  1.00  0.00     0.000 C 
BRANCH  16  17
ATOM     17  C   UNL     1     -22.066 -23.043  30.333  1.00  0.00     0.000 C 
BRANCH  17  18
ATOM     18  C   UNL     1     -21.161 -23.552  31.460  1.00  0.00     0.000 C 
BRANCH  18  19
ATOM     19  C   UNL     1     -20.399 -22.398  32.122  1.00  0.00     0.000 C 
BRANCH  19  20
ATOM     20  C   UNL     1     -20.112 -21.276  31.113  1.00  0.00     0.006 C 
BRANCH  20  21
ATOM     21  C   UNL     1     -20.246 -19.882  31.739  1.00  0.00     0.053 C 
BRANCH  21  22
ATOM     22  C   UNL     1     -21.421 -19.132  31.188  1.00  0.00     0.041 C 
ATOM     23  O   UNL     1     -21.797 -19.326  30.002  1.00  0.00    -0.550 OA
ATOM     24  O   UNL     1     -22.083 -18.200  31.977  1.00  0.00    -0.550 OA
ENDBRANCH  21  22
ENDBRANCH  20  21
ENDBRANCH  19  20
ENDBRANCH  18  19
ENDBRANCH  17  18
ENDBRANCH  16  17
ENDBRANCH  15  16
ENDBRANCH  14  15
ENDBRANCH  13  14
ENDBRANCH   1  13
TORSDOF 20
ENDMDL
MODEL 7
REMARK VINA RESULT:    -1.344     19.980     22.232
REMARK INTER + INTRA:          -6.966
REMARK INTER:                  -2.520
REMARK INTRA:                  -4.447
REMARK UNBOUND:                -4.050
REMARK SMILES CCCCCCCCCCCCCCCCCCCCCC(=O)[O-]
REMARK SMILES IDX 12 1 11 2 10 3 9 4 8 5 7 6 6 7 5 8 4 9 3 10 2 11 1 12 13 13
REMARK SMILES IDX 14 14 15 15 16 16 17 17 18 18 19 19 20 20 21 21 22 22 23 23
REMARK SMILES IDX 24 24
REMARK H PARENT
REMARK Flexibility Score: inf
ROOT
ATOM      1  C   UNL     1     -16.832 -23.162  28.364  1.00  0.00     0.000 C 
ENDROOT
BRANCH   1   2
ATOM      2  C   UNL     1     -15.339 -23.351  28.682  1.00  0.00     0.000 C 
BRANCH   2   3
ATOM      3  C   UNL     1     -14.945 -22.753  30.043  1.00  0.00     0.000 C 
BRANCH   3   4
ATOM      4  C   UNL     1     -15.427 -23.610  31.226  1.00  0.00    -0.000 C 
BRANCH   4   5
ATOM      5  C   UNL     1     -16.444 -22.877  32.115  1.00  0.00    -0.000 C 
BRANCH   5   6
ATOM      6  C   UNL     1     -16.423 -21.365  31.839  1.00  0.00    -0.000 C 
BRANCH   6   7
ATOM      7  C   UNL     1     -17.821 -20.796  31.541  1.00  0.00    -0.000 C 
BRANCH   7   8
ATOM      8  C   UNL     1     -18.933 -21.846  31.706  1.00  0.00    -0.000 C 
BRANCH   8   9
ATOM      9  C   UNL     1     -20.199 -21.513  30.896  1.00  0.00    -0.000 C 
BRANCH   9  10
ATOM     10  C   UNL     1     -20.026 -21.556  29.367  1.00  0.00    -0.000 C 
BRANCH  10  11
ATOM     11  C   UNL     1     -21.170 -22.294  28.657  1.00  0.00    -0.003 C 
ATOM     12  C   UNL     1     -20.781 -22.664  27.228  1.00  0.00     0.004 C 
ENDBRANCH  10  11
ENDBRANCH   9  10
ENDBRANCH   8   9
ENDBRANCH   7   8
ENDBRANCH   6   7
ENDBRANCH   5   6
ENDBRANCH   4   5
ENDBRANCH   3   4
ENDBRANCH   2   3
ENDBRANCH   1   2
BRANCH   1  13
ATOM     13  C   UNL     1     -17.381 -24.250  27.428  1.00  0.00     0.000 C 
BRANCH  13  14
ATOM     14  C   UNL     1     -18.150 -25.317  28.217  1.00  0.00     0.000 C 
BRANCH  14  15
ATOM     15  C   UNL     1     -18.525 -24.804  29.616  1.00  0.00     0.000 C 
BRANCH  15  16
ATOM     16  C   UNL     1     -19.026 -25.922  30.543  1.00  0.00     0.000 C 
BRANCH  16  17
ATOM     17  C   UNL     1     -20.006 -25.413  31.610  1.00  0.00     0.000 C 
BRANCH  17  18
ATOM     18  C   UNL     1     -21.367 -25.081  30.990  1.00  0.00     0.000 C 
BRANCH  18  19
ATOM     19  C   UNL     1     -21.932 -26.280  30.219  1.00  0.00     0.000 C 
BRANCH  19  20
ATOM     20  C   UNL     1     -22.512 -25.842  28.866  1.00  0.00     0.006 C 
BRANCH  20  21
ATOM     21  C   UNL     1     -21.623 -26.262  27.688  1.00  0.00     0.053 C 
BRANCH  21  22
ATOM     22  C   UNL     1     -21.375 -27.740  27.674  1.00  0.00     0.041 C 
ATOM     23  O   UNL     1     -20.211 -28.190  27.842  1.00  0.00    -0.550 OA
ATOM     24  O   UNL     1     -22.427 -28.619  27.450  1.00  0.00    -0.550 OA
ENDBRANCH  21  22
ENDBRANCH  20  21
ENDBRANCH  19  20
ENDBRANCH  18  19
ENDBRANCH  17  18
ENDBRANCH  16  17
ENDBRANCH  15  16
ENDBRANCH  14  15
ENDBRANCH  13  14
ENDBRANCH   1  13
TORSDOF 20
ENDMDL
MODEL 8
REMARK VINA RESULT:    -1.269     20.720     23.184
REMARK INTER + INTRA:          -6.803
REMARK INTER:                  -3.115
REMARK INTRA:                  -3.688
REMARK UNBOUND:                -4.050
REMARK SMILES CCCCCCCCCCCCCCCCCCCCCC(=O)[O-]
REMARK SMILES IDX 12 1 11 2 10 3 9 4 8 5 7 6 6 7 5 8 4 9 3 10 2 11 1 12 13 13
REMARK SMILES IDX 14 14 15 15 16 16 17 17 18 18 19 19 20 20 21 21 22 22 23 23
REMARK SMILES IDX 24 24
REMARK H PARENT
REMARK Flexibility Score: inf
ROOT
ATOM      1  C   UNL     1     -19.265 -23.123  27.992  1.00  0.00     0.000 C 
ENDROOT
BRANCH   1   2
ATOM      2  C   UNL     1     -18.088 -24.112  28.055  1.00  0.00     0.000 C 
BRANCH   2   3
ATOM      3  C   UNL     1     -18.197 -25.086  29.240  1.00  0.00     0.000 C 
BRANCH   3   4
ATOM      4  C   UNL     1     -19.235 -26.196  28.998  1.00  0.00    -0.000 C 
BRANCH   4   5
ATOM      5  C   UNL     1     -20.455 -26.080  29.925  1.00  0.00    -0.000 C 
BRANCH   5   6
ATOM      6  C   UNL     1     -20.069 -25.425  31.260  1.00  0.00    -0.000 C 
BRANCH   6   7
ATOM      7  C   UNL     1     -21.291 -25.069  32.122  1.00  0.00    -0.000 C 
BRANCH   7   8
ATOM      8  C   UNL     1     -22.621 -25.437  31.442  1.00  0.00    -0.000 C 
BRANCH   8   9
ATOM      9  C   UNL     1     -23.599 -24.251  31.354  1.00  0.00    -0.000 C 
BRANCH   9  10
ATOM     10  C   UNL     1     -23.406 -23.334  30.133  1.00  0.00    -0.000 C 
BRANCH  10  11
ATOM     11  C   UNL     1     -23.527 -21.843  30.480  1.00  0.00    -0.003 C 
ATOM     12  C   UNL     1     -23.134 -21.584  31.932  1.00  0.00     0.004 C 
ENDBRANCH  10  11
ENDBRANCH   9  10
ENDBRANCH   8   9
ENDBRANCH   7   8
ENDBRANCH   6   7
ENDBRANCH   5   6
ENDBRANCH   4   5
ENDBRANCH   3   4
ENDBRANCH   2   3
ENDBRANCH   1   2
BRANCH   1  13
ATOM     13  C   UNL     1     -19.038 -21.874  28.856  1.00  0.00     0.000 C 
BRANCH  13  14
ATOM     14  C   UNL     1     -19.938 -21.893  30.098  1.00  0.00     0.000 C 
BRANCH  14  15
ATOM     15  C   UNL     1     -19.100 -21.888  31.385  1.00  0.00     0.000 C 
BRANCH  15  16
ATOM     16  C   UNL     1     -17.757 -21.160  31.216  1.00  0.00     0.000 C 
BRANCH  16  17
ATOM     17  C   UNL     1     -16.557 -22.032  31.612  1.00  0.00     0.000 C 
BRANCH  17  18
ATOM     18  C   UNL     1     -15.624 -22.256  30.417  1.00  0.00     0.000 C 
BRANCH  18  19
ATOM     19  C   UNL     1     -15.013 -23.662  30.447  1.00  0.00     0.000 C 
BRANCH  19  20
ATOM     20  C   UNL     1     -15.616 -24.501  31.585  1.00  0.00     0.006 C 
BRANCH  20  21
ATOM     21  C   UNL     1     -14.875 -25.828  31.784  1.00  0.00     0.053 C 
BRANCH  21  22
ATOM     22  C   UNL     1     -15.534 -26.953  31.045  1.00  0.00     0.041 C 
ATOM     23  O   UNL     1     -15.305 -27.127  29.819  1.00  0.00    -0.550 OA
ATOM     24  O   UNL     1     -16.422 -27.793  31.705  1.00  0.00    -0.550 OA
ENDBRANCH  21  22
ENDBRANCH  20  21
ENDBRANCH  19  20
ENDBRANCH  18  19
ENDBRANCH  17  18
ENDBRANCH  16  17
ENDBRANCH  15  16
ENDBRANCH  14  15
ENDBRANCH  13  14
ENDBRANCH   1  13
TORSDOF 20
ENDMDL
MODEL 9
REMARK VINA RESULT:    -0.576      2.448      4.870
REMARK INTER + INTRA:          -5.300
REMARK INTER:                  -1.469
REMARK INTRA:                  -3.830
REMARK UNBOUND:                -4.050
REMARK SMILES CCCCCCCCCCCCCCCCCCCCCC(=O)[O-]
REMARK SMILES IDX 12 1 11 2 10 3 9 4 8 5 7 6 6 7 5 8 4 9 3 10 2 11 1 12 13 13
REMARK SMILES IDX 14 14 15 15 16 16 17 17 18 18 19 19 20 20 21 21 22 22 23 23
REMARK SMILES IDX 24 24
REMARK H PARENT
REMARK Flexibility Score: inf
ROOT
ATOM      1  C   UNL     1     -29.816 -33.096  13.952  1.00  0.00     0.000 C 
ENDROOT
BRANCH   1   2
ATOM      2  C   UNL     1     -30.384 -32.978  15.377  1.00  0.00     0.000 C 
BRANCH   2   3
ATOM      3  C   UNL     1     -30.037 -34.192  16.254  1.00  0.00     0.000 C 
BRANCH   3   4
ATOM      4  C   UNL     1     -31.098 -35.303  16.172  1.00  0.00    -0.000 C 
BRANCH   4   5
ATOM      5  C   UNL     1     -31.592 -35.757  17.554  1.00  0.00    -0.000 C 
BRANCH   5   6
ATOM      6  C   UNL     1     -32.885 -35.024  17.942  1.00  0.00    -0.000 C 
BRANCH   6   7
ATOM      7  C   UNL     1     -32.620 -33.685  18.650  1.00  0.00    -0.000 C 
BRANCH   7   8
ATOM      8  C   UNL     1     -33.096 -32.477  17.825  1.00  0.00    -0.000 C 
BRANCH   8   9
ATOM      9  C   UNL     1     -32.695 -31.128  18.449  1.00  0.00    -0.000 C 
BRANCH   9  10
ATOM     10  C   UNL     1     -31.183 -30.932  18.665  1.00  0.00    -0.000 C 
BRANCH  10  11
ATOM     11  C   UNL     1     -30.650 -29.641  18.027  1.00  0.00    -0.003 C 
ATOM     12  C   UNL     1     -31.399 -29.316  16.738  1.00  0.00     0.004 C 
ENDBRANCH  10  11
ENDBRANCH   9  10
ENDBRANCH   8   9
ENDBRANCH   7   8
ENDBRANCH   6   7
ENDBRANCH   5   6
ENDBRANCH   4   5
ENDBRANCH   3   4
ENDBRANCH   2   3
ENDBRANCH   1   2
BRANCH   1  13
ATOM     13  C   UNL     1     -30.761 -32.519  12.887  1.00  0.00     0.000 C 
BRANCH  13  14
ATOM     14  C   UNL     1     -31.404 -33.639  12.058  1.00  0.00     0.000 C 
BRANCH  14  15
ATOM     15  C   UNL     1     -30.653 -34.966  12.251  1.00  0.00     0.000 C 
BRANCH  15  16
ATOM     16  C   UNL     1     -31.586 -36.123  12.642  1.00  0.00     0.000 C 
BRANCH  16  17
ATOM     17  C   UNL     1     -33.072 -35.746  12.543  1.00  0.00     0.000 C 
BRANCH  17  18
ATOM     18  C   UNL     1     -33.819 -36.125  13.826  1.00  0.00     0.000 C 
BRANCH  18  19
ATOM     19  C   UNL     1     -34.759 -34.998  14.272  1.00  0.00     0.000 C 
BRANCH  19  20
ATOM     20  C   UNL     1     -33.984 -33.691  14.496  1.00  0.00     0.006 C 
BRANCH  20  21
ATOM     21  C   UNL     1     -34.905 -32.465  14.514  1.00  0.00     0.053 C 
BRANCH  21  22
ATOM     22  C   UNL     1     -34.339 -31.328  13.720  1.00  0.00     0.041 C 
ATOM     23  O   UNL     1     -34.820 -31.039  12.592  1.00  0.00    -0.550 OA
ATOM     24  O   UNL     1     -33.261 -30.603  14.213  1.00  0.00    -0.550 OA
ENDBRANCH  21  22
ENDBRANCH  20  21
ENDBRANCH  19  20
ENDBRANCH  18  19
ENDBRANCH  17  18
ENDBRANCH  16  17
ENDBRANCH  15  16
ENDBRANCH  14  15
ENDBRANCH  13  14
ENDBRANCH   1  13
TORSDOF 20
ENDMDL
