MODEL 1
REMARK VINA RESULT:    -4.060      0.000      0.000
REMARK INTER + INTRA:          -9.229
REMARK INTER:                  -7.145
REMARK INTRA:                  -2.084
REMARK UNBOUND:                -2.084
REMARK SMILES CCCCCCCCCCCCCCC(=O)[O-]
REMARK SMILES IDX 9 1 10 2 11 3 12 4 13 5 14 6 15 7 16 8 17 9 8 10 7 11 6 12
REMARK SMILES IDX 5 13 4 14 3 15 2 16 1 17
REMARK H PARENT
REMARK Flexibility Score: inf
ROOT
ATOM      1  C   UNL     1      20.999  -6.148  43.157  1.00  0.00     0.000 C 
ENDROOT
BRANCH   1   2
ATOM      2  C   UNL     1      19.928  -5.192  42.612  1.00  0.00     0.000 C 
BRANCH   2   3
ATOM      3  C   UNL     1      20.012  -3.782  43.227  1.00  0.00     0.000 C 
BRANCH   3   4
ATOM      4  C   UNL     1      20.162  -3.748  44.759  1.00  0.00     0.000 C 
BRANCH   4   5
ATOM      5  C   UNL     1      21.307  -2.840  45.228  1.00  0.00     0.006 C 
BRANCH   5   6
ATOM      6  C   UNL     1      22.020  -2.197  44.034  1.00  0.00     0.053 C 
BRANCH   6   7
ATOM      7  C   UNL     1      22.697  -0.929  44.447  1.00  0.00     0.041 C 
ATOM      8  O   UNL     1      23.580  -0.945  45.346  1.00  0.00    -0.550 OA
ATOM      9  O   UNL     1      22.318   0.279  43.876  1.00  0.00    -0.550 OA
ENDBRANCH   6   7
ENDBRANCH   5   6
ENDBRANCH   4   5
ENDBRANCH   3   4
ENDBRANCH   2   3
ENDBRANCH   1   2
BRANCH   1  10
ATOM     10  C   UNL     1      20.368  -7.471  43.618  1.00  0.00     0.000 C 
BRANCH  10  11
ATOM     11  C   UNL     1      18.880  -7.326  43.975  1.00  0.00    -0.000 C 
BRANCH  11  12
ATOM     12  C   UNL     1      18.657  -6.974  45.454  1.00  0.00    -0.000 C 
BRANCH  12  13
ATOM     13  C   UNL     1      19.916  -7.258  46.281  1.00  0.00    -0.000 C 
BRANCH  13  14
ATOM     14  C   UNL     1      20.029  -6.284  47.463  1.00  0.00    -0.000 C 
BRANCH  14  15
ATOM     15  C   UNL     1      21.477  -5.843  47.730  1.00  0.00    -0.000 C 
BRANCH  15  16
ATOM     16  C   UNL     1      22.505  -6.693  46.972  1.00  0.00    -0.003 C 
ATOM     17  C   UNL     1      23.307  -5.841  45.991  1.00  0.00     0.004 C 
ENDBRANCH  15  16
ENDBRANCH  14  15
ENDBRANCH  13  14
ENDBRANCH  12  13
ENDBRANCH  11  12
ENDBRANCH  10  11
ENDBRANCH   1  10
TORSDOF 13
ENDMDL
MODEL 2
REMARK VINA RESULT:    -3.953      1.045      2.271
REMARK INTER + INTRA:          -9.042
REMARK INTER:                  -7.231
REMARK INTRA:                  -1.811
REMARK UNBOUND:                -2.084
REMARK SMILES CCCCCCCCCCCCCCC(=O)[O-]
REMARK SMILES IDX 9 1 10 2 11 3 12 4 13 5 14 6 15 7 16 8 17 9 8 10 7 11 6 12
REMARK SMILES IDX 5 13 4 14 3 15 2 16 1 17
REMARK H PARENT
REMARK Flexibility Score: inf
ROOT
ATOM      1  C   UNL     1      20.041  -4.052  42.951  1.00  0.00     0.000 C 
ENDROOT
BRANCH   1   2
ATOM      2  C   UNL     1      19.531  -3.744  44.367  1.00  0.00     0.000 C 
BRANCH   2   3
ATOM      3  C   UNL     1      20.647  -3.775  45.428  1.00  0.00     0.000 C 
BRANCH   3   4
ATOM      4  C   UNL     1      22.056  -4.065  44.882  1.00  0.00     0.000 C 
BRANCH   4   5
ATOM      5  C   UNL     1      23.108  -3.063  45.379  1.00  0.00     0.006 C 
BRANCH   5   6
ATOM      6  C   UNL     1      23.341  -1.956  44.345  1.00  0.00     0.053 C 
BRANCH   6   7
ATOM      7  C   UNL     1      22.494  -0.762  44.655  1.00  0.00     0.041 C 
ATOM      8  O   UNL     1      22.440   0.203  43.848  1.00  0.00    -0.550 OA
ATOM      9  O   UNL     1      21.804  -0.693  45.859  1.00  0.00    -0.550 OA
ENDBRANCH   6   7
ENDBRANCH   5   6
ENDBRANCH   4   5
ENDBRANCH   3   4
ENDBRANCH   2   3
ENDBRANCH   1   2
BRANCH   1  10
ATOM     10  C   UNL     1      19.627  -5.466  42.515  1.00  0.00     0.000 C 
BRANCH  10  11
ATOM     11  C   UNL     1      20.659  -6.534  42.912  1.00  0.00    -0.000 C 
BRANCH  11  12
ATOM     12  C   UNL     1      20.034  -7.698  43.697  1.00  0.00    -0.000 C 
BRANCH  12  13
ATOM     13  C   UNL     1      18.597  -7.368  44.117  1.00  0.00    -0.000 C 
BRANCH  13  14
ATOM     14  C   UNL     1      18.510  -7.114  45.629  1.00  0.00    -0.000 C 
BRANCH  14  15
ATOM     15  C   UNL     1      19.867  -7.265  46.334  1.00  0.00    -0.000 C 
BRANCH  15  16
ATOM     16  C   UNL     1      19.842  -6.753  47.781  1.00  0.00    -0.003 C 
ATOM     17  C   UNL     1      21.192  -6.160  48.177  1.00  0.00     0.004 C 
ENDBRANCH  15  16
ENDBRANCH  14  15
ENDBRANCH  13  14
ENDBRANCH  12  13
ENDBRANCH  11  12
ENDBRANCH  10  11
ENDBRANCH   1  10
TORSDOF 13
ENDMDL
MODEL 3
REMARK VINA RESULT:    -3.870      2.583      4.116
REMARK INTER + INTRA:          -8.894
REMARK INTER:                  -7.281
REMARK INTRA:                  -1.613
REMARK UNBOUND:                -2.084
REMARK SMILES CCCCCCCCCCCCCCC(=O)[O-]
REMARK SMILES IDX 9 1 10 2 11 3 12 4 13 5 14 6 15 7 16 8 17 9 8 10 7 11 6 12
REMARK SMILES IDX 5 13 4 14 3 15 2 16 1 17
REMARK H PARENT
REMARK Flexibility Score: inf
ROOT
ATOM      1  C   UNL     1      22.847  -6.469  45.747  1.00  0.00     0.000 C 
ENDROOT
BRANCH   1   2
ATOM      2  C   UNL     1      22.172  -7.761  45.267  1.00  0.00     0.000 C 
BRANCH   2   3
ATOM      3  C   UNL     1      21.700  -7.685  43.802  1.00  0.00     0.000 C 
BRANCH   3   4
ATOM      4  C   UNL     1      20.196  -7.934  43.589  1.00  0.00     0.000 C 
BRANCH   4   5
ATOM      5  C   UNL     1      19.367  -6.642  43.614  1.00  0.00     0.006 C 
BRANCH   5   6
ATOM      6  C   UNL     1      20.103  -5.506  42.897  1.00  0.00     0.053 C 
BRANCH   6   7
ATOM      7  C   UNL     1      19.428  -4.196  43.158  1.00  0.00     0.041 C 
ATOM      8  O   UNL     1      19.439  -3.697  44.315  1.00  0.00    -0.550 OA
ATOM      9  O   UNL     1      18.744  -3.550  42.136  1.00  0.00    -0.550 OA
ENDBRANCH   6   7
ENDBRANCH   5   6
ENDBRANCH   4   5
ENDBRANCH   3   4
ENDBRANCH   2   3
ENDBRANCH   1   2
BRANCH   1  10
ATOM     10  C   UNL     1      22.201  -5.963  47.046  1.00  0.00     0.000 C 
BRANCH  10  11
ATOM     11  C   UNL     1      20.719  -5.594  46.866  1.00  0.00    -0.000 C 
BRANCH  11  12
ATOM     12  C   UNL     1      19.778  -6.528  47.643  1.00  0.00    -0.000 C 
BRANCH  12  13
ATOM     13  C   UNL     1      20.570  -7.455  48.573  1.00  0.00    -0.000 C 
BRANCH  13  14
ATOM     14  C   UNL     1      20.159  -7.248  50.038  1.00  0.00    -0.000 C 
BRANCH  14  15
ATOM     15  C   UNL     1      21.323  -7.463  51.017  1.00  0.00    -0.000 C 
BRANCH  15  16
ATOM     16  C   UNL     1      22.617  -6.774  50.559  1.00  0.00    -0.003 C 
ATOM     17  C   UNL     1      22.769  -5.402  51.210  1.00  0.00     0.004 C 
ENDBRANCH  15  16
ENDBRANCH  14  15
ENDBRANCH  13  14
ENDBRANCH  12  13
ENDBRANCH  11  12
ENDBRANCH  10  11
ENDBRANCH   1  10
TORSDOF 13
ENDMDL
MODEL 4
REMARK VINA RESULT:    -3.853      2.833      5.738
REMARK INTER + INTRA:          -8.865
REMARK INTER:                  -7.184
REMARK INTRA:                  -1.680
REMARK UNBOUND:                -2.084
REMARK SMILES CCCCCCCCCCCCCCC(=O)[O-]
REMARK SMILES IDX 9 1 10 2 11 3 12 4 13 5 14 6 15 7 16 8 17 9 8 10 7 11 6 12
REMARK SMILES IDX 5 13 4 14 3 15 2 16 1 17
REMARK H PARENT
REMARK Flexibility Score: inf
ROOT
ATOM      1  C   UNL     1      19.971  -6.145  47.663  1.00  0.00     0.000 C 
ENDROOT
BRANCH   1   2
ATOM      2  C   UNL     1      20.541  -7.332  48.453  1.00  0.00     0.000 C 
BRANCH   2   3
ATOM      3  C   UNL     1      20.197  -7.278  49.953  1.00  0.00     0.000 C 
BRANCH   3   4
ATOM      4  C   UNL     1      21.383  -7.523  50.903  1.00  0.00     0.000 C 
BRANCH   4   5
ATOM      5  C   UNL     1      22.652  -6.767  50.482  1.00  0.00     0.006 C 
BRANCH   5   6
ATOM      6  C   UNL     1      22.690  -5.371  51.110  1.00  0.00     0.053 C 
BRANCH   6   7
ATOM      7  C   UNL     1      23.498  -4.437  50.265  1.00  0.00     0.041 C 
ATOM      8  O   UNL     1      23.788  -4.746  49.079  1.00  0.00    -0.550 OA
ATOM      9  O   UNL     1      23.975  -3.249  50.803  1.00  0.00    -0.550 OA
ENDBRANCH   6   7
ENDBRANCH   5   6
ENDBRANCH   4   5
ENDBRANCH   3   4
ENDBRANCH   2   3
ENDBRANCH   1   2
BRANCH   1  10
ATOM     10  C   UNL     1      21.095  -5.345  46.989  1.00  0.00     0.000 C 
BRANCH  10  11
ATOM     11  C   UNL     1      20.600  -4.525  45.785  1.00  0.00    -0.000 C 
BRANCH  11  12
ATOM     12  C   UNL     1      21.459  -4.740  44.529  1.00  0.00    -0.000 C 
BRANCH  12  13
ATOM     13  C   UNL     1      21.806  -6.222  44.349  1.00  0.00    -0.000 C 
BRANCH  13  14
ATOM     14  C   UNL     1      20.770  -6.925  43.460  1.00  0.00    -0.000 C 
BRANCH  14  15
ATOM     15  C   UNL     1      19.921  -7.947  44.233  1.00  0.00    -0.000 C 
BRANCH  15  16
ATOM     16  C   UNL     1      18.511  -7.428  44.548  1.00  0.00    -0.003 C 
ATOM     17  C   UNL     1      18.090  -6.347  43.556  1.00  0.00     0.004 C 
ENDBRANCH  15  16
ENDBRANCH  14  15
ENDBRANCH  13  14
ENDBRANCH  12  13
ENDBRANCH  11  12
ENDBRANCH  10  11
ENDBRANCH   1  10
TORSDOF 13
ENDMDL
MODEL 5
REMARK VINA RESULT:    -3.842      3.333      5.502
REMARK INTER + INTRA:          -8.846
REMARK INTER:                  -7.151
REMARK INTRA:                  -1.695
REMARK UNBOUND:                -2.084
REMARK SMILES CCCCCCCCCCCCCCC(=O)[O-]
REMARK SMILES IDX 9 1 10 2 11 3 12 4 13 5 14 6 15 7 16 8 17 9 8 10 7 11 6 12
REMARK SMILES IDX 5 13 4 14 3 15 2 16 1 17
REMARK H PARENT
REMARK Flexibility Score: inf
ROOT
ATOM      1  C   UNL     1      20.056  -7.426  45.463  1.00  0.00     0.000 C 
ENDROOT
BRANCH   1   2
ATOM      2  C   UNL     1      19.165  -6.768  46.526  1.00  0.00     0.000 C 
BRANCH   2   3
ATOM      3  C   UNL     1      19.936  -6.386  47.804  1.00  0.00     0.000 C 
BRANCH   3   4
ATOM      4  C   UNL     1      20.404  -7.576  48.661  1.00  0.00     0.000 C 
BRANCH   4   5
ATOM      5  C   UNL     1      20.474  -7.242  50.159  1.00  0.00     0.006 C 
BRANCH   5   6
ATOM      6  C   UNL     1      21.823  -6.610  50.516  1.00  0.00     0.053 C 
BRANCH   6   7
ATOM      7  C   UNL     1      22.938  -7.577  50.266  1.00  0.00     0.041 C 
ATOM      8  O   UNL     1      23.093  -8.575  51.020  1.00  0.00    -0.550 OA
ATOM      9  O   UNL     1      23.837  -7.349  49.232  1.00  0.00    -0.550 OA
ENDBRANCH   6   7
ENDBRANCH   5   6
ENDBRANCH   4   5
ENDBRANCH   3   4
ENDBRANCH   2   3
ENDBRANCH   1   2
BRANCH   1  10
ATOM     10  C   UNL     1      19.243  -7.777  44.207  1.00  0.00     0.000 C 
BRANCH  10  11
ATOM     11  C   UNL     1      18.450  -6.579  43.660  1.00  0.00    -0.000 C 
BRANCH  11  12
ATOM     12  C   UNL     1      19.352  -5.520  43.008  1.00  0.00    -0.000 C 
BRANCH  12  13
ATOM     13  C   UNL     1      19.019  -4.118  43.532  1.00  0.00    -0.000 C 
BRANCH  13  14
ATOM     14  C   UNL     1      19.933  -3.739  44.707  1.00  0.00    -0.000 C 
BRANCH  14  15
ATOM     15  C   UNL     1      21.425  -3.892  44.371  1.00  0.00    -0.000 C 
BRANCH  15  16
ATOM     16  C   UNL     1      22.268  -4.294  45.589  1.00  0.00    -0.003 C 
ATOM     17  C   UNL     1      23.115  -5.527  45.288  1.00  0.00     0.004 C 
ENDBRANCH  15  16
ENDBRANCH  14  15
ENDBRANCH  13  14
ENDBRANCH  12  13
ENDBRANCH  11  12
ENDBRANCH  10  11
ENDBRANCH   1  10
TORSDOF 13
ENDMDL
MODEL 6
REMARK VINA RESULT:    -3.841      3.050      5.258
REMARK INTER + INTRA:          -8.844
REMARK INTER:                  -7.207
REMARK INTRA:                  -1.636
REMARK UNBOUND:                -2.084
REMARK SMILES CCCCCCCCCCCCCCC(=O)[O-]
REMARK SMILES IDX 9 1 10 2 11 3 12 4 13 5 14 6 15 7 16 8 17 9 8 10 7 11 6 12
REMARK SMILES IDX 5 13 4 14 3 15 2 16 1 17
REMARK H PARENT
REMARK Flexibility Score: inf
ROOT
ATOM      1  C   UNL     1      22.848  -5.063  51.089  1.00  0.00     0.000 C 
ENDROOT
BRANCH   1   2
ATOM      2  C   UNL     1      23.509  -3.916  50.312  1.00  0.00     0.000 C 
BRANCH   2   3
ATOM      3  C   UNL     1      23.034  -2.525  50.774  1.00  0.00     0.000 C 
BRANCH   3   4
ATOM      4  C   UNL     1      23.105  -1.423  49.701  1.00  0.00     0.000 C 
BRANCH   4   5
ATOM      5  C   UNL     1      22.481  -1.850  48.364  1.00  0.00     0.006 C 
BRANCH   5   6
ATOM      6  C   UNL     1      23.504  -1.750  47.228  1.00  0.00     0.053 C 
BRANCH   6   7
ATOM      7  C   UNL     1      22.819  -1.454  45.930  1.00  0.00     0.041 C 
ATOM      8  O   UNL     1      21.721  -2.005  45.653  1.00  0.00    -0.550 OA
ATOM      9  O   UNL     1      23.419  -0.609  45.005  1.00  0.00    -0.550 OA
ENDBRANCH   6   7
ENDBRANCH   5   6
ENDBRANCH   4   5
ENDBRANCH   3   4
ENDBRANCH   2   3
ENDBRANCH   1   2
BRANCH   1  10
ATOM     10  C   UNL     1      23.618  -6.378  50.884  1.00  0.00     0.000 C 
BRANCH  10  11
ATOM     11  C   UNL     1      22.721  -7.516  50.371  1.00  0.00    -0.000 C 
BRANCH  11  12
ATOM     12  C   UNL     1      21.342  -7.534  51.049  1.00  0.00    -0.000 C 
BRANCH  12  13
ATOM     13  C   UNL     1      20.219  -7.407  50.011  1.00  0.00    -0.000 C 
BRANCH  13  14
ATOM     14  C   UNL     1      20.793  -7.166  48.607  1.00  0.00    -0.000 C 
BRANCH  14  15
ATOM     15  C   UNL     1      19.877  -6.296  47.734  1.00  0.00    -0.000 C 
BRANCH  15  16
ATOM     16  C   UNL     1      20.642  -5.190  46.992  1.00  0.00    -0.003 C 
ATOM     17  C   UNL     1      22.149  -5.347  47.176  1.00  0.00     0.004 C 
ENDBRANCH  15  16
ENDBRANCH  14  15
ENDBRANCH  13  14
ENDBRANCH  12  13
ENDBRANCH  11  12
ENDBRANCH  10  11
ENDBRANCH   1  10
TORSDOF 13
ENDMDL
MODEL 7
REMARK VINA RESULT:    -3.820      3.306      5.647
REMARK INTER + INTRA:          -8.807
REMARK INTER:                  -6.665
REMARK INTRA:                  -2.142
REMARK UNBOUND:                -2.084
REMARK SMILES CCCCCCCCCCCCCCC(=O)[O-]
REMARK SMILES IDX 9 1 10 2 11 3 12 4 13 5 14 6 15 7 16 8 17 9 8 10 7 11 6 12
REMARK SMILES IDX 5 13 4 14 3 15 2 16 1 17
REMARK H PARENT
REMARK Flexibility Score: inf
ROOT
ATOM      1  C   UNL     1      20.334  -7.119  50.402  1.00  0.00     0.000 C 
ENDROOT
BRANCH   1   2
ATOM      2  C   UNL     1      20.241  -7.540  48.928  1.00  0.00     0.000 C 
BRANCH   2   3
ATOM      3  C   UNL     1      19.849  -6.378  47.996  1.00  0.00     0.000 C 
BRANCH   3   4
ATOM      4  C   UNL     1      19.701  -6.756  46.511  1.00  0.00     0.000 C 
BRANCH   4   5
ATOM      5  C   UNL     1      20.097  -5.616  45.561  1.00  0.00     0.006 C 
BRANCH   5   6
ATOM      6  C   UNL     1      20.408  -6.154  44.161  1.00  0.00     0.053 C 
BRANCH   6   7
ATOM      7  C   UNL     1      19.293  -5.834  43.216  1.00  0.00     0.041 C 
ATOM      8  O   UNL     1      18.160  -6.361  43.371  1.00  0.00    -0.550 OA
ATOM      9  O   UNL     1      19.519  -4.992  42.134  1.00  0.00    -0.550 OA
ENDBRANCH   6   7
ENDBRANCH   5   6
ENDBRANCH   4   5
ENDBRANCH   3   4
ENDBRANCH   2   3
ENDBRANCH   1   2
BRANCH   1  10
ATOM     10  C   UNL     1      21.465  -7.875  51.117  1.00  0.00     0.000 C 
BRANCH  10  11
ATOM     11  C   UNL     1      22.810  -7.132  51.048  1.00  0.00    -0.000 C 
BRANCH  11  12
ATOM     12  C   UNL     1      22.645  -5.605  51.086  1.00  0.00    -0.000 C 
BRANCH  12  13
ATOM     13  C   UNL     1      23.409  -4.942  49.934  1.00  0.00    -0.000 C 
BRANCH  13  14
ATOM     14  C   UNL     1      23.948  -5.995  48.954  1.00  0.00    -0.000 C 
BRANCH  14  15
ATOM     15  C   UNL     1      23.444  -5.781  47.518  1.00  0.00    -0.000 C 
BRANCH  15  16
ATOM     16  C   UNL     1      23.383  -7.086  46.712  1.00  0.00    -0.003 C 
ATOM     17  C   UNL     1      23.607  -8.298  47.611  1.00  0.00     0.004 C 
ENDBRANCH  15  16
ENDBRANCH  14  15
ENDBRANCH  13  14
ENDBRANCH  12  13
ENDBRANCH  11  12
ENDBRANCH  10  11
ENDBRANCH   1  10
TORSDOF 13
ENDMDL
MODEL 8
REMARK VINA RESULT:    -3.806      3.277      4.979
REMARK INTER + INTRA:          -8.783
REMARK INTER:                  -6.644
REMARK INTRA:                  -2.139
REMARK UNBOUND:                -2.084
REMARK SMILES CCCCCCCCCCCCCCC(=O)[O-]
REMARK SMILES IDX 9 1 10 2 11 3 12 4 13 5 14 6 15 7 16 8 17 9 8 10 7 11 6 12
REMARK SMILES IDX 5 13 4 14 3 15 2 16 1 17
REMARK H PARENT
REMARK Flexibility Score: inf
ROOT
ATOM      1  C   UNL     1      20.928  -7.578  43.237  1.00  0.00     0.000 C 
ENDROOT
BRANCH   1   2
ATOM      2  C   UNL     1      19.836  -7.875  44.274  1.00  0.00     0.000 C 
BRANCH   2   3
ATOM      3  C   UNL     1      20.298  -7.624  45.722  1.00  0.00     0.000 C 
BRANCH   3   4
ATOM      4  C   UNL     1      19.339  -6.771  46.573  1.00  0.00     0.000 C 
BRANCH   4   5
ATOM      5  C   UNL     1      20.003  -6.208  47.838  1.00  0.00     0.006 C 
BRANCH   5   6
ATOM      6  C   UNL     1      21.223  -7.045  48.234  1.00  0.00     0.053 C 
BRANCH   6   7
ATOM      7  C   UNL     1      21.303  -7.186  49.722  1.00  0.00     0.041 C 
ATOM      8  O   UNL     1      22.423  -7.218  50.296  1.00  0.00    -0.550 OA
ATOM      9  O   UNL     1      20.141  -7.333  50.469  1.00  0.00    -0.550 OA
ENDBRANCH   6   7
ENDBRANCH   5   6
ENDBRANCH   4   5
ENDBRANCH   3   4
ENDBRANCH   2   3
ENDBRANCH   1   2
BRANCH   1  10
ATOM     10  C   UNL     1      20.930  -6.089  42.854  1.00  0.00     0.000 C 
BRANCH  10  11
ATOM     11  C   UNL     1      19.516  -5.486  42.815  1.00  0.00    -0.000 C 
BRANCH  11  12
ATOM     12  C   UNL     1      19.501  -3.990  43.165  1.00  0.00    -0.000 C 
BRANCH  12  13
ATOM     13  C   UNL     1      19.807  -3.771  44.651  1.00  0.00    -0.000 C 
BRANCH  13  14
ATOM     14  C   UNL     1      21.165  -3.077  44.836  1.00  0.00    -0.000 C 
BRANCH  14  15
ATOM     15  C   UNL     1      21.952  -3.626  46.037  1.00  0.00    -0.000 C 
BRANCH  15  16
ATOM     16  C   UNL     1      23.348  -4.132  45.648  1.00  0.00    -0.003 C 
ATOM     17  C   UNL     1      23.376  -5.655  45.558  1.00  0.00     0.004 C 
ENDBRANCH  15  16
ENDBRANCH  14  15
ENDBRANCH  13  14
ENDBRANCH  12  13
ENDBRANCH  11  12
ENDBRANCH  10  11
ENDBRANCH   1  10
TORSDOF 13
ENDMDL
MODEL 9
REMARK VINA RESULT:    -3.749      2.829      5.000
REMARK INTER + INTRA:          -8.683
REMARK INTER:                  -6.834
REMARK INTRA:                  -1.848
REMARK UNBOUND:                -2.084
REMARK SMILES CCCCCCCCCCCCCCC(=O)[O-]
REMARK SMILES IDX 9 1 10 2 11 3 12 4 13 5 14 6 15 7 16 8 17 9 8 10 7 11 6 12
REMARK SMILES IDX 5 13 4 14 3 15 2 16 1 17
REMARK H PARENT
REMARK Flexibility Score: inf
ROOT
ATOM      1  C   UNL     1      20.274  -7.540  48.878  1.00  0.00     0.000 C 
ENDROOT
BRANCH   1   2
ATOM      2  C   UNL     1      19.872  -6.358  47.984  1.00  0.00     0.000 C 
BRANCH   2   3
ATOM      3  C   UNL     1      19.487  -6.789  46.556  1.00  0.00     0.000 C 
BRANCH   3   4
ATOM      4  C   UNL     1      20.674  -7.122  45.634  1.00  0.00     0.000 C 
BRANCH   4   5
ATOM      5  C   UNL     1      20.376  -6.850  44.153  1.00  0.00     0.006 C 
BRANCH   5   6
ATOM      6  C   UNL     1      21.003  -5.527  43.702  1.00  0.00     0.053 C 
BRANCH   6   7
ATOM      7  C   UNL     1      19.952  -4.472  43.554  1.00  0.00     0.041 C 
ATOM      8  O   UNL     1      19.603  -3.782  44.548  1.00  0.00    -0.550 OA
ATOM      9  O   UNL     1      19.323  -4.285  42.330  1.00  0.00    -0.550 OA
ENDBRANCH   6   7
ENDBRANCH   5   6
ENDBRANCH   4   5
ENDBRANCH   3   4
ENDBRANCH   2   3
ENDBRANCH   1   2
BRANCH   1  10
ATOM     10  C   UNL     1      20.354  -7.111  50.351  1.00  0.00     0.000 C 
BRANCH  10  11
ATOM     11  C   UNL     1      21.508  -7.791  51.105  1.00  0.00    -0.000 C 
BRANCH  11  12
ATOM     12  C   UNL     1      22.840  -7.040  50.951  1.00  0.00    -0.000 C 
BRANCH  12  13
ATOM     13  C   UNL     1      22.634  -5.526  51.081  1.00  0.00    -0.000 C 
BRANCH  13  14
ATOM     14  C   UNL     1      23.252  -4.783  49.887  1.00  0.00    -0.000 C 
BRANCH  14  15
ATOM     15  C   UNL     1      23.593  -5.720  48.718  1.00  0.00    -0.000 C 
BRANCH  15  16
ATOM     16  C   UNL     1      23.286  -5.095  47.350  1.00  0.00    -0.003 C 
ATOM     17  C   UNL     1      22.446  -3.830  47.500  1.00  0.00     0.004 C 
ENDBRANCH  15  16
ENDBRANCH  14  15
ENDBRANCH  13  14
ENDBRANCH  12  13
ENDBRANCH  11  12
ENDBRANCH  10  11
ENDBRANCH   1  10
TORSDOF 13
ENDMDL
