MODEL 1
REMARK VINA RESULT:    -3.363      0.000      0.000
REMARK INTER + INTRA:          -4.715
REMARK INTER:                  -4.445
REMARK INTRA:                  -0.270
REMARK UNBOUND:                -0.270
REMARK SMILES C=C[C@@H](O)CCCCC
REMARK SMILES IDX 6 1 7 2 8 3 9 4 5 5 3 6 2 7 1 8 4 9
REMARK H PARENT 4 10
REMARK Flexibility Score: inf
ROOT
ATOM      1  C   UNL     1     137.047 137.904 143.520  1.00  0.00     0.003 C 
ENDROOT
BRANCH   1   2
ATOM      2  C   UNL     1     136.130 136.742 143.096  1.00  0.00    -0.000 C 
BRANCH   2   3
ATOM      3  C   UNL     1     136.103 136.523 141.578  1.00  0.00    -0.003 C 
ATOM      4  C   UNL     1     134.695 136.711 141.020  1.00  0.00     0.004 C 
ENDBRANCH   2   3
ENDBRANCH   1   2
BRANCH   1   5
ATOM      5  C   UNL     1     138.314 137.490 144.294  1.00  0.00     0.036 C 
BRANCH   5   6
ATOM      6  C   UNL     1     139.413 136.868 143.403  1.00  0.00     0.136 C 
BRANCH   6   7
ATOM      7  C   UNL     1     139.815 137.799 142.282  1.00  0.00    -0.004 C 
ATOM      8  C   UNL     1     141.041 138.324 142.178  1.00  0.00     0.007 C 
ENDBRANCH   6   7
BRANCH   6   9
ATOM      9  O   UNL     1     140.538 136.475 144.151  1.00  0.00    -0.389 OA
ATOM     10  H   UNL     1     140.250 135.777 144.794  1.00  0.00     0.211 HD
ENDBRANCH   6   9
ENDBRANCH   5   6
ENDBRANCH   1   5
TORSDOF 6
ENDMDL
MODEL 2
REMARK VINA RESULT:    -3.332      0.916      1.138
REMARK INTER + INTRA:          -4.673
REMARK INTER:                  -4.437
REMARK INTRA:                  -0.236
REMARK UNBOUND:                -0.270
REMARK SMILES C=C[C@@H](O)CCCCC
REMARK SMILES IDX 6 1 7 2 8 3 9 4 5 5 3 6 2 7 1 8 4 9
REMARK H PARENT 4 10
REMARK Flexibility Score: inf
ROOT
ATOM      1  C   UNL     1     136.122 136.756 143.863  1.00  0.00     0.003 C 
ENDROOT
BRANCH   1   2
ATOM      2  C   UNL     1     135.440 135.920 142.766  1.00  0.00    -0.000 C 
BRANCH   2   3
ATOM      3  C   UNL     1     135.696 136.462 141.353  1.00  0.00    -0.003 C 
ATOM      4  C   UNL     1     134.410 136.993 140.727  1.00  0.00     0.004 C 
ENDBRANCH   2   3
ENDBRANCH   1   2
BRANCH   1   5
ATOM      5  C   UNL     1     137.142 137.795 143.356  1.00  0.00     0.036 C 
BRANCH   5   6
ATOM      6  C   UNL     1     138.613 137.335 143.480  1.00  0.00     0.136 C 
BRANCH   6   7
ATOM      7  C   UNL     1     139.458 137.859 142.341  1.00  0.00    -0.004 C 
ATOM      8  C   UNL     1     140.763 137.591 142.221  1.00  0.00     0.007 C 
ENDBRANCH   6   7
BRANCH   6   9
ATOM      9  O   UNL     1     139.174 137.692 144.720  1.00  0.00    -0.389 OA
ATOM     10  H   UNL     1     139.170 138.681 144.784  1.00  0.00     0.211 HD
ENDBRANCH   6   9
ENDBRANCH   5   6
ENDBRANCH   1   5
TORSDOF 6
ENDMDL
MODEL 3
REMARK VINA RESULT:    -3.279     11.515     13.327
REMARK INTER + INTRA:          -4.603
REMARK INTER:                  -4.010
REMARK INTRA:                  -0.593
REMARK UNBOUND:                -0.270
REMARK SMILES C=C[C@@H](O)CCCCC
REMARK SMILES IDX 6 1 7 2 8 3 9 4 5 5 3 6 2 7 1 8 4 9
REMARK H PARENT 4 10
REMARK Flexibility Score: inf
ROOT
ATOM      1  C   UNL     1     124.356 136.765 147.432  1.00  0.00     0.003 C 
ENDROOT
BRANCH   1   2
ATOM      2  C   UNL     1     124.922 136.575 148.850  1.00  0.00    -0.000 C 
BRANCH   2   3
ATOM      3  C   UNL     1     125.526 137.860 149.432  1.00  0.00    -0.003 C 
ATOM      4  C   UNL     1     125.201 139.066 148.555  1.00  0.00     0.004 C 
ENDBRANCH   2   3
ENDBRANCH   1   2
BRANCH   1   5
ATOM      5  C   UNL     1     125.043 135.929 146.334  1.00  0.00     0.036 C 
BRANCH   5   6
ATOM      6  C   UNL     1     126.053 136.732 145.481  1.00  0.00     0.136 C 
BRANCH   6   7
ATOM      7  C   UNL     1     127.457 136.618 146.028  1.00  0.00    -0.004 C 
ATOM      8  C   UNL     1     128.059 137.608 146.698  1.00  0.00     0.007 C 
ENDBRANCH   6   7
BRANCH   6   9
ATOM      9  O   UNL     1     126.015 136.353 144.126  1.00  0.00    -0.389 OA
ATOM     10  H   UNL     1     125.846 135.377 144.086  1.00  0.00     0.211 HD
ENDBRANCH   6   9
ENDBRANCH   5   6
ENDBRANCH   1   5
TORSDOF 6
ENDMDL
MODEL 4
REMARK VINA RESULT:    -3.260      1.930      3.052
REMARK INTER + INTRA:          -4.578
REMARK INTER:                  -4.113
REMARK INTRA:                  -0.466
REMARK UNBOUND:                -0.270
REMARK SMILES C=C[C@@H](O)CCCCC
REMARK SMILES IDX 6 1 7 2 8 3 9 4 5 5 3 6 2 7 1 8 4 9
REMARK H PARENT 4 10
REMARK Flexibility Score: inf
ROOT
ATOM      1  C   UNL     1     137.683 136.599 142.143  1.00  0.00     0.003 C 
ENDROOT
BRANCH   1   2
ATOM      2  C   UNL     1     136.559 135.985 141.290  1.00  0.00    -0.000 C 
BRANCH   2   3
ATOM      3  C   UNL     1     135.157 136.404 141.754  1.00  0.00    -0.003 C 
ATOM      4  C   UNL     1     134.388 137.090 140.630  1.00  0.00     0.004 C 
ENDBRANCH   2   3
ENDBRANCH   1   2
BRANCH   1   5
ATOM      5  C   UNL     1     137.259 137.789 143.027  1.00  0.00     0.036 C 
BRANCH   5   6
ATOM      6  C   UNL     1     137.556 137.584 144.531  1.00  0.00     0.136 C 
BRANCH   6   7
ATOM      7  C   UNL     1     136.944 136.303 145.049  1.00  0.00    -0.004 C 
ATOM      8  C   UNL     1     135.666 136.211 145.437  1.00  0.00     0.007 C 
ENDBRANCH   6   7
BRANCH   6   9
ATOM      9  O   UNL     1     138.935 137.622 144.805  1.00  0.00    -0.389 OA
ATOM     10  H   UNL     1     139.204 138.573 144.889  1.00  0.00     0.211 HD
ENDBRANCH   6   9
ENDBRANCH   5   6
ENDBRANCH   1   5
TORSDOF 6
ENDMDL
MODEL 5
REMARK VINA RESULT:    -3.177      1.927      4.721
REMARK INTER + INTRA:          -4.468
REMARK INTER:                  -4.334
REMARK INTRA:                  -0.134
REMARK UNBOUND:                -0.270
REMARK SMILES C=C[C@@H](O)CCCCC
REMARK SMILES IDX 6 1 7 2 8 3 9 4 5 5 3 6 2 7 1 8 4 9
REMARK H PARENT 4 10
REMARK Flexibility Score: inf
ROOT
ATOM      1  C   UNL     1     139.605 137.206 142.636  1.00  0.00     0.003 C 
ENDROOT
BRANCH   1   2
ATOM      2  C   UNL     1     140.525 138.333 142.134  1.00  0.00    -0.000 C 
BRANCH   2   3
ATOM      3  C   UNL     1     142.015 138.022 142.329  1.00  0.00    -0.003 C 
ATOM      4  C   UNL     1     142.718 137.836 140.988  1.00  0.00     0.004 C 
ENDBRANCH   2   3
ENDBRANCH   1   2
BRANCH   1   5
ATOM      5  C   UNL     1     138.174 137.644 143.008  1.00  0.00     0.036 C 
BRANCH   5   6
ATOM      6  C   UNL     1     137.853 137.505 144.514  1.00  0.00     0.136 C 
BRANCH   6   7
ATOM      7  C   UNL     1     136.955 136.320 144.785  1.00  0.00    -0.004 C 
ATOM      8  C   UNL     1     135.620 136.394 144.742  1.00  0.00     0.007 C 
ENDBRANCH   6   7
BRANCH   6   9
ATOM      9  O   UNL     1     139.020 137.433 145.297  1.00  0.00    -0.389 OA
ATOM     10  H   UNL     1     139.007 136.571 145.788  1.00  0.00     0.211 HD
ENDBRANCH   6   9
ENDBRANCH   5   6
ENDBRANCH   1   5
TORSDOF 6
ENDMDL
MODEL 6
REMARK VINA RESULT:    -3.171     12.524     13.775
REMARK INTER + INTRA:          -4.461
REMARK INTER:                  -3.957
REMARK INTRA:                  -0.504
REMARK UNBOUND:                -0.270
REMARK SMILES C=C[C@@H](O)CCCCC
REMARK SMILES IDX 6 1 7 2 8 3 9 4 5 5 3 6 2 7 1 8 4 9
REMARK H PARENT 4 10
REMARK Flexibility Score: inf
ROOT
ATOM      1  C   UNL     1     126.450 137.947 147.713  1.00  0.00     0.003 C 
ENDROOT
BRANCH   1   2
ATOM      2  C   UNL     1     125.363 138.213 148.769  1.00  0.00    -0.000 C 
BRANCH   2   3
ATOM      3  C   UNL     1     125.401 137.213 149.933  1.00  0.00    -0.003 C 
ATOM      4  C   UNL     1     124.282 136.183 149.809  1.00  0.00     0.004 C 
ENDBRANCH   2   3
ENDBRANCH   1   2
BRANCH   1   5
ATOM      5  C   UNL     1     125.945 137.865 146.258  1.00  0.00     0.036 C 
BRANCH   5   6
ATOM      6  C   UNL     1     126.168 136.484 145.599  1.00  0.00     0.136 C 
BRANCH   6   7
ATOM      7  C   UNL     1     125.161 135.466 146.084  1.00  0.00    -0.004 C 
ATOM      8  C   UNL     1     125.510 134.357 146.745  1.00  0.00     0.007 C 
ENDBRANCH   6   7
BRANCH   6   9
ATOM      9  O   UNL     1     126.156 136.564 144.194  1.00  0.00    -0.389 OA
ATOM     10  H   UNL     1     126.802 137.266 143.923  1.00  0.00     0.211 HD
ENDBRANCH   6   9
ENDBRANCH   5   6
ENDBRANCH   1   5
TORSDOF 6
ENDMDL
MODEL 7
REMARK VINA RESULT:    -3.150     11.465     13.331
REMARK INTER + INTRA:          -4.433
REMARK INTER:                  -3.875
REMARK INTRA:                  -0.558
REMARK UNBOUND:                -0.270
REMARK SMILES C=C[C@@H](O)CCCCC
REMARK SMILES IDX 6 1 7 2 8 3 9 4 5 5 3 6 2 7 1 8 4 9
REMARK H PARENT 4 10
REMARK Flexibility Score: inf
ROOT
ATOM      1  C   UNL     1     124.378 136.969 147.707  1.00  0.00     0.003 C 
ENDROOT
BRANCH   1   2
ATOM      2  C   UNL     1     124.686 136.025 148.883  1.00  0.00    -0.000 C 
BRANCH   2   3
ATOM      3  C   UNL     1     125.379 134.727 148.445  1.00  0.00    -0.003 C 
ATOM      4  C   UNL     1     126.813 134.668 148.962  1.00  0.00     0.004 C 
ENDBRANCH   2   3
ENDBRANCH   1   2
BRANCH   1   5
ATOM      5  C   UNL     1     124.661 136.386 146.308  1.00  0.00     0.036 C 
BRANCH   5   6
ATOM      6  C   UNL     1     125.727 137.173 145.511  1.00  0.00     0.136 C 
BRANCH   6   7
ATOM      7  C   UNL     1     126.935 137.493 146.361  1.00  0.00    -0.004 C 
ATOM      8  C   UNL     1     128.097 136.839 146.249  1.00  0.00     0.007 C 
ENDBRANCH   6   7
BRANCH   6   9
ATOM      9  O   UNL     1     126.110 136.497 144.337  1.00  0.00    -0.389 OA
ATOM     10  H   UNL     1     126.786 135.814 144.584  1.00  0.00     0.211 HD
ENDBRANCH   6   9
ENDBRANCH   5   6
ENDBRANCH   1   5
TORSDOF 6
ENDMDL
MODEL 8
REMARK VINA RESULT:    -3.072      1.299      2.475
REMARK INTER + INTRA:          -4.330
REMARK INTER:                  -3.904
REMARK INTRA:                  -0.426
REMARK UNBOUND:                -0.270
REMARK SMILES C=C[C@@H](O)CCCCC
REMARK SMILES IDX 6 1 7 2 8 3 9 4 5 5 3 6 2 7 1 8 4 9
REMARK H PARENT 4 10
REMARK Flexibility Score: inf
ROOT
ATOM      1  C   UNL     1     137.754 135.493 141.868  1.00  0.00     0.003 C 
ENDROOT
BRANCH   1   2
ATOM      2  C   UNL     1     136.709 135.704 140.757  1.00  0.00    -0.000 C 
BRANCH   2   3
ATOM      3  C   UNL     1     135.279 135.834 141.297  1.00  0.00    -0.003 C 
ATOM      4  C   UNL     1     134.589 137.072 140.734  1.00  0.00     0.004 C 
ENDBRANCH   2   3
ENDBRANCH   1   2
BRANCH   1   5
ATOM      5  C   UNL     1     139.006 136.387 141.769  1.00  0.00     0.036 C 
BRANCH   5   6
ATOM      6  C   UNL     1     138.991 137.589 142.741  1.00  0.00     0.136 C 
BRANCH   6   7
ATOM      7  C   UNL     1     137.853 137.489 143.732  1.00  0.00    -0.004 C 
ATOM      8  C   UNL     1     136.829 138.350 143.752  1.00  0.00     0.007 C 
ENDBRANCH   6   7
BRANCH   6   9
ATOM      9  O   UNL     1     140.220 137.741 143.408  1.00  0.00    -0.389 OA
ATOM     10  H   UNL     1     140.190 137.190 144.233  1.00  0.00     0.211 HD
ENDBRANCH   6   9
ENDBRANCH   5   6
ENDBRANCH   1   5
TORSDOF 6
ENDMDL
