MODEL 1
REMARK VINA RESULT:    -4.819      0.000      0.000
REMARK INTER + INTRA:          -5.472
REMARK INTER:                  -5.382
REMARK INTRA:                  -0.090
REMARK UNBOUND:                -0.090
REMARK SMILES CCc1ccc(O)cc1O
REMARK SMILES IDX 3 1 9 2 8 3 6 4 5 5 4 6 2 7 1 8 10 9 7 11
REMARK H PARENT 10 10 7 12
REMARK Flexibility Score: inf
ROOT
ATOM      1  C   UNL     1       6.465   5.122  -1.233  1.00  0.00    -0.006 A 
ATOM      2  C   UNL     1       6.808   4.872  -2.577  1.00  0.00     0.122 A 
ATOM      3  C   UNL     1       7.188   5.934  -3.411  1.00  0.00     0.092 A 
ATOM      4  C   UNL     1       7.240   7.239  -2.914  1.00  0.00     0.119 A 
ATOM      5  C   UNL     1       6.913   7.487  -1.575  1.00  0.00     0.047 A 
ATOM      6  C   UNL     1       6.534   6.435  -0.739  1.00  0.00     0.011 A 
ENDROOT
BRANCH   1   7
ATOM      7  C   UNL     1       6.082   3.995  -0.308  1.00  0.00     0.036 C 
ATOM      8  C   UNL     1       6.787   4.135   1.037  1.00  0.00     0.009 C 
ENDBRANCH   1   7
BRANCH   2   9
ATOM      9  O   UNL     1       6.772   3.571  -3.080  1.00  0.00    -0.508 OA
ATOM     10  H   UNL     1       7.456   2.876  -2.806  1.00  0.00     0.293 HD
ENDBRANCH   2   9
BRANCH   4  11
ATOM     11  O   UNL     1       7.620   8.281  -3.757  1.00  0.00    -0.508 OA
ATOM     12  H   UNL     1       6.936   8.904  -4.171  1.00  0.00     0.293 HD
ENDBRANCH   4  11
TORSDOF 3
ENDMDL
MODEL 2
REMARK VINA RESULT:    -4.712      1.861      3.657
REMARK INTER + INTRA:          -5.353
REMARK INTER:                  -5.259
REMARK INTRA:                  -0.094
REMARK UNBOUND:                -0.090
REMARK SMILES CCc1ccc(O)cc1O
REMARK SMILES IDX 3 1 9 2 8 3 6 4 5 5 4 6 2 7 1 8 10 9 7 11
REMARK H PARENT 10 10 7 12
REMARK Flexibility Score: inf
ROOT
ATOM      1  C   UNL     1       6.926   5.597  -2.521  1.00  0.00    -0.006 A 
ATOM      2  C   UNL     1       6.739   4.232  -2.223  1.00  0.00     0.122 A 
ATOM      3  C   UNL     1       6.602   3.821  -0.889  1.00  0.00     0.092 A 
ATOM      4  C   UNL     1       6.637   4.757   0.148  1.00  0.00     0.119 A 
ATOM      5  C   UNL     1       6.809   6.115  -0.148  1.00  0.00     0.047 A 
ATOM      6  C   UNL     1       6.947   6.532  -1.473  1.00  0.00     0.011 A 
ENDROOT
BRANCH   1   7
ATOM      7  C   UNL     1       7.047   6.069  -3.948  1.00  0.00     0.036 C 
ATOM      8  C   UNL     1       8.390   6.753  -4.180  1.00  0.00     0.009 C 
ENDBRANCH   1   7
BRANCH   2   9
ATOM      9  O   UNL     1       6.688   3.289  -3.250  1.00  0.00    -0.508 OA
ATOM     10  H   UNL     1       6.121   2.453  -3.177  1.00  0.00     0.293 HD
ENDBRANCH   2   9
BRANCH   4  11
ATOM     11  O   UNL     1       6.499   4.329   1.466  1.00  0.00    -0.508 OA
ATOM     12  H   UNL     1       7.227   4.487   2.153  1.00  0.00     0.293 HD
ENDBRANCH   4  11
TORSDOF 3
ENDMDL
MODEL 3
REMARK VINA RESULT:    -4.630      1.737      4.278
REMARK INTER + INTRA:          -5.262
REMARK INTER:                  -5.157
REMARK INTRA:                  -0.105
REMARK UNBOUND:                -0.090
REMARK SMILES CCc1ccc(O)cc1O
REMARK SMILES IDX 3 1 9 2 8 3 6 4 5 5 4 6 2 7 1 8 10 9 7 11
REMARK H PARENT 10 10 7 12
REMARK Flexibility Score: inf
ROOT
ATOM      1  C   UNL     1       7.045   6.155  -2.599  1.00  0.00    -0.006 A 
ATOM      2  C   UNL     1       6.953   6.607  -1.267  1.00  0.00     0.122 A 
ATOM      3  C   UNL     1       6.647   5.699  -0.241  1.00  0.00     0.092 A 
ATOM      4  C   UNL     1       6.446   4.346  -0.530  1.00  0.00     0.119 A 
ATOM      5  C   UNL     1       6.552   3.895  -1.851  1.00  0.00     0.047 A 
ATOM      6  C   UNL     1       6.854   4.792  -2.878  1.00  0.00     0.011 A 
ENDROOT
BRANCH   1   7
ATOM      7  C   UNL     1       7.401   7.104  -3.715  1.00  0.00     0.036 C 
ATOM      8  C   UNL     1       8.826   6.859  -4.200  1.00  0.00     0.009 C 
ENDBRANCH   1   7
BRANCH   2   9
ATOM      9  O   UNL     1       7.165   7.952  -0.964  1.00  0.00    -0.508 OA
ATOM     10  H   UNL     1       7.309   8.266  -0.012  1.00  0.00     0.293 HD
ENDBRANCH   2   9
BRANCH   4  11
ATOM     11  O   UNL     1       6.144   3.460   0.501  1.00  0.00    -0.508 OA
ATOM     12  H   UNL     1       6.461   2.497   0.482  1.00  0.00     0.293 HD
ENDBRANCH   4  11
TORSDOF 3
ENDMDL
MODEL 4
REMARK VINA RESULT:    -4.490      1.520      2.368
REMARK INTER + INTRA:          -5.106
REMARK INTER:                  -5.021
REMARK INTRA:                  -0.085
REMARK UNBOUND:                -0.090
REMARK SMILES CCc1ccc(O)cc1O
REMARK SMILES IDX 3 1 9 2 8 3 6 4 5 5 4 6 2 7 1 8 10 9 7 11
REMARK H PARENT 10 10 7 12
REMARK Flexibility Score: inf
ROOT
ATOM      1  C   UNL     1       6.588   5.209  -1.268  1.00  0.00    -0.006 A 
ATOM      2  C   UNL     1       6.949   6.551  -1.503  1.00  0.00     0.122 A 
ATOM      3  C   UNL     1       7.296   6.964  -2.799  1.00  0.00     0.092 A 
ATOM      4  C   UNL     1       7.274   6.056  -3.861  1.00  0.00     0.119 A 
ATOM      5  C   UNL     1       6.903   4.726  -3.630  1.00  0.00     0.047 A 
ATOM      6  C   UNL     1       6.557   4.307  -2.344  1.00  0.00     0.011 A 
ENDROOT
BRANCH   1   7
ATOM      7  C   UNL     1       6.182   4.746   0.108  1.00  0.00     0.036 C 
ATOM      8  C   UNL     1       6.525   3.273   0.306  1.00  0.00     0.009 C 
ENDBRANCH   1   7
BRANCH   2   9
ATOM      9  O   UNL     1       6.961   7.470  -0.454  1.00  0.00    -0.508 OA
ATOM     10  H   UNL     1       6.104   7.861  -0.080  1.00  0.00     0.293 HD
ENDBRANCH   2   9
BRANCH   4  11
ATOM     11  O   UNL     1       7.622   6.485  -5.139  1.00  0.00    -0.508 OA
ATOM     12  H   UNL     1       7.034   7.125  -5.661  1.00  0.00     0.293 HD
ENDBRANCH   4  11
TORSDOF 3
ENDMDL
MODEL 5
REMARK VINA RESULT:    -4.461      6.046      7.759
REMARK INTER + INTRA:          -5.073
REMARK INTER:                  -4.969
REMARK INTRA:                  -0.104
REMARK UNBOUND:                -0.090
REMARK SMILES CCc1ccc(O)cc1O
REMARK SMILES IDX 3 1 9 2 8 3 6 4 5 5 4 6 2 7 1 8 10 9 7 11
REMARK H PARENT 10 10 7 12
REMARK Flexibility Score: inf
ROOT
ATOM      1  C   UNL     1       8.873   4.439  -9.405  1.00  0.00    -0.006 A 
ATOM      2  C   UNL     1       8.767   4.212  -8.018  1.00  0.00     0.122 A 
ATOM      3  C   UNL     1       9.077   5.243  -7.117  1.00  0.00     0.092 A 
ATOM      4  C   UNL     1       9.478   6.496  -7.587  1.00  0.00     0.119 A 
ATOM      5  C   UNL     1       9.569   6.726  -8.964  1.00  0.00     0.047 A 
ATOM      6  C   UNL     1       9.264   5.706  -9.868  1.00  0.00     0.011 A 
ENDROOT
BRANCH   1   7
ATOM      7  C   UNL     1       8.517   3.358 -10.396  1.00  0.00     0.036 C 
ATOM      8  C   UNL     1       9.759   2.576 -10.812  1.00  0.00     0.009 C 
ENDBRANCH   1   7
BRANCH   2   9
ATOM      9  O   UNL     1       8.355   2.969  -7.538  1.00  0.00    -0.508 OA
ATOM     10  H   UNL     1       8.941   2.415  -6.926  1.00  0.00     0.293 HD
ENDBRANCH   2   9
BRANCH   4  11
ATOM     11  O   UNL     1       9.781   7.506  -6.676  1.00  0.00    -0.508 OA
ATOM     12  H   UNL     1       9.068   8.142  -6.334  1.00  0.00     0.293 HD
ENDBRANCH   4  11
TORSDOF 3
ENDMDL
MODEL 6
REMARK VINA RESULT:    -4.315      1.222      1.493
REMARK INTER + INTRA:          -4.909
REMARK INTER:                  -4.824
REMARK INTRA:                  -0.086
REMARK UNBOUND:                -0.090
REMARK SMILES CCc1ccc(O)cc1O
REMARK SMILES IDX 3 1 9 2 8 3 6 4 5 5 4 6 2 7 1 8 10 9 7 11
REMARK H PARENT 10 10 7 12
REMARK Flexibility Score: inf
ROOT
ATOM      1  C   UNL     1       6.746   5.654  -1.750  1.00  0.00    -0.006 A 
ATOM      2  C   UNL     1       7.147   6.217  -2.979  1.00  0.00     0.122 A 
ATOM      3  C   UNL     1       7.335   7.603  -3.083  1.00  0.00     0.092 A 
ATOM      4  C   UNL     1       7.139   8.430  -1.974  1.00  0.00     0.119 A 
ATOM      5  C   UNL     1       6.754   7.870  -0.750  1.00  0.00     0.047 A 
ATOM      6  C   UNL     1       6.565   6.492  -0.637  1.00  0.00     0.011 A 
ENDROOT
BRANCH   1   7
ATOM      7  C   UNL     1       6.566   4.164  -1.602  1.00  0.00     0.036 C 
ATOM      8  C   UNL     1       6.381   3.785  -0.137  1.00  0.00     0.009 C 
ENDBRANCH   1   7
BRANCH   2   9
ATOM      9  O   UNL     1       7.360   5.400  -4.090  1.00  0.00    -0.508 OA
ATOM     10  H   UNL     1       8.275   5.021  -4.303  1.00  0.00     0.293 HD
ENDBRANCH   2   9
BRANCH   4  11
ATOM     11  O   UNL     1       7.331   9.804  -2.098  1.00  0.00    -0.508 OA
ATOM     12  H   UNL     1       7.967  10.307  -1.490  1.00  0.00     0.293 HD
ENDBRANCH   4  11
TORSDOF 3
ENDMDL
MODEL 7
REMARK VINA RESULT:    -4.296      0.969      3.475
REMARK INTER + INTRA:          -4.889
REMARK INTER:                  -4.814
REMARK INTRA:                  -0.075
REMARK UNBOUND:                -0.090
REMARK SMILES CCc1ccc(O)cc1O
REMARK SMILES IDX 3 1 9 2 8 3 6 4 5 5 4 6 2 7 1 8 10 9 7 11
REMARK H PARENT 10 10 7 12
REMARK Flexibility Score: inf
ROOT
ATOM      1  C   UNL     1       6.822   6.997  -1.388  1.00  0.00    -0.006 A 
ATOM      2  C   UNL     1       7.159   6.904  -2.754  1.00  0.00     0.122 A 
ATOM      3  C   UNL     1       7.082   5.666  -3.409  1.00  0.00     0.092 A 
ATOM      4  C   UNL     1       6.663   4.525  -2.719  1.00  0.00     0.119 A 
ATOM      5  C   UNL     1       6.315   4.619  -1.367  1.00  0.00     0.047 A 
ATOM      6  C   UNL     1       6.389   5.848  -0.707  1.00  0.00     0.011 A 
ENDROOT
BRANCH   1   7
ATOM      7  C   UNL     1       6.867   8.321  -0.668  1.00  0.00     0.036 C 
ATOM      8  C   UNL     1       5.577   9.103  -0.893  1.00  0.00     0.009 C 
ENDBRANCH   1   7
BRANCH   2   9
ATOM      9  O   UNL     1       7.565   8.039  -3.456  1.00  0.00    -0.508 OA
ATOM     10  H   UNL     1       8.423   8.527  -3.228  1.00  0.00     0.293 HD
ENDBRANCH   2   9
BRANCH   4  11
ATOM     11  O   UNL     1       6.594   3.305  -3.388  1.00  0.00    -0.508 OA
ATOM     12  H   UNL     1       5.890   3.128  -4.096  1.00  0.00     0.293 HD
ENDBRANCH   4  11
TORSDOF 3
ENDMDL
MODEL 8
REMARK VINA RESULT:    -4.059      5.823      7.668
REMARK INTER + INTRA:          -4.624
REMARK INTER:                  -4.533
REMARK INTRA:                  -0.091
REMARK UNBOUND:                -0.090
REMARK SMILES CCc1ccc(O)cc1O
REMARK SMILES IDX 3 1 9 2 8 3 6 4 5 5 4 6 2 7 1 8 10 9 7 11
REMARK H PARENT 10 10 7 12
REMARK Flexibility Score: inf
ROOT
ATOM      1  C   UNL     1       9.250   5.429  -7.747  1.00  0.00    -0.006 A 
ATOM      2  C   UNL     1       9.323   5.849  -9.090  1.00  0.00     0.122 A 
ATOM      3  C   UNL     1       9.025   4.945 -10.122  1.00  0.00     0.092 A 
ATOM      4  C   UNL     1       8.645   3.633  -9.825  1.00  0.00     0.119 A 
ATOM      5  C   UNL     1       8.560   3.219  -8.491  1.00  0.00     0.047 A 
ATOM      6  C   UNL     1       8.855   4.112  -7.459  1.00  0.00     0.011 A 
ENDROOT
BRANCH   1   7
ATOM      7  C   UNL     1       9.535   6.388  -6.619  1.00  0.00     0.036 C 
ATOM      8  C   UNL     1       8.456   6.296  -5.545  1.00  0.00     0.009 C 
ENDBRANCH   1   7
BRANCH   2   9
ATOM      9  O   UNL     1       9.687   7.160  -9.398  1.00  0.00    -0.508 OA
ATOM     10  H   UNL     1       9.044   7.798  -9.851  1.00  0.00     0.293 HD
ENDBRANCH   2   9
BRANCH   4  11
ATOM     11  O   UNL     1       8.354   2.751 -10.863  1.00  0.00    -0.508 OA
ATOM     12  H   UNL     1       9.032   2.543 -11.587  1.00  0.00     0.293 HD
ENDBRANCH   4  11
TORSDOF 3
ENDMDL
