MODEL 1
REMARK VINA RESULT:    -6.695      0.000      0.000
REMARK INTER + INTRA:          -8.223
REMARK INTER:                  -7.674
REMARK INTRA:                  -0.549
REMARK UNBOUND:                -0.549
REMARK SMILES C=C(C)[C@@H]1CC[C@@]2(C(=O)[O-])CC[C@]3(C)[C@@H](CC[C@H]4[C@]5(C)CC[C@@H](O)C(C)(C)[C@H]5CC[C@@]43C)[C@@H]12
REMARK SMILES IDX 7 1 6 2 33 3 11 4 5 5 15 6 4 7 12 8 16 9 13 10 17 11 31 12
REMARK SMILES IDX 14 13 18 14 30 15 32 16 19 17 29 18 21 19 20 20 28 21 22 22
REMARK SMILES IDX 25 23 23 24 26 25 27 26 8 27 9 28 10 29 2 30 3 31 1 32 24 33
REMARK H PARENT 24 34
REMARK Flexibility Score: inf
ROOT
ATOM      1  C   UNL     1      59.160  -1.803   0.418  1.00  0.00     0.014 C 
ATOM      2  C   UNL     1      58.566  -0.401   0.637  1.00  0.00     0.014 C 
ATOM      3  C   UNL     1      59.435  -1.825  -1.112  1.00  0.00     0.012 C 
ATOM      4  C   UNL     1      58.142  -2.897   0.872  1.00  0.00     0.014 C 
ATOM      5  C   UNL     1      57.719  -0.115  -0.587  1.00  0.00     0.009 C 
ATOM      6  C   UNL     1      59.577  -3.269  -1.719  1.00  0.00     0.000 C 
ATOM      7  C   UNL     1      58.380  -0.870  -1.748  1.00  0.00     0.018 C 
ATOM      8  C   UNL     1      57.513  -3.718  -0.267  1.00  0.00     0.008 C 
ATOM      9  C   UNL     1      59.893  -3.234  -3.225  1.00  0.00     0.005 C 
ATOM     10  C   UNL     1      58.530  -4.383  -1.259  1.00  0.00    -0.024 C 
ATOM     11  C   UNL     1      58.688  -3.302  -4.166  1.00  0.00     0.005 C 
ATOM     12  C   UNL     1      57.767  -5.121  -2.510  1.00  0.00    -0.024 C 
ATOM     13  C   UNL     1      59.308  -5.450  -0.418  1.00  0.00     0.012 C 
ATOM     14  C   UNL     1      57.437  -4.054  -3.628  1.00  0.00     0.002 C 
ATOM     15  C   UNL     1      56.418  -5.782  -2.039  1.00  0.00     0.008 C 
ATOM     16  C   UNL     1      58.632  -6.289  -3.096  1.00  0.00     0.012 C 
ATOM     17  C   UNL     1      56.423  -4.489  -4.786  1.00  0.00    -0.026 C 
ATOM     18  C   UNL     1      55.494  -6.259  -3.169  1.00  0.00     0.005 C 
ATOM     19  C   UNL     1      56.003  -3.201  -5.565  1.00  0.00     0.010 C 
ATOM     20  C   UNL     1      57.079  -5.493  -5.800  1.00  0.00     0.012 C 
ATOM     21  C   UNL     1      55.133  -5.073  -4.099  1.00  0.00     0.003 C 
ATOM     22  C   UNL     1      54.826  -3.405  -6.531  1.00  0.00     0.033 C 
ATOM     23  C   UNL     1      53.877  -5.301  -5.037  1.00  0.00    -0.006 C 
ATOM     24  C   UNL     1      53.589  -3.973  -5.814  1.00  0.00     0.120 C 
ATOM     25  C   UNL     1      54.050  -6.496  -6.010  1.00  0.00     0.014 C 
ATOM     26  C   UNL     1      52.622  -5.597  -4.167  1.00  0.00     0.014 C 
ENDROOT
BRANCH   1  27
ATOM     27  C   UNL     1      60.426  -1.935   1.247  1.00  0.00     0.048 C 
ATOM     28  O   UNL     1      60.385  -1.962   2.506  1.00  0.00    -0.550 OA
ATOM     29  O   UNL     1      61.664  -1.957   0.613  1.00  0.00    -0.550 OA
ENDBRANCH   1  27
BRANCH   7  30
ATOM     30  C   UNL     1      58.958   0.117  -2.764  1.00  0.00    -0.077 C 
ATOM     31  C   UNL     1      60.414   0.084  -3.161  1.00  0.00     0.039 C 
ATOM     32  C   UNL     1      58.208   1.140  -3.206  1.00  0.00     0.008 C 
ENDBRANCH   7  30
BRANCH  24  33
ATOM     33  O   UNL     1      52.510  -4.112  -6.712  1.00  0.00    -0.393 OA
ATOM     34  H   UNL     1      52.759  -3.678  -7.569  1.00  0.00     0.210 HD
ENDBRANCH  24  33
TORSDOF 3
ENDMDL
MODEL 2
REMARK VINA RESULT:    -6.653      1.773      7.692
REMARK INTER + INTRA:          -8.174
REMARK INTER:                  -7.282
REMARK INTRA:                  -0.893
REMARK UNBOUND:                -0.549
REMARK SMILES C=C(C)[C@@H]1CC[C@@]2(C(=O)[O-])CC[C@]3(C)[C@@H](CC[C@H]4[C@]5(C)CC[C@@H](O)C(C)(C)[C@H]5CC[C@@]43C)[C@@H]12
REMARK SMILES IDX 7 1 6 2 33 3 11 4 5 5 15 6 4 7 12 8 16 9 13 10 17 11 31 12
REMARK SMILES IDX 14 13 18 14 30 15 32 16 19 17 29 18 21 19 20 20 28 21 22 22
REMARK SMILES IDX 25 23 23 24 26 25 27 26 8 27 9 28 10 29 2 30 3 31 1 32 24 33
REMARK H PARENT 24 34
REMARK Flexibility Score: inf
ROOT
ATOM      1  C   UNL     1      54.029  -5.174  -6.344  1.00  0.00     0.014 C 
ATOM      2  C   UNL     1      52.543  -5.105  -5.951  1.00  0.00     0.014 C 
ATOM      3  C   UNL     1      54.648  -6.025  -5.200  1.00  0.00     0.012 C 
ATOM      4  C   UNL     1      54.631  -3.737  -6.433  1.00  0.00     0.014 C 
ATOM      5  C   UNL     1      52.520  -5.007  -4.439  1.00  0.00     0.009 C 
ATOM      6  C   UNL     1      56.205  -5.862  -5.048  1.00  0.00     0.000 C 
ATOM      7  C   UNL     1      53.763  -5.758  -3.945  1.00  0.00     0.018 C 
ATOM      8  C   UNL     1      55.633  -3.378  -5.322  1.00  0.00     0.008 C 
ATOM      9  C   UNL     1      56.774  -6.757  -3.933  1.00  0.00     0.005 C 
ATOM     10  C   UNL     1      56.817  -4.389  -5.130  1.00  0.00    -0.024 C 
ATOM     11  C   UNL     1      56.891  -6.114  -2.549  1.00  0.00     0.005 C 
ATOM     12  C   UNL     1      57.752  -3.996  -3.842  1.00  0.00    -0.024 C 
ATOM     13  C   UNL     1      57.668  -4.300  -6.441  1.00  0.00     0.012 C 
ATOM     14  C   UNL     1      57.100  -4.572  -2.523  1.00  0.00     0.002 C 
ATOM     15  C   UNL     1      57.880  -2.434  -3.692  1.00  0.00     0.008 C 
ATOM     16  C   UNL     1      59.216  -4.527  -4.016  1.00  0.00     0.012 C 
ATOM     17  C   UNL     1      57.670  -4.042  -1.126  1.00  0.00    -0.026 C 
ATOM     18  C   UNL     1      58.499  -1.951  -2.372  1.00  0.00     0.005 C 
ATOM     19  C   UNL     1      56.678  -4.486  -0.003  1.00  0.00     0.010 C 
ATOM     20  C   UNL     1      59.088  -4.637  -0.802  1.00  0.00     0.012 C 
ATOM     21  C   UNL     1      57.666  -2.469  -1.172  1.00  0.00     0.003 C 
ATOM     22  C   UNL     1      56.935  -3.826   1.361  1.00  0.00     0.033 C 
ATOM     23  C   UNL     1      57.916  -1.723   0.204  1.00  0.00    -0.006 C 
ATOM     24  C   UNL     1      56.917  -2.291   1.266  1.00  0.00     0.120 C 
ATOM     25  C   UNL     1      59.382  -1.827   0.697  1.00  0.00     0.014 C 
ATOM     26  C   UNL     1      57.594  -0.210   0.043  1.00  0.00     0.014 C 
ENDROOT
BRANCH   1  27
ATOM     27  C   UNL     1      54.146  -5.841  -7.704  1.00  0.00     0.048 C 
ATOM     28  O   UNL     1      53.499  -6.888  -7.979  1.00  0.00    -0.550 OA
ATOM     29  O   UNL     1      55.033  -5.332  -8.647  1.00  0.00    -0.550 OA
ENDBRANCH   1  27
BRANCH   7  30
ATOM     30  C   UNL     1      53.355  -7.020  -3.184  1.00  0.00    -0.077 C 
ATOM     31  C   UNL     1      53.553  -7.147  -1.693  1.00  0.00     0.039 C 
ATOM     32  C   UNL     1      52.956  -8.110  -3.860  1.00  0.00     0.008 C 
ENDBRANCH   7  30
BRANCH  24  33
ATOM     33  O   UNL     1      57.112  -1.709   2.536  1.00  0.00    -0.393 OA
ATOM     34  H   UNL     1      58.038  -1.908   2.833  1.00  0.00     0.210 HD
ENDBRANCH  24  33
TORSDOF 3
ENDMDL
MODEL 3
REMARK VINA RESULT:    -6.178      1.272      1.722
REMARK INTER + INTRA:          -7.630
REMARK INTER:                  -6.733
REMARK INTRA:                  -0.897
REMARK UNBOUND:                -0.549
REMARK SMILES C=C(C)[C@@H]1CC[C@@]2(C(=O)[O-])CC[C@]3(C)[C@@H](CC[C@H]4[C@]5(C)CC[C@@H](O)C(C)(C)[C@H]5CC[C@@]43C)[C@@H]12
REMARK SMILES IDX 7 1 6 2 33 3 11 4 5 5 15 6 4 7 12 8 16 9 13 10 17 11 31 12
REMARK SMILES IDX 14 13 18 14 30 15 32 16 19 17 29 18 21 19 20 20 28 21 22 22
REMARK SMILES IDX 25 23 23 24 26 25 27 26 8 27 9 28 10 29 2 30 3 31 1 32 24 33
REMARK H PARENT 24 34
REMARK Flexibility Score: inf
ROOT
ATOM      1  C   UNL     1      57.928  -3.144   1.455  1.00  0.00     0.014 C 
ATOM      2  C   UNL     1      57.469  -1.701   1.724  1.00  0.00     0.014 C 
ATOM      3  C   UNL     1      58.485  -3.062   0.006  1.00  0.00     0.012 C 
ATOM      4  C   UNL     1      56.723  -4.128   1.592  1.00  0.00     0.014 C 
ATOM      5  C   UNL     1      56.910  -1.193   0.410  1.00  0.00     0.009 C 
ATOM      6  C   UNL     1      58.574  -4.451  -0.728  1.00  0.00     0.000 C 
ATOM      7  C   UNL     1      57.689  -1.920  -0.693  1.00  0.00     0.018 C 
ATOM      8  C   UNL     1      56.233  -4.748   0.272  1.00  0.00     0.008 C 
ATOM      9  C   UNL     1      59.174  -4.321  -2.139  1.00  0.00     0.005 C 
ATOM     10  C   UNL     1      57.337  -5.451  -0.593  1.00  0.00    -0.024 C 
ATOM     11  C   UNL     1      58.171  -4.139  -3.281  1.00  0.00     0.005 C 
ATOM     12  C   UNL     1      56.748  -5.962  -2.036  1.00  0.00    -0.024 C 
ATOM     13  C   UNL     1      57.813  -6.685   0.245  1.00  0.00     0.012 C 
ATOM     14  C   UNL     1      56.762  -4.763  -3.064  1.00  0.00     0.002 C 
ATOM     15  C   UNL     1      55.267  -6.476  -1.891  1.00  0.00     0.008 C 
ATOM     16  C   UNL     1      57.568  -7.178  -2.589  1.00  0.00     0.012 C 
ATOM     17  C   UNL     1      55.945  -4.949  -4.426  1.00  0.00    -0.026 C 
ATOM     18  C   UNL     1      54.526  -6.719  -3.215  1.00  0.00     0.005 C 
ATOM     19  C   UNL     1      55.833  -3.551  -5.114  1.00  0.00     0.010 C 
ATOM     20  C   UNL     1      56.663  -5.936  -5.416  1.00  0.00     0.012 C 
ATOM     21  C   UNL     1      54.489  -5.415  -4.052  1.00  0.00     0.003 C 
ATOM     22  C   UNL     1      54.847  -3.506  -6.292  1.00  0.00     0.033 C 
ATOM     23  C   UNL     1      53.417  -5.385  -5.219  1.00  0.00    -0.006 C 
ATOM     24  C   UNL     1      53.439  -3.965  -5.877  1.00  0.00     0.120 C 
ATOM     25  C   UNL     1      53.634  -6.498  -6.276  1.00  0.00     0.014 C 
ATOM     26  C   UNL     1      51.994  -5.588  -4.626  1.00  0.00     0.014 C 
ENDROOT
BRANCH   1  27
ATOM     27  C   UNL     1      58.988  -3.519   2.475  1.00  0.00     0.048 C 
ATOM     28  O   UNL     1      59.913  -2.721   2.784  1.00  0.00    -0.550 OA
ATOM     29  O   UNL     1      58.985  -4.794   3.034  1.00  0.00    -0.550 OA
ENDBRANCH   1  27
BRANCH   7  30
ATOM     30  C   UNL     1      58.560  -0.931  -1.470  1.00  0.00    -0.077 C 
ATOM     31  C   UNL     1      58.249  -0.552  -2.898  1.00  0.00     0.039 C 
ATOM     32  C   UNL     1      59.718  -0.500  -0.942  1.00  0.00     0.008 C 
ENDBRANCH   7  30
BRANCH  24  33
ATOM     33  O   UNL     1      52.542  -3.875  -6.963  1.00  0.00    -0.393 OA
ATOM     34  H   UNL     1      51.978  -3.068  -6.836  1.00  0.00     0.210 HD
ENDBRANCH  24  33
TORSDOF 3
ENDMDL
MODEL 4
REMARK VINA RESULT:    -6.159      3.037      7.974
REMARK INTER + INTRA:          -7.609
REMARK INTER:                  -6.698
REMARK INTRA:                  -0.910
REMARK UNBOUND:                -0.549
REMARK SMILES C=C(C)[C@@H]1CC[C@@]2(C(=O)[O-])CC[C@]3(C)[C@@H](CC[C@H]4[C@]5(C)CC[C@@H](O)C(C)(C)[C@H]5CC[C@@]43C)[C@@H]12
REMARK SMILES IDX 7 1 6 2 33 3 11 4 5 5 15 6 4 7 12 8 16 9 13 10 17 11 31 12
REMARK SMILES IDX 14 13 18 14 30 15 32 16 19 17 29 18 21 19 20 20 28 21 22 22
REMARK SMILES IDX 25 23 23 24 26 25 27 26 8 27 9 28 10 29 2 30 3 31 1 32 24 33
REMARK H PARENT 24 34
REMARK Flexibility Score: inf
ROOT
ATOM      1  C   UNL     1      53.310  -4.405  -6.597  1.00  0.00     0.014 C 
ATOM      2  C   UNL     1      51.864  -3.974  -6.298  1.00  0.00     0.014 C 
ATOM      3  C   UNL     1      53.423  -5.766  -5.855  1.00  0.00     0.012 C 
ATOM      4  C   UNL     1      54.313  -3.333  -6.065  1.00  0.00     0.014 C 
ATOM      5  C   UNL     1      51.584  -4.423  -4.878  1.00  0.00     0.009 C 
ATOM      6  C   UNL     1      54.902  -6.215  -5.558  1.00  0.00     0.000 C 
ATOM      7  C   UNL     1      52.434  -5.680  -4.653  1.00  0.00     0.018 C 
ATOM      8  C   UNL     1      55.146  -3.765  -4.846  1.00  0.00     0.008 C 
ATOM      9  C   UNL     1      54.960  -7.588  -4.864  1.00  0.00     0.005 C 
ATOM     10  C   UNL     1      55.922  -5.119  -5.006  1.00  0.00    -0.024 C 
ATOM     11  C   UNL     1      54.996  -7.566  -3.334  1.00  0.00     0.005 C 
ATOM     12  C   UNL     1      56.669  -5.561  -3.615  1.00  0.00    -0.024 C 
ATOM     13  C   UNL     1      56.995  -4.865  -6.119  1.00  0.00     0.012 C 
ATOM     14  C   UNL     1      55.639  -6.309  -2.679  1.00  0.00     0.002 C 
ATOM     15  C   UNL     1      57.219  -4.304  -2.844  1.00  0.00     0.008 C 
ATOM     16  C   UNL     1      57.918  -6.464  -3.900  1.00  0.00     0.012 C 
ATOM     17  C   UNL     1      56.064  -6.547  -1.156  1.00  0.00    -0.026 C 
ATOM     18  C   UNL     1      57.691  -4.572  -1.407  1.00  0.00     0.005 C 
ATOM     19  C   UNL     1      54.791  -6.993  -0.366  1.00  0.00     0.010 C 
ATOM     20  C   UNL     1      57.156  -7.667  -1.014  1.00  0.00     0.012 C 
ATOM     21  C   UNL     1      56.531  -5.164  -0.567  1.00  0.00     0.003 C 
ATOM     22  C   UNL     1      54.966  -6.998   1.160  1.00  0.00     0.033 C 
ATOM     23  C   UNL     1      56.722  -5.096   1.004  1.00  0.00    -0.006 C 
ATOM     24  C   UNL     1      55.419  -5.626   1.688  1.00  0.00     0.120 C 
ATOM     25  C   UNL     1      57.972  -5.868   1.501  1.00  0.00     0.014 C 
ATOM     26  C   UNL     1      56.895  -3.614   1.445  1.00  0.00     0.014 C 
ENDROOT
BRANCH   1  27
ATOM     27  C   UNL     1      53.482  -4.536  -8.101  1.00  0.00     0.048 C 
ATOM     28  O   UNL     1      54.597  -4.340  -8.653  1.00  0.00    -0.550 OA
ATOM     29  O   UNL     1      52.375  -4.811  -8.898  1.00  0.00    -0.550 OA
ENDBRANCH   1  27
BRANCH   7  30
ATOM     30  C   UNL     1      51.538  -6.908  -4.489  1.00  0.00    -0.077 C 
ATOM     31  C   UNL     1      51.341  -7.572  -3.148  1.00  0.00     0.039 C 
ATOM     32  C   UNL     1      51.030  -7.517  -5.573  1.00  0.00     0.008 C 
ENDBRANCH   7  30
BRANCH  24  33
ATOM     33  O   UNL     1      55.531  -5.643   3.094  1.00  0.00    -0.393 OA
ATOM     34  H   UNL     1      55.565  -6.588   3.394  1.00  0.00     0.210 HD
ENDBRANCH  24  33
TORSDOF 3
ENDMDL
MODEL 5
REMARK VINA RESULT:    -6.006      3.600      9.494
REMARK INTER + INTRA:          -7.433
REMARK INTER:                  -6.567
REMARK INTRA:                  -0.866
REMARK UNBOUND:                -0.549
REMARK SMILES C=C(C)[C@@H]1CC[C@@]2(C(=O)[O-])CC[C@]3(C)[C@@H](CC[C@H]4[C@]5(C)CC[C@@H](O)C(C)(C)[C@H]5CC[C@@]43C)[C@@H]12
REMARK SMILES IDX 7 1 6 2 33 3 11 4 5 5 15 6 4 7 12 8 16 9 13 10 17 11 31 12
REMARK SMILES IDX 14 13 18 14 30 15 32 16 19 17 29 18 21 19 20 20 28 21 22 22
REMARK SMILES IDX 25 23 23 24 26 25 27 26 8 27 9 28 10 29 2 30 3 31 1 32 24 33
REMARK H PARENT 24 34
REMARK Flexibility Score: inf
ROOT
ATOM      1  C   UNL     1      50.120  -6.448  -5.912  1.00  0.00     0.014 C 
ATOM      2  C   UNL     1      49.038  -5.441  -5.484  1.00  0.00     0.014 C 
ATOM      3  C   UNL     1      50.236  -7.376  -4.671  1.00  0.00     0.012 C 
ATOM      4  C   UNL     1      51.450  -5.701  -6.245  1.00  0.00     0.014 C 
ATOM      5  C   UNL     1      49.264  -5.196  -4.006  1.00  0.00     0.009 C 
ATOM      6  C   UNL     1      51.581  -8.189  -4.599  1.00  0.00     0.000 C 
ATOM      7  C   UNL     1      49.853  -6.495  -3.444  1.00  0.00     0.018 C 
ATOM      8  C   UNL     1      52.592  -5.921  -5.238  1.00  0.00     0.008 C 
ATOM      9  C   UNL     1      51.627  -9.125  -3.379  1.00  0.00     0.005 C 
ATOM     10  C   UNL     1      52.940  -7.420  -4.932  1.00  0.00    -0.024 C 
ATOM     11  C   UNL     1      52.276  -8.552  -2.117  1.00  0.00     0.005 C 
ATOM     12  C   UNL     1      54.073  -7.554  -3.753  1.00  0.00    -0.024 C 
ATOM     13  C   UNL     1      53.505  -8.007  -6.269  1.00  0.00     0.012 C 
ATOM     14  C   UNL     1      53.373  -7.470  -2.339  1.00  0.00     0.002 C 
ATOM     15  C   UNL     1      55.133  -6.395  -3.852  1.00  0.00     0.008 C 
ATOM     16  C   UNL     1      54.886  -8.887  -3.892  1.00  0.00     0.012 C 
ATOM     17  C   UNL     1      54.313  -7.263  -1.061  1.00  0.00    -0.026 C 
ATOM     18  C   UNL     1      56.074  -6.263  -2.646  1.00  0.00     0.005 C 
ATOM     19  C   UNL     1      53.401  -6.886   0.150  1.00  0.00     0.010 C 
ATOM     20  C   UNL     1      55.112  -8.565  -0.697  1.00  0.00     0.012 C 
ATOM     21  C   UNL     1      55.252  -6.034  -1.352  1.00  0.00     0.003 C 
ATOM     22  C   UNL     1      54.167  -6.388   1.385  1.00  0.00     0.033 C 
ATOM     23  C   UNL     1      56.067  -5.463  -0.119  1.00  0.00    -0.006 C 
ATOM     24  C   UNL     1      55.067  -5.186   1.053  1.00  0.00     0.120 C 
ATOM     25  C   UNL     1      57.221  -6.394   0.334  1.00  0.00     0.014 C 
ATOM     26  C   UNL     1      56.705  -4.097  -0.502  1.00  0.00     0.014 C 
ENDROOT
BRANCH   1  27
ATOM     27  C   UNL     1      49.643  -7.180  -7.155  1.00  0.00     0.048 C 
ATOM     28  O   UNL     1      48.852  -8.158  -7.077  1.00  0.00    -0.550 OA
ATOM     29  O   UNL     1      50.139  -6.814  -8.402  1.00  0.00    -0.550 OA
ENDBRANCH   1  27
BRANCH   7  30
ATOM     30  C   UNL     1      48.863  -7.156  -2.482  1.00  0.00    -0.077 C 
ATOM     31  C   UNL     1      48.879  -6.860  -1.001  1.00  0.00     0.039 C 
ATOM     32  C   UNL     1      48.059  -8.139  -2.918  1.00  0.00     0.008 C 
ENDBRANCH   7  30
BRANCH  24  33
ATOM     33  O   UNL     1      55.727  -4.720   2.209  1.00  0.00    -0.393 OA
ATOM     34  H   UNL     1      55.041  -4.475   2.883  1.00  0.00     0.210 HD
ENDBRANCH  24  33
TORSDOF 3
ENDMDL
MODEL 6
REMARK VINA RESULT:    -5.931      2.133      7.886
REMARK INTER + INTRA:          -7.347
REMARK INTER:                  -6.454
REMARK INTRA:                  -0.893
REMARK UNBOUND:                -0.549
REMARK SMILES C=C(C)[C@@H]1CC[C@@]2(C(=O)[O-])CC[C@]3(C)[C@@H](CC[C@H]4[C@]5(C)CC[C@@H](O)C(C)(C)[C@H]5CC[C@@]43C)[C@@H]12
REMARK SMILES IDX 7 1 6 2 33 3 11 4 5 5 15 6 4 7 12 8 16 9 13 10 17 11 31 12
REMARK SMILES IDX 14 13 18 14 30 15 32 16 19 17 29 18 21 19 20 20 28 21 22 22
REMARK SMILES IDX 25 23 23 24 26 25 27 26 8 27 9 28 10 29 2 30 3 31 1 32 24 33
REMARK H PARENT 24 34
REMARK Flexibility Score: inf
ROOT
ATOM      1  C   UNL     1      53.308  -4.483  -6.673  1.00  0.00     0.014 C 
ATOM      2  C   UNL     1      51.879  -4.272  -6.145  1.00  0.00     0.014 C 
ATOM      3  C   UNL     1      53.796  -5.714  -5.860  1.00  0.00     0.012 C 
ATOM      4  C   UNL     1      54.170  -3.204  -6.424  1.00  0.00     0.014 C 
ATOM      5  C   UNL     1      51.932  -4.601  -4.667  1.00  0.00     0.009 C 
ATOM      6  C   UNL     1      55.361  -5.872  -5.809  1.00  0.00     0.000 C 
ATOM      7  C   UNL     1      53.027  -5.664  -4.506  1.00  0.00     0.018 C 
ATOM      8  C   UNL     1      55.262  -3.352  -5.351  1.00  0.00     0.008 C 
ATOM      9  C   UNL     1      55.791  -7.129  -5.033  1.00  0.00     0.005 C 
ATOM     10  C   UNL     1      56.238  -4.564  -5.546  1.00  0.00    -0.024 C 
ATOM     11  C   UNL     1      56.080  -6.932  -3.543  1.00  0.00     0.005 C 
ATOM     12  C   UNL     1      57.279  -4.717  -4.287  1.00  0.00    -0.024 C 
ATOM     13  C   UNL     1      57.041  -4.258  -6.855  1.00  0.00     0.012 C 
ATOM     14  C   UNL     1      56.579  -5.520  -3.121  1.00  0.00     0.002 C 
ATOM     15  C   UNL     1      57.708  -3.307  -3.734  1.00  0.00     0.008 C 
ATOM     16  C   UNL     1      58.608  -5.422  -4.728  1.00  0.00     0.012 C 
ATOM     17  C   UNL     1      57.293  -5.513  -1.689  1.00  0.00    -0.026 C 
ATOM     18  C   UNL     1      58.457  -3.331  -2.393  1.00  0.00     0.005 C 
ATOM     19  C   UNL     1      56.277  -6.076  -0.643  1.00  0.00     0.010 C 
ATOM     20  C   UNL     1      58.582  -6.409  -1.665  1.00  0.00     0.012 C 
ATOM     21  C   UNL     1      57.586  -4.014  -1.308  1.00  0.00     0.003 C 
ATOM     22  C   UNL     1      56.706  -5.882   0.819  1.00  0.00     0.033 C 
ATOM     23  C   UNL     1      58.025  -3.740   0.190  1.00  0.00    -0.006 C 
ATOM     24  C   UNL     1      56.977  -4.404   1.144  1.00  0.00     0.120 C 
ATOM     25  C   UNL     1      59.462  -4.230   0.504  1.00  0.00     0.014 C 
ATOM     26  C   UNL     1      57.991  -2.211   0.473  1.00  0.00     0.014 C 
ENDROOT
BRANCH   1  27
ATOM     27  C   UNL     1      53.244  -4.749  -8.167  1.00  0.00     0.048 C 
ATOM     28  O   UNL     1      54.251  -4.581  -8.907  1.00  0.00    -0.550 OA
ATOM     29  O   UNL     1      52.036  -5.121  -8.749  1.00  0.00    -0.550 OA
ENDBRANCH   1  27
BRANCH   7  30
ATOM     30  C   UNL     1      52.415  -6.999  -4.081  1.00  0.00    -0.077 C 
ATOM     31  C   UNL     1      52.591  -7.544  -2.684  1.00  0.00     0.039 C 
ATOM     32  C   UNL     1      51.838  -7.794  -4.998  1.00  0.00     0.008 C 
ENDBRANCH   7  30
BRANCH  24  33
ATOM     33  O   UNL     1      57.327  -4.246   2.502  1.00  0.00    -0.393 OA
ATOM     34  H   UNL     1      56.644  -4.705   3.056  1.00  0.00     0.210 HD
ENDBRANCH  24  33
TORSDOF 3
ENDMDL
MODEL 7
REMARK VINA RESULT:    -5.927      3.701      5.772
REMARK INTER + INTRA:          -7.342
REMARK INTER:                  -6.511
REMARK INTRA:                  -0.831
REMARK UNBOUND:                -0.549
REMARK SMILES C=C(C)[C@@H]1CC[C@@]2(C(=O)[O-])CC[C@]3(C)[C@@H](CC[C@H]4[C@]5(C)CC[C@@H](O)C(C)(C)[C@H]5CC[C@@]43C)[C@@H]12
REMARK SMILES IDX 7 1 6 2 33 3 11 4 5 5 15 6 4 7 12 8 16 9 13 10 17 11 31 12
REMARK SMILES IDX 14 13 18 14 30 15 32 16 19 17 29 18 21 19 20 20 28 21 22 22
REMARK SMILES IDX 25 23 23 24 26 25 27 26 8 27 9 28 10 29 2 30 3 31 1 32 24 33
REMARK H PARENT 24 34
REMARK Flexibility Score: inf
ROOT
ATOM      1  C   UNL     1      59.777  -1.264  -2.952  1.00  0.00     0.014 C 
ATOM      2  C   UNL     1      60.015  -1.989  -4.288  1.00  0.00     0.014 C 
ATOM      3  C   UNL     1      60.383  -2.250  -1.915  1.00  0.00     0.012 C 
ATOM      4  C   UNL     1      58.251  -1.010  -2.739  1.00  0.00     0.014 C 
ATOM      5  C   UNL     1      59.815  -3.463  -4.000  1.00  0.00     0.009 C 
ATOM      6  C   UNL     1      59.865  -2.034  -0.445  1.00  0.00     0.000 C 
ATOM      7  C   UNL     1      60.231  -3.670  -2.538  1.00  0.00     0.018 C 
ATOM      8  C   UNL     1      57.598  -1.853  -1.630  1.00  0.00     0.008 C 
ATOM      9  C   UNL     1      60.527  -3.004   0.550  1.00  0.00     0.005 C 
ATOM     10  C   UNL     1      58.303  -1.784  -0.229  1.00  0.00    -0.024 C 
ATOM     11  C   UNL     1      59.776  -4.311   0.815  1.00  0.00     0.005 C 
ATOM     12  C   UNL     1      57.618  -2.814   0.848  1.00  0.00    -0.024 C 
ATOM     13  C   UNL     1      58.120  -0.310   0.267  1.00  0.00     0.012 C 
ATOM     14  C   UNL     1      58.228  -4.258   0.657  1.00  0.00     0.002 C 
ATOM     15  C   UNL     1      56.060  -2.901   0.636  1.00  0.00     0.008 C 
ATOM     16  C   UNL     1      57.819  -2.316   2.321  1.00  0.00     0.012 C 
ATOM     17  C   UNL     1      57.485  -5.475   1.382  1.00  0.00    -0.026 C 
ATOM     18  C   UNL     1      55.357  -4.032   1.401  1.00  0.00     0.005 C 
ATOM     19  C   UNL     1      58.058  -6.806   0.794  1.00  0.00     0.010 C 
ATOM     20  C   UNL     1      57.722  -5.474   2.934  1.00  0.00     0.012 C 
ATOM     21  C   UNL     1      55.960  -5.402   0.999  1.00  0.00     0.003 C 
ATOM     22  C   UNL     1      57.261  -8.060   1.183  1.00  0.00     0.033 C 
ATOM     23  C   UNL     1      55.080  -6.668   1.364  1.00  0.00    -0.006 C 
ATOM     24  C   UNL     1      55.779  -7.943   0.786  1.00  0.00     0.120 C 
ATOM     25  C   UNL     1      54.818  -6.811   2.885  1.00  0.00     0.014 C 
ATOM     26  C   UNL     1      53.693  -6.557   0.669  1.00  0.00     0.014 C 
ENDROOT
BRANCH   1  27
ATOM     27  C   UNL     1      60.498   0.074  -2.986  1.00  0.00     0.048 C 
ATOM     28  O   UNL     1      61.579   0.252  -2.363  1.00  0.00    -0.550 OA
ATOM     29  O   UNL     1      59.924   1.147  -3.659  1.00  0.00    -0.550 OA
ENDBRANCH   1  27
BRANCH   7  30
ATOM     30  C   UNL     1      61.494  -4.528  -2.460  1.00  0.00    -0.077 C 
ATOM     31  C   UNL     1      61.427  -6.024  -2.269  1.00  0.00     0.039 C 
ATOM     32  C   UNL     1      62.701  -3.941  -2.400  1.00  0.00     0.008 C 
ENDBRANCH   7  30
BRANCH  24  33
ATOM     33  O   UNL     1      55.078  -9.123   1.114  1.00  0.00    -0.393 OA
ATOM     34  H   UNL     1      54.222  -8.867   1.545  1.00  0.00     0.210 HD
ENDBRANCH  24  33
TORSDOF 3
ENDMDL
MODEL 8
REMARK VINA RESULT:    -5.732      2.737      4.443
REMARK INTER + INTRA:          -7.119
REMARK INTER:                  -6.254
REMARK INTRA:                  -0.865
REMARK UNBOUND:                -0.549
REMARK SMILES C=C(C)[C@@H]1CC[C@@]2(C(=O)[O-])CC[C@]3(C)[C@@H](CC[C@H]4[C@]5(C)CC[C@@H](O)C(C)(C)[C@H]5CC[C@@]43C)[C@@H]12
REMARK SMILES IDX 7 1 6 2 33 3 11 4 5 5 15 6 4 7 12 8 16 9 13 10 17 11 31 12
REMARK SMILES IDX 14 13 18 14 30 15 32 16 19 17 29 18 21 19 20 20 28 21 22 22
REMARK SMILES IDX 25 23 23 24 26 25 27 26 8 27 9 28 10 29 2 30 3 31 1 32 24 33
REMARK H PARENT 24 34
REMARK Flexibility Score: inf
ROOT
ATOM      1  C   UNL     1      56.075  -6.071   1.714  1.00  0.00     0.014 C 
ATOM      2  C   UNL     1      56.227  -4.606   2.158  1.00  0.00     0.014 C 
ATOM      3  C   UNL     1      56.767  -6.082   0.323  1.00  0.00     0.012 C 
ATOM      4  C   UNL     1      54.564  -6.461   1.650  1.00  0.00     0.014 C 
ATOM      5  C   UNL     1      56.071  -3.775   0.901  1.00  0.00     0.009 C 
ATOM      6  C   UNL     1      56.351  -7.292  -0.593  1.00  0.00     0.000 C 
ATOM      7  C   UNL     1      56.593  -4.644  -0.251  1.00  0.00     0.018 C 
ATOM      8  C   UNL     1      54.004  -6.673   0.233  1.00  0.00     0.008 C 
ATOM      9  C   UNL     1      57.097  -7.282  -1.939  1.00  0.00     0.005 C 
ATOM     10  C   UNL     1      54.804  -7.683  -0.663  1.00  0.00    -0.024 C 
ATOM     11  C   UNL     1      56.386  -6.574  -3.095  1.00  0.00     0.005 C 
ATOM     12  C   UNL     1      54.213  -7.741  -2.192  1.00  0.00    -0.024 C 
ATOM     13  C   UNL     1      54.635  -9.082   0.018  1.00  0.00     0.012 C 
ATOM     14  C   UNL     1      54.831  -6.561  -3.041  1.00  0.00     0.002 C 
ATOM     15  C   UNL     1      52.646  -7.592  -2.198  1.00  0.00     0.008 C 
ATOM     16  C   UNL     1      54.511  -9.125  -2.866  1.00  0.00     0.012 C 
ATOM     17  C   UNL     1      54.159  -6.240  -4.456  1.00  0.00    -0.026 C 
ATOM     18  C   UNL     1      52.016  -7.359  -3.580  1.00  0.00     0.005 C 
ATOM     19  C   UNL     1      54.709  -4.862  -4.947  1.00  0.00     0.010 C 
ATOM     20  C   UNL     1      54.506  -7.328  -5.535  1.00  0.00     0.012 C 
ATOM     21  C   UNL     1      52.610  -6.082  -4.227  1.00  0.00     0.003 C 
ATOM     22  C   UNL     1      53.960  -4.281  -6.157  1.00  0.00     0.033 C 
ATOM     23  C   UNL     1      51.777  -5.479  -5.433  1.00  0.00    -0.006 C 
ATOM     24  C   UNL     1      52.453  -4.141  -5.884  1.00  0.00     0.120 C 
ATOM     25  C   UNL     1      51.625  -6.462  -6.622  1.00  0.00     0.014 C 
ATOM     26  C   UNL     1      50.343  -5.121  -4.949  1.00  0.00     0.014 C 
ENDROOT
BRANCH   1  27
ATOM     27  C   UNL     1      56.770  -6.965   2.727  1.00  0.00     0.048 C 
ATOM     28  O   UNL     1      56.564  -8.208   2.755  1.00  0.00    -0.550 OA
ATOM     29  O   UNL     1      57.601  -6.399   3.688  1.00  0.00    -0.550 OA
ENDBRANCH   1  27
BRANCH   7  30
ATOM     30  C   UNL     1      57.871  -4.042  -0.835  1.00  0.00    -0.077 C 
ATOM     31  C   UNL     1      59.196  -4.142  -0.117  1.00  0.00     0.039 C 
ATOM     32  C   UNL     1      57.808  -3.269  -1.932  1.00  0.00     0.008 C 
ENDBRANCH   7  30
BRANCH  24  33
ATOM     33  O   UNL     1      51.795  -3.566  -6.992  1.00  0.00    -0.393 OA
ATOM     34  H   UNL     1      51.514  -4.296  -7.602  1.00  0.00     0.210 HD
ENDBRANCH  24  33
TORSDOF 3
ENDMDL
MODEL 9
REMARK VINA RESULT:    -5.434      3.212      5.013
REMARK INTER + INTRA:          -6.777
REMARK INTER:                  -5.936
REMARK INTRA:                  -0.841
REMARK UNBOUND:                -0.549
REMARK SMILES C=C(C)[C@@H]1CC[C@@]2(C(=O)[O-])CC[C@]3(C)[C@@H](CC[C@H]4[C@]5(C)CC[C@@H](O)C(C)(C)[C@H]5CC[C@@]43C)[C@@H]12
REMARK SMILES IDX 7 1 6 2 33 3 11 4 5 5 15 6 4 7 12 8 16 9 13 10 17 11 31 12
REMARK SMILES IDX 14 13 18 14 30 15 32 16 19 17 29 18 21 19 20 20 28 21 22 22
REMARK SMILES IDX 25 23 23 24 26 25 27 26 8 27 9 28 10 29 2 30 3 31 1 32 24 33
REMARK H PARENT 24 34
REMARK Flexibility Score: inf
ROOT
ATOM      1  C   UNL     1      58.353  -1.984  -0.362  1.00  0.00     0.014 C 
ATOM      2  C   UNL     1      59.138  -0.680  -0.136  1.00  0.00     0.014 C 
ATOM      3  C   UNL     1      59.482  -3.033  -0.561  1.00  0.00     0.012 C 
ATOM      4  C   UNL     1      57.421  -1.843  -1.607  1.00  0.00     0.014 C 
ATOM      5  C   UNL     1      60.347  -0.763  -1.045  1.00  0.00     0.009 C 
ATOM      6  C   UNL     1      59.016  -4.347  -1.292  1.00  0.00     0.000 C 
ATOM      7  C   UNL     1      60.687  -2.254  -1.167  1.00  0.00     0.018 C 
ATOM      8  C   UNL     1      57.841  -2.670  -2.834  1.00  0.00     0.008 C 
ATOM      9  C   UNL     1      60.157  -5.371  -1.423  1.00  0.00     0.005 C 
ATOM     10  C   UNL     1      58.070  -4.200  -2.569  1.00  0.00    -0.024 C 
ATOM     11  C   UNL     1      60.965  -5.313  -2.722  1.00  0.00     0.005 C 
ATOM     12  C   UNL     1      58.642  -4.970  -3.900  1.00  0.00    -0.024 C 
ATOM     13  C   UNL     1      56.666  -4.781  -2.191  1.00  0.00     0.012 C 
ATOM     14  C   UNL     1      60.210  -4.790  -3.978  1.00  0.00     0.002 C 
ATOM     15  C   UNL     1      58.007  -4.377  -5.213  1.00  0.00     0.008 C 
ATOM     16  C   UNL     1      58.257  -6.489  -3.889  1.00  0.00     0.012 C 
ATOM     17  C   UNL     1      60.930  -5.186  -5.350  1.00  0.00    -0.026 C 
ATOM     18  C   UNL     1      58.669  -4.831  -6.522  1.00  0.00     0.005 C 
ATOM     19  C   UNL     1      62.388  -4.625  -5.306  1.00  0.00     0.010 C 
ATOM     20  C   UNL     1      61.000  -6.742  -5.554  1.00  0.00     0.012 C 
ATOM     21  C   UNL     1      60.172  -4.453  -6.519  1.00  0.00     0.003 C 
ATOM     22  C   UNL     1      63.125  -4.682  -6.653  1.00  0.00     0.033 C 
ATOM     23  C   UNL     1      60.881  -4.464  -7.935  1.00  0.00    -0.006 C 
ATOM     24  C   UNL     1      62.349  -3.949  -7.761  1.00  0.00     0.120 C 
ATOM     25  C   UNL     1      60.850  -5.854  -8.622  1.00  0.00     0.014 C 
ATOM     26  C   UNL     1      60.161  -3.467  -8.888  1.00  0.00     0.014 C 
ENDROOT
BRANCH   1  27
ATOM     27  C   UNL     1      57.499  -2.260   0.863  1.00  0.00     0.048 C 
ATOM     28  O   UNL     1      56.242  -2.321   0.787  1.00  0.00    -0.550 OA
ATOM     29  O   UNL     1      58.104  -2.382   2.110  1.00  0.00    -0.550 OA
ENDBRANCH   1  27
BRANCH   7  30
ATOM     30  C   UNL     1      62.029  -2.551  -0.495  1.00  0.00    -0.077 C 
ATOM     31  C   UNL     1      62.204  -2.457   1.002  1.00  0.00     0.039 C 
ATOM     32  C   UNL     1      63.125  -2.748  -1.245  1.00  0.00     0.008 C 
ENDBRANCH   7  30
BRANCH  24  33
ATOM     33  O   UNL     1      63.065  -3.978  -8.977  1.00  0.00    -0.393 OA
ATOM     34  H   UNL     1      62.767  -4.769  -9.496  1.00  0.00     0.210 HD
ENDBRANCH  24  33
TORSDOF 3
ENDMDL
