MODEL 1
REMARK VINA RESULT:    -3.750      0.000      0.000
REMARK INTER + INTRA:          -3.750
REMARK INTER:                  -3.750
REMARK INTRA:                   0.000
REMARK UNBOUND:                 0.000
REMARK SMILES O=c1ccc2ccccc2o1
REMARK SMILES IDX 7 1 8 2 9 3 10 4 5 5 6 6 4 7 3 8 2 9 1 10 11 11
REMARK H PARENT
REMARK Flexibility Score: inf
ROOT
ATOM      1  C   UNL     1      22.476  24.775  18.546  1.00  0.00     0.001 A 
ATOM      2  C   UNL     1      21.174  24.786  18.036  1.00  0.00     0.004 A 
ATOM      3  C   UNL     1      20.307  23.719  18.293  1.00  0.00     0.048 A 
ATOM      4  C   UNL     1      20.741  22.635  19.064  1.00  0.00     0.138 A 
ATOM      5  C   UNL     1      22.057  22.623  19.580  1.00  0.00     0.018 A 
ATOM      6  C   UNL     1      22.921  23.696  19.318  1.00  0.00     0.012 A 
ATOM      7  C   UNL     1      22.462  21.526  20.346  1.00  0.00     0.019 A 
ATOM      8  C   UNL     1      21.565  20.483  20.578  1.00  0.00     0.094 A 
ATOM      9  C   UNL     1      20.278  20.563  20.034  1.00  0.00     0.336 A 
ATOM     10  O   UNL     1      19.454  19.633  20.232  1.00  0.00    -0.246 OA
ATOM     11  O   UNL     1      19.916  21.619  19.309  1.00  0.00    -0.423 OA
ENDROOT
TORSDOF 0
ENDMDL
MODEL 2
REMARK VINA RESULT:    -3.719      1.565      3.726
REMARK INTER + INTRA:          -3.719
REMARK INTER:                  -3.719
REMARK INTRA:                   0.000
REMARK UNBOUND:                 0.000
REMARK SMILES O=c1ccc2ccccc2o1
REMARK SMILES IDX 7 1 8 2 9 3 10 4 5 5 6 6 4 7 3 8 2 9 1 10 11 11
REMARK H PARENT
REMARK Flexibility Score: inf
ROOT
ATOM      1  C   UNL     1      22.423  21.372  20.581  1.00  0.00     0.001 A 
ATOM      2  C   UNL     1      21.112  20.889  20.540  1.00  0.00     0.004 A 
ATOM      3  C   UNL     1      20.127  21.580  19.826  1.00  0.00     0.048 A 
ATOM      4  C   UNL     1      20.454  22.760  19.149  1.00  0.00     0.138 A 
ATOM      5  C   UNL     1      21.779  23.250  19.189  1.00  0.00     0.018 A 
ATOM      6  C   UNL     1      22.761  22.551  19.906  1.00  0.00     0.012 A 
ATOM      7  C   UNL     1      22.075  24.431  18.503  1.00  0.00     0.019 A 
ATOM      8  C   UNL     1      21.062  25.088  17.804  1.00  0.00     0.094 A 
ATOM      9  C   UNL     1      19.772  24.546  17.808  1.00  0.00     0.336 A 
ATOM     10  O   UNL     1      18.845  25.124  17.184  1.00  0.00    -0.246 OA
ATOM     11  O   UNL     1      19.517  23.419  18.469  1.00  0.00    -0.423 OA
ENDROOT
TORSDOF 0
ENDMDL
MODEL 3
REMARK VINA RESULT:    -3.408      1.241      2.402
REMARK INTER + INTRA:          -3.408
REMARK INTER:                  -3.408
REMARK INTRA:                   0.000
REMARK UNBOUND:                 0.000
REMARK SMILES O=c1ccc2ccccc2o1
REMARK SMILES IDX 7 1 8 2 9 3 10 4 5 5 6 6 4 7 3 8 2 9 1 10 11 11
REMARK H PARENT
REMARK Flexibility Score: inf
ROOT
ATOM      1  C   UNL     1      22.403  24.391  18.864  1.00  0.00     0.001 A 
ATOM      2  C   UNL     1      23.047  23.219  19.274  1.00  0.00     0.004 A 
ATOM      3  C   UNL     1      22.302  22.075  19.579  1.00  0.00     0.048 A 
ATOM      4  C   UNL     1      20.907  22.101  19.475  1.00  0.00     0.138 A 
ATOM      5  C   UNL     1      20.255  23.284  19.061  1.00  0.00     0.018 A 
ATOM      6  C   UNL     1      21.008  24.427  18.755  1.00  0.00     0.012 A 
ATOM      7  C   UNL     1      18.861  23.278  18.966  1.00  0.00     0.019 A 
ATOM      8  C   UNL     1      18.158  22.115  19.281  1.00  0.00     0.094 A 
ATOM      9  C   UNL     1      18.870  20.980  19.685  1.00  0.00     0.336 A 
ATOM     10  O   UNL     1      18.254  19.922  19.973  1.00  0.00    -0.246 OA
ATOM     11  O   UNL     1      20.198  21.012  19.766  1.00  0.00    -0.423 OA
ENDROOT
TORSDOF 0
ENDMDL
MODEL 4
REMARK VINA RESULT:    -3.300     15.010     16.360
REMARK INTER + INTRA:          -3.300
REMARK INTER:                  -3.300
REMARK INTRA:                   0.000
REMARK UNBOUND:                 0.000
REMARK SMILES O=c1ccc2ccccc2o1
REMARK SMILES IDX 7 1 8 2 9 3 10 4 5 5 6 6 4 7 3 8 2 9 1 10 11 11
REMARK H PARENT
REMARK Flexibility Score: inf
ROOT
ATOM      1  C   UNL     1      22.782   5.463  15.112  1.00  0.00     0.001 A 
ATOM      2  C   UNL     1      24.006   5.634  14.458  1.00  0.00     0.004 A 
ATOM      3  C   UNL     1      25.044   6.338  15.077  1.00  0.00     0.048 A 
ATOM      4  C   UNL     1      24.859   6.876  16.355  1.00  0.00     0.138 A 
ATOM      5  C   UNL     1      23.623   6.704  17.017  1.00  0.00     0.018 A 
ATOM      6  C   UNL     1      22.587   5.997  16.391  1.00  0.00     0.012 A 
ATOM      7  C   UNL     1      23.468   7.253  18.294  1.00  0.00     0.019 A 
ATOM      8  C   UNL     1      24.529   7.948  18.873  1.00  0.00     0.094 A 
ATOM      9  C   UNL     1      25.726   8.079  18.159  1.00  0.00     0.336 A 
ATOM     10  O   UNL     1      26.694   8.703  18.665  1.00  0.00    -0.246 OA
ATOM     11  O   UNL     1      25.847   7.547  16.945  1.00  0.00    -0.423 OA
ENDROOT
TORSDOF 0
ENDMDL
MODEL 5
REMARK VINA RESULT:    -3.272     15.279     16.494
REMARK INTER + INTRA:          -3.272
REMARK INTER:                  -3.272
REMARK INTRA:                   0.000
REMARK UNBOUND:                 0.000
REMARK SMILES O=c1ccc2ccccc2o1
REMARK SMILES IDX 7 1 8 2 9 3 10 4 5 5 6 6 4 7 3 8 2 9 1 10 11 11
REMARK H PARENT
REMARK Flexibility Score: inf
ROOT
ATOM      1  C   UNL     1      24.861   8.206  18.791  1.00  0.00     0.001 A 
ATOM      2  C   UNL     1      26.081   7.829  18.221  1.00  0.00     0.004 A 
ATOM      3  C   UNL     1      26.106   7.081  17.039  1.00  0.00     0.048 A 
ATOM      4  C   UNL     1      24.907   6.707  16.423  1.00  0.00     0.138 A 
ATOM      5  C   UNL     1      23.673   7.087  16.998  1.00  0.00     0.018 A 
ATOM      6  C   UNL     1      23.656   7.838  18.183  1.00  0.00     0.012 A 
ATOM      7  C   UNL     1      22.492   6.699  16.359  1.00  0.00     0.019 A 
ATOM      8  C   UNL     1      22.563   5.953  15.183  1.00  0.00     0.094 A 
ATOM      9  C   UNL     1      23.820   5.611  14.671  1.00  0.00     0.336 A 
ATOM     10  O   UNL     1      23.905   4.939  13.611  1.00  0.00    -0.246 OA
ATOM     11  O   UNL     1      24.930   5.994  15.298  1.00  0.00    -0.423 OA
ENDROOT
TORSDOF 0
ENDMDL
MODEL 6
REMARK VINA RESULT:    -3.250      1.835      3.729
REMARK INTER + INTRA:          -3.250
REMARK INTER:                  -3.250
REMARK INTRA:                   0.000
REMARK UNBOUND:                 0.000
REMARK SMILES O=c1ccc2ccccc2o1
REMARK SMILES IDX 7 1 8 2 9 3 10 4 5 5 6 6 4 7 3 8 2 9 1 10 11 11
REMARK H PARENT
REMARK Flexibility Score: inf
ROOT
ATOM      1  C   UNL     1      22.224  19.626  18.978  1.00  0.00     0.001 A 
ATOM      2  C   UNL     1      21.116  19.452  19.814  1.00  0.00     0.004 A 
ATOM      3  C   UNL     1      20.504  20.558  20.413  1.00  0.00     0.048 A 
ATOM      4  C   UNL     1      21.000  21.845  20.177  1.00  0.00     0.138 A 
ATOM      5  C   UNL     1      22.118  22.022  19.332  1.00  0.00     0.018 A 
ATOM      6  C   UNL     1      22.727  20.909  18.734  1.00  0.00     0.012 A 
ATOM      7  C   UNL     1      22.590  23.320  19.115  1.00  0.00     0.019 A 
ATOM      8  C   UNL     1      21.950  24.394  19.733  1.00  0.00     0.094 A 
ATOM      9  C   UNL     1      20.847  24.143  20.558  1.00  0.00     0.336 A 
ATOM     10  O   UNL     1      20.256  25.098  21.124  1.00  0.00    -0.246 OA
ATOM     11  O   UNL     1      20.417  22.898  20.747  1.00  0.00    -0.423 OA
ENDROOT
TORSDOF 0
ENDMDL
MODEL 7
REMARK VINA RESULT:    -3.200     14.830     16.178
REMARK INTER + INTRA:          -3.200
REMARK INTER:                  -3.200
REMARK INTRA:                   0.000
REMARK UNBOUND:                 0.000
REMARK SMILES O=c1ccc2ccccc2o1
REMARK SMILES IDX 7 1 8 2 9 3 10 4 5 5 6 6 4 7 3 8 2 9 1 10 11 11
REMARK H PARENT
REMARK Flexibility Score: inf
ROOT
ATOM      1  C   UNL     1      23.744   5.647  14.345  1.00  0.00     0.001 A 
ATOM      2  C   UNL     1      22.530   5.851  15.008  1.00  0.00     0.004 A 
ATOM      3  C   UNL     1      22.502   6.510  16.242  1.00  0.00     0.048 A 
ATOM      4  C   UNL     1      23.692   6.969  16.816  1.00  0.00     0.138 A 
ATOM      5  C   UNL     1      24.920   6.764  16.147  1.00  0.00     0.018 A 
ATOM      6  C   UNL     1      24.940   6.103  14.911  1.00  0.00     0.012 A 
ATOM      7  C   UNL     1      26.092   7.234  16.747  1.00  0.00     0.019 A 
ATOM      8  C   UNL     1      26.018   7.886  17.978  1.00  0.00     0.094 A 
ATOM      9  C   UNL     1      24.767   8.052  18.583  1.00  0.00     0.336 A 
ATOM     10  O   UNL     1      24.679   8.638  19.693  1.00  0.00    -0.246 OA
ATOM     11  O   UNL     1      23.666   7.596  17.991  1.00  0.00    -0.423 OA
ENDROOT
TORSDOF 0
ENDMDL
MODEL 8
REMARK VINA RESULT:    -3.191      1.738      3.832
REMARK INTER + INTRA:          -3.191
REMARK INTER:                  -3.191
REMARK INTRA:                   0.000
REMARK UNBOUND:                 0.000
REMARK SMILES O=c1ccc2ccccc2o1
REMARK SMILES IDX 7 1 8 2 9 3 10 4 5 5 6 6 4 7 3 8 2 9 1 10 11 11
REMARK H PARENT
REMARK Flexibility Score: inf
ROOT
ATOM      1  C   UNL     1      19.753  19.680  20.325  1.00  0.00     0.001 A 
ATOM      2  C   UNL     1      18.712  20.528  19.934  1.00  0.00     0.004 A 
ATOM      3  C   UNL     1      18.990  21.816  19.463  1.00  0.00     0.048 A 
ATOM      4  C   UNL     1      20.315  22.259  19.381  1.00  0.00     0.138 A 
ATOM      5  C   UNL     1      21.368  21.403  19.775  1.00  0.00     0.018 A 
ATOM      6  C   UNL     1      21.082  20.114  20.246  1.00  0.00     0.012 A 
ATOM      7  C   UNL     1      22.680  21.875  19.681  1.00  0.00     0.019 A 
ATOM      8  C   UNL     1      22.912  23.166  19.206  1.00  0.00     0.094 A 
ATOM      9  C   UNL     1      21.820  23.958  18.834  1.00  0.00     0.336 A 
ATOM     10  O   UNL     1      22.008  25.125  18.403  1.00  0.00    -0.246 OA
ATOM     11  O   UNL     1      20.580  23.485  18.932  1.00  0.00    -0.423 OA
ENDROOT
TORSDOF 0
ENDMDL
MODEL 9
REMARK VINA RESULT:    -3.133     11.386     13.584
REMARK INTER + INTRA:          -3.133
REMARK INTER:                  -3.133
REMARK INTRA:                   0.000
REMARK UNBOUND:                 0.000
REMARK SMILES O=c1ccc2ccccc2o1
REMARK SMILES IDX 7 1 8 2 9 3 10 4 5 5 6 6 4 7 3 8 2 9 1 10 11 11
REMARK H PARENT
REMARK Flexibility Score: inf
ROOT
ATOM      1  C   UNL     1      18.488   7.356  15.954  1.00  0.00     0.001 A 
ATOM      2  C   UNL     1      19.866   7.124  16.011  1.00  0.00     0.004 A 
ATOM      3  C   UNL     1      20.745   8.165  16.328  1.00  0.00     0.048 A 
ATOM      4  C   UNL     1      20.246   9.445  16.591  1.00  0.00     0.138 A 
ATOM      5  C   UNL     1      18.853   9.682  16.534  1.00  0.00     0.018 A 
ATOM      6  C   UNL     1      17.979   8.633  16.216  1.00  0.00     0.012 A 
ATOM      7  C   UNL     1      18.385  10.972  16.801  1.00  0.00     0.019 A 
ATOM      8  C   UNL     1      19.297  11.981  17.113  1.00  0.00     0.094 A 
ATOM      9  C   UNL     1      20.662  11.673  17.151  1.00  0.00     0.336 A 
ATOM     10  O   UNL     1      21.500  12.570  17.430  1.00  0.00    -0.246 OA
ATOM     11  O   UNL     1      21.082  10.437  16.893  1.00  0.00    -0.423 OA
ENDROOT
TORSDOF 0
ENDMDL
