MODEL 1
REMARK VINA RESULT:    -7.001      0.000      0.000
REMARK INTER + INTRA:          -8.493
REMARK INTER:                  -8.228
REMARK INTRA:                  -0.265
REMARK UNBOUND:                -0.265
REMARK SMILES O=c1cc(-c2ccc(O)c(O)c2)oc2cc(O)cc(O)c12
REMARK SMILES IDX 4 1 3 2 2 3 1 4 21 5 19 6 18 7 16 8 15 9 14 10 13 11 5 12
REMARK SMILES IDX 6 13 7 14 8 15 12 16 10 17 9 18 11 20 20 22 17 24
REMARK H PARENT 9 19 11 21 20 23 17 25
REMARK Flexibility Score: inf
ROOT
ATOM      1  C   UNL     1      21.282   6.346  31.163  1.00  0.00     0.138 A 
ATOM      2  C   UNL     1      19.931   6.694  31.294  1.00  0.00     0.100 A 
ATOM      3  C   UNL     1      19.343   7.541  30.353  1.00  0.00     0.197 A 
ATOM      4  O   UNL     1      18.113   7.786  30.462  1.00  0.00    -0.289 OA
ATOM      5  C   UNL     1      20.121   8.064  29.295  1.00  0.00     0.107 A 
ATOM      6  C   UNL     1      19.639   8.968  28.300  1.00  0.00     0.134 A 
ATOM      7  C   UNL     1      20.470   9.329  27.233  1.00  0.00     0.093 A 
ATOM      8  C   UNL     1      21.786   8.865  27.156  1.00  0.00     0.123 A 
ATOM      9  C   UNL     1      22.284   8.026  28.150  1.00  0.00     0.094 A 
ATOM     10  C   UNL     1      21.467   7.620  29.210  1.00  0.00     0.146 A 
ATOM     11  O   UNL     1      21.977   6.807  30.128  1.00  0.00    -0.456 OA
ENDROOT
BRANCH   1  12
ATOM     12  C   UNL     1      21.958   5.450  32.136  1.00  0.00     0.021 A 
ATOM     13  C   UNL     1      22.953   5.972  32.982  1.00  0.00     0.016 A 
ATOM     14  C   UNL     1      23.599   5.153  33.909  1.00  0.00     0.051 A 
ATOM     15  C   UNL     1      23.258   3.801  34.019  1.00  0.00     0.157 A 
ATOM     16  C   UNL     1      21.609   4.092  32.258  1.00  0.00     0.062 A 
ATOM     17  C   UNL     1      22.256   3.268  33.192  1.00  0.00     0.158 A 
BRANCH  15  18
ATOM     18  O   UNL     1      23.922   3.008  34.954  1.00  0.00    -0.504 OA
ATOM     19  H   UNL     1      23.644   2.977  35.927  1.00  0.00     0.293 HD
ENDBRANCH  15  18
BRANCH  17  20
ATOM     20  O   UNL     1      21.904   1.924  33.303  1.00  0.00    -0.504 OA
ATOM     21  H   UNL     1      22.308   1.325  34.014  1.00  0.00     0.293 HD
ENDBRANCH  17  20
ENDBRANCH   1  12
BRANCH   6  22
ATOM     22  O   UNL     1      18.371   9.556  28.329  1.00  0.00    -0.507 OA
ATOM     23  H   UNL     1      17.529   9.130  27.972  1.00  0.00     0.293 HD
ENDBRANCH   6  22
BRANCH   8  24
ATOM     24  O   UNL     1      22.611   9.241  26.098  1.00  0.00    -0.508 OA
ATOM     25  H   UNL     1      22.283   9.225  25.139  1.00  0.00     0.293 HD
ENDBRANCH   8  24
TORSDOF 5
ENDMDL
MODEL 2
REMARK VINA RESULT:    -6.754      0.635      1.479
REMARK INTER + INTRA:          -8.204
REMARK INTER:                  -7.913
REMARK INTRA:                  -0.291
REMARK UNBOUND:                -0.265
REMARK SMILES O=c1cc(-c2ccc(O)c(O)c2)oc2cc(O)cc(O)c12
REMARK SMILES IDX 4 1 3 2 2 3 1 4 21 5 19 6 18 7 16 8 15 9 14 10 13 11 5 12
REMARK SMILES IDX 6 13 7 14 8 15 12 16 10 17 9 18 11 20 20 22 17 24
REMARK H PARENT 9 19 11 21 20 23 17 25
REMARK Flexibility Score: inf
ROOT
ATOM      1  C   UNL     1      21.324   6.391  31.172  1.00  0.00     0.138 A 
ATOM      2  C   UNL     1      19.962   6.703  31.278  1.00  0.00     0.100 A 
ATOM      3  C   UNL     1      19.366   7.524  30.319  1.00  0.00     0.197 A 
ATOM      4  O   UNL     1      18.128   7.736  30.406  1.00  0.00    -0.289 OA
ATOM      5  C   UNL     1      20.147   8.059  29.268  1.00  0.00     0.107 A 
ATOM      6  C   UNL     1      19.656   8.940  28.258  1.00  0.00     0.134 A 
ATOM      7  C   UNL     1      20.495   9.314  27.201  1.00  0.00     0.093 A 
ATOM      8  C   UNL     1      21.823   8.886  27.149  1.00  0.00     0.123 A 
ATOM      9  C   UNL     1      22.328   8.070  28.159  1.00  0.00     0.094 A 
ATOM     10  C   UNL     1      21.506   7.652  29.209  1.00  0.00     0.146 A 
ATOM     11  O   UNL     1      22.023   6.862  30.144  1.00  0.00    -0.456 OA
ENDROOT
BRANCH   1  12
ATOM     12  C   UNL     1      22.009   5.523  32.164  1.00  0.00     0.021 A 
ATOM     13  C   UNL     1      21.407   4.315  32.558  1.00  0.00     0.016 A 
ATOM     14  C   UNL     1      22.034   3.478  33.484  1.00  0.00     0.051 A 
ATOM     15  C   UNL     1      23.275   3.825  34.025  1.00  0.00     0.157 A 
ATOM     16  C   UNL     1      23.265   5.863  32.702  1.00  0.00     0.062 A 
ATOM     17  C   UNL     1      23.896   5.021  33.632  1.00  0.00     0.158 A 
BRANCH  15  18
ATOM     18  O   UNL     1      23.875   2.970  34.949  1.00  0.00    -0.504 OA
ATOM     19  H   UNL     1      23.338   2.471  35.648  1.00  0.00     0.293 HD
ENDBRANCH  15  18
BRANCH  17  20
ATOM     20  O   UNL     1      25.139   5.368  34.159  1.00  0.00    -0.504 OA
ATOM     21  H   UNL     1      26.003   5.039  33.745  1.00  0.00     0.293 HD
ENDBRANCH  17  20
ENDBRANCH   1  12
BRANCH   6  22
ATOM     22  O   UNL     1      18.372   9.493  28.261  1.00  0.00    -0.507 OA
ATOM     23  H   UNL     1      17.821   9.676  27.437  1.00  0.00     0.293 HD
ENDBRANCH   6  22
BRANCH   8  24
ATOM     24  O   UNL     1      22.655   9.275  26.101  1.00  0.00    -0.508 OA
ATOM     25  H   UNL     1      22.400  10.028  25.473  1.00  0.00     0.293 HD
ENDBRANCH   8  24
TORSDOF 5
ENDMDL
MODEL 3
REMARK VINA RESULT:    -6.539     10.620     12.709
REMARK INTER + INTRA:          -7.951
REMARK INTER:                  -7.685
REMARK INTRA:                  -0.266
REMARK UNBOUND:                -0.265
REMARK SMILES O=c1cc(-c2ccc(O)c(O)c2)oc2cc(O)cc(O)c12
REMARK SMILES IDX 4 1 3 2 2 3 1 4 21 5 19 6 18 7 16 8 15 9 14 10 13 11 5 12
REMARK SMILES IDX 6 13 7 14 8 15 12 16 10 17 9 18 11 20 20 22 17 24
REMARK H PARENT 9 19 11 21 20 23 17 25
REMARK Flexibility Score: inf
ROOT
ATOM      1  C   UNL     1      27.225   1.518  23.104  1.00  0.00     0.138 A 
ATOM      2  C   UNL     1      26.739   1.226  21.822  1.00  0.00     0.100 A 
ATOM      3  C   UNL     1      27.204   0.095  21.149  1.00  0.00     0.197 A 
ATOM      4  O   UNL     1      26.704  -0.174  20.026  1.00  0.00    -0.289 OA
ATOM      5  C   UNL     1      28.184  -0.728  21.751  1.00  0.00     0.107 A 
ATOM      6  C   UNL     1      28.761  -1.883  21.142  1.00  0.00     0.134 A 
ATOM      7  C   UNL     1      29.637  -2.688  21.880  1.00  0.00     0.093 A 
ATOM      8  C   UNL     1      30.002  -2.347  23.185  1.00  0.00     0.123 A 
ATOM      9  C   UNL     1      29.487  -1.193  23.770  1.00  0.00     0.094 A 
ATOM     10  C   UNL     1      28.583  -0.387  23.071  1.00  0.00     0.146 A 
ATOM     11  O   UNL     1      28.104   0.697  23.670  1.00  0.00    -0.456 OA
ENDROOT
BRANCH   1  12
ATOM     12  C   UNL     1      26.765   2.707  23.865  1.00  0.00     0.021 A 
ATOM     13  C   UNL     1      25.544   2.655  24.560  1.00  0.00     0.016 A 
ATOM     14  C   UNL     1      25.094   3.758  25.288  1.00  0.00     0.051 A 
ATOM     15  C   UNL     1      25.856   4.928  25.346  1.00  0.00     0.157 A 
ATOM     16  C   UNL     1      27.536   3.884  23.935  1.00  0.00     0.062 A 
ATOM     17  C   UNL     1      27.085   4.992  24.669  1.00  0.00     0.158 A 
BRANCH  15  18
ATOM     18  O   UNL     1      25.378   6.013  26.080  1.00  0.00    -0.504 OA
ATOM     19  H   UNL     1      24.564   5.941  26.678  1.00  0.00     0.293 HD
ENDBRANCH  15  18
BRANCH  17  20
ATOM     20  O   UNL     1      27.855   6.152  24.731  1.00  0.00    -0.504 OA
ATOM     21  H   UNL     1      28.751   6.170  25.204  1.00  0.00     0.293 HD
ENDBRANCH  17  20
ENDBRANCH   1  12
BRANCH   6  22
ATOM     22  O   UNL     1      28.529  -2.266  19.818  1.00  0.00    -0.507 OA
ATOM     23  H   UNL     1      27.621  -2.308  19.380  1.00  0.00     0.293 HD
ENDBRANCH   6  22
BRANCH   8  24
ATOM     24  O   UNL     1      30.886  -3.146  23.907  1.00  0.00    -0.508 OA
ATOM     25  H   UNL     1      31.295  -3.982  23.505  1.00  0.00     0.293 HD
ENDBRANCH   8  24
TORSDOF 5
ENDMDL
MODEL 4
REMARK VINA RESULT:    -6.520     11.503     13.297
REMARK INTER + INTRA:          -7.929
REMARK INTER:                  -7.658
REMARK INTRA:                  -0.270
REMARK UNBOUND:                -0.265
REMARK SMILES O=c1cc(-c2ccc(O)c(O)c2)oc2cc(O)cc(O)c12
REMARK SMILES IDX 4 1 3 2 2 3 1 4 21 5 19 6 18 7 16 8 15 9 14 10 13 11 5 12
REMARK SMILES IDX 6 13 7 14 8 15 12 16 10 17 9 18 11 20 20 22 17 24
REMARK H PARENT 9 19 11 21 20 23 17 25
REMARK Flexibility Score: inf
ROOT
ATOM      1  C   UNL     1      27.722   0.828  22.677  1.00  0.00     0.138 A 
ATOM      2  C   UNL     1      28.749   0.044  23.219  1.00  0.00     0.100 A 
ATOM      3  C   UNL     1      29.261  -1.026  22.484  1.00  0.00     0.197 A 
ATOM      4  O   UNL     1      30.225  -1.673  22.970  1.00  0.00    -0.289 OA
ATOM      5  C   UNL     1      28.719  -1.330  21.213  1.00  0.00     0.107 A 
ATOM      6  C   UNL     1      29.134  -2.422  20.392  1.00  0.00     0.134 A 
ATOM      7  C   UNL     1      28.605  -2.555  19.102  1.00  0.00     0.093 A 
ATOM      8  C   UNL     1      27.633  -1.672  18.627  1.00  0.00     0.123 A 
ATOM      9  C   UNL     1      27.182  -0.635  19.441  1.00  0.00     0.094 A 
ATOM     10  C   UNL     1      27.715  -0.455  20.720  1.00  0.00     0.146 A 
ATOM     11  O   UNL     1      27.267   0.555  21.457  1.00  0.00    -0.456 OA
ENDROOT
BRANCH   1  12
ATOM     12  C   UNL     1      27.139   1.977  23.416  1.00  0.00     0.021 A 
ATOM     13  C   UNL     1      27.879   3.167  23.538  1.00  0.00     0.016 A 
ATOM     14  C   UNL     1      27.351   4.264  24.222  1.00  0.00     0.051 A 
ATOM     15  C   UNL     1      26.073   4.199  24.786  1.00  0.00     0.157 A 
ATOM     16  C   UNL     1      25.848   1.920  23.974  1.00  0.00     0.062 A 
ATOM     17  C   UNL     1      25.316   3.024  24.660  1.00  0.00     0.158 A 
BRANCH  15  18
ATOM     18  O   UNL     1      25.574   5.311  25.464  1.00  0.00    -0.504 OA
ATOM     19  H   UNL     1      24.583   5.442  25.625  1.00  0.00     0.293 HD
ENDBRANCH  15  18
BRANCH  17  20
ATOM     20  O   UNL     1      24.038   2.955  25.211  1.00  0.00    -0.504 OA
ATOM     21  H   UNL     1      23.450   3.778  25.295  1.00  0.00     0.293 HD
ENDBRANCH  17  20
ENDBRANCH   1  12
BRANCH   6  22
ATOM     22  O   UNL     1      30.035  -3.408  20.802  1.00  0.00    -0.507 OA
ATOM     23  H   UNL     1      30.359  -4.169  20.225  1.00  0.00     0.293 HD
ENDBRANCH   6  22
BRANCH   8  24
ATOM     24  O   UNL     1      27.102  -1.821  17.347  1.00  0.00    -0.508 OA
ATOM     25  H   UNL     1      26.108  -1.733  17.173  1.00  0.00     0.293 HD
ENDBRANCH   8  24
TORSDOF 5
ENDMDL
MODEL 5
REMARK VINA RESULT:    -6.497     10.961     12.948
REMARK INTER + INTRA:          -7.901
REMARK INTER:                  -7.638
REMARK INTRA:                  -0.263
REMARK UNBOUND:                -0.265
REMARK SMILES O=c1cc(-c2ccc(O)c(O)c2)oc2cc(O)cc(O)c12
REMARK SMILES IDX 4 1 3 2 2 3 1 4 21 5 19 6 18 7 16 8 15 9 14 10 13 11 5 12
REMARK SMILES IDX 6 13 7 14 8 15 12 16 10 17 9 18 11 20 20 22 17 24
REMARK H PARENT 9 19 11 21 20 23 17 25
REMARK Flexibility Score: inf
ROOT
ATOM      1  C   UNL     1      27.552   1.294  22.916  1.00  0.00     0.138 A 
ATOM      2  C   UNL     1      27.158   1.052  21.594  1.00  0.00     0.100 A 
ATOM      3  C   UNL     1      27.605  -0.097  20.939  1.00  0.00     0.197 A 
ATOM      4  O   UNL     1      27.185  -0.319  19.774  1.00  0.00    -0.289 OA
ATOM      5  C   UNL     1      28.477  -0.991  21.604  1.00  0.00     0.107 A 
ATOM      6  C   UNL     1      29.029  -2.172  21.023  1.00  0.00     0.134 A 
ATOM      7  C   UNL     1      29.788  -3.042  21.816  1.00  0.00     0.093 A 
ATOM      8  C   UNL     1      30.064  -2.743  23.152  1.00  0.00     0.123 A 
ATOM      9  C   UNL     1      29.575  -1.566  23.714  1.00  0.00     0.094 A 
ATOM     10  C   UNL     1      28.786  -0.695  22.959  1.00  0.00     0.146 A 
ATOM     11  O   UNL     1      28.328   0.410  23.537  1.00  0.00    -0.456 OA
ENDROOT
BRANCH   1  12
ATOM     12  C   UNL     1      27.107   2.500  23.659  1.00  0.00     0.021 A 
ATOM     13  C   UNL     1      27.917   3.649  23.662  1.00  0.00     0.016 A 
ATOM     14  C   UNL     1      27.518   4.798  24.347  1.00  0.00     0.051 A 
ATOM     15  C   UNL     1      26.300   4.827  25.032  1.00  0.00     0.157 A 
ATOM     16  C   UNL     1      25.875   2.537  24.340  1.00  0.00     0.062 A 
ATOM     17  C   UNL     1      25.472   3.693  25.027  1.00  0.00     0.158 A 
BRANCH  15  18
ATOM     18  O   UNL     1      25.929   5.989  25.708  1.00  0.00    -0.504 OA
ATOM     19  H   UNL     1      25.171   6.001  26.380  1.00  0.00     0.293 HD
ENDBRANCH  15  18
BRANCH  17  20
ATOM     20  O   UNL     1      24.251   3.718  25.699  1.00  0.00    -0.504 OA
ATOM     21  H   UNL     1      23.425   3.273  25.316  1.00  0.00     0.293 HD
ENDBRANCH  17  20
ENDBRANCH   1  12
BRANCH   6  22
ATOM     22  O   UNL     1      28.885  -2.520  19.677  1.00  0.00    -0.507 OA
ATOM     23  H   UNL     1      28.718  -3.455  19.337  1.00  0.00     0.293 HD
ENDBRANCH   6  22
BRANCH   8  24
ATOM     24  O   UNL     1      30.832  -3.608  23.929  1.00  0.00    -0.508 OA
ATOM     25  H   UNL     1      31.796  -3.817  23.694  1.00  0.00     0.293 HD
ENDBRANCH   8  24
TORSDOF 5
ENDMDL
MODEL 6
REMARK VINA RESULT:    -6.487      1.076      2.698
REMARK INTER + INTRA:          -7.889
REMARK INTER:                  -7.619
REMARK INTRA:                  -0.270
REMARK UNBOUND:                -0.265
REMARK SMILES O=c1cc(-c2ccc(O)c(O)c2)oc2cc(O)cc(O)c12
REMARK SMILES IDX 4 1 3 2 2 3 1 4 21 5 19 6 18 7 16 8 15 9 14 10 13 11 5 12
REMARK SMILES IDX 6 13 7 14 8 15 12 16 10 17 9 18 11 20 20 22 17 24
REMARK H PARENT 9 19 11 21 20 23 17 25
REMARK Flexibility Score: inf
ROOT
ATOM      1  C   UNL     1      22.312   6.229  30.543  1.00  0.00     0.138 A 
ATOM      2  C   UNL     1      23.389   6.467  29.679  1.00  0.00     0.100 A 
ATOM      3  C   UNL     1      23.224   7.328  28.593  1.00  0.00     0.197 A 
ATOM      4  O   UNL     1      24.225   7.571  27.870  1.00  0.00    -0.289 OA
ATOM      5  C   UNL     1      21.964   7.926  28.354  1.00  0.00     0.107 A 
ATOM      6  C   UNL     1      21.668   8.788  27.255  1.00  0.00     0.134 A 
ATOM      7  C   UNL     1      20.418   9.415  27.186  1.00  0.00     0.093 A 
ATOM      8  C   UNL     1      19.433   9.165  28.145  1.00  0.00     0.123 A 
ATOM      9  C   UNL     1      19.693   8.283  29.192  1.00  0.00     0.094 A 
ATOM     10  C   UNL     1      20.943   7.669  29.307  1.00  0.00     0.146 A 
ATOM     11  O   UNL     1      21.154   6.847  30.329  1.00  0.00    -0.456 OA
ENDROOT
BRANCH   1  12
ATOM     12  C   UNL     1      22.432   5.322  31.713  1.00  0.00     0.021 A 
ATOM     13  C   UNL     1      23.155   5.743  32.844  1.00  0.00     0.016 A 
ATOM     14  C   UNL     1      23.276   4.912  33.959  1.00  0.00     0.051 A 
ATOM     15  C   UNL     1      22.671   3.652  33.972  1.00  0.00     0.157 A 
ATOM     16  C   UNL     1      21.813   4.057  31.736  1.00  0.00     0.062 A 
ATOM     17  C   UNL     1      21.933   3.222  32.858  1.00  0.00     0.158 A 
BRANCH  15  18
ATOM     18  O   UNL     1      22.812   2.844  35.101  1.00  0.00    -0.504 OA
ATOM     19  H   UNL     1      23.673   2.809  35.633  1.00  0.00     0.293 HD
ENDBRANCH  15  18
BRANCH  17  20
ATOM     20  O   UNL     1      21.318   1.971  32.869  1.00  0.00    -0.504 OA
ATOM     21  H   UNL     1      21.421   1.322  32.097  1.00  0.00     0.293 HD
ENDBRANCH  17  20
ENDBRANCH   1  12
BRANCH   6  22
ATOM     22  O   UNL     1      22.550   9.038  26.200  1.00  0.00    -0.507 OA
ATOM     23  H   UNL     1      22.427   9.756  25.503  1.00  0.00     0.293 HD
ENDBRANCH   6  22
BRANCH   8  24
ATOM     24  O   UNL     1      18.187   9.782  28.060  1.00  0.00    -0.508 OA
ATOM     25  H   UNL     1      18.079  10.780  28.196  1.00  0.00     0.293 HD
ENDBRANCH   8  24
TORSDOF 5
ENDMDL
MODEL 7
REMARK VINA RESULT:    -6.411      1.399      7.238
REMARK INTER + INTRA:          -7.800
REMARK INTER:                  -7.536
REMARK INTRA:                  -0.264
REMARK UNBOUND:                -0.265
REMARK SMILES O=c1cc(-c2ccc(O)c(O)c2)oc2cc(O)cc(O)c12
REMARK SMILES IDX 4 1 3 2 2 3 1 4 21 5 19 6 18 7 16 8 15 9 14 10 13 11 5 12
REMARK SMILES IDX 6 13 7 14 8 15 12 16 10 17 9 18 11 20 20 22 17 24
REMARK H PARENT 9 19 11 21 20 23 17 25
REMARK Flexibility Score: inf
ROOT
ATOM      1  C   UNL     1      21.940   6.921  30.872  1.00  0.00     0.138 A 
ATOM      2  C   UNL     1      22.822   7.632  31.696  1.00  0.00     0.100 A 
ATOM      3  C   UNL     1      23.446   6.982  32.762  1.00  0.00     0.197 A 
ATOM      4  O   UNL     1      24.281   7.630  33.447  1.00  0.00    -0.289 OA
ATOM      5  C   UNL     1      23.159   5.621  33.022  1.00  0.00     0.107 A 
ATOM      6  C   UNL     1      23.703   4.867  34.104  1.00  0.00     0.134 A 
ATOM      7  C   UNL     1      23.437   3.496  34.193  1.00  0.00     0.093 A 
ATOM      8  C   UNL     1      22.598   2.863  33.273  1.00  0.00     0.123 A 
ATOM      9  C   UNL     1      22.017   3.601  32.244  1.00  0.00     0.094 A 
ATOM     10  C   UNL     1      22.292   4.965  32.108  1.00  0.00     0.146 A 
ATOM     11  O   UNL     1      21.729   5.629  31.104  1.00  0.00    -0.456 OA
ENDROOT
BRANCH   1  12
ATOM     12  C   UNL     1      21.249   7.563  29.725  1.00  0.00     0.021 A 
ATOM     13  C   UNL     1      19.870   7.826  29.807  1.00  0.00     0.016 A 
ATOM     14  C   UNL     1      19.198   8.435  28.745  1.00  0.00     0.051 A 
ATOM     15  C   UNL     1      19.890   8.802  27.588  1.00  0.00     0.157 A 
ATOM     16  C   UNL     1      21.944   7.946  28.563  1.00  0.00     0.062 A 
ATOM     17  C   UNL     1      21.270   8.561  27.495  1.00  0.00     0.158 A 
BRANCH  15  18
ATOM     18  O   UNL     1      19.192   9.408  26.543  1.00  0.00    -0.504 OA
ATOM     19  H   UNL     1      18.692   8.868  25.847  1.00  0.00     0.293 HD
ENDBRANCH  15  18
BRANCH  17  20
ATOM     20  O   UNL     1      21.968   8.934  26.348  1.00  0.00    -0.504 OA
ATOM     21  H   UNL     1      22.066   9.907  26.079  1.00  0.00     0.293 HD
ENDBRANCH  17  20
ENDBRANCH   1  12
BRANCH   6  22
ATOM     22  O   UNL     1      24.484   5.418  35.125  1.00  0.00    -0.507 OA
ATOM     23  H   UNL     1      24.259   6.260  35.632  1.00  0.00     0.293 HD
ENDBRANCH   6  22
BRANCH   8  24
ATOM     24  O   UNL     1      22.326   1.501  33.378  1.00  0.00    -0.508 OA
ATOM     25  H   UNL     1      21.591   1.152  33.981  1.00  0.00     0.293 HD
ENDBRANCH   8  24
TORSDOF 5
ENDMDL
MODEL 8
REMARK VINA RESULT:    -6.183      1.592      6.910
REMARK INTER + INTRA:          -7.532
REMARK INTER:                  -7.223
REMARK INTRA:                  -0.309
REMARK UNBOUND:                -0.265
REMARK SMILES O=c1cc(-c2ccc(O)c(O)c2)oc2cc(O)cc(O)c12
REMARK SMILES IDX 4 1 3 2 2 3 1 4 21 5 19 6 18 7 16 8 15 9 14 10 13 11 5 12
REMARK SMILES IDX 6 13 7 14 8 15 12 16 10 17 9 18 11 20 20 22 17 24
REMARK H PARENT 9 19 11 21 20 23 17 25
REMARK Flexibility Score: inf
ROOT
ATOM      1  C   UNL     1      21.441   6.729  30.969  1.00  0.00     0.138 A 
ATOM      2  C   UNL     1      20.589   5.984  31.795  1.00  0.00     0.100 A 
ATOM      3  C   UNL     1      21.109   5.330  32.913  1.00  0.00     0.197 A 
ATOM      4  O   UNL     1      20.309   4.719  33.669  1.00  0.00    -0.289 OA
ATOM      5  C   UNL     1      22.495   5.398  33.185  1.00  0.00     0.107 A 
ATOM      6  C   UNL     1      23.143   4.738  34.273  1.00  0.00     0.134 A 
ATOM      7  C   UNL     1      24.503   4.972  34.511  1.00  0.00     0.093 A 
ATOM      8  C   UNL     1      25.251   5.796  33.667  1.00  0.00     0.123 A 
ATOM      9  C   UNL     1      24.640   6.402  32.571  1.00  0.00     0.094 A 
ATOM     10  C   UNL     1      23.277   6.215  32.327  1.00  0.00     0.146 A 
ATOM     11  O   UNL     1      22.731   6.823  31.279  1.00  0.00    -0.456 OA
ENDROOT
BRANCH   1  12
ATOM     12  C   UNL     1      20.942   7.444  29.768  1.00  0.00     0.021 A 
ATOM     13  C   UNL     1      19.591   7.829  29.703  1.00  0.00     0.016 A 
ATOM     14  C   UNL     1      19.098   8.508  28.587  1.00  0.00     0.051 A 
ATOM     15  C   UNL     1      19.944   8.826  27.521  1.00  0.00     0.157 A 
ATOM     16  C   UNL     1      21.793   7.778  28.697  1.00  0.00     0.062 A 
ATOM     17  C   UNL     1      21.299   8.462  27.576  1.00  0.00     0.158 A 
BRANCH  15  18
ATOM     18  O   UNL     1      19.422   9.503  26.419  1.00  0.00    -0.504 OA
ATOM     19  H   UNL     1      19.460   9.118  25.484  1.00  0.00     0.293 HD
ENDBRANCH  15  18
BRANCH  17  20
ATOM     20  O   UNL     1      22.151   8.785  26.521  1.00  0.00    -0.504 OA
ATOM     21  H   UNL     1      23.137   8.551  26.543  1.00  0.00     0.293 HD
ENDBRANCH  17  20
ENDBRANCH   1  12
BRANCH   6  22
ATOM     22  O   UNL     1      22.508   3.830  35.125  1.00  0.00    -0.507 OA
ATOM     23  H   UNL     1      21.707   4.041  35.700  1.00  0.00     0.293 HD
ENDBRANCH   6  22
BRANCH   8  24
ATOM     24  O   UNL     1      26.607   6.012  33.903  1.00  0.00    -0.508 OA
ATOM     25  H   UNL     1      27.300   5.870  33.178  1.00  0.00     0.293 HD
ENDBRANCH   8  24
TORSDOF 5
ENDMDL
MODEL 9
REMARK VINA RESULT:    -6.146     10.997     12.858
REMARK INTER + INTRA:          -7.489
REMARK INTER:                  -7.223
REMARK INTRA:                  -0.266
REMARK UNBOUND:                -0.265
REMARK SMILES O=c1cc(-c2ccc(O)c(O)c2)oc2cc(O)cc(O)c12
REMARK SMILES IDX 4 1 3 2 2 3 1 4 21 5 19 6 18 7 16 8 15 9 14 10 13 11 5 12
REMARK SMILES IDX 6 13 7 14 8 15 12 16 10 17 9 18 11 20 20 22 17 24
REMARK H PARENT 9 19 11 21 20 23 17 25
REMARK Flexibility Score: inf
ROOT
ATOM      1  C   UNL     1      28.151   1.043  21.986  1.00  0.00     0.138 A 
ATOM      2  C   UNL     1      29.118   2.057  21.965  1.00  0.00     0.100 A 
ATOM      3  C   UNL     1      28.926   3.209  22.730  1.00  0.00     0.197 A 
ATOM      4  O   UNL     1      29.840   4.074  22.739  1.00  0.00    -0.289 OA
ATOM      5  C   UNL     1      27.746   3.357  23.495  1.00  0.00     0.107 A 
ATOM      6  C   UNL     1      27.424   4.505  24.281  1.00  0.00     0.134 A 
ATOM      7  C   UNL     1      26.281   4.491  25.088  1.00  0.00     0.093 A 
ATOM      8  C   UNL     1      25.415   3.394  25.093  1.00  0.00     0.123 A 
ATOM      9  C   UNL     1      25.691   2.290  24.288  1.00  0.00     0.094 A 
ATOM     10  C   UNL     1      26.843   2.260  23.498  1.00  0.00     0.146 A 
ATOM     11  O   UNL     1      27.076   1.183  22.756  1.00  0.00    -0.456 OA
ENDROOT
BRANCH   1  12
ATOM     12  C   UNL     1      28.303  -0.202  21.191  1.00  0.00     0.021 A 
ATOM     13  C   UNL     1      29.111  -1.243  21.683  1.00  0.00     0.016 A 
ATOM     14  C   UNL     1      29.265  -2.426  20.957  1.00  0.00     0.051 A 
ATOM     15  C   UNL     1      28.608  -2.598  19.736  1.00  0.00     0.157 A 
ATOM     16  C   UNL     1      27.634  -0.384  19.966  1.00  0.00     0.062 A 
ATOM     17  C   UNL     1      27.786  -1.574  19.237  1.00  0.00     0.158 A 
BRANCH  15  18
ATOM     18  O   UNL     1      28.783  -3.790  19.034  1.00  0.00    -0.504 OA
ATOM     19  H   UNL     1      28.001  -4.369  18.754  1.00  0.00     0.293 HD
ENDBRANCH  15  18
BRANCH  17  20
ATOM     20  O   UNL     1      27.120  -1.743  18.025  1.00  0.00    -0.504 OA
ATOM     21  H   UNL     1      26.111  -1.671  17.958  1.00  0.00     0.293 HD
ENDBRANCH  17  20
ENDBRANCH   1  12
BRANCH   6  22
ATOM     22  O   UNL     1      28.175   5.684  24.283  1.00  0.00    -0.507 OA
ATOM     23  H   UNL     1      27.821   6.594  24.032  1.00  0.00     0.293 HD
ENDBRANCH   6  22
BRANCH   8  24
ATOM     24  O   UNL     1      24.272   3.394  25.888  1.00  0.00    -0.508 OA
ATOM     25  H   UNL     1      24.309   3.147  26.870  1.00  0.00     0.293 HD
ENDBRANCH   8  24
TORSDOF 5
ENDMDL
