MODEL 1
REMARK VINA RESULT:    -3.603      0.000      0.000
REMARK INTER + INTRA:          -4.325
REMARK INTER:                  -4.235
REMARK INTRA:                  -0.090
REMARK UNBOUND:                -0.090
REMARK SMILES O=C([O-])CCC(=O)[O-]
REMARK SMILES IDX 4 1 2 2 1 3 3 4 5 5 6 6 7 7 8 8
REMARK H PARENT
REMARK Flexibility Score: inf
ROOT
ATOM      1  C   UNL     1     -30.594  14.374  15.180  1.00  0.00     0.059 C 
ENDROOT
BRANCH   1   2
ATOM      2  C   UNL     1     -29.258  14.932  15.555  1.00  0.00     0.042 C 
ATOM      3  O   UNL     1     -28.296  14.873  14.744  1.00  0.00    -0.550 OA
ATOM      4  O   UNL     1     -29.086  15.561  16.781  1.00  0.00    -0.550 OA
ENDBRANCH   1   2
BRANCH   1   5
ATOM      5  C   UNL     1     -31.162  15.115  13.968  1.00  0.00     0.059 C 
BRANCH   5   6
ATOM      6  C   UNL     1     -31.605  14.143  12.921  1.00  0.00     0.042 C 
ATOM      7  O   UNL     1     -30.757  13.586  12.174  1.00  0.00    -0.550 OA
ATOM      8  O   UNL     1     -32.949  13.812  12.801  1.00  0.00    -0.550 OA
ENDBRANCH   5   6
ENDBRANCH   1   5
TORSDOF 3
ENDMDL
MODEL 2
REMARK VINA RESULT:    -3.530      0.163      4.065
REMARK INTER + INTRA:          -4.239
REMARK INTER:                  -4.142
REMARK INTRA:                  -0.096
REMARK UNBOUND:                -0.090
REMARK SMILES O=C([O-])CCC(=O)[O-]
REMARK SMILES IDX 4 1 2 2 1 3 3 4 5 5 6 6 7 7 8 8
REMARK H PARENT
REMARK Flexibility Score: inf
ROOT
ATOM      1  C   UNL     1     -31.144  15.081  14.049  1.00  0.00     0.059 C 
ENDROOT
BRANCH   1   2
ATOM      2  C   UNL     1     -31.548  14.084  13.009  1.00  0.00     0.042 C 
ATOM      3  O   UNL     1     -32.767  13.878  12.768  1.00  0.00    -0.550 OA
ATOM      4  O   UNL     1     -30.578  13.415  12.273  1.00  0.00    -0.550 OA
ENDBRANCH   1   2
BRANCH   1   5
ATOM      5  C   UNL     1     -30.481  14.378  15.235  1.00  0.00     0.059 C 
BRANCH   5   6
ATOM      6  C   UNL     1     -29.156  15.002  15.539  1.00  0.00     0.042 C 
ATOM      7  O   UNL     1     -28.214  14.927  14.706  1.00  0.00    -0.550 OA
ATOM      8  O   UNL     1     -28.974  15.710  16.721  1.00  0.00    -0.550 OA
ENDBRANCH   5   6
ENDBRANCH   1   5
TORSDOF 3
ENDMDL
MODEL 3
REMARK VINA RESULT:    -3.511      1.960      2.971
REMARK INTER + INTRA:          -4.216
REMARK INTER:                  -4.104
REMARK INTRA:                  -0.112
REMARK UNBOUND:                -0.090
REMARK SMILES O=C([O-])CCC(=O)[O-]
REMARK SMILES IDX 4 1 2 2 1 3 3 4 5 5 6 6 7 7 8 8
REMARK H PARENT
REMARK Flexibility Score: inf
ROOT
ATOM      1  C   UNL     1     -31.772  14.649  14.025  1.00  0.00     0.059 C 
ENDROOT
BRANCH   1   2
ATOM      2  C   UNL     1     -30.636  14.040  13.265  1.00  0.00     0.042 C 
ATOM      3  O   UNL     1     -30.828  13.558  12.117  1.00  0.00    -0.550 OA
ATOM      4  O   UNL     1     -29.356  14.047  13.803  1.00  0.00    -0.550 OA
ENDBRANCH   1   2
BRANCH   1   5
ATOM      5  C   UNL     1     -33.106  14.296  13.366  1.00  0.00     0.059 C 
BRANCH   5   6
ATOM      6  C   UNL     1     -33.729  13.117  14.044  1.00  0.00     0.042 C 
ATOM      7  O   UNL     1     -33.859  12.027  13.427  1.00  0.00    -0.550 OA
ATOM      8  O   UNL     1     -34.123  13.206  15.373  1.00  0.00    -0.550 OA
ENDBRANCH   5   6
ENDBRANCH   1   5
TORSDOF 3
ENDMDL
MODEL 4
REMARK VINA RESULT:    -3.482      2.593      3.434
REMARK INTER + INTRA:          -4.182
REMARK INTER:                  -4.062
REMARK INTRA:                  -0.121
REMARK UNBOUND:                -0.090
REMARK SMILES O=C([O-])CCC(=O)[O-]
REMARK SMILES IDX 4 1 2 2 1 3 3 4 5 5 6 6 7 7 8 8
REMARK H PARENT
REMARK Flexibility Score: inf
ROOT
ATOM      1  C   UNL     1     -30.556  11.630  12.625  1.00  0.00     0.059 C 
ENDROOT
BRANCH   1   2
ATOM      2  C   UNL     1     -29.118  11.417  12.978  1.00  0.00     0.042 C 
ATOM      3  O   UNL     1     -28.412  12.384  13.369  1.00  0.00    -0.550 OA
ATOM      4  O   UNL     1     -28.569  10.143  12.921  1.00  0.00    -0.550 OA
ENDBRANCH   1   2
BRANCH   1   5
ATOM      5  C   UNL     1     -31.242  12.499  13.681  1.00  0.00     0.059 C 
BRANCH   5   6
ATOM      6  C   UNL     1     -31.670  13.804  13.086  1.00  0.00     0.042 C 
ATOM      7  O   UNL     1     -31.007  14.319  12.147  1.00  0.00    -0.550 OA
ATOM      8  O   UNL     1     -32.826  14.428  13.536  1.00  0.00    -0.550 OA
ENDBRANCH   5   6
ENDBRANCH   1   5
TORSDOF 3
ENDMDL
MODEL 5
REMARK VINA RESULT:    -3.462      2.596      4.029
REMARK INTER + INTRA:          -4.159
REMARK INTER:                  -4.039
REMARK INTRA:                  -0.120
REMARK UNBOUND:                -0.090
REMARK SMILES O=C([O-])CCC(=O)[O-]
REMARK SMILES IDX 4 1 2 2 1 3 3 4 5 5 6 6 7 7 8 8
REMARK H PARENT
REMARK Flexibility Score: inf
ROOT
ATOM      1  C   UNL     1     -31.255  12.483  13.663  1.00  0.00     0.059 C 
ENDROOT
BRANCH   1   2
ATOM      2  C   UNL     1     -31.696  13.784  13.071  1.00  0.00     0.042 C 
ATOM      3  O   UNL     1     -30.992  14.352  12.193  1.00  0.00    -0.550 OA
ATOM      4  O   UNL     1     -32.906  14.347  13.452  1.00  0.00    -0.550 OA
ENDBRANCH   1   2
BRANCH   1   5
ATOM      5  C   UNL     1     -30.557  11.624  12.607  1.00  0.00     0.059 C 
BRANCH   5   6
ATOM      6  C   UNL     1     -29.116  11.431  12.959  1.00  0.00     0.042 C 
ATOM      7  O   UNL     1     -28.427  12.404  13.365  1.00  0.00    -0.550 OA
ATOM      8  O   UNL     1     -28.544  10.167  12.885  1.00  0.00    -0.550 OA
ENDBRANCH   5   6
ENDBRANCH   1   5
TORSDOF 3
ENDMDL
MODEL 6
REMARK VINA RESULT:    -3.416      1.083      3.895
REMARK INTER + INTRA:          -4.105
REMARK INTER:                  -4.067
REMARK INTRA:                  -0.038
REMARK UNBOUND:                -0.090
REMARK SMILES O=C([O-])CCC(=O)[O-]
REMARK SMILES IDX 4 1 2 2 1 3 3 4 5 5 6 6 7 7 8 8
REMARK H PARENT
REMARK Flexibility Score: inf
ROOT
ATOM      1  C   UNL     1     -31.464  13.740  14.614  1.00  0.00     0.059 C 
ENDROOT
BRANCH   1   2
ATOM      2  C   UNL     1     -32.079  14.120  13.304  1.00  0.00     0.042 C 
ATOM      3  O   UNL     1     -33.316  14.341  13.226  1.00  0.00    -0.550 OA
ATOM      4  O   UNL     1     -31.279  14.277  12.180  1.00  0.00    -0.550 OA
ENDBRANCH   1   2
BRANCH   1   5
ATOM      5  C   UNL     1     -30.454  14.800  15.059  1.00  0.00     0.059 C 
BRANCH   5   6
ATOM      6  C   UNL     1     -29.060  14.361  14.740  1.00  0.00     0.042 C 
ATOM      7  O   UNL     1     -28.860  13.267  14.148  1.00  0.00    -0.550 OA
ATOM      8  O   UNL     1     -27.983  15.181  15.053  1.00  0.00    -0.550 OA
ENDBRANCH   5   6
ENDBRANCH   1   5
TORSDOF 3
ENDMDL
MODEL 7
REMARK VINA RESULT:    -3.409     12.402     13.091
REMARK INTER + INTRA:          -4.096
REMARK INTER:                  -3.993
REMARK INTRA:                  -0.103
REMARK UNBOUND:                -0.090
REMARK SMILES O=C([O-])CCC(=O)[O-]
REMARK SMILES IDX 4 1 2 2 1 3 3 4 5 5 6 6 7 7 8 8
REMARK H PARENT
REMARK Flexibility Score: inf
ROOT
ATOM      1  C   UNL     1     -30.006  12.839  26.551  1.00  0.00     0.059 C 
ENDROOT
BRANCH   1   2
ATOM      2  C   UNL     1     -28.521  12.794  26.376  1.00  0.00     0.042 C 
ATOM      3  O   UNL     1     -27.801  13.721  26.832  1.00  0.00    -0.550 OA
ATOM      4  O   UNL     1     -27.926  11.705  25.752  1.00  0.00    -0.550 OA
ENDBRANCH   1   2
BRANCH   1   5
ATOM      5  C   UNL     1     -30.370  13.571  27.843  1.00  0.00     0.059 C 
BRANCH   5   6
ATOM      6  C   UNL     1     -31.006  14.890  27.535  1.00  0.00     0.042 C 
ATOM      7  O   UNL     1     -32.246  15.047  27.690  1.00  0.00    -0.550 OA
ATOM      8  O   UNL     1     -30.223  15.961  27.124  1.00  0.00    -0.550 OA
ENDBRANCH   5   6
ENDBRANCH   1   5
TORSDOF 3
ENDMDL
MODEL 8
REMARK VINA RESULT:    -3.359     12.493     13.349
REMARK INTER + INTRA:          -4.038
REMARK INTER:                  -3.942
REMARK INTRA:                  -0.096
REMARK UNBOUND:                -0.090
REMARK SMILES O=C([O-])CCC(=O)[O-]
REMARK SMILES IDX 4 1 2 2 1 3 3 4 5 5 6 6 7 7 8 8
REMARK H PARENT
REMARK Flexibility Score: inf
ROOT
ATOM      1  C   UNL     1     -32.350  14.037  27.003  1.00  0.00     0.059 C 
ENDROOT
BRANCH   1   2
ATOM      2  C   UNL     1     -33.363  15.125  26.829  1.00  0.00     0.042 C 
ATOM      3  O   UNL     1     -33.895  15.663  27.835  1.00  0.00    -0.550 OA
ATOM      4  O   UNL     1     -33.684  15.578  25.556  1.00  0.00    -0.550 OA
ENDBRANCH   1   2
BRANCH   1   5
ATOM      5  C   UNL     1     -31.234  14.492  27.945  1.00  0.00     0.059 C 
BRANCH   5   6
ATOM      6  C   UNL     1     -30.054  14.975  27.162  1.00  0.00     0.042 C 
ATOM      7  O   UNL     1     -30.047  16.139  26.681  1.00  0.00    -0.550 OA
ATOM      8  O   UNL     1     -28.941  14.158  27.005  1.00  0.00    -0.550 OA
ENDBRANCH   5   6
ENDBRANCH   1   5
TORSDOF 3
ENDMDL
MODEL 9
REMARK VINA RESULT:    -3.304      2.960      3.877
REMARK INTER + INTRA:          -3.973
REMARK INTER:                  -3.929
REMARK INTRA:                  -0.045
REMARK UNBOUND:                -0.090
REMARK SMILES O=C([O-])CCC(=O)[O-]
REMARK SMILES IDX 4 1 2 2 1 3 3 4 5 5 6 6 7 7 8 8
REMARK H PARENT
REMARK Flexibility Score: inf
ROOT
ATOM      1  C   UNL     1     -30.231  12.643  13.578  1.00  0.00     0.059 C 
ENDROOT
BRANCH   1   2
ATOM      2  C   UNL     1     -30.770  14.016  13.323  1.00  0.00     0.042 C 
ATOM      3  O   UNL     1     -31.149  14.342  12.167  1.00  0.00    -0.550 OA
ATOM      4  O   UNL     1     -30.898  14.919  14.370  1.00  0.00    -0.550 OA
ENDBRANCH   1   2
BRANCH   1   5
ATOM      5  C   UNL     1     -30.425  11.756  12.348  1.00  0.00     0.059 C 
BRANCH   5   6
ATOM      6  C   UNL     1     -29.441  10.629  12.356  1.00  0.00     0.042 C 
ATOM      7  O   UNL     1     -29.813   9.461  12.064  1.00  0.00    -0.550 OA
ATOM      8  O   UNL     1     -28.103  10.874  12.637  1.00  0.00    -0.550 OA
ENDBRANCH   5   6
ENDBRANCH   1   5
TORSDOF 3
ENDMDL
