MODEL 1
REMARK VINA RESULT:    -3.096      0.000      0.000
REMARK INTER + INTRA:          -3.692
REMARK INTER:                  -3.639
REMARK INTRA:                  -0.053
REMARK UNBOUND:                -0.053
REMARK SMILES O=C([O-])CCC(=O)[O-]
REMARK SMILES IDX 4 1 2 2 1 3 3 4 5 5 6 6 7 7 8 8
REMARK H PARENT
REMARK Flexibility Score: inf
ROOT
ATOM      1  C   UNL     1     161.955 178.703 168.691  1.00  0.00     0.059 C 
ENDROOT
BRANCH   1   2
ATOM      2  C   UNL     1     160.832 178.022 169.407  1.00  0.00     0.042 C 
ATOM      3  O   UNL     1     160.878 177.866 170.655  1.00  0.00    -0.550 OA
ATOM      4  O   UNL     1     159.711 177.603 168.701  1.00  0.00    -0.550 OA
ENDBRANCH   1   2
BRANCH   1   5
ATOM      5  C   UNL     1     163.212 178.720 169.562  1.00  0.00     0.059 C 
BRANCH   5   6
ATOM      6  C   UNL     1     164.434 178.528 168.721  1.00  0.00     0.042 C 
ATOM      7  O   UNL     1     164.509 177.558 167.921  1.00  0.00    -0.550 OA
ATOM      8  O   UNL     1     165.472 179.450 168.782  1.00  0.00    -0.550 OA
ENDBRANCH   5   6
ENDBRANCH   1   5
TORSDOF 3
ENDMDL
MODEL 2
REMARK VINA RESULT:    -3.085      0.067      4.288
REMARK INTER + INTRA:          -3.679
REMARK INTER:                  -3.629
REMARK INTRA:                  -0.050
REMARK UNBOUND:                -0.053
REMARK SMILES O=C([O-])CCC(=O)[O-]
REMARK SMILES IDX 4 1 2 2 1 3 3 4 5 5 6 6 7 7 8 8
REMARK H PARENT
REMARK Flexibility Score: inf
ROOT
ATOM      1  C   UNL     1     163.176 178.666 169.587  1.00  0.00     0.059 C 
ENDROOT
BRANCH   1   2
ATOM      2  C   UNL     1     164.398 178.497 168.741  1.00  0.00     0.042 C 
ATOM      3  O   UNL     1     164.479 177.540 167.928  1.00  0.00    -0.550 OA
ATOM      4  O   UNL     1     165.428 179.426 168.815  1.00  0.00    -0.550 OA
ENDBRANCH   1   2
BRANCH   1   5
ATOM      5  C   UNL     1     161.923 178.718 168.713  1.00  0.00     0.059 C 
BRANCH   5   6
ATOM      6  C   UNL     1     160.773 178.059 169.406  1.00  0.00     0.042 C 
ATOM      7  O   UNL     1     160.802 177.878 170.653  1.00  0.00    -0.550 OA
ATOM      8  O   UNL     1     159.646 177.687 168.684  1.00  0.00    -0.550 OA
ENDBRANCH   5   6
ENDBRANCH   1   5
TORSDOF 3
ENDMDL
MODEL 3
REMARK VINA RESULT:    -2.897     16.505     17.154
REMARK INTER + INTRA:          -3.459
REMARK INTER:                  -3.398
REMARK INTRA:                  -0.060
REMARK UNBOUND:                -0.053
REMARK SMILES O=C([O-])CCC(=O)[O-]
REMARK SMILES IDX 4 1 2 2 1 3 3 4 5 5 6 6 7 7 8 8
REMARK H PARENT
REMARK Flexibility Score: inf
ROOT
ATOM      1  C   UNL     1     161.096 162.342 168.774  1.00  0.00     0.059 C 
ENDROOT
BRANCH   1   2
ATOM      2  C   UNL     1     160.382 161.343 169.629  1.00  0.00     0.042 C 
ATOM      3  O   UNL     1     159.368 161.684 170.291  1.00  0.00    -0.550 OA
ATOM      4  O   UNL     1     160.809 160.021 169.655  1.00  0.00    -0.550 OA
ENDBRANCH   1   2
BRANCH   1   5
ATOM      5  C   UNL     1     161.847 161.639 167.643  1.00  0.00     0.059 C 
BRANCH   5   6
ATOM      6  C   UNL     1     160.999 161.574 166.412  1.00  0.00     0.042 C 
ATOM      7  O   UNL     1     161.427 160.996 165.378  1.00  0.00    -0.550 OA
ATOM      8  O   UNL     1     159.717 162.107 166.422  1.00  0.00    -0.550 OA
ENDBRANCH   5   6
ENDBRANCH   1   5
TORSDOF 3
ENDMDL
MODEL 4
REMARK VINA RESULT:    -2.883     16.555     17.371
REMARK INTER + INTRA:          -3.442
REMARK INTER:                  -3.371
REMARK INTRA:                  -0.071
REMARK UNBOUND:                -0.053
REMARK SMILES O=C([O-])CCC(=O)[O-]
REMARK SMILES IDX 4 1 2 2 1 3 3 4 5 5 6 6 7 7 8 8
REMARK H PARENT
REMARK Flexibility Score: inf
ROOT
ATOM      1  C   UNL     1     161.850 161.618 167.659  1.00  0.00     0.059 C 
ENDROOT
BRANCH   1   2
ATOM      2  C   UNL     1     161.016 161.513 166.422  1.00  0.00     0.042 C 
ATOM      3  O   UNL     1     161.433 160.859 165.431  1.00  0.00    -0.550 OA
ATOM      4  O   UNL     1     159.757 162.098 166.380  1.00  0.00    -0.550 OA
ENDBRANCH   1   2
BRANCH   1   5
ATOM      5  C   UNL     1     161.066 162.308 168.776  1.00  0.00     0.059 C 
BRANCH   5   6
ATOM      6  C   UNL     1     160.352 161.297 169.617  1.00  0.00     0.042 C 
ATOM      7  O   UNL     1     159.322 161.624 170.264  1.00  0.00    -0.550 OA
ATOM      8  O   UNL     1     160.794 159.981 169.647  1.00  0.00    -0.550 OA
ENDBRANCH   5   6
ENDBRANCH   1   5
TORSDOF 3
ENDMDL
MODEL 5
REMARK VINA RESULT:    -2.810     20.560     21.851
REMARK INTER + INTRA:          -3.355
REMARK INTER:                  -3.199
REMARK INTRA:                  -0.156
REMARK UNBOUND:                -0.053
REMARK SMILES O=C([O-])CCC(=O)[O-]
REMARK SMILES IDX 4 1 2 2 1 3 3 4 5 5 6 6 7 7 8 8
REMARK H PARENT
REMARK Flexibility Score: inf
ROOT
ATOM      1  C   UNL     1     177.304 163.574 168.594  1.00  0.00     0.059 C 
ENDROOT
BRANCH   1   2
ATOM      2  C   UNL     1     176.564 162.689 169.547  1.00  0.00     0.042 C 
ATOM      3  O   UNL     1     175.309 162.744 169.617  1.00  0.00    -0.550 OA
ATOM      4  O   UNL     1     177.258 161.769 170.322  1.00  0.00    -0.550 OA
ENDBRANCH   1   2
BRANCH   1   5
ATOM      5  C   UNL     1     178.455 162.811 167.939  1.00  0.00     0.059 C 
BRANCH   5   6
ATOM      6  C   UNL     1     177.938 161.888 166.882  1.00  0.00     0.042 C 
ATOM      7  O   UNL     1     177.523 162.349 165.785  1.00  0.00    -0.550 OA
ATOM      8  O   UNL     1     177.959 160.514 167.086  1.00  0.00    -0.550 OA
ENDBRANCH   5   6
ENDBRANCH   1   5
TORSDOF 3
ENDMDL
MODEL 6
REMARK VINA RESULT:    -2.780     20.754     21.911
REMARK INTER + INTRA:          -3.320
REMARK INTER:                  -3.220
REMARK INTRA:                  -0.100
REMARK UNBOUND:                -0.053
REMARK SMILES O=C([O-])CCC(=O)[O-]
REMARK SMILES IDX 4 1 2 2 1 3 3 4 5 5 6 6 7 7 8 8
REMARK H PARENT
REMARK Flexibility Score: inf
ROOT
ATOM      1  C   UNL     1     177.621 163.614 167.644  1.00  0.00     0.059 C 
ENDROOT
BRANCH   1   2
ATOM      2  C   UNL     1     177.964 162.764 166.461  1.00  0.00     0.042 C 
ATOM      3  O   UNL     1     177.254 161.767 166.170  1.00  0.00    -0.550 OA
ATOM      4  O   UNL     1     179.040 163.103 165.651  1.00  0.00    -0.550 OA
ENDBRANCH   1   2
BRANCH   1   5
ATOM      5  C   UNL     1     178.147 162.976 168.930  1.00  0.00     0.059 C 
BRANCH   5   6
ATOM      6  C   UNL     1     177.015 162.458 169.759  1.00  0.00     0.042 C 
ATOM      7  O   UNL     1     177.237 161.663 170.711  1.00  0.00    -0.550 OA
ATOM      8  O   UNL     1     175.718 162.890 169.513  1.00  0.00    -0.550 OA
ENDBRANCH   5   6
ENDBRANCH   1   5
TORSDOF 3
ENDMDL
MODEL 7
REMARK VINA RESULT:    -2.720     10.751     12.950
REMARK INTER + INTRA:          -3.250
REMARK INTER:                  -3.154
REMARK INTRA:                  -0.096
REMARK UNBOUND:                -0.053
REMARK SMILES O=C([O-])CCC(=O)[O-]
REMARK SMILES IDX 4 1 2 2 1 3 3 4 5 5 6 6 7 7 8 8
REMARK H PARENT
REMARK Flexibility Score: inf
ROOT
ATOM      1  C   UNL     1     172.061 171.506 163.620  1.00  0.00     0.059 C 
ENDROOT
BRANCH   1   2
ATOM      2  C   UNL     1     172.786 171.398 162.316  1.00  0.00     0.042 C 
ATOM      3  O   UNL     1     172.147 171.419 161.232  1.00  0.00    -0.550 OA
ATOM      4  O   UNL     1     174.173 171.323 162.297  1.00  0.00    -0.550 OA
ENDBRANCH   1   2
BRANCH   1   5
ATOM      5  C   UNL     1     171.728 172.967 163.927  1.00  0.00     0.059 C 
BRANCH   5   6
ATOM      6  C   UNL     1     170.284 173.244 163.649  1.00  0.00     0.042 C 
ATOM      7  O   UNL     1     169.937 174.339 163.131  1.00  0.00    -0.550 OA
ATOM      8  O   UNL     1     169.326 172.275 163.916  1.00  0.00    -0.550 OA
ENDBRANCH   5   6
ENDBRANCH   1   5
TORSDOF 3
ENDMDL
MODEL 8
REMARK VINA RESULT:    -2.699     10.709     12.415
REMARK INTER + INTRA:          -3.226
REMARK INTER:                  -3.134
REMARK INTRA:                  -0.092
REMARK UNBOUND:                -0.053
REMARK SMILES O=C([O-])CCC(=O)[O-]
REMARK SMILES IDX 4 1 2 2 1 3 3 4 5 5 6 6 7 7 8 8
REMARK H PARENT
REMARK Flexibility Score: inf
ROOT
ATOM      1  C   UNL     1     171.643 172.978 163.928  1.00  0.00     0.059 C 
ENDROOT
BRANCH   1   2
ATOM      2  C   UNL     1     170.205 173.226 163.596  1.00  0.00     0.042 C 
ATOM      3  O   UNL     1     169.326 172.388 163.925  1.00  0.00    -0.550 OA
ATOM      4  O   UNL     1     169.831 174.405 162.965  1.00  0.00    -0.550 OA
ENDBRANCH   1   2
BRANCH   1   5
ATOM      5  C   UNL     1     172.016 171.524 163.639  1.00  0.00     0.059 C 
BRANCH   5   6
ATOM      6  C   UNL     1     172.758 171.421 162.344  1.00  0.00     0.042 C 
ATOM      7  O   UNL     1     172.128 171.403 161.253  1.00  0.00    -0.550 OA
ATOM      8  O   UNL     1     174.146 171.396 162.337  1.00  0.00    -0.550 OA
ENDBRANCH   5   6
ENDBRANCH   1   5
TORSDOF 3
ENDMDL
MODEL 9
REMARK VINA RESULT:    -2.696     20.693     21.929
REMARK INTER + INTRA:          -3.222
REMARK INTER:                  -3.101
REMARK INTRA:                  -0.120
REMARK UNBOUND:                -0.053
REMARK SMILES O=C([O-])CCC(=O)[O-]
REMARK SMILES IDX 4 1 2 2 1 3 3 4 5 5 6 6 7 7 8 8
REMARK H PARENT
REMARK Flexibility Score: inf
ROOT
ATOM      1  C   UNL     1     177.581 163.638 167.338  1.00  0.00     0.059 C 
ENDROOT
BRANCH   1   2
ATOM      2  C   UNL     1     178.080 162.483 166.529  1.00  0.00     0.042 C 
ATOM      3  O   UNL     1     179.118 161.863 166.881  1.00  0.00    -0.550 OA
ATOM      4  O   UNL     1     177.372 162.059 165.411  1.00  0.00    -0.550 OA
ENDBRANCH   1   2
BRANCH   1   5
ATOM      5  C   UNL     1     177.968 163.468 168.808  1.00  0.00     0.059 C 
BRANCH   5   6
ATOM      6  C   UNL     1     176.922 162.687 169.538  1.00  0.00     0.042 C 
ATOM      7  O   UNL     1     175.709 163.018 169.455  1.00  0.00    -0.550 OA
ATOM      8  O   UNL     1     177.279 161.562 170.271  1.00  0.00    -0.550 OA
ENDBRANCH   5   6
ENDBRANCH   1   5
TORSDOF 3
ENDMDL
