MODEL 1
REMARK VINA RESULT:    -3.000      0.000      0.000
REMARK INTER + INTRA:          -4.081
REMARK INTER:                  -3.877
REMARK INTRA:                  -0.204
REMARK UNBOUND:                -0.204
REMARK SMILES CCCCCCC(=O)[O-]
REMARK SMILES IDX 5 1 6 2 7 3 8 4 9 5 4 6 3 7 2 8 1 9
REMARK H PARENT
REMARK Flexibility Score: inf
ROOT
ATOM      1  C   UNL     1       3.937 110.970 182.457  1.00  0.00     0.006 C 
ENDROOT
BRANCH   1   2
ATOM      2  C   UNL     1       3.749 109.496 182.822  1.00  0.00     0.053 C 
BRANCH   2   3
ATOM      3  C   UNL     1       2.329 109.078 182.608  1.00  0.00     0.041 C 
ATOM      4  O   UNL     1       1.984 108.533 181.526  1.00  0.00    -0.550 OA
ATOM      5  O   UNL     1       1.374 109.338 183.582  1.00  0.00    -0.550 OA
ENDBRANCH   2   3
ENDBRANCH   1   2
BRANCH   1   6
ATOM      6  C   UNL     1       4.335 111.795 183.690  1.00  0.00     0.000 C 
BRANCH   6   7
ATOM      7  C   UNL     1       3.133 112.482 184.357  1.00  0.00    -0.000 C 
BRANCH   7   8
ATOM      8  C   UNL     1       3.522 113.774 185.090  1.00  0.00    -0.003 C 
ATOM      9  C   UNL     1       3.907 114.872 184.102  1.00  0.00     0.004 C 
ENDBRANCH   7   8
ENDBRANCH   6   7
ENDBRANCH   1   6
TORSDOF 5
ENDMDL
MODEL 2
REMARK VINA RESULT:    -2.981      3.427      5.956
REMARK INTER + INTRA:          -4.057
REMARK INTER:                  -3.783
REMARK INTRA:                  -0.274
REMARK UNBOUND:                -0.204
REMARK SMILES CCCCCCC(=O)[O-]
REMARK SMILES IDX 5 1 6 2 7 3 8 4 9 5 4 6 3 7 2 8 1 9
REMARK H PARENT
REMARK Flexibility Score: inf
ROOT
ATOM      1  C   UNL     1       3.892 108.135 181.706  1.00  0.00     0.006 C 
ENDROOT
BRANCH   1   2
ATOM      2  C   UNL     1       2.425 108.570 181.726  1.00  0.00     0.053 C 
BRANCH   2   3
ATOM      3  C   UNL     1       2.091 109.235 183.024  1.00  0.00     0.041 C 
ATOM      4  O   UNL     1       2.505 110.400 183.264  1.00  0.00    -0.550 OA
ATOM      5  O   UNL     1       1.366 108.549 183.990  1.00  0.00    -0.550 OA
ENDBRANCH   2   3
ENDBRANCH   1   2
BRANCH   1   6
ATOM      6  C   UNL     1       4.015 106.609 181.827  1.00  0.00     0.000 C 
BRANCH   6   7
ATOM      7  C   UNL     1       4.116 105.913 180.460  1.00  0.00    -0.000 C 
BRANCH   7   8
ATOM      8  C   UNL     1       2.838 105.144 180.092  1.00  0.00    -0.003 C 
ATOM      9  C   UNL     1       2.013 105.911 179.062  1.00  0.00     0.004 C 
ENDBRANCH   7   8
ENDBRANCH   6   7
ENDBRANCH   1   6
TORSDOF 5
ENDMDL
MODEL 3
REMARK VINA RESULT:    -2.964      3.373      5.959
REMARK INTER + INTRA:          -4.034
REMARK INTER:                  -3.801
REMARK INTRA:                  -0.233
REMARK UNBOUND:                -0.204
REMARK SMILES CCCCCCC(=O)[O-]
REMARK SMILES IDX 5 1 6 2 7 3 8 4 9 5 4 6 3 7 2 8 1 9
REMARK H PARENT
REMARK Flexibility Score: inf
ROOT
ATOM      1  C   UNL     1       3.922 108.136 182.129  1.00  0.00     0.006 C 
ENDROOT
BRANCH   1   2
ATOM      2  C   UNL     1       2.526 108.728 181.921  1.00  0.00     0.053 C 
BRANCH   2   3
ATOM      3  C   UNL     1       2.010 109.315 183.197  1.00  0.00     0.041 C 
ATOM      4  O   UNL     1       1.251 108.642 183.943  1.00  0.00    -0.550 OA
ATOM      5  O   UNL     1       2.325 110.625 183.537  1.00  0.00    -0.550 OA
ENDBRANCH   2   3
ENDBRANCH   1   2
BRANCH   1   6
ATOM      6  C   UNL     1       3.932 106.632 181.819  1.00  0.00     0.000 C 
BRANCH   6   7
ATOM      7  C   UNL     1       4.916 106.265 180.696  1.00  0.00    -0.000 C 
BRANCH   7   8
ATOM      8  C   UNL     1       4.249 105.470 179.563  1.00  0.00    -0.003 C 
ATOM      9  C   UNL     1       2.796 105.147 179.900  1.00  0.00     0.004 C 
ENDBRANCH   7   8
ENDBRANCH   6   7
ENDBRANCH   1   6
TORSDOF 5
ENDMDL
MODEL 4
REMARK VINA RESULT:    -2.953      3.361      3.988
REMARK INTER + INTRA:          -4.020
REMARK INTER:                  -3.707
REMARK INTRA:                  -0.313
REMARK UNBOUND:                -0.204
REMARK SMILES CCCCCCC(=O)[O-]
REMARK SMILES IDX 5 1 6 2 7 3 8 4 9 5 4 6 3 7 2 8 1 9
REMARK H PARENT
REMARK Flexibility Score: inf
ROOT
ATOM      1  C   UNL     1       4.040 108.474 181.748  1.00  0.00     0.006 C 
ENDROOT
BRANCH   1   2
ATOM      2  C   UNL     1       2.514 108.565 181.810  1.00  0.00     0.053 C 
BRANCH   2   3
ATOM      3  C   UNL     1       2.080 109.275 183.053  1.00  0.00     0.041 C 
ATOM      4  O   UNL     1       2.507 110.433 183.304  1.00  0.00    -0.550 OA
ATOM      5  O   UNL     1       1.244 108.638 183.962  1.00  0.00    -0.550 OA
ENDBRANCH   2   3
ENDBRANCH   1   2
BRANCH   1   6
ATOM      6  C   UNL     1       4.543 107.200 182.443  1.00  0.00     0.000 C 
BRANCH   6   7
ATOM      7  C   UNL     1       5.460 107.501 183.640  1.00  0.00    -0.000 C 
BRANCH   7   8
ATOM      8  C   UNL     1       5.779 108.997 183.778  1.00  0.00    -0.003 C 
ATOM      9  C   UNL     1       7.004 109.218 184.661  1.00  0.00     0.004 C 
ENDBRANCH   7   8
ENDBRANCH   6   7
ENDBRANCH   1   6
TORSDOF 5
ENDMDL
MODEL 5
REMARK VINA RESULT:    -2.829      1.737      2.083
REMARK INTER + INTRA:          -3.859
REMARK INTER:                  -3.680
REMARK INTRA:                  -0.180
REMARK UNBOUND:                -0.204
REMARK SMILES CCCCCCC(=O)[O-]
REMARK SMILES IDX 5 1 6 2 7 3 8 4 9 5 4 6 3 7 2 8 1 9
REMARK H PARENT
REMARK Flexibility Score: inf
ROOT
ATOM      1  C   UNL     1       3.940 110.457 182.232  1.00  0.00     0.006 C 
ENDROOT
BRANCH   1   2
ATOM      2  C   UNL     1       3.083 109.190 182.255  1.00  0.00     0.053 C 
BRANCH   2   3
ATOM      3  C   UNL     1       3.883 108.022 182.739  1.00  0.00     0.041 C 
ATOM      4  O   UNL     1       4.765 108.182 183.624  1.00  0.00    -0.550 OA
ATOM      5  O   UNL     1       3.692 106.767 182.176  1.00  0.00    -0.550 OA
ENDBRANCH   2   3
ENDBRANCH   1   2
BRANCH   1   6
ATOM      6  C   UNL     1       3.499 111.439 183.328  1.00  0.00     0.000 C 
BRANCH   6   7
ATOM      7  C   UNL     1       4.684 112.013 184.121  1.00  0.00    -0.000 C 
BRANCH   7   8
ATOM      8  C   UNL     1       4.296 113.240 184.959  1.00  0.00    -0.003 C 
ATOM      9  C   UNL     1       2.802 113.532 184.845  1.00  0.00     0.004 C 
ENDBRANCH   7   8
ENDBRANCH   6   7
ENDBRANCH   1   6
TORSDOF 5
ENDMDL
MODEL 6
REMARK VINA RESULT:    -2.802      4.169      6.628
REMARK INTER + INTRA:          -3.825
REMARK INTER:                  -3.572
REMARK INTRA:                  -0.253
REMARK UNBOUND:                -0.204
REMARK SMILES CCCCCCC(=O)[O-]
REMARK SMILES IDX 5 1 6 2 7 3 8 4 9 5 4 6 3 7 2 8 1 9
REMARK H PARENT
REMARK Flexibility Score: inf
ROOT
ATOM      1  C   UNL     1       2.326 108.175 180.177  1.00  0.00     0.006 C 
ENDROOT
BRANCH   1   2
ATOM      2  C   UNL     1       2.433 108.610 181.640  1.00  0.00     0.053 C 
BRANCH   2   3
ATOM      3  C   UNL     1       3.469 107.802 182.355  1.00  0.00     0.041 C 
ATOM      4  O   UNL     1       3.691 106.610 182.012  1.00  0.00    -0.550 OA
ATOM      5  O   UNL     1       4.154 108.346 183.433  1.00  0.00    -0.550 OA
ENDBRANCH   2   3
ENDBRANCH   1   2
BRANCH   1   6
ATOM      6  C   UNL     1       0.858 107.993 179.764  1.00  0.00     0.000 C 
BRANCH   6   7
ATOM      7  C   UNL     1       0.610 106.668 179.027  1.00  0.00    -0.000 C 
BRANCH   7   8
ATOM      8  C   UNL     1       1.806 105.708 179.119  1.00  0.00    -0.003 C 
ATOM      9  C   UNL     1       1.933 104.866 177.852  1.00  0.00     0.004 C 
ENDBRANCH   7   8
ENDBRANCH   6   7
ENDBRANCH   1   6
TORSDOF 5
ENDMDL
MODEL 7
REMARK VINA RESULT:    -2.801      3.472      5.022
REMARK INTER + INTRA:          -3.824
REMARK INTER:                  -3.666
REMARK INTRA:                  -0.158
REMARK UNBOUND:                -0.204
REMARK SMILES CCCCCCC(=O)[O-]
REMARK SMILES IDX 5 1 6 2 7 3 8 4 9 5 4 6 3 7 2 8 1 9
REMARK H PARENT
REMARK Flexibility Score: inf
ROOT
ATOM      1  C   UNL     1       3.520 108.119 181.344  1.00  0.00     0.006 C 
ENDROOT
BRANCH   1   2
ATOM      2  C   UNL     1       2.084 108.537 181.667  1.00  0.00     0.053 C 
BRANCH   2   3
ATOM      3  C   UNL     1       2.017 109.191 183.011  1.00  0.00     0.041 C 
ATOM      4  O   UNL     1       1.341 108.671 183.937  1.00  0.00    -0.550 OA
ATOM      5  O   UNL     1       2.660 110.404 183.225  1.00  0.00    -0.550 OA
ENDBRANCH   2   3
ENDBRANCH   1   2
BRANCH   1   6
ATOM      6  C   UNL     1       3.929 106.881 182.155  1.00  0.00     0.000 C 
BRANCH   6   7
ATOM      7  C   UNL     1       5.433 106.582 182.062  1.00  0.00    -0.000 C 
BRANCH   7   8
ATOM      8  C   UNL     1       6.099 106.464 183.441  1.00  0.00    -0.003 C 
ATOM      9  C   UNL     1       7.317 107.378 183.543  1.00  0.00     0.004 C 
ENDBRANCH   7   8
ENDBRANCH   6   7
ENDBRANCH   1   6
TORSDOF 5
ENDMDL
MODEL 8
REMARK VINA RESULT:    -2.790      4.114      5.354
REMARK INTER + INTRA:          -3.810
REMARK INTER:                  -3.631
REMARK INTRA:                  -0.179
REMARK UNBOUND:                -0.204
REMARK SMILES CCCCCCC(=O)[O-]
REMARK SMILES IDX 5 1 6 2 7 3 8 4 9 5 4 6 3 7 2 8 1 9
REMARK H PARENT
REMARK Flexibility Score: inf
ROOT
ATOM      1  C   UNL     1       3.500 106.575 181.323  1.00  0.00     0.006 C 
ENDROOT
BRANCH   1   2
ATOM      2  C   UNL     1       4.272 105.844 180.223  1.00  0.00     0.053 C 
BRANCH   2   3
ATOM      3  C   UNL     1       3.340 105.046 179.367  1.00  0.00     0.041 C 
ATOM      4  O   UNL     1       2.095 105.119 179.546  1.00  0.00    -0.550 OA
ATOM      5  O   UNL     1       3.847 104.182 178.404  1.00  0.00    -0.550 OA
ENDBRANCH   2   3
ENDBRANCH   1   2
BRANCH   1   6
ATOM      6  C   UNL     1       4.447 107.060 182.430  1.00  0.00     0.000 C 
BRANCH   6   7
ATOM      7  C   UNL     1       4.021 108.412 183.024  1.00  0.00    -0.000 C 
BRANCH   7   8
ATOM      8  C   UNL     1       2.741 108.965 182.378  1.00  0.00    -0.003 C 
ATOM      9  C   UNL     1       1.606 109.048 183.394  1.00  0.00     0.004 C 
ENDBRANCH   7   8
ENDBRANCH   6   7
ENDBRANCH   1   6
TORSDOF 5
ENDMDL
MODEL 9
REMARK VINA RESULT:    -2.728      4.199      6.639
REMARK INTER + INTRA:          -3.730
REMARK INTER:                  -3.356
REMARK INTRA:                  -0.374
REMARK UNBOUND:                -0.204
REMARK SMILES CCCCCCC(=O)[O-]
REMARK SMILES IDX 5 1 6 2 7 3 8 4 9 5 4 6 3 7 2 8 1 9
REMARK H PARENT
REMARK Flexibility Score: inf
ROOT
ATOM      1  C   UNL     1       4.723 106.546 180.578  1.00  0.00     0.006 C 
ENDROOT
BRANCH   1   2
ATOM      2  C   UNL     1       3.801 106.597 181.798  1.00  0.00     0.053 C 
BRANCH   2   3
ATOM      3  C   UNL     1       3.338 107.997 182.048  1.00  0.00     0.041 C 
ATOM      4  O   UNL     1       3.231 108.429 183.226  1.00  0.00    -0.550 OA
ATOM      5  O   UNL     1       2.974 108.810 180.982  1.00  0.00    -0.550 OA
ENDBRANCH   2   3
ENDBRANCH   1   2
BRANCH   1   6
ATOM      6  C   UNL     1       4.225 105.513 179.556  1.00  0.00     0.000 C 
BRANCH   6   7
ATOM      7  C   UNL     1       2.770 105.086 179.806  1.00  0.00    -0.000 C 
BRANCH   7   8
ATOM      8  C   UNL     1       1.831 105.490 178.660  1.00  0.00    -0.003 C 
ATOM      9  C   UNL     1       0.916 106.639 179.077  1.00  0.00     0.004 C 
ENDBRANCH   7   8
ENDBRANCH   6   7
ENDBRANCH   1   6
TORSDOF 5
ENDMDL
