MODEL 1
REMARK VINA RESULT:    -7.466      0.000      0.000
REMARK INTER + INTRA:          -8.230
REMARK INTER:                  -8.121
REMARK INTRA:                  -0.109
REMARK UNBOUND:                -0.109
REMARK SMILES CC(=O)[C@H]1CC[C@@H]2[C@H]3CC=C4C[C@@H](O)CC[C@]4(C)[C@@H]3CC[C@@]12C
REMARK SMILES IDX 4 1 5 2 6 3 7 4 22 5 21 6 20 7 19 8 8 9 9 10 10 11 11 12
REMARK SMILES IDX 17 13 16 14 15 15 13 16 12 17 18 18 23 19 2 20 1 21 3 22
REMARK SMILES IDX 14 23
REMARK H PARENT 14 24
REMARK Flexibility Score: inf
ROOT
ATOM      1  C   UNL     1      24.231   1.870 -23.845  1.00  0.00     0.062 C 
ATOM      2  C   UNL     1      24.594   0.579 -24.623  1.00  0.00     0.012 C 
ATOM      3  C   UNL     1      23.284  -0.197 -24.852  1.00  0.00     0.005 C 
ATOM      4  C   UNL     1      22.251   0.526 -23.994  1.00  0.00    -0.001 C 
ATOM      5  C   UNL     1      22.690   1.993 -23.998  1.00  0.00    -0.020 C 
ATOM      6  C   UNL     1      21.924   2.709 -22.857  1.00  0.00     0.008 C 
ATOM      7  C   UNL     1      20.397   2.600 -23.062  1.00  0.00     0.005 C 
ATOM      8  C   UNL     1      19.897   1.130 -23.286  1.00  0.00     0.003 C 
ATOM      9  C   UNL     1      20.753   0.344 -24.326  1.00  0.00     0.000 C 
ATOM     10  C   UNL     1      20.368  -1.137 -24.241  1.00  0.00     0.031 C 
ATOM     11  C   UNL     1      18.897  -1.324 -24.452  1.00  0.00    -0.027 C 
ATOM     12  C   UNL     1      17.976  -0.391 -24.129  1.00  0.00    -0.065 C 
ATOM     13  C   UNL     1      18.347   1.007 -23.593  1.00  0.00    -0.008 C 
ATOM     14  C   UNL     1      17.890   2.046 -24.667  1.00  0.00     0.014 C 
ATOM     15  C   UNL     1      16.443   1.845 -25.167  1.00  0.00     0.033 C 
ATOM     16  C   UNL     1      16.197   0.407 -25.661  1.00  0.00     0.118 C 
ATOM     17  C   UNL     1      16.546  -0.618 -24.573  1.00  0.00     0.063 C 
ATOM     18  C   UNL     1      17.575   1.255 -22.270  1.00  0.00     0.016 C 
ATOM     19  C   UNL     1      22.414   2.719 -25.355  1.00  0.00     0.012 C 
ENDROOT
BRANCH   1  20
ATOM     20  C   UNL     1      24.735   1.875 -22.404  1.00  0.00     0.133 C 
ATOM     21  C   UNL     1      24.965   3.125 -21.598  1.00  0.00     0.088 C 
ATOM     22  O   UNL     1      24.988   0.805 -21.877  1.00  0.00    -0.300 OA
ENDBRANCH   1  20
BRANCH  16  23
ATOM     23  O   UNL     1      14.866   0.247 -26.084  1.00  0.00    -0.393 OA
ATOM     24  H   UNL     1      14.846  -0.501 -26.737  1.00  0.00     0.210 HD
ENDBRANCH  16  23
TORSDOF 2
ENDMDL
MODEL 2
REMARK VINA RESULT:    -7.295      1.059      6.710
REMARK INTER + INTRA:          -8.044
REMARK INTER:                  -7.816
REMARK INTRA:                  -0.228
REMARK UNBOUND:                -0.109
REMARK SMILES CC(=O)[C@H]1CC[C@@H]2[C@H]3CC=C4C[C@@H](O)CC[C@]4(C)[C@@H]3CC[C@@]12C
REMARK SMILES IDX 4 1 5 2 6 3 7 4 22 5 21 6 20 7 19 8 8 9 9 10 10 11 11 12
REMARK SMILES IDX 17 13 16 14 15 15 13 16 12 17 18 18 23 19 2 20 1 21 3 22
REMARK SMILES IDX 14 23
REMARK H PARENT 14 24
REMARK Flexibility Score: inf
ROOT
ATOM      1  C   UNL     1      16.585   0.908 -24.231  1.00  0.00     0.062 C 
ATOM      2  C   UNL     1      16.705  -0.625 -24.030  1.00  0.00     0.012 C 
ATOM      3  C   UNL     1      18.206  -0.969 -24.044  1.00  0.00     0.005 C 
ATOM      4  C   UNL     1      18.892   0.314 -24.501  1.00  0.00    -0.001 C 
ATOM      5  C   UNL     1      18.017   1.447 -23.959  1.00  0.00    -0.020 C 
ATOM      6  C   UNL     1      18.432   2.746 -24.694  1.00  0.00     0.008 C 
ATOM      7  C   UNL     1      19.927   3.059 -24.463  1.00  0.00     0.005 C 
ATOM      8  C   UNL     1      20.878   1.857 -24.793  1.00  0.00     0.003 C 
ATOM      9  C   UNL     1      20.392   0.506 -24.183  1.00  0.00     0.000 C 
ATOM     10  C   UNL     1      21.215  -0.626 -24.808  1.00  0.00     0.031 C 
ATOM     11  C   UNL     1      22.682  -0.400 -24.605  1.00  0.00    -0.027 C 
ATOM     12  C   UNL     1      23.237   0.826 -24.494  1.00  0.00    -0.065 C 
ATOM     13  C   UNL     1      22.407   2.126 -24.472  1.00  0.00    -0.008 C 
ATOM     14  C   UNL     1      22.593   2.765 -23.058  1.00  0.00     0.014 C 
ATOM     15  C   UNL     1      24.063   2.860 -22.595  1.00  0.00     0.033 C 
ATOM     16  C   UNL     1      24.784   1.502 -22.678  1.00  0.00     0.118 C 
ATOM     17  C   UNL     1      24.694   0.914 -24.093  1.00  0.00     0.063 C 
ATOM     18  C   UNL     1      22.962   3.089 -25.554  1.00  0.00     0.016 C 
ATOM     19  C   UNL     1      18.151   1.649 -22.414  1.00  0.00     0.012 C 
ENDROOT
BRANCH   1  20
ATOM     20  C   UNL     1      16.000   1.301 -25.585  1.00  0.00     0.133 C 
ATOM     21  C   UNL     1      16.311   0.589 -26.874  1.00  0.00     0.088 C 
ATOM     22  O   UNL     1      15.250   2.262 -25.633  1.00  0.00    -0.300 OA
ENDBRANCH   1  20
BRANCH  16  23
ATOM     23  O   UNL     1      26.125   1.625 -22.276  1.00  0.00    -0.393 OA
ATOM     24  H   UNL     1      26.271   0.997 -21.520  1.00  0.00     0.210 HD
ENDBRANCH  16  23
TORSDOF 2
ENDMDL
MODEL 3
REMARK VINA RESULT:    -6.733      7.694     11.256
REMARK INTER + INTRA:          -7.432
REMARK INTER:                  -7.210
REMARK INTRA:                  -0.222
REMARK UNBOUND:                -0.109
REMARK SMILES CC(=O)[C@H]1CC[C@@H]2[C@H]3CC=C4C[C@@H](O)CC[C@]4(C)[C@@H]3CC[C@@]12C
REMARK SMILES IDX 4 1 5 2 6 3 7 4 22 5 21 6 20 7 19 8 8 9 9 10 10 11 11 12
REMARK SMILES IDX 17 13 16 14 15 15 13 16 12 17 18 18 23 19 2 20 1 21 3 22
REMARK SMILES IDX 14 23
REMARK H PARENT 14 24
REMARK Flexibility Score: inf
ROOT
ATOM      1  C   UNL     1      19.592   0.297 -16.916  1.00  0.00     0.062 C 
ATOM      2  C   UNL     1      19.624  -1.185 -16.460  1.00  0.00     0.012 C 
ATOM      3  C   UNL     1      20.919  -1.384 -15.651  1.00  0.00     0.005 C 
ATOM      4  C   UNL     1      21.714  -0.101 -15.872  1.00  0.00    -0.001 C 
ATOM      5  C   UNL     1      20.659   0.997 -16.029  1.00  0.00    -0.020 C 
ATOM      6  C   UNL     1      21.367   2.239 -16.627  1.00  0.00     0.008 C 
ATOM      7  C   UNL     1      22.514   2.717 -15.709  1.00  0.00     0.005 C 
ATOM      8  C   UNL     1      23.525   1.581 -15.324  1.00  0.00     0.003 C 
ATOM      9  C   UNL     1      22.822   0.268 -14.861  1.00  0.00     0.000 C 
ATOM     10  C   UNL     1      23.877  -0.844 -14.801  1.00  0.00     0.031 C 
ATOM     11  C   UNL     1      25.016  -0.458 -13.909  1.00  0.00    -0.027 C 
ATOM     12  C   UNL     1      25.403   0.820 -13.709  1.00  0.00    -0.065 C 
ATOM     13  C   UNL     1      24.655   2.029 -14.307  1.00  0.00    -0.008 C 
ATOM     14  C   UNL     1      24.061   2.838 -13.109  1.00  0.00     0.014 C 
ATOM     15  C   UNL     1      25.070   3.124 -11.977  1.00  0.00     0.033 C 
ATOM     16  C   UNL     1      25.759   1.841 -11.478  1.00  0.00     0.118 C 
ATOM     17  C   UNL     1      26.435   1.092 -12.635  1.00  0.00     0.063 C 
ATOM     18  C   UNL     1      25.670   2.913 -15.077  1.00  0.00     0.016 C 
ATOM     19  C   UNL     1      19.962   1.384 -14.683  1.00  0.00     0.012 C 
ENDROOT
BRANCH   1  20
ATOM     20  C   UNL     1      19.791   0.476 -18.418  1.00  0.00     0.133 C 
ATOM     21  C   UNL     1      20.818  -0.270 -19.226  1.00  0.00     0.088 C 
ATOM     22  O   UNL     1      19.091   1.288 -19.001  1.00  0.00    -0.300 OA
ENDBRANCH   1  20
BRANCH  16  23
ATOM     23  O   UNL     1      26.690   2.136 -10.467  1.00  0.00    -0.393 OA
ATOM     24  H   UNL     1      27.009   1.274 -10.091  1.00  0.00     0.210 HD
ENDBRANCH  16  23
TORSDOF 2
ENDMDL
MODEL 4
REMARK VINA RESULT:    -6.701      2.521      3.520
REMARK INTER + INTRA:          -7.398
REMARK INTER:                  -7.214
REMARK INTRA:                  -0.183
REMARK UNBOUND:                -0.109
REMARK SMILES CC(=O)[C@H]1CC[C@@H]2[C@H]3CC=C4C[C@@H](O)CC[C@]4(C)[C@@H]3CC[C@@]12C
REMARK SMILES IDX 4 1 5 2 6 3 7 4 22 5 21 6 20 7 19 8 8 9 9 10 10 11 11 12
REMARK SMILES IDX 17 13 16 14 15 15 13 16 12 17 18 18 23 19 2 20 1 21 3 22
REMARK SMILES IDX 14 23
REMARK H PARENT 14 24
REMARK Flexibility Score: inf
ROOT
ATOM      1  C   UNL     1      21.308   2.285 -20.293  1.00  0.00     0.062 C 
ATOM      2  C   UNL     1      22.743   2.397 -20.869  1.00  0.00     0.012 C 
ATOM      3  C   UNL     1      22.749   1.657 -22.220  1.00  0.00     0.005 C 
ATOM      4  C   UNL     1      21.409   0.932 -22.270  1.00  0.00    -0.001 C 
ATOM      5  C   UNL     1      20.440   1.835 -21.501  1.00  0.00    -0.020 C 
ATOM      6  C   UNL     1      19.175   0.998 -21.186  1.00  0.00     0.008 C 
ATOM      7  C   UNL     1      18.518   0.479 -22.485  1.00  0.00     0.005 C 
ATOM      8  C   UNL     1      19.512  -0.275 -23.434  1.00  0.00     0.003 C 
ATOM      9  C   UNL     1      20.857   0.487 -23.643  1.00  0.00     0.000 C 
ATOM     10  C   UNL     1      21.846  -0.464 -24.328  1.00  0.00     0.031 C 
ATOM     11  C   UNL     1      21.282  -0.993 -25.611  1.00  0.00    -0.027 C 
ATOM     12  C   UNL     1      19.960  -1.157 -25.829  1.00  0.00    -0.065 C 
ATOM     13  C   UNL     1      18.879  -0.731 -24.814  1.00  0.00    -0.008 C 
ATOM     14  C   UNL     1      18.056   0.420 -25.477  1.00  0.00     0.014 C 
ATOM     15  C   UNL     1      17.589   0.116 -26.916  1.00  0.00     0.033 C 
ATOM     16  C   UNL     1      18.756  -0.311 -27.825  1.00  0.00     0.118 C 
ATOM     17  C   UNL     1      19.508  -1.510 -27.231  1.00  0.00     0.063 C 
ATOM     18  C   UNL     1      17.950  -1.942 -24.538  1.00  0.00     0.016 C 
ATOM     19  C   UNL     1      20.037   3.124 -22.290  1.00  0.00     0.012 C 
ENDROOT
BRANCH   1  20
ATOM     20  C   UNL     1      21.212   1.385 -19.065  1.00  0.00     0.133 C 
ATOM     21  C   UNL     1      20.270   1.625 -17.917  1.00  0.00     0.088 C 
ATOM     22  O   UNL     1      21.959   0.422 -18.995  1.00  0.00    -0.300 OA
ENDBRANCH   1  20
BRANCH  16  23
ATOM     23  O   UNL     1      18.296  -0.606 -29.120  1.00  0.00    -0.393 OA
ATOM     24  H   UNL     1      17.350  -0.307 -29.179  1.00  0.00     0.210 HD
ENDBRANCH  16  23
TORSDOF 2
ENDMDL
MODEL 5
REMARK VINA RESULT:    -6.447      1.474      2.159
REMARK INTER + INTRA:          -7.121
REMARK INTER:                  -6.938
REMARK INTRA:                  -0.183
REMARK UNBOUND:                -0.109
REMARK SMILES CC(=O)[C@H]1CC[C@@H]2[C@H]3CC=C4C[C@@H](O)CC[C@]4(C)[C@@H]3CC[C@@]12C
REMARK SMILES IDX 4 1 5 2 6 3 7 4 22 5 21 6 20 7 19 8 8 9 9 10 10 11 11 12
REMARK SMILES IDX 17 13 16 14 15 15 13 16 12 17 18 18 23 19 2 20 1 21 3 22
REMARK SMILES IDX 14 23
REMARK H PARENT 14 24
REMARK Flexibility Score: inf
ROOT
ATOM      1  C   UNL     1      24.024   2.345 -24.017  1.00  0.00     0.062 C 
ATOM      2  C   UNL     1      24.170   2.922 -25.450  1.00  0.00     0.012 C 
ATOM      3  C   UNL     1      22.955   2.435 -26.261  1.00  0.00     0.005 C 
ATOM      4  C   UNL     1      22.283   1.399 -25.367  1.00  0.00    -0.001 C 
ATOM      5  C   UNL     1      22.544   1.880 -23.937  1.00  0.00    -0.020 C 
ATOM      6  C   UNL     1      22.228   0.699 -22.985  1.00  0.00     0.008 C 
ATOM      7  C   UNL     1      20.762   0.238 -23.143  1.00  0.00     0.005 C 
ATOM      8  C   UNL     1      20.355  -0.066 -24.627  1.00  0.00     0.003 C 
ATOM      9  C   UNL     1      20.800   1.049 -25.624  1.00  0.00     0.000 C 
ATOM     10  C   UNL     1      20.621   0.514 -27.050  1.00  0.00     0.031 C 
ATOM     11  C   UNL     1      19.211   0.066 -27.284  1.00  0.00    -0.027 C 
ATOM     12  C   UNL     1      18.410  -0.405 -26.305  1.00  0.00    -0.065 C 
ATOM     13  C   UNL     1      18.829  -0.447 -24.821  1.00  0.00    -0.008 C 
ATOM     14  C   UNL     1      17.888   0.536 -24.051  1.00  0.00     0.014 C 
ATOM     15  C   UNL     1      16.388   0.352 -24.364  1.00  0.00     0.033 C 
ATOM     16  C   UNL     1      16.103   0.398 -25.877  1.00  0.00     0.118 C 
ATOM     17  C   UNL     1      16.949  -0.638 -26.630  1.00  0.00     0.063 C 
ATOM     18  C   UNL     1      18.623  -1.888 -24.285  1.00  0.00     0.016 C 
ATOM     19  C   UNL     1      21.686   3.125 -23.535  1.00  0.00     0.012 C 
ENDROOT
BRANCH   1  20
ATOM     20  C   UNL     1      25.054   1.268 -23.687  1.00  0.00     0.133 C 
ATOM     21  C   UNL     1      25.702   1.109 -22.339  1.00  0.00     0.088 C 
ATOM     22  O   UNL     1      25.390   0.500 -24.573  1.00  0.00    -0.300 OA
ENDBRANCH   1  20
BRANCH  16  23
ATOM     23  O   UNL     1      14.735   0.202 -26.132  1.00  0.00    -0.393 OA
ATOM     24  H   UNL     1      14.620  -0.731 -26.452  1.00  0.00     0.210 HD
ENDBRANCH  16  23
TORSDOF 2
ENDMDL
MODEL 6
REMARK VINA RESULT:    -6.389      1.709      6.749
REMARK INTER + INTRA:          -7.059
REMARK INTER:                  -6.936
REMARK INTRA:                  -0.123
REMARK UNBOUND:                -0.109
REMARK SMILES CC(=O)[C@H]1CC[C@@H]2[C@H]3CC=C4C[C@@H](O)CC[C@]4(C)[C@@H]3CC[C@@]12C
REMARK SMILES IDX 4 1 5 2 6 3 7 4 22 5 21 6 20 7 19 8 8 9 9 10 10 11 11 12
REMARK SMILES IDX 17 13 16 14 15 15 13 16 12 17 18 18 23 19 2 20 1 21 3 22
REMARK SMILES IDX 14 23
REMARK H PARENT 14 24
REMARK Flexibility Score: inf
ROOT
ATOM      1  C   UNL     1      17.794  -0.650 -25.147  1.00  0.00     0.062 C 
ATOM      2  C   UNL     1      17.805  -0.311 -26.660  1.00  0.00     0.012 C 
ATOM      3  C   UNL     1      19.072   0.521 -26.930  1.00  0.00     0.005 C 
ATOM      4  C   UNL     1      19.619   0.854 -25.546  1.00  0.00    -0.001 C 
ATOM      5  C   UNL     1      19.243  -0.346 -24.672  1.00  0.00    -0.020 C 
ATOM      6  C   UNL     1      19.424   0.081 -23.194  1.00  0.00     0.008 C 
ATOM      7  C   UNL     1      20.881   0.516 -22.919  1.00  0.00     0.005 C 
ATOM      8  C   UNL     1      21.414   1.597 -23.922  1.00  0.00     0.003 C 
ATOM      9  C   UNL     1      21.106   1.254 -25.413  1.00  0.00     0.000 C 
ATOM     10  C   UNL     1      21.398   2.497 -26.261  1.00  0.00     0.031 C 
ATOM     11  C   UNL     1      22.806   2.966 -26.061  1.00  0.00    -0.027 C 
ATOM     12  C   UNL     1      23.494   2.782 -24.914  1.00  0.00    -0.065 C 
ATOM     13  C   UNL     1      22.937   1.986 -23.716  1.00  0.00    -0.008 C 
ATOM     14  C   UNL     1      23.836   0.718 -23.549  1.00  0.00     0.014 C 
ATOM     15  C   UNL     1      25.351   1.013 -23.555  1.00  0.00     0.033 C 
ATOM     16  C   UNL     1      25.778   1.824 -24.791  1.00  0.00     0.118 C 
ATOM     17  C   UNL     1      24.969   3.124 -24.906  1.00  0.00     0.063 C 
ATOM     18  C   UNL     1      23.038   2.865 -22.442  1.00  0.00     0.016 C 
ATOM     19  C   UNL     1      20.104  -1.619 -24.963  1.00  0.00     0.012 C 
ENDROOT
BRANCH   1  20
ATOM     20  C   UNL     1      16.700   0.075 -24.368  1.00  0.00     0.133 C 
ATOM     21  C   UNL     1      16.045   1.350 -24.826  1.00  0.00     0.088 C 
ATOM     22  O   UNL     1      16.346  -0.393 -23.298  1.00  0.00    -0.300 OA
ENDBRANCH   1  20
BRANCH  16  23
ATOM     23  O   UNL     1      27.156   2.098 -24.755  1.00  0.00    -0.393 OA
ATOM     24  H   UNL     1      27.346   2.574 -23.904  1.00  0.00     0.210 HD
ENDBRANCH  16  23
TORSDOF 2
ENDMDL
MODEL 7
REMARK VINA RESULT:    -6.341      4.436      5.883
REMARK INTER + INTRA:          -7.007
REMARK INTER:                  -6.823
REMARK INTRA:                  -0.184
REMARK UNBOUND:                -0.109
REMARK SMILES CC(=O)[C@H]1CC[C@@H]2[C@H]3CC=C4C[C@@H](O)CC[C@]4(C)[C@@H]3CC[C@@]12C
REMARK SMILES IDX 4 1 5 2 6 3 7 4 22 5 21 6 20 7 19 8 8 9 9 10 10 11 11 12
REMARK SMILES IDX 17 13 16 14 15 15 13 16 12 17 18 18 23 19 2 20 1 21 3 22
REMARK SMILES IDX 14 23
REMARK H PARENT 14 24
REMARK Flexibility Score: inf
ROOT
ATOM      1  C   UNL     1      21.649   2.041 -23.571  1.00  0.00     0.062 C 
ATOM      2  C   UNL     1      20.779   0.860 -24.076  1.00  0.00     0.012 C 
ATOM      3  C   UNL     1      20.222   0.142 -22.833  1.00  0.00     0.005 C 
ATOM      4  C   UNL     1      20.977   0.758 -21.660  1.00  0.00    -0.001 C 
ATOM      5  C   UNL     1      21.248   2.206 -22.079  1.00  0.00    -0.020 C 
ATOM      6  C   UNL     1      22.324   2.773 -21.119  1.00  0.00     0.008 C 
ATOM      7  C   UNL     1      21.843   2.714 -19.652  1.00  0.00     0.005 C 
ATOM      8  C   UNL     1      21.339   1.296 -19.212  1.00  0.00     0.003 C 
ATOM      9  C   UNL     1      20.367   0.644 -20.244  1.00  0.00     0.000 C 
ATOM     10  C   UNL     1      20.183  -0.829 -19.864  1.00  0.00     0.031 C 
ATOM     11  C   UNL     1      19.695  -0.964 -18.454  1.00  0.00    -0.027 C 
ATOM     12  C   UNL     1      19.976  -0.070 -17.483  1.00  0.00    -0.065 C 
ATOM     13  C   UNL     1      20.752   1.238 -17.741  1.00  0.00    -0.008 C 
ATOM     14  C   UNL     1      19.765   2.419 -17.469  1.00  0.00     0.014 C 
ATOM     15  C   UNL     1      18.998   2.307 -16.134  1.00  0.00     0.033 C 
ATOM     16  C   UNL     1      18.280   0.953 -15.991  1.00  0.00     0.118 C 
ATOM     17  C   UNL     1      19.263  -0.214 -16.154  1.00  0.00     0.063 C 
ATOM     18  C   UNL     1      21.941   1.316 -16.748  1.00  0.00     0.016 C 
ATOM     19  C   UNL     1      19.974   3.112 -22.037  1.00  0.00     0.012 C 
ENDROOT
BRANCH   1  20
ATOM     20  C   UNL     1      23.142   1.844 -23.815  1.00  0.00     0.133 C 
ATOM     21  C   UNL     1      23.817   0.500 -23.864  1.00  0.00     0.088 C 
ATOM     22  O   UNL     1      23.839   2.836 -23.959  1.00  0.00    -0.300 OA
ENDBRANCH   1  20
BRANCH  16  23
ATOM     23  O   UNL     1      17.613   0.872 -14.757  1.00  0.00    -0.393 OA
ATOM     24  H   UNL     1      16.688   1.210 -14.891  1.00  0.00     0.210 HD
ENDBRANCH  16  23
TORSDOF 2
ENDMDL
MODEL 8
REMARK VINA RESULT:    -6.223      5.028      6.757
REMARK INTER + INTRA:          -6.878
REMARK INTER:                  -6.747
REMARK INTRA:                  -0.131
REMARK UNBOUND:                -0.109
REMARK SMILES CC(=O)[C@H]1CC[C@@H]2[C@H]3CC=C4C[C@@H](O)CC[C@]4(C)[C@@H]3CC[C@@]12C
REMARK SMILES IDX 4 1 5 2 6 3 7 4 22 5 21 6 20 7 19 8 8 9 9 10 10 11 11 12
REMARK SMILES IDX 17 13 16 14 15 15 13 16 12 17 18 18 23 19 2 20 1 21 3 22
REMARK SMILES IDX 14 23
REMARK H PARENT 14 24
REMARK Flexibility Score: inf
ROOT
ATOM      1  C   UNL     1      20.378  -0.251 -15.714  1.00  0.00     0.062 C 
ATOM      2  C   UNL     1      19.793  -1.647 -16.055  1.00  0.00     0.012 C 
ATOM      3  C   UNL     1      19.691  -1.733 -17.589  1.00  0.00     0.005 C 
ATOM      4  C   UNL     1      19.975  -0.317 -18.077  1.00  0.00    -0.001 C 
ATOM      5  C   UNL     1      20.961   0.263 -17.059  1.00  0.00    -0.020 C 
ATOM      6  C   UNL     1      20.998   1.797 -17.270  1.00  0.00     0.008 C 
ATOM      7  C   UNL     1      21.436   2.148 -18.710  1.00  0.00     0.005 C 
ATOM      8  C   UNL     1      20.603   1.413 -19.816  1.00  0.00     0.003 C 
ATOM      9  C   UNL     1      20.429  -0.113 -19.540  1.00  0.00     0.000 C 
ATOM     10  C   UNL     1      19.368  -0.656 -20.504  1.00  0.00     0.031 C 
ATOM     11  C   UNL     1      19.738  -0.371 -21.927  1.00  0.00    -0.027 C 
ATOM     12  C   UNL     1      20.477   0.695 -22.303  1.00  0.00    -0.065 C 
ATOM     13  C   UNL     1      21.099   1.685 -21.297  1.00  0.00    -0.008 C 
ATOM     14  C   UNL     1      22.651   1.545 -21.417  1.00  0.00     0.014 C 
ATOM     15  C   UNL     1      23.180   1.590 -22.867  1.00  0.00     0.033 C 
ATOM     16  C   UNL     1      22.470   0.567 -23.773  1.00  0.00     0.118 C 
ATOM     17  C   UNL     1      20.947   0.764 -23.740  1.00  0.00     0.063 C 
ATOM     18  C   UNL     1      20.676   3.125 -21.687  1.00  0.00     0.016 C 
ATOM     19  C   UNL     1      22.406  -0.323 -17.193  1.00  0.00     0.012 C 
ENDROOT
BRANCH   1  20
ATOM     20  C   UNL     1      19.371   0.686 -15.053  1.00  0.00     0.133 C 
ATOM     21  C   UNL     1      19.752   1.832 -14.155  1.00  0.00     0.088 C 
ATOM     22  O   UNL     1      18.183   0.485 -15.244  1.00  0.00    -0.300 OA
ENDBRANCH   1  20
BRANCH  16  23
ATOM     23  O   UNL     1      22.953   0.649 -25.090  1.00  0.00    -0.393 OA
ATOM     24  H   UNL     1      23.877   0.282 -25.095  1.00  0.00     0.210 HD
ENDBRANCH  16  23
TORSDOF 2
ENDMDL
MODEL 9
REMARK VINA RESULT:    -6.056      4.125      5.631
REMARK INTER + INTRA:          -6.696
REMARK INTER:                  -6.535
REMARK INTRA:                  -0.161
REMARK UNBOUND:                -0.109
REMARK SMILES CC(=O)[C@H]1CC[C@@H]2[C@H]3CC=C4C[C@@H](O)CC[C@]4(C)[C@@H]3CC[C@@]12C
REMARK SMILES IDX 4 1 5 2 6 3 7 4 22 5 21 6 20 7 19 8 8 9 9 10 10 11 11 12
REMARK SMILES IDX 17 13 16 14 15 15 13 16 12 17 18 18 23 19 2 20 1 21 3 22
REMARK SMILES IDX 14 23
REMARK H PARENT 14 24
REMARK Flexibility Score: inf
ROOT
ATOM      1  C   UNL     1      20.571   0.754 -16.693  1.00  0.00     0.062 C 
ATOM      2  C   UNL     1      21.069   2.210 -16.494  1.00  0.00     0.012 C 
ATOM      3  C   UNL     1      21.185   2.844 -17.892  1.00  0.00     0.005 C 
ATOM      4  C   UNL     1      20.999   1.682 -18.862  1.00  0.00    -0.001 C 
ATOM      5  C   UNL     1      20.039   0.724 -18.153  1.00  0.00    -0.020 C 
ATOM      6  C   UNL     1      20.104  -0.634 -18.897  1.00  0.00     0.008 C 
ATOM      7  C   UNL     1      19.707  -0.470 -20.382  1.00  0.00     0.005 C 
ATOM      8  C   UNL     1      20.506   0.658 -21.124  1.00  0.00     0.003 C 
ATOM      9  C   UNL     1      20.578   1.990 -20.317  1.00  0.00     0.000 C 
ATOM     10  C   UNL     1      21.613   2.901 -20.986  1.00  0.00     0.031 C 
ATOM     11  C   UNL     1      21.281   3.123 -22.430  1.00  0.00    -0.027 C 
ATOM     12  C   UNL     1      20.617   2.223 -23.186  1.00  0.00    -0.065 C 
ATOM     13  C   UNL     1      20.047   0.906 -22.621  1.00  0.00    -0.008 C 
ATOM     14  C   UNL     1      18.491   0.993 -22.738  1.00  0.00     0.014 C 
ATOM     15  C   UNL     1      17.985   1.440 -24.125  1.00  0.00     0.033 C 
ATOM     16  C   UNL     1      18.639   2.757 -24.582  1.00  0.00     0.118 C 
ATOM     17  C   UNL     1      20.170   2.647 -24.569  1.00  0.00     0.063 C 
ATOM     18  C   UNL     1      20.567  -0.274 -23.483  1.00  0.00     0.016 C 
ATOM     19  C   UNL     1      18.562   1.237 -18.119  1.00  0.00     0.012 C 
ENDROOT
BRANCH   1  20
ATOM     20  C   UNL     1      21.628  -0.300 -16.374  1.00  0.00     0.133 C 
ATOM     21  C   UNL     1      21.360  -1.543 -15.570  1.00  0.00     0.088 C 
ATOM     22  O   UNL     1      22.765  -0.117 -16.775  1.00  0.00    -0.300 OA
ENDBRANCH   1  20
BRANCH  16  23
ATOM     23  O   UNL     1      18.178   3.125 -25.858  1.00  0.00    -0.393 OA
ATOM     24  H   UNL     1      18.544   2.471 -26.510  1.00  0.00     0.210 HD
ENDBRANCH  16  23
TORSDOF 2
ENDMDL
