MODEL 1
REMARK VINA RESULT:    -6.424      0.000      0.000
REMARK INTER + INTRA:          -9.779
REMARK INTER:                  -8.490
REMARK INTRA:                  -1.289
REMARK UNBOUND:                -1.289
REMARK SMILES CC[C@H](C=C[C@@H](C)[C@@H]1CC[C@@H]2C3=CC[C@@H]4C[C@@H](O)CC[C@]4(C)[C@H]3CC[C@@]21C)C(C)C
REMARK SMILES IDX 6 1 7 2 5 3 4 4 3 5 2 6 1 7 28 8 29 9 30 10 8 11 9 12 26 13
REMARK SMILES IDX 10 14 11 15 25 16 27 17 12 18 24 19 23 20 13 21 21 22 14 23
REMARK SMILES IDX 15 24 20 25 22 26 16 27 19 28 17 29 18 30
REMARK H PARENT 18 31
REMARK Flexibility Score: inf
ROOT
ATOM      1  C   UNL     1     137.541 130.856 139.712  1.00  0.00     0.012 C 
ATOM      2  C   UNL     1     137.781 130.731 138.199  1.00  0.00     0.012 C 
ENDROOT
BRANCH   1   3
ATOM      3  C   UNL     1     136.608 129.757 140.190  1.00  0.00    -0.028 C 
ATOM      4  C   UNL     1     135.284 129.960 140.295  1.00  0.00    -0.027 C 
BRANCH   4   5
ATOM      5  C   UNL     1     134.232 128.870 140.469  1.00  0.00     0.014 C 
BRANCH   5   6
ATOM      6  C   UNL     1     133.204 129.238 141.574  1.00  0.00     0.004 C 
ATOM      7  C   UNL     1     133.554 130.492 142.389  1.00  0.00     0.004 C 
ENDBRANCH   5   6
BRANCH   5   8
ATOM      8  C   UNL     1     133.594 128.229 139.186  1.00  0.00    -0.011 C 
ATOM      9  C   UNL     1     133.581 129.194 137.988  1.00  0.00     0.008 C 
ATOM     10  C   UNL     1     132.220 127.557 139.375  1.00  0.00     0.008 C 
ENDBRANCH   5   8
ENDBRANCH   4   5
ENDBRANCH   1   3
BRANCH   1  11
ATOM     11  C   UNL     1     137.052 132.284 140.186  1.00  0.00     0.002 C 
ATOM     12  C   UNL     1     137.122 133.438 139.170  1.00  0.00     0.005 C 
ATOM     13  C   UNL     1     137.726 132.843 141.470  1.00  0.00    -0.023 C 
ATOM     14  C   UNL     1     137.163 134.728 139.996  1.00  0.00     0.009 C 
ATOM     15  C   UNL     1     137.243 134.310 141.470  1.00  0.00     0.021 C 
ATOM     16  C   UNL     1     139.281 132.776 141.387  1.00  0.00     0.008 C 
ATOM     17  C   UNL     1     137.210 132.096 142.724  1.00  0.00     0.012 C 
ATOM     18  C   UNL     1     138.084 135.276 142.297  1.00  0.00    -0.067 C 
ATOM     19  C   UNL     1     139.953 133.582 142.501  1.00  0.00     0.009 C 
ATOM     20  C   UNL     1     139.596 135.081 142.413  1.00  0.00     0.021 C 
ATOM     21  C   UNL     1     137.495 136.424 142.697  1.00  0.00    -0.027 C 
ATOM     22  C   UNL     1     140.234 135.943 143.568  1.00  0.00    -0.023 C 
ATOM     23  C   UNL     1     138.184 137.492 143.502  1.00  0.00     0.031 C 
ATOM     24  C   UNL     1     139.722 137.416 143.458  1.00  0.00     0.002 C 
ATOM     25  C   UNL     1     141.795 135.964 143.502  1.00  0.00     0.010 C 
ATOM     26  C   UNL     1     139.841 135.375 144.962  1.00  0.00     0.012 C 
ATOM     27  C   UNL     1     140.277 138.149 142.212  1.00  0.00     0.036 C 
ATOM     28  C   UNL     1     142.348 136.697 142.266  1.00  0.00     0.032 C 
ATOM     29  C   UNL     1     141.812 138.137 142.178  1.00  0.00     0.114 C 
BRANCH  29  30
ATOM     30  O   UNL     1     142.310 138.910 143.241  1.00  0.00    -0.393 OA
ATOM     31  H   UNL     1     141.662 139.651 143.389  1.00  0.00     0.210 HD
ENDBRANCH  29  30
ENDBRANCH   1  11
TORSDOF 6
ENDMDL
MODEL 2
REMARK VINA RESULT:    -6.312      1.615      2.304
REMARK INTER + INTRA:          -9.630
REMARK INTER:                  -8.320
REMARK INTRA:                  -1.309
REMARK UNBOUND:                -1.289
REMARK SMILES CC[C@H](C=C[C@@H](C)[C@@H]1CC[C@@H]2C3=CC[C@@H]4C[C@@H](O)CC[C@]4(C)[C@H]3CC[C@@]21C)C(C)C
REMARK SMILES IDX 6 1 7 2 5 3 4 4 3 5 2 6 1 7 28 8 29 9 30 10 8 11 9 12 26 13
REMARK SMILES IDX 10 14 11 15 25 16 27 17 12 18 24 19 23 20 13 21 21 22 14 23
REMARK SMILES IDX 15 24 20 25 22 26 16 27 19 28 17 29 18 30
REMARK H PARENT 18 31
REMARK Flexibility Score: inf
ROOT
ATOM      1  C   UNL     1     135.925 130.637 141.124  1.00  0.00     0.012 C 
ATOM      2  C   UNL     1     136.572 130.152 139.817  1.00  0.00     0.012 C 
ENDROOT
BRANCH   1   3
ATOM      3  C   UNL     1     134.676 129.827 141.426  1.00  0.00    -0.028 C 
ATOM      4  C   UNL     1     134.388 129.425 142.675  1.00  0.00    -0.027 C 
BRANCH   4   5
ATOM      5  C   UNL     1     133.043 128.880 143.142  1.00  0.00     0.014 C 
BRANCH   5   6
ATOM      6  C   UNL     1     133.068 128.513 144.651  1.00  0.00     0.004 C 
ATOM      7  C   UNL     1     134.008 129.371 145.510  1.00  0.00     0.004 C 
ENDBRANCH   5   6
BRANCH   5   8
ATOM      8  C   UNL     1     131.733 129.611 142.680  1.00  0.00    -0.011 C 
ATOM      9  C   UNL     1     131.723 131.101 143.064  1.00  0.00     0.008 C 
ATOM     10  C   UNL     1     130.405 128.928 143.061  1.00  0.00     0.008 C 
ENDBRANCH   5   8
ENDBRANCH   4   5
ENDBRANCH   1   3
BRANCH   1  11
ATOM     11  C   UNL     1     135.640 132.193 141.180  1.00  0.00     0.002 C 
ATOM     12  C   UNL     1     136.020 133.036 139.950  1.00  0.00     0.005 C 
ATOM     13  C   UNL     1     136.252 132.954 142.389  1.00  0.00    -0.023 C 
ATOM     14  C   UNL     1     136.191 134.472 140.456  1.00  0.00     0.009 C 
ATOM     15  C   UNL     1     136.033 134.427 141.982  1.00  0.00     0.021 C 
ATOM     16  C   UNL     1     137.772 132.650 142.557  1.00  0.00     0.008 C 
ATOM     17  C   UNL     1     135.479 132.623 143.689  1.00  0.00     0.012 C 
ATOM     18  C   UNL     1     136.930 135.441 142.683  1.00  0.00    -0.067 C 
ATOM     19  C   UNL     1     138.445 133.606 143.545  1.00  0.00     0.009 C 
ATOM     20  C   UNL     1     138.363 135.070 143.065  1.00  0.00     0.021 C 
ATOM     21  C   UNL     1     136.507 136.723 142.717  1.00  0.00    -0.027 C 
ATOM     22  C   UNL     1     139.007 136.095 144.075  1.00  0.00    -0.023 C 
ATOM     23  C   UNL     1     137.276 137.850 143.351  1.00  0.00     0.031 C 
ATOM     24  C   UNL     1     138.773 137.551 143.556  1.00  0.00     0.002 C 
ATOM     25  C   UNL     1     140.547 135.879 144.240  1.00  0.00     0.010 C 
ATOM     26  C   UNL     1     138.370 135.953 145.487  1.00  0.00     0.012 C 
ATOM     27  C   UNL     1     139.581 137.865 142.273  1.00  0.00     0.036 C 
ATOM     28  C   UNL     1     141.352 136.196 142.966  1.00  0.00     0.032 C 
ATOM     29  C   UNL     1     141.085 137.630 142.473  1.00  0.00     0.114 C 
BRANCH  29  30
ATOM     30  O   UNL     1     141.587 138.565 143.394  1.00  0.00    -0.393 OA
ATOM     31  H   UNL     1     140.830 139.159 143.645  1.00  0.00     0.210 HD
ENDBRANCH  29  30
ENDBRANCH   1  11
TORSDOF 6
ENDMDL
MODEL 3
REMARK VINA RESULT:    -6.279      1.642      2.333
REMARK INTER + INTRA:          -9.587
REMARK INTER:                  -8.332
REMARK INTRA:                  -1.255
REMARK UNBOUND:                -1.289
REMARK SMILES CC[C@H](C=C[C@@H](C)[C@@H]1CC[C@@H]2C3=CC[C@@H]4C[C@@H](O)CC[C@]4(C)[C@H]3CC[C@@]21C)C(C)C
REMARK SMILES IDX 6 1 7 2 5 3 4 4 3 5 2 6 1 7 28 8 29 9 30 10 8 11 9 12 26 13
REMARK SMILES IDX 10 14 11 15 25 16 27 17 12 18 24 19 23 20 13 21 21 22 14 23
REMARK SMILES IDX 15 24 20 25 22 26 16 27 19 28 17 29 18 30
REMARK H PARENT 18 31
REMARK Flexibility Score: inf
ROOT
ATOM      1  C   UNL     1     135.746 129.992 142.011  1.00  0.00     0.012 C 
ATOM      2  C   UNL     1     136.270 129.194 140.807  1.00  0.00     0.012 C 
ENDROOT
BRANCH   1   3
ATOM      3  C   UNL     1     134.526 129.309 142.605  1.00  0.00    -0.028 C 
ATOM      4  C   UNL     1     133.303 129.477 142.075  1.00  0.00    -0.027 C 
BRANCH   4   5
ATOM      5  C   UNL     1     132.077 128.626 142.389  1.00  0.00     0.014 C 
BRANCH   5   6
ATOM      6  C   UNL     1     131.003 129.434 143.168  1.00  0.00     0.004 C 
ATOM      7  C   UNL     1     131.280 130.941 143.274  1.00  0.00     0.004 C 
ENDBRANCH   5   6
BRANCH   5   8
ATOM      8  C   UNL     1     131.493 127.703 141.261  1.00  0.00    -0.011 C 
ATOM      9  C   UNL     1     132.276 127.819 139.941  1.00  0.00     0.008 C 
ATOM     10  C   UNL     1     129.974 127.806 141.019  1.00  0.00     0.008 C 
ENDBRANCH   5   8
ENDBRANCH   4   5
ENDBRANCH   1   3
BRANCH   1  11
ATOM     11  C   UNL     1     135.473 131.523 141.719  1.00  0.00     0.002 C 
ATOM     12  C   UNL     1     136.038 132.115 140.416  1.00  0.00     0.005 C 
ATOM     13  C   UNL     1     135.912 132.517 142.830  1.00  0.00    -0.023 C 
ATOM     14  C   UNL     1     136.149 133.625 140.649  1.00  0.00     0.009 C 
ATOM     15  C   UNL     1     135.772 133.877 142.114  1.00  0.00     0.021 C 
ATOM     16  C   UNL     1     137.388 132.278 143.272  1.00  0.00     0.008 C 
ATOM     17  C   UNL     1     134.955 132.434 144.044  1.00  0.00     0.012 C 
ATOM     18  C   UNL     1     136.569 135.025 142.725  1.00  0.00    -0.067 C 
ATOM     19  C   UNL     1     137.922 133.420 144.141  1.00  0.00     0.009 C 
ATOM     20  C   UNL     1     137.927 134.761 143.375  1.00  0.00     0.021 C 
ATOM     21  C   UNL     1     136.160 136.281 142.445  1.00  0.00    -0.027 C 
ATOM     22  C   UNL     1     138.429 135.975 144.247  1.00  0.00    -0.023 C 
ATOM     23  C   UNL     1     136.842 137.524 142.949  1.00  0.00     0.031 C 
ATOM     24  C   UNL     1     138.289 137.296 143.424  1.00  0.00     0.002 C 
ATOM     25  C   UNL     1     139.926 135.822 144.672  1.00  0.00     0.010 C 
ATOM     26  C   UNL     1     137.593 136.101 145.551  1.00  0.00     0.012 C 
ATOM     27  C   UNL     1     139.279 137.367 142.234  1.00  0.00     0.036 C 
ATOM     28  C   UNL     1     140.911 135.898 143.490  1.00  0.00     0.032 C 
ATOM     29  C   UNL     1     140.735 137.202 142.691  1.00  0.00     0.114 C 
BRANCH  29  30
ATOM     30  O   UNL     1     141.109 138.308 143.474  1.00  0.00    -0.393 OA
ATOM     31  H   UNL     1     140.320 138.547 144.031  1.00  0.00     0.210 HD
ENDBRANCH  29  30
ENDBRANCH   1  11
TORSDOF 6
ENDMDL
MODEL 4
REMARK VINA RESULT:    -6.053      2.291      4.308
REMARK INTER + INTRA:          -9.288
REMARK INTER:                  -7.929
REMARK INTRA:                  -1.359
REMARK UNBOUND:                -1.289
REMARK SMILES CC[C@H](C=C[C@@H](C)[C@@H]1CC[C@@H]2C3=CC[C@@H]4C[C@@H](O)CC[C@]4(C)[C@H]3CC[C@@]21C)C(C)C
REMARK SMILES IDX 6 1 7 2 5 3 4 4 3 5 2 6 1 7 28 8 29 9 30 10 8 11 9 12 26 13
REMARK SMILES IDX 10 14 11 15 25 16 27 17 12 18 24 19 23 20 13 21 21 22 14 23
REMARK SMILES IDX 15 24 20 25 22 26 16 27 19 28 17 29 18 30
REMARK H PARENT 18 31
REMARK Flexibility Score: inf
ROOT
ATOM      1  C   UNL     1     135.968 130.683 139.641  1.00  0.00     0.012 C 
ATOM      2  C   UNL     1     136.219 129.388 140.430  1.00  0.00     0.012 C 
ENDROOT
BRANCH   1   3
ATOM      3  C   UNL     1     135.613 130.361 138.199  1.00  0.00    -0.028 C 
ATOM      4  C   UNL     1     136.208 130.993 137.174  1.00  0.00    -0.027 C 
BRANCH   4   5
ATOM      5  C   UNL     1     136.158 130.556 135.715  1.00  0.00     0.014 C 
BRANCH   5   6
ATOM      6  C   UNL     1     135.890 131.756 134.766  1.00  0.00     0.004 C 
ATOM      7  C   UNL     1     136.390 133.112 135.285  1.00  0.00     0.004 C 
ENDBRANCH   5   6
BRANCH   5   8
ATOM      8  C   UNL     1     137.248 129.554 135.192  1.00  0.00    -0.011 C 
ATOM      9  C   UNL     1     138.670 129.950 135.628  1.00  0.00     0.008 C 
ATOM     10  C   UNL     1     137.199 129.223 133.687  1.00  0.00     0.008 C 
ENDBRANCH   5   8
ENDBRANCH   4   5
ENDBRANCH   1   3
BRANCH   1  11
ATOM     11  C   UNL     1     137.137 131.746 139.731  1.00  0.00     0.002 C 
ATOM     12  C   UNL     1     138.418 131.340 140.481  1.00  0.00     0.005 C 
ATOM     13  C   UNL     1     136.752 133.132 140.320  1.00  0.00    -0.023 C 
ATOM     14  C   UNL     1     139.089 132.649 140.912  1.00  0.00     0.009 C 
ATOM     15  C   UNL     1     138.136 133.786 140.523  1.00  0.00     0.021 C 
ATOM     16  C   UNL     1     136.003 132.997 141.681  1.00  0.00     0.008 C 
ATOM     17  C   UNL     1     135.907 133.939 139.305  1.00  0.00     0.012 C 
ATOM     18  C   UNL     1     138.177 134.938 141.521  1.00  0.00    -0.067 C 
ATOM     19  C   UNL     1     135.882 134.339 142.407  1.00  0.00     0.009 C 
ATOM     20  C   UNL     1     137.268 134.927 142.750  1.00  0.00     0.021 C 
ATOM     21  C   UNL     1     139.200 135.813 141.416  1.00  0.00    -0.027 C 
ATOM     22  C   UNL     1     137.191 136.331 143.462  1.00  0.00    -0.023 C 
ATOM     23  C   UNL     1     139.400 136.992 142.329  1.00  0.00     0.031 C 
ATOM     24  C   UNL     1     138.636 136.890 143.663  1.00  0.00     0.002 C 
ATOM     25  C   UNL     1     136.501 136.250 144.863  1.00  0.00     0.010 C 
ATOM     26  C   UNL     1     136.373 137.340 142.606  1.00  0.00     0.012 C 
ATOM     27  C   UNL     1     139.450 136.083 144.705  1.00  0.00     0.036 C 
ATOM     28  C   UNL     1     137.311 135.452 145.902  1.00  0.00     0.032 C 
ATOM     29  C   UNL     1     138.734 136.018 146.062  1.00  0.00     0.114 C 
BRANCH  29  30
ATOM     30  O   UNL     1     138.688 137.302 146.630  1.00  0.00    -0.393 OA
ATOM     31  H   UNL     1     139.630 137.613 146.717  1.00  0.00     0.210 HD
ENDBRANCH  29  30
ENDBRANCH   1  11
TORSDOF 6
ENDMDL
MODEL 5
REMARK VINA RESULT:    -6.030      1.734      2.853
REMARK INTER + INTRA:          -9.258
REMARK INTER:                  -8.246
REMARK INTRA:                  -1.011
REMARK UNBOUND:                -1.289
REMARK SMILES CC[C@H](C=C[C@@H](C)[C@@H]1CC[C@@H]2C3=CC[C@@H]4C[C@@H](O)CC[C@]4(C)[C@H]3CC[C@@]21C)C(C)C
REMARK SMILES IDX 6 1 7 2 5 3 4 4 3 5 2 6 1 7 28 8 29 9 30 10 8 11 9 12 26 13
REMARK SMILES IDX 10 14 11 15 25 16 27 17 12 18 24 19 23 20 13 21 21 22 14 23
REMARK SMILES IDX 15 24 20 25 22 26 16 27 19 28 17 29 18 30
REMARK H PARENT 18 31
REMARK Flexibility Score: inf
ROOT
ATOM      1  C   UNL     1     135.814 129.483 141.493  1.00  0.00     0.012 C 
ATOM      2  C   UNL     1     137.283 129.095 141.727  1.00  0.00     0.012 C 
ENDROOT
BRANCH   1   3
ATOM      3  C   UNL     1     135.139 128.469 140.586  1.00  0.00    -0.028 C 
ATOM      4  C   UNL     1     133.976 128.744 139.973  1.00  0.00    -0.027 C 
BRANCH   4   5
ATOM      5  C   UNL     1     133.368 127.943 138.827  1.00  0.00     0.014 C 
BRANCH   5   6
ATOM      6  C   UNL     1     131.965 127.389 139.197  1.00  0.00     0.004 C 
ATOM      7  C   UNL     1     131.513 127.684 140.635  1.00  0.00     0.004 C 
ENDBRANCH   5   6
BRANCH   5   8
ATOM      8  C   UNL     1     133.468 128.519 137.370  1.00  0.00    -0.011 C 
ATOM      9  C   UNL     1     133.587 127.414 136.306  1.00  0.00     0.008 C 
ATOM     10  C   UNL     1     134.521 129.623 137.148  1.00  0.00     0.008 C 
ENDBRANCH   5   8
ENDBRANCH   4   5
ENDBRANCH   1   3
BRANCH   1  11
ATOM     11  C   UNL     1     135.597 130.963 140.978  1.00  0.00     0.002 C 
ATOM     12  C   UNL     1     136.603 131.520 139.955  1.00  0.00     0.005 C 
ATOM     13  C   UNL     1     135.499 132.059 142.075  1.00  0.00    -0.023 C 
ATOM     14  C   UNL     1     136.528 133.046 140.072  1.00  0.00     0.009 C 
ATOM     15  C   UNL     1     135.581 133.354 141.239  1.00  0.00     0.021 C 
ATOM     16  C   UNL     1     136.685 131.979 143.084  1.00  0.00     0.008 C 
ATOM     17  C   UNL     1     134.142 131.969 142.815  1.00  0.00     0.012 C 
ATOM     18  C   UNL     1     136.003 134.604 142.006  1.00  0.00    -0.067 C 
ATOM     19  C   UNL     1     136.762 133.216 143.983  1.00  0.00     0.009 C 
ATOM     20  C   UNL     1     136.999 134.501 143.161  1.00  0.00     0.021 C 
ATOM     21  C   UNL     1     135.671 135.799 141.473  1.00  0.00    -0.027 C 
ATOM     22  C   UNL     1     137.042 135.807 144.044  1.00  0.00    -0.023 C 
ATOM     23  C   UNL     1     136.024 137.126 142.089  1.00  0.00     0.031 C 
ATOM     24  C   UNL     1     137.170 137.056 143.115  1.00  0.00     0.002 C 
ATOM     25  C   UNL     1     138.249 135.813 145.038  1.00  0.00     0.010 C 
ATOM     26  C   UNL     1     135.747 135.941 144.895  1.00  0.00     0.012 C 
ATOM     27  C   UNL     1     138.548 137.139 142.411  1.00  0.00     0.036 C 
ATOM     28  C   UNL     1     139.619 135.900 144.340  1.00  0.00     0.032 C 
ATOM     29  C   UNL     1     139.706 137.131 143.419  1.00  0.00     0.114 C 
BRANCH  29  30
ATOM     30  O   UNL     1     139.673 138.312 144.180  1.00  0.00    -0.393 OA
ATOM     31  H   UNL     1     139.265 139.015 143.605  1.00  0.00     0.210 HD
ENDBRANCH  29  30
ENDBRANCH   1  11
TORSDOF 6
ENDMDL
MODEL 6
REMARK VINA RESULT:    -5.934      7.431     13.676
REMARK INTER + INTRA:          -9.130
REMARK INTER:                  -7.860
REMARK INTRA:                  -1.271
REMARK UNBOUND:                -1.289
REMARK SMILES CC[C@H](C=C[C@@H](C)[C@@H]1CC[C@@H]2C3=CC[C@@H]4C[C@@H](O)CC[C@]4(C)[C@H]3CC[C@@]21C)C(C)C
REMARK SMILES IDX 6 1 7 2 5 3 4 4 3 5 2 6 1 7 28 8 29 9 30 10 8 11 9 12 26 13
REMARK SMILES IDX 10 14 11 15 25 16 27 17 12 18 24 19 23 20 13 21 21 22 14 23
REMARK SMILES IDX 15 24 20 25 22 26 16 27 19 28 17 29 18 30
REMARK H PARENT 18 31
REMARK Flexibility Score: inf
ROOT
ATOM      1  C   UNL     1     130.253 126.404 139.097  1.00  0.00     0.012 C 
ATOM      2  C   UNL     1     129.890 125.497 137.911  1.00  0.00     0.012 C 
ENDROOT
BRANCH   1   3
ATOM      3  C   UNL     1     131.322 127.403 138.689  1.00  0.00    -0.028 C 
ATOM      4  C   UNL     1     132.520 127.433 139.296  1.00  0.00    -0.027 C 
BRANCH   4   5
ATOM      5  C   UNL     1     133.754 128.169 138.785  1.00  0.00     0.014 C 
BRANCH   5   6
ATOM      6  C   UNL     1     133.463 128.922 137.458  1.00  0.00     0.004 C 
ATOM      7  C   UNL     1     134.010 128.240 136.196  1.00  0.00     0.004 C 
ENDBRANCH   5   6
BRANCH   5   8
ATOM      8  C   UNL     1     134.622 128.983 139.809  1.00  0.00    -0.011 C 
ATOM      9  C   UNL     1     133.867 129.278 141.118  1.00  0.00     0.008 C 
ATOM     10  C   UNL     1     135.305 130.252 139.262  1.00  0.00     0.008 C 
ENDBRANCH   5   8
ENDBRANCH   4   5
ENDBRANCH   1   3
BRANCH   1  11
ATOM     11  C   UNL     1     130.651 125.631 140.420  1.00  0.00     0.002 C 
ATOM     12  C   UNL     1     130.625 124.093 140.386  1.00  0.00     0.005 C 
ATOM     13  C   UNL     1     129.855 126.014 141.698  1.00  0.00    -0.023 C 
ATOM     14  C   UNL     1     130.471 123.639 141.841  1.00  0.00     0.009 C 
ATOM     15  C   UNL     1     130.284 124.907 142.684  1.00  0.00     0.021 C 
ATOM     16  C   UNL     1     128.315 125.970 141.458  1.00  0.00     0.008 C 
ATOM     17  C   UNL     1     130.291 127.407 142.214  1.00  0.00     0.012 C 
ATOM     18  C   UNL     1     129.344 124.679 143.864  1.00  0.00    -0.067 C 
ATOM     19  C   UNL     1     127.525 126.055 142.766  1.00  0.00     0.009 C 
ATOM     20  C   UNL     1     127.836 124.863 143.696  1.00  0.00     0.021 C 
ATOM     21  C   UNL     1     129.858 124.076 144.958  1.00  0.00    -0.027 C 
ATOM     22  C   UNL     1     127.075 124.932 145.075  1.00  0.00    -0.023 C 
ATOM     23  C   UNL     1     129.068 123.761 146.199  1.00  0.00     0.031 C 
ATOM     24  C   UNL     1     127.542 123.750 145.984  1.00  0.00     0.002 C 
ATOM     25  C   UNL     1     125.524 124.831 144.904  1.00  0.00     0.010 C 
ATOM     26  C   UNL     1     127.370 126.275 145.802  1.00  0.00     0.012 C 
ATOM     27  C   UNL     1     127.067 122.371 145.462  1.00  0.00     0.036 C 
ATOM     28  C   UNL     1     125.051 123.459 144.390  1.00  0.00     0.032 C 
ATOM     29  C   UNL     1     125.542 122.317 145.297  1.00  0.00     0.114 C 
BRANCH  29  30
ATOM     30  O   UNL     1     124.930 122.399 146.560  1.00  0.00    -0.393 OA
ATOM     31  H   UNL     1     124.222 123.095 146.493  1.00  0.00     0.210 HD
ENDBRANCH  29  30
ENDBRANCH   1  11
TORSDOF 6
ENDMDL
MODEL 7
REMARK VINA RESULT:    -5.775     12.732     15.323
REMARK INTER + INTRA:          -8.920
REMARK INTER:                  -7.714
REMARK INTRA:                  -1.206
REMARK UNBOUND:                -1.289
REMARK SMILES CC[C@H](C=C[C@@H](C)[C@@H]1CC[C@@H]2C3=CC[C@@H]4C[C@@H](O)CC[C@]4(C)[C@H]3CC[C@@]21C)C(C)C
REMARK SMILES IDX 6 1 7 2 5 3 4 4 3 5 2 6 1 7 28 8 29 9 30 10 8 11 9 12 26 13
REMARK SMILES IDX 10 14 11 15 25 16 27 17 12 18 24 19 23 20 13 21 21 22 14 23
REMARK SMILES IDX 15 24 20 25 22 26 16 27 19 28 17 29 18 30
REMARK H PARENT 18 31
REMARK Flexibility Score: inf
ROOT
ATOM      1  C   UNL     1     128.202 123.789 142.548  1.00  0.00     0.012 C 
ATOM      2  C   UNL     1     128.232 125.298 142.261  1.00  0.00     0.012 C 
ENDROOT
BRANCH   1   3
ATOM      3  C   UNL     1     127.994 123.538 144.031  1.00  0.00    -0.028 C 
ATOM      4  C   UNL     1     128.847 122.780 144.739  1.00  0.00    -0.027 C 
BRANCH   4   5
ATOM      5  C   UNL     1     128.912 122.704 146.261  1.00  0.00     0.014 C 
BRANCH   5   6
ATOM      6  C   UNL     1     129.269 121.273 146.748  1.00  0.00     0.004 C 
ATOM      7  C   UNL     1     130.260 121.218 147.920  1.00  0.00     0.004 C 
ENDBRANCH   5   6
BRANCH   5   8
ATOM      8  C   UNL     1     129.647 123.851 147.040  1.00  0.00    -0.011 C 
ATOM      9  C   UNL     1     128.669 124.875 147.643  1.00  0.00     0.008 C 
ATOM     10  C   UNL     1     130.796 124.552 146.290  1.00  0.00     0.008 C 
ENDBRANCH   5   8
ENDBRANCH   4   5
ENDBRANCH   1   3
BRANCH   1  11
ATOM     11  C   UNL     1     129.447 122.987 141.989  1.00  0.00     0.002 C 
ATOM     12  C   UNL     1     130.753 123.765 141.755  1.00  0.00     0.005 C 
ATOM     13  C   UNL     1     129.213 122.196 140.672  1.00  0.00    -0.023 C 
ATOM     14  C   UNL     1     131.550 122.957 140.725  1.00  0.00     0.009 C 
ATOM     15  C   UNL     1     130.651 121.795 140.282  1.00  0.00     0.021 C 
ATOM     16  C   UNL     1     128.571 123.088 139.566  1.00  0.00     0.008 C 
ATOM     17  C   UNL     1     128.346 120.941 140.937  1.00  0.00     0.012 C 
ATOM     18  C   UNL     1     130.856 121.437 138.813  1.00  0.00    -0.067 C 
ATOM     19  C   UNL     1     128.606 122.416 138.191  1.00  0.00     0.009 C 
ATOM     20  C   UNL     1     130.054 122.150 137.725  1.00  0.00     0.021 C 
ATOM     21  C   UNL     1     131.927 120.673 138.506  1.00  0.00    -0.027 C 
ATOM     22  C   UNL     1     130.137 121.419 136.331  1.00  0.00    -0.023 C 
ATOM     23  C   UNL     1     132.286 120.245 137.109  1.00  0.00     0.031 C 
ATOM     24  C   UNL     1     131.630 121.095 136.004  1.00  0.00     0.002 C 
ATOM     25  C   UNL     1     129.562 122.291 135.168  1.00  0.00     0.010 C 
ATOM     26  C   UNL     1     129.325 120.093 136.354  1.00  0.00     0.012 C 
ATOM     27  C   UNL     1     132.468 122.365 135.713  1.00  0.00     0.036 C 
ATOM     28  C   UNL     1     130.396 123.552 134.874  1.00  0.00     0.032 C 
ATOM     29  C   UNL     1     131.864 123.199 134.574  1.00  0.00     0.114 C 
BRANCH  29  30
ATOM     30  O   UNL     1     131.957 122.482 133.368  1.00  0.00    -0.393 OA
ATOM     31  H   UNL     1     132.792 121.943 133.416  1.00  0.00     0.210 HD
ENDBRANCH  29  30
ENDBRANCH   1  11
TORSDOF 6
ENDMDL
MODEL 8
REMARK VINA RESULT:    -5.771      8.646     13.590
REMARK INTER + INTRA:          -8.915
REMARK INTER:                  -7.640
REMARK INTRA:                  -1.275
REMARK UNBOUND:                -1.289
REMARK SMILES CC[C@H](C=C[C@@H](C)[C@@H]1CC[C@@H]2C3=CC[C@@H]4C[C@@H](O)CC[C@]4(C)[C@H]3CC[C@@]21C)C(C)C
REMARK SMILES IDX 6 1 7 2 5 3 4 4 3 5 2 6 1 7 28 8 29 9 30 10 8 11 9 12 26 13
REMARK SMILES IDX 10 14 11 15 25 16 27 17 12 18 24 19 23 20 13 21 21 22 14 23
REMARK SMILES IDX 15 24 20 25 22 26 16 27 19 28 17 29 18 30
REMARK H PARENT 18 31
REMARK Flexibility Score: inf
ROOT
ATOM      1  C   UNL     1     129.472 126.726 138.526  1.00  0.00     0.012 C 
ATOM      2  C   UNL     1     128.854 125.667 137.600  1.00  0.00     0.012 C 
ENDROOT
BRANCH   1   3
ATOM      3  C   UNL     1     130.383 127.650 137.737  1.00  0.00    -0.028 C 
ATOM      4  C   UNL     1     131.643 127.897 138.133  1.00  0.00    -0.027 C 
BRANCH   4   5
ATOM      5  C   UNL     1     132.728 128.550 137.284  1.00  0.00     0.014 C 
BRANCH   5   6
ATOM      6  C   UNL     1     133.814 129.226 138.164  1.00  0.00     0.004 C 
ATOM      7  C   UNL     1     134.157 128.474 139.458  1.00  0.00     0.004 C 
ENDBRANCH   5   6
BRANCH   5   8
ATOM      8  C   UNL     1     133.297 127.759 136.054  1.00  0.00    -0.011 C 
ATOM      9  C   UNL     1     132.614 128.153 134.732  1.00  0.00     0.008 C 
ATOM     10  C   UNL     1     133.373 126.227 136.207  1.00  0.00     0.008 C 
ENDBRANCH   5   8
ENDBRANCH   4   5
ENDBRANCH   1   3
BRANCH   1  11
ATOM     11  C   UNL     1     130.199 126.140 139.804  1.00  0.00     0.002 C 
ATOM     12  C   UNL     1     130.651 124.670 139.760  1.00  0.00     0.005 C 
ATOM     13  C   UNL     1     129.432 126.281 141.148  1.00  0.00    -0.023 C 
ATOM     14  C   UNL     1     130.767 124.218 141.219  1.00  0.00     0.009 C 
ATOM     15  C   UNL     1     130.265 125.380 142.085  1.00  0.00     0.021 C 
ATOM     16  C   UNL     1     127.968 125.755 141.039  1.00  0.00     0.008 C 
ATOM     17  C   UNL     1     129.453 127.750 141.636  1.00  0.00     0.012 C 
ATOM     18  C   UNL     1     129.545 124.895 143.339  1.00  0.00    -0.067 C 
ATOM     19  C   UNL     1     127.302 125.615 142.410  1.00  0.00     0.009 C 
ATOM     20  C   UNL     1     128.046 124.597 143.301  1.00  0.00     0.021 C 
ATOM     21  C   UNL     1     130.310 124.502 144.380  1.00  0.00    -0.027 C 
ATOM     22  C   UNL     1     127.418 124.452 144.740  1.00  0.00    -0.023 C 
ATOM     23  C   UNL     1     129.762 123.980 145.681  1.00  0.00     0.031 C 
ATOM     24  C   UNL     1     128.304 123.491 145.596  1.00  0.00     0.002 C 
ATOM     25  C   UNL     1     125.967 123.871 144.700  1.00  0.00     0.010 C 
ATOM     26  C   UNL     1     127.340 125.833 145.450  1.00  0.00     0.012 C 
ATOM     27  C   UNL     1     128.241 122.023 145.106  1.00  0.00     0.036 C 
ATOM     28  C   UNL     1     125.904 122.410 144.217  1.00  0.00     0.032 C 
ATOM     29  C   UNL     1     126.800 121.494 145.070  1.00  0.00     0.114 C 
BRANCH  29  30
ATOM     30  O   UNL     1     126.300 121.406 146.381  1.00  0.00    -0.393 OA
ATOM     31  H   UNL     1     126.483 122.280 146.820  1.00  0.00     0.210 HD
ENDBRANCH  29  30
ENDBRANCH   1  11
TORSDOF 6
ENDMDL
MODEL 9
REMARK VINA RESULT:    -5.750      8.996     12.111
REMARK INTER + INTRA:          -8.888
REMARK INTER:                  -7.848
REMARK INTRA:                  -1.040
REMARK UNBOUND:                -1.289
REMARK SMILES CC[C@H](C=C[C@@H](C)[C@@H]1CC[C@@H]2C3=CC[C@@H]4C[C@@H](O)CC[C@]4(C)[C@H]3CC[C@@]21C)C(C)C
REMARK SMILES IDX 6 1 7 2 5 3 4 4 3 5 2 6 1 7 28 8 29 9 30 10 8 11 9 12 26 13
REMARK SMILES IDX 10 14 11 15 25 16 27 17 12 18 24 19 23 20 13 21 21 22 14 23
REMARK SMILES IDX 15 24 20 25 22 26 16 27 19 28 17 29 18 30
REMARK H PARENT 18 31
REMARK Flexibility Score: inf
ROOT
ATOM      1  C   UNL     1     133.226 135.181 146.794  1.00  0.00     0.012 C 
ATOM      2  C   UNL     1     133.751 134.224 147.875  1.00  0.00     0.012 C 
ENDROOT
BRANCH   1   3
ATOM      3  C   UNL     1     134.364 135.642 145.900  1.00  0.00    -0.028 C 
ATOM      4  C   UNL     1     134.284 135.551 144.562  1.00  0.00    -0.027 C 
BRANCH   4   5
ATOM      5  C   UNL     1     135.212 136.242 143.569  1.00  0.00     0.014 C 
BRANCH   5   6
ATOM      6  C   UNL     1     136.624 136.475 144.173  1.00  0.00     0.004 C 
ATOM      7  C   UNL     1     137.141 137.918 144.066  1.00  0.00     0.004 C 
ENDBRANCH   5   6
BRANCH   5   8
ATOM      8  C   UNL     1     135.223 135.747 142.080  1.00  0.00    -0.011 C 
ATOM      9  C   UNL     1     136.590 135.178 141.658  1.00  0.00     0.008 C 
ATOM     10  C   UNL     1     134.684 136.739 141.031  1.00  0.00     0.008 C 
ENDBRANCH   5   8
ENDBRANCH   4   5
ENDBRANCH   1   3
BRANCH   1  11
ATOM     11  C   UNL     1     132.386 136.403 147.347  1.00  0.00     0.002 C 
ATOM     12  C   UNL     1     132.193 136.508 148.870  1.00  0.00     0.005 C 
ATOM     13  C   UNL     1     130.960 136.575 146.753  1.00  0.00    -0.023 C 
ATOM     14  C   UNL     1     130.939 137.363 149.081  1.00  0.00     0.009 C 
ATOM     15  C   UNL     1     130.350 137.638 147.692  1.00  0.00     0.021 C 
ATOM     16  C   UNL     1     130.141 135.250 146.817  1.00  0.00     0.008 C 
ATOM     17  C   UNL     1     131.036 137.104 145.300  1.00  0.00     0.012 C 
ATOM     18  C   UNL     1     128.827 137.696 147.714  1.00  0.00    -0.067 C 
ATOM     19  C   UNL     1     128.658 135.474 146.512  1.00  0.00     0.009 C 
ATOM     20  C   UNL     1     128.003 136.419 147.542  1.00  0.00     0.021 C 
ATOM     21  C   UNL     1     128.256 138.844 148.138  1.00  0.00    -0.027 C 
ATOM     22  C   UNL     1     126.483 136.712 147.241  1.00  0.00    -0.023 C 
ATOM     23  C   UNL     1     126.771 139.063 148.240  1.00  0.00     0.031 C 
ATOM     24  C   UNL     1     125.946 137.762 148.267  1.00  0.00     0.002 C 
ATOM     25  C   UNL     1     125.598 135.428 147.350  1.00  0.00     0.010 C 
ATOM     26  C   UNL     1     126.304 137.274 145.803  1.00  0.00     0.012 C 
ATOM     27  C   UNL     1     125.851 137.198 149.706  1.00  0.00     0.036 C 
ATOM     28  C   UNL     1     125.499 134.869 148.781  1.00  0.00     0.032 C 
ATOM     29  C   UNL     1     124.983 135.932 149.768  1.00  0.00     0.114 C 
BRANCH  29  30
ATOM     30  O   UNL     1     123.649 136.264 149.475  1.00  0.00    -0.393 OA
ATOM     31  H   UNL     1     123.186 135.416 149.236  1.00  0.00     0.210 HD
ENDBRANCH  29  30
ENDBRANCH   1  11
TORSDOF 6
ENDMDL
