MODEL 1
REMARK VINA RESULT:    -4.131      0.000      0.000
REMARK INTER + INTRA:          -9.855
REMARK INTER:                  -7.754
REMARK INTRA:                  -2.101
REMARK UNBOUND:                -2.101
REMARK SMILES O=C([O-])CCCCCCCCCCCCCCC(=O)[O-]
REMARK SMILES IDX 10 1 9 2 8 3 7 4 6 5 5 6 4 7 2 8 1 9 3 10 11 11 12 12 13 13
REMARK SMILES IDX 14 14 15 15 16 16 17 17 18 18 19 19 20 20
REMARK H PARENT
REMARK Flexibility Score: inf
ROOT
ATOM      1  C   UNL     1     -10.003  15.324   0.929  1.00  0.00     0.000 C 
ENDROOT
BRANCH   1   2
ATOM      2  C   UNL     1      -8.921  14.369   0.404  1.00  0.00     0.000 C 
BRANCH   2   3
ATOM      3  C   UNL     1      -7.629  14.422   1.233  1.00  0.00     0.000 C 
BRANCH   3   4
ATOM      4  C   UNL     1      -6.483  15.041   0.425  1.00  0.00     0.000 C 
BRANCH   4   5
ATOM      5  C   UNL     1      -6.050  16.389   1.025  1.00  0.00     0.000 C 
BRANCH   5   6
ATOM      6  C   UNL     1      -6.701  16.665   2.389  1.00  0.00     0.006 C 
BRANCH   6   7
ATOM      7  C   UNL     1      -6.438  18.091   2.891  1.00  0.00     0.053 C 
BRANCH   7   8
ATOM      8  C   UNL     1      -6.395  18.120   4.386  1.00  0.00     0.041 C 
ATOM      9  O   UNL     1      -6.258  17.051   5.035  1.00  0.00    -0.550 OA
ATOM     10  O   UNL     1      -6.461  19.332   5.061  1.00  0.00    -0.550 OA
ENDBRANCH   7   8
ENDBRANCH   6   7
ENDBRANCH   5   6
ENDBRANCH   4   5
ENDBRANCH   3   4
ENDBRANCH   2   3
ENDBRANCH   1   2
BRANCH   1  11
ATOM     11  C   UNL     1      -9.826  16.760   0.413  1.00  0.00     0.000 C 
BRANCH  11  12
ATOM     12  C   UNL     1     -10.078  16.834  -1.098  1.00  0.00     0.000 C 
BRANCH  12  13
ATOM     13  C   UNL     1      -8.809  17.269  -1.847  1.00  0.00     0.000 C 
BRANCH  13  14
ATOM     14  C   UNL     1      -8.630  16.541  -3.190  1.00  0.00     0.000 C 
BRANCH  14  15
ATOM     15  C   UNL     1      -9.095  15.071  -3.204  1.00  0.00     0.000 C 
BRANCH  15  16
ATOM     16  C   UNL     1      -7.964  14.026  -3.282  1.00  0.00     0.006 C 
BRANCH  16  17
ATOM     17  C   UNL     1      -6.625  14.578  -3.796  1.00  0.00     0.053 C 
BRANCH  17  18
ATOM     18  C   UNL     1      -6.480  14.409  -5.277  1.00  0.00     0.041 C 
ATOM     19  O   UNL     1      -6.997  15.246  -6.064  1.00  0.00    -0.550 OA
ATOM     20  O   UNL     1      -5.805  13.309  -5.790  1.00  0.00    -0.550 OA
ENDBRANCH  17  18
ENDBRANCH  16  17
ENDBRANCH  15  16
ENDBRANCH  14  15
ENDBRANCH  13  14
ENDBRANCH  12  13
ENDBRANCH  11  12
ENDBRANCH   1  11
TORSDOF 15
ENDMDL
MODEL 2
REMARK VINA RESULT:    -4.040      1.473      2.114
REMARK INTER + INTRA:          -9.684
REMARK INTER:                  -7.810
REMARK INTRA:                  -1.875
REMARK UNBOUND:                -2.101
REMARK SMILES O=C([O-])CCCCCCCCCCCCCCC(=O)[O-]
REMARK SMILES IDX 10 1 9 2 8 3 7 4 6 5 5 6 4 7 2 8 1 9 3 10 11 11 12 12 13 13
REMARK SMILES IDX 14 14 15 15 16 16 17 17 18 18 19 19 20 20
REMARK H PARENT
REMARK Flexibility Score: inf
ROOT
ATOM      1  C   UNL     1      -9.294  16.582   0.152  1.00  0.00     0.000 C 
ENDROOT
BRANCH   1   2
ATOM      2  C   UNL     1      -9.190  15.142   0.676  1.00  0.00     0.000 C 
BRANCH   2   3
ATOM      3  C   UNL     1      -7.751  14.605   0.652  1.00  0.00     0.000 C 
BRANCH   3   4
ATOM      4  C   UNL     1      -6.753  15.727   0.343  1.00  0.00     0.000 C 
BRANCH   4   5
ATOM      5  C   UNL     1      -6.005  16.165   1.612  1.00  0.00     0.000 C 
BRANCH   5   6
ATOM      6  C   UNL     1      -6.293  17.625   1.994  1.00  0.00     0.006 C 
BRANCH   6   7
ATOM      7  C   UNL     1      -6.745  17.776   3.453  1.00  0.00     0.053 C 
BRANCH   7   8
ATOM      8  C   UNL     1      -8.208  17.492   3.579  1.00  0.00     0.041 C 
ATOM      9  O   UNL     1      -9.052  18.378   3.284  1.00  0.00    -0.550 OA
ATOM     10  O   UNL     1      -8.642  16.234   3.978  1.00  0.00    -0.550 OA
ENDBRANCH   7   8
ENDBRANCH   6   7
ENDBRANCH   5   6
ENDBRANCH   4   5
ENDBRANCH   3   4
ENDBRANCH   2   3
ENDBRANCH   1   2
BRANCH   1  11
ATOM     11  C   UNL     1      -9.903  16.657  -1.256  1.00  0.00     0.000 C 
BRANCH  11  12
ATOM     12  C   UNL     1      -8.907  17.265  -2.252  1.00  0.00     0.000 C 
BRANCH  12  13
ATOM     13  C   UNL     1      -8.671  16.321  -3.440  1.00  0.00     0.000 C 
BRANCH  13  14
ATOM     14  C   UNL     1      -8.216  14.917  -3.005  1.00  0.00     0.000 C 
BRANCH  14  15
ATOM     15  C   UNL     1      -6.760  14.561  -3.365  1.00  0.00     0.000 C 
BRANCH  15  16
ATOM     16  C   UNL     1      -6.573  13.859  -4.726  1.00  0.00     0.006 C 
BRANCH  16  17
ATOM     17  C   UNL     1      -6.609  14.804  -5.937  1.00  0.00     0.053 C 
BRANCH  17  18
ATOM     18  C   UNL     1      -7.687  14.431  -6.908  1.00  0.00     0.041 C 
ATOM     19  O   UNL     1      -7.452  13.604  -7.828  1.00  0.00    -0.550 OA
ATOM     20  O   UNL     1      -8.941  15.023  -6.819  1.00  0.00    -0.550 OA
ENDBRANCH  17  18
ENDBRANCH  16  17
ENDBRANCH  15  16
ENDBRANCH  14  15
ENDBRANCH  13  14
ENDBRANCH  12  13
ENDBRANCH  11  12
ENDBRANCH   1  11
TORSDOF 15
ENDMDL
MODEL 3
REMARK VINA RESULT:    -4.033      1.439      8.035
REMARK INTER + INTRA:          -9.670
REMARK INTER:                  -8.034
REMARK INTRA:                  -1.636
REMARK UNBOUND:                -2.101
REMARK SMILES O=C([O-])CCCCCCCCCCCCCCC(=O)[O-]
REMARK SMILES IDX 10 1 9 2 8 3 7 4 6 5 5 6 4 7 2 8 1 9 3 10 11 11 12 12 13 13
REMARK SMILES IDX 14 14 15 15 16 16 17 17 18 18 19 19 20 20
REMARK H PARENT
REMARK Flexibility Score: inf
ROOT
ATOM      1  C   UNL     1      -8.760  16.329  -3.171  1.00  0.00     0.000 C 
ENDROOT
BRANCH   1   2
ATOM      2  C   UNL     1      -9.228  14.908  -2.826  1.00  0.00     0.000 C 
BRANCH   2   3
ATOM      3  C   UNL     1      -8.077  13.890  -2.819  1.00  0.00     0.000 C 
BRANCH   3   4
ATOM      4  C   UNL     1      -6.792  14.511  -3.377  1.00  0.00     0.000 C 
BRANCH   4   5
ATOM      5  C   UNL     1      -6.423  13.889  -4.733  1.00  0.00     0.000 C 
BRANCH   5   6
ATOM      6  C   UNL     1      -6.626  14.862  -5.905  1.00  0.00     0.006 C 
BRANCH   6   7
ATOM      7  C   UNL     1      -8.052  14.820  -6.469  1.00  0.00     0.053 C 
BRANCH   7   8
ATOM      8  C   UNL     1      -8.079  14.081  -7.769  1.00  0.00     0.041 C 
ATOM      9  O   UNL     1      -7.830  12.847  -7.801  1.00  0.00    -0.550 OA
ATOM     10  O   UNL     1      -8.422  14.745  -8.941  1.00  0.00    -0.550 OA
ENDBRANCH   7   8
ENDBRANCH   6   7
ENDBRANCH   5   6
ENDBRANCH   4   5
ENDBRANCH   3   4
ENDBRANCH   2   3
ENDBRANCH   1   2
BRANCH   1  11
ATOM     11  C   UNL     1      -9.001  17.326  -2.027  1.00  0.00     0.000 C 
BRANCH  11  12
ATOM     12  C   UNL     1      -9.894  16.710  -0.943  1.00  0.00     0.000 C 
BRANCH  12  13
ATOM     13  C   UNL     1      -9.215  16.776   0.433  1.00  0.00     0.000 C 
BRANCH  13  14
ATOM     14  C   UNL     1      -8.368  15.528   0.740  1.00  0.00     0.000 C 
BRANCH  14  15
ATOM     15  C   UNL     1      -6.872  15.651   0.386  1.00  0.00     0.000 C 
BRANCH  15  16
ATOM     16  C   UNL     1      -5.970  16.176   1.522  1.00  0.00     0.006 C 
BRANCH  16  17
ATOM     17  C   UNL     1      -6.322  17.590   2.008  1.00  0.00     0.053 C 
BRANCH  17  18
ATOM     18  C   UNL     1      -6.647  17.617   3.469  1.00  0.00     0.041 C 
ATOM     19  O   UNL     1      -6.449  16.597   4.181  1.00  0.00    -0.550 OA
ATOM     20  O   UNL     1      -7.202  18.756   4.039  1.00  0.00    -0.550 OA
ENDBRANCH  17  18
ENDBRANCH  16  17
ENDBRANCH  15  16
ENDBRANCH  14  15
ENDBRANCH  13  14
ENDBRANCH  12  13
ENDBRANCH  11  12
ENDBRANCH   1  11
TORSDOF 15
ENDMDL
MODEL 4
REMARK VINA RESULT:    -3.952      1.931      3.186
REMARK INTER + INTRA:          -9.520
REMARK INTER:                  -8.265
REMARK INTRA:                  -1.255
REMARK UNBOUND:                -2.101
REMARK SMILES O=C([O-])CCCCCCCCCCCCCCC(=O)[O-]
REMARK SMILES IDX 10 1 9 2 8 3 7 4 6 5 5 6 4 7 2 8 1 9 3 10 11 11 12 12 13 13
REMARK SMILES IDX 14 14 15 15 16 16 17 17 18 18 19 19 20 20
REMARK H PARENT
REMARK Flexibility Score: inf
ROOT
ATOM      1  C   UNL     1      -8.801  17.211  -2.208  1.00  0.00     0.000 C 
ENDROOT
BRANCH   1   2
ATOM      2  C   UNL     1      -9.262  16.584  -0.883  1.00  0.00     0.000 C 
BRANCH   2   3
ATOM      3  C   UNL     1      -8.338  16.937   0.292  1.00  0.00     0.000 C 
BRANCH   3   4
ATOM      4  C   UNL     1      -7.522  15.717   0.735  1.00  0.00     0.000 C 
BRANCH   4   5
ATOM      5  C   UNL     1      -6.590  16.072   1.904  1.00  0.00     0.000 C 
BRANCH   5   6
ATOM      6  C   UNL     1      -6.358  17.585   2.037  1.00  0.00     0.006 C 
BRANCH   6   7
ATOM      7  C   UNL     1      -6.409  18.065   3.494  1.00  0.00     0.053 C 
BRANCH   7   8
ATOM      8  C   UNL     1      -7.594  18.951   3.711  1.00  0.00     0.041 C 
ATOM      9  O   UNL     1      -8.760  18.492   3.584  1.00  0.00    -0.550 OA
ATOM     10  O   UNL     1      -7.413  20.274   4.097  1.00  0.00    -0.550 OA
ENDBRANCH   7   8
ENDBRANCH   6   7
ENDBRANCH   5   6
ENDBRANCH   4   5
ENDBRANCH   3   4
ENDBRANCH   2   3
ENDBRANCH   1   2
BRANCH   1  11
ATOM     11  C   UNL     1      -8.765  16.197  -3.361  1.00  0.00     0.000 C 
BRANCH  11  12
ATOM     12  C   UNL     1      -8.255  14.834  -2.877  1.00  0.00     0.000 C 
BRANCH  12  13
ATOM     13  C   UNL     1      -6.825  14.573  -3.372  1.00  0.00     0.000 C 
BRANCH  13  14
ATOM     14  C   UNL     1      -6.780  13.673  -4.619  1.00  0.00     0.000 C 
BRANCH  14  15
ATOM     15  C   UNL     1      -6.240  14.349  -5.895  1.00  0.00     0.000 C 
BRANCH  15  16
ATOM     16  C   UNL     1      -7.242  15.267  -6.624  1.00  0.00     0.006 C 
BRANCH  16  17
ATOM     17  C   UNL     1      -7.999  14.590  -7.777  1.00  0.00     0.053 C 
BRANCH  17  18
ATOM     18  C   UNL     1      -9.411  14.258  -7.401  1.00  0.00     0.041 C 
ATOM     19  O   UNL     1      -9.654  13.263  -6.668  1.00  0.00    -0.550 OA
ATOM     20  O   UNL     1     -10.461  15.025  -7.890  1.00  0.00    -0.550 OA
ENDBRANCH  17  18
ENDBRANCH  16  17
ENDBRANCH  15  16
ENDBRANCH  14  15
ENDBRANCH  13  14
ENDBRANCH  12  13
ENDBRANCH  11  12
ENDBRANCH   1  11
TORSDOF 15
ENDMDL
MODEL 5
REMARK VINA RESULT:    -3.951      2.411      6.493
REMARK INTER + INTRA:          -9.518
REMARK INTER:                  -7.045
REMARK INTRA:                  -2.473
REMARK UNBOUND:                -2.101
REMARK SMILES O=C([O-])CCCCCCCCCCCCCCC(=O)[O-]
REMARK SMILES IDX 10 1 9 2 8 3 7 4 6 5 5 6 4 7 2 8 1 9 3 10 11 11 12 12 13 13
REMARK SMILES IDX 14 14 15 15 16 16 17 17 18 18 19 19 20 20
REMARK H PARENT
REMARK Flexibility Score: inf
ROOT
ATOM      1  C   UNL     1      -9.775  16.906   0.425  1.00  0.00     0.000 C 
ENDROOT
BRANCH   1   2
ATOM      2  C   UNL     1      -9.708  16.310  -0.990  1.00  0.00     0.000 C 
BRANCH   2   3
ATOM      3  C   UNL     1      -9.018  17.244  -1.995  1.00  0.00     0.000 C 
BRANCH   3   4
ATOM      4  C   UNL     1      -8.539  16.467  -3.226  1.00  0.00     0.000 C 
BRANCH   4   5
ATOM      5  C   UNL     1      -9.204  15.083  -3.298  1.00  0.00     0.000 C 
BRANCH   5   6
ATOM      6  C   UNL     1      -8.480  14.128  -4.260  1.00  0.00     0.006 C 
BRANCH   6   7
ATOM      7  C   UNL     1      -6.962  14.349  -4.281  1.00  0.00     0.053 C 
BRANCH   7   8
ATOM      8  C   UNL     1      -6.472  14.478  -5.688  1.00  0.00     0.041 C 
ATOM      9  O   UNL     1      -5.592  13.693  -6.126  1.00  0.00    -0.550 OA
ATOM     10  O   UNL     1      -7.019  15.439  -6.531  1.00  0.00    -0.550 OA
ENDBRANCH   7   8
ENDBRANCH   6   7
ENDBRANCH   5   6
ENDBRANCH   4   5
ENDBRANCH   3   4
ENDBRANCH   2   3
ENDBRANCH   1   2
BRANCH   1  11
ATOM     11  C   UNL     1      -9.184  15.971   1.490  1.00  0.00     0.000 C 
BRANCH  11  12
ATOM     12  C   UNL     1      -7.985  16.624   2.189  1.00  0.00     0.000 C 
BRANCH  12  13
ATOM     13  C   UNL     1      -6.896  17.002   1.174  1.00  0.00     0.000 C 
BRANCH  13  14
ATOM     14  C   UNL     1      -5.961  15.827   0.836  1.00  0.00     0.000 C 
BRANCH  14  15
ATOM     15  C   UNL     1      -6.148  15.228  -0.572  1.00  0.00     0.000 C 
BRANCH  15  16
ATOM     16  C   UNL     1      -6.109  13.687  -0.639  1.00  0.00     0.006 C 
BRANCH  16  17
ATOM     17  C   UNL     1      -7.478  13.027  -0.858  1.00  0.00     0.053 C 
BRANCH  17  18
ATOM     18  C   UNL     1      -8.201  12.791   0.432  1.00  0.00     0.041 C 
ATOM     19  O   UNL     1      -9.455  12.680   0.445  1.00  0.00    -0.550 OA
ATOM     20  O   UNL     1      -7.493  12.729   1.626  1.00  0.00    -0.550 OA
ENDBRANCH  17  18
ENDBRANCH  16  17
ENDBRANCH  15  16
ENDBRANCH  14  15
ENDBRANCH  13  14
ENDBRANCH  12  13
ENDBRANCH  11  12
ENDBRANCH   1  11
TORSDOF 15
ENDMDL
MODEL 6
REMARK VINA RESULT:    -3.922      3.517      5.683
REMARK INTER + INTRA:          -9.462
REMARK INTER:                  -7.363
REMARK INTRA:                  -2.099
REMARK UNBOUND:                -2.101
REMARK SMILES O=C([O-])CCCCCCCCCCCCCCC(=O)[O-]
REMARK SMILES IDX 10 1 9 2 8 3 7 4 6 5 5 6 4 7 2 8 1 9 3 10 11 11 12 12 13 13
REMARK SMILES IDX 14 14 15 15 16 16 17 17 18 18 19 19 20 20
REMARK H PARENT
REMARK Flexibility Score: inf
ROOT
ATOM      1  C   UNL     1      -7.396  14.659  -2.913  1.00  0.00     0.000 C 
ENDROOT
BRANCH   1   2
ATOM      2  C   UNL     1      -6.429  15.043  -1.783  1.00  0.00     0.000 C 
BRANCH   2   3
ATOM      3  C   UNL     1      -6.254  13.924  -0.745  1.00  0.00     0.000 C 
BRANCH   3   4
ATOM      4  C   UNL     1      -6.440  14.462   0.678  1.00  0.00     0.000 C 
BRANCH   4   5
ATOM      5  C   UNL     1      -5.894  15.893   0.802  1.00  0.00     0.000 C 
BRANCH   5   6
ATOM      6  C   UNL     1      -6.897  16.854   1.461  1.00  0.00     0.006 C 
BRANCH   6   7
ATOM      7  C   UNL     1      -6.211  17.951   2.283  1.00  0.00     0.053 C 
BRANCH   7   8
ATOM      8  C   UNL     1      -6.584  17.834   3.727  1.00  0.00     0.041 C 
ATOM      9  O   UNL     1      -7.013  18.837   4.354  1.00  0.00    -0.550 OA
ATOM     10  O   UNL     1      -6.500  16.604   4.370  1.00  0.00    -0.550 OA
ENDBRANCH   7   8
ENDBRANCH   6   7
ENDBRANCH   5   6
ENDBRANCH   4   5
ENDBRANCH   3   4
ENDBRANCH   2   3
ENDBRANCH   1   2
BRANCH   1  11
ATOM     11  C   UNL     1      -8.795  15.264  -2.725  1.00  0.00     0.000 C 
BRANCH  11  12
ATOM     12  C   UNL     1      -8.705  16.707  -2.213  1.00  0.00     0.000 C 
BRANCH  12  13
ATOM     13  C   UNL     1      -9.641  16.926  -1.015  1.00  0.00     0.000 C 
BRANCH  13  14
ATOM     14  C   UNL     1      -9.842  15.653  -0.174  1.00  0.00     0.000 C 
BRANCH  14  15
ATOM     15  C   UNL     1     -10.413  15.887   1.239  1.00  0.00     0.000 C 
BRANCH  15  16
ATOM     16  C   UNL     1     -10.297  17.333   1.761  1.00  0.00     0.006 C 
BRANCH  16  17
ATOM     17  C   UNL     1     -10.203  17.449   3.291  1.00  0.00     0.053 C 
BRANCH  17  18
ATOM     18  C   UNL     1     -11.495  17.900   3.899  1.00  0.00     0.041 C 
ATOM     19  O   UNL     1     -12.123  17.142   4.686  1.00  0.00    -0.550 OA
ATOM     20  O   UNL     1     -12.025  19.141   3.572  1.00  0.00    -0.550 OA
ENDBRANCH  17  18
ENDBRANCH  16  17
ENDBRANCH  15  16
ENDBRANCH  14  15
ENDBRANCH  13  14
ENDBRANCH  12  13
ENDBRANCH  11  12
ENDBRANCH   1  11
TORSDOF 15
ENDMDL
MODEL 7
REMARK VINA RESULT:    -3.917      1.538      7.560
REMARK INTER + INTRA:          -9.453
REMARK INTER:                  -7.107
REMARK INTRA:                  -2.346
REMARK UNBOUND:                -2.101
REMARK SMILES O=C([O-])CCCCCCCCCCCCCCC(=O)[O-]
REMARK SMILES IDX 10 1 9 2 8 3 7 4 6 5 5 6 4 7 2 8 1 9 3 10 11 11 12 12 13 13
REMARK SMILES IDX 14 14 15 15 16 16 17 17 18 18 19 19 20 20
REMARK H PARENT
REMARK Flexibility Score: inf
ROOT
ATOM      1  C   UNL     1      -8.804  17.246  -2.249  1.00  0.00     0.000 C 
ENDROOT
BRANCH   1   2
ATOM      2  C   UNL     1      -8.548  16.074  -3.209  1.00  0.00     0.000 C 
BRANCH   2   3
ATOM      3  C   UNL     1      -7.263  15.302  -2.871  1.00  0.00     0.000 C 
BRANCH   3   4
ATOM      4  C   UNL     1      -7.475  13.792  -3.022  1.00  0.00     0.000 C 
BRANCH   4   5
ATOM      5  C   UNL     1      -8.620  13.491  -4.003  1.00  0.00     0.000 C 
BRANCH   5   6
ATOM      6  C   UNL     1      -8.114  13.088  -5.397  1.00  0.00     0.006 C 
BRANCH   6   7
ATOM      7  C   UNL     1      -8.925  13.731  -6.529  1.00  0.00     0.053 C 
BRANCH   7   8
ATOM      8  C   UNL     1      -8.092  14.731  -7.267  1.00  0.00     0.041 C 
ATOM      9  O   UNL     1      -7.196  15.377  -6.663  1.00  0.00    -0.550 OA
ATOM     10  O   UNL     1      -8.274  14.917  -8.632  1.00  0.00    -0.550 OA
ENDBRANCH   7   8
ENDBRANCH   6   7
ENDBRANCH   5   6
ENDBRANCH   4   5
ENDBRANCH   3   4
ENDBRANCH   2   3
ENDBRANCH   1   2
BRANCH   1  11
ATOM     11  C   UNL     1      -9.822  16.901  -1.152  1.00  0.00     0.000 C 
BRANCH  11  12
ATOM     12  C   UNL     1     -10.476  15.540  -1.420  1.00  0.00     0.000 C 
BRANCH  12  13
ATOM     13  C   UNL     1     -10.101  14.525  -0.330  1.00  0.00     0.000 C 
BRANCH  13  14
ATOM     14  C   UNL     1      -9.064  15.073   0.665  1.00  0.00     0.000 C 
BRANCH  14  15
ATOM     15  C   UNL     1      -7.701  14.352   0.652  1.00  0.00     0.000 C 
BRANCH  15  16
ATOM     16  C   UNL     1      -6.473  15.267   0.837  1.00  0.00     0.006 C 
BRANCH  16  17
ATOM     17  C   UNL     1      -6.814  16.751   1.045  1.00  0.00     0.053 C 
BRANCH  17  18
ATOM     18  C   UNL     1      -6.539  17.199   2.447  1.00  0.00     0.041 C 
ATOM     19  O   UNL     1      -6.338  18.417   2.695  1.00  0.00    -0.550 OA
ATOM     20  O   UNL     1      -6.468  16.267   3.475  1.00  0.00    -0.550 OA
ENDBRANCH  17  18
ENDBRANCH  16  17
ENDBRANCH  15  16
ENDBRANCH  14  15
ENDBRANCH  13  14
ENDBRANCH  12  13
ENDBRANCH  11  12
ENDBRANCH   1  11
TORSDOF 15
ENDMDL
MODEL 8
REMARK VINA RESULT:    -3.915      1.633      2.320
REMARK INTER + INTRA:          -9.450
REMARK INTER:                  -6.854
REMARK INTRA:                  -2.596
REMARK UNBOUND:                -2.101
REMARK SMILES O=C([O-])CCCCCCCCCCCCCCC(=O)[O-]
REMARK SMILES IDX 10 1 9 2 8 3 7 4 6 5 5 6 4 7 2 8 1 9 3 10 11 11 12 12 13 13
REMARK SMILES IDX 14 14 15 15 16 16 17 17 18 18 19 19 20 20
REMARK H PARENT
REMARK Flexibility Score: inf
ROOT
ATOM      1  C   UNL     1      -8.495  12.977   0.095  1.00  0.00     0.000 C 
ENDROOT
BRANCH   1   2
ATOM      2  C   UNL     1      -7.419  13.278  -0.960  1.00  0.00     0.000 C 
BRANCH   2   3
ATOM      3  C   UNL     1      -6.114  13.804  -0.343  1.00  0.00     0.000 C 
BRANCH   3   4
ATOM      4  C   UNL     1      -6.157  15.328  -0.185  1.00  0.00     0.000 C 
BRANCH   4   5
ATOM      5  C   UNL     1      -6.013  15.733   1.291  1.00  0.00     0.000 C 
BRANCH   5   6
ATOM      6  C   UNL     1      -6.387  17.203   1.540  1.00  0.00     0.006 C 
BRANCH   6   7
ATOM      7  C   UNL     1      -6.481  17.543   3.033  1.00  0.00     0.053 C 
BRANCH   7   8
ATOM      8  C   UNL     1      -7.877  17.339   3.529  1.00  0.00     0.041 C 
ATOM      9  O   UNL     1      -8.205  16.250   4.068  1.00  0.00    -0.550 OA
ATOM     10  O   UNL     1      -8.806  18.369   3.437  1.00  0.00    -0.550 OA
ENDBRANCH   7   8
ENDBRANCH   6   7
ENDBRANCH   5   6
ENDBRANCH   4   5
ENDBRANCH   3   4
ENDBRANCH   2   3
ENDBRANCH   1   2
BRANCH   1  11
ATOM     11  C   UNL     1      -9.711  13.908  -0.017  1.00  0.00     0.000 C 
BRANCH  11  12
ATOM     12  C   UNL     1      -9.686  14.978   1.082  1.00  0.00     0.000 C 
BRANCH  12  13
ATOM     13  C   UNL     1      -9.759  16.388   0.477  1.00  0.00     0.000 C 
BRANCH  13  14
ATOM     14  C   UNL     1     -10.025  16.375  -1.038  1.00  0.00     0.000 C 
BRANCH  14  15
ATOM     15  C   UNL     1      -9.006  17.163  -1.887  1.00  0.00     0.000 C 
BRANCH  15  16
ATOM     16  C   UNL     1      -8.363  16.369  -3.042  1.00  0.00     0.006 C 
BRANCH  16  17
ATOM     17  C   UNL     1      -9.175  15.149  -3.502  1.00  0.00     0.053 C 
BRANCH  17  18
ATOM     18  C   UNL     1      -8.874  14.777  -4.922  1.00  0.00     0.041 C 
ATOM     19  O   UNL     1      -8.530  15.663  -5.749  1.00  0.00    -0.550 OA
ATOM     20  O   UNL     1      -9.007  13.460  -5.340  1.00  0.00    -0.550 OA
ENDBRANCH  17  18
ENDBRANCH  16  17
ENDBRANCH  15  16
ENDBRANCH  14  15
ENDBRANCH  13  14
ENDBRANCH  12  13
ENDBRANCH  11  12
ENDBRANCH   1  11
TORSDOF 15
ENDMDL
MODEL 9
REMARK VINA RESULT:    -3.867      1.289      7.536
REMARK INTER + INTRA:          -9.360
REMARK INTER:                  -7.076
REMARK INTRA:                  -2.284
REMARK UNBOUND:                -2.101
REMARK SMILES O=C([O-])CCCCCCCCCCCCCCC(=O)[O-]
REMARK SMILES IDX 10 1 9 2 8 3 7 4 6 5 5 6 4 7 2 8 1 9 3 10 11 11 12 12 13 13
REMARK SMILES IDX 14 14 15 15 16 16 17 17 18 18 19 19 20 20
REMARK H PARENT
REMARK Flexibility Score: inf
ROOT
ATOM      1  C   UNL     1      -9.920  14.519  -0.239  1.00  0.00     0.000 C 
ENDROOT
BRANCH   1   2
ATOM      2  C   UNL     1     -10.347  15.361  -1.451  1.00  0.00     0.000 C 
BRANCH   2   3
ATOM      3  C   UNL     1      -9.344  16.478  -1.778  1.00  0.00     0.000 C 
BRANCH   3   4
ATOM      4  C   UNL     1      -8.525  16.131  -3.027  1.00  0.00     0.000 C 
BRANCH   4   5
ATOM      5  C   UNL     1      -9.184  14.992  -3.820  1.00  0.00     0.000 C 
BRANCH   5   6
ATOM      6  C   UNL     1      -8.189  13.888  -4.208  1.00  0.00     0.006 C 
BRANCH   6   7
ATOM      7  C   UNL     1      -6.871  14.447  -4.758  1.00  0.00     0.053 C 
BRANCH   7   8
ATOM      8  C   UNL     1      -6.944  14.589  -6.246  1.00  0.00     0.041 C 
ATOM      9  O   UNL     1      -7.030  15.731  -6.769  1.00  0.00    -0.550 OA
ATOM     10  O   UNL     1      -6.871  13.463  -7.057  1.00  0.00    -0.550 OA
ENDBRANCH   7   8
ENDBRANCH   6   7
ENDBRANCH   5   6
ENDBRANCH   4   5
ENDBRANCH   3   4
ENDBRANCH   2   3
ENDBRANCH   1   2
BRANCH   1  11
ATOM     11  C   UNL     1      -9.152  13.250  -0.640  1.00  0.00     0.000 C 
BRANCH  11  12
ATOM     12  C   UNL     1      -7.799  13.178   0.078  1.00  0.00     0.000 C 
BRANCH  12  13
ATOM     13  C   UNL     1      -6.655  13.591  -0.860  1.00  0.00     0.000 C 
BRANCH  13  14
ATOM     14  C   UNL     1      -6.131  15.010  -0.574  1.00  0.00     0.000 C 
BRANCH  14  15
ATOM     15  C   UNL     1      -6.090  15.403   0.916  1.00  0.00     0.000 C 
BRANCH  15  16
ATOM     16  C   UNL     1      -7.056  16.534   1.323  1.00  0.00     0.006 C 
BRANCH  16  17
ATOM     17  C   UNL     1      -6.378  17.735   1.999  1.00  0.00     0.053 C 
BRANCH  17  18
ATOM     18  C   UNL     1      -6.967  18.028   3.344  1.00  0.00     0.041 C 
ATOM     19  O   UNL     1      -8.217  18.078   3.491  1.00  0.00    -0.550 OA
ATOM     20  O   UNL     1      -6.136  18.279   4.429  1.00  0.00    -0.550 OA
ENDBRANCH  17  18
ENDBRANCH  16  17
ENDBRANCH  15  16
ENDBRANCH  14  15
ENDBRANCH  13  14
ENDBRANCH  12  13
ENDBRANCH  11  12
ENDBRANCH   1  11
TORSDOF 15
ENDMDL
