MODEL 1
REMARK VINA RESULT:    -3.291      0.000      0.000
REMARK INTER + INTRA:          -4.555
REMARK INTER:                  -4.253
REMARK INTRA:                  -0.301
REMARK UNBOUND:                -0.301
REMARK SMILES CCO[C@@H]1O[C@H](CO)[C@H](O)[C@@H](O)[C@H]1O
REMARK SMILES IDX 4 1 13 2 11 3 9 4 6 5 5 6 3 7 2 8 1 9 14 10 12 12 7 14 8 15
REMARK SMILES IDX 10 17
REMARK H PARENT 14 11 12 13 8 16 10 18
REMARK Flexibility Score: inf
ROOT
ATOM      1  C   UNL     1      10.582  -5.764   1.874  1.00  0.00     0.281 C 
ATOM      2  C   UNL     1       9.140  -5.278   2.098  1.00  0.00     0.202 C 
ATOM      3  C   UNL     1       9.142  -3.888   2.753  1.00  0.00     0.179 C 
ATOM      4  C   UNL     1      10.002  -2.930   1.920  1.00  0.00     0.177 C 
ATOM      5  C   UNL     1      11.409  -3.526   1.661  1.00  0.00     0.178 C 
ATOM      6  O   UNL     1      11.356  -4.841   1.113  1.00  0.00    -0.341 OA
ENDROOT
BRANCH   1   7
ATOM      7  O   UNL     1      11.194  -6.056   3.120  1.00  0.00    -0.350 OA
BRANCH   7   8
ATOM      8  C   UNL     1      11.695  -7.377   3.125  1.00  0.00     0.160 C 
ATOM      9  C   UNL     1      10.966  -8.190   2.067  1.00  0.00     0.035 C 
ENDBRANCH   7   8
ENDBRANCH   1   7
BRANCH   2  10
ATOM     10  O   UNL     1       8.471  -5.238   0.861  1.00  0.00    -0.385 OA
ATOM     11  H   UNL     1       8.563  -6.137   0.452  1.00  0.00     0.211 HD
ENDBRANCH   2  10
BRANCH   3  12
ATOM     12  O   UNL     1       7.832  -3.390   2.841  1.00  0.00    -0.387 OA
ATOM     13  H   UNL     1       7.797  -2.816   3.650  1.00  0.00     0.211 HD
ENDBRANCH   3  12
BRANCH   5  14
ATOM     14  C   UNL     1      12.380  -3.432   2.861  1.00  0.00     0.191 C 
BRANCH  14  15
ATOM     15  O   UNL     1      12.815  -2.107   3.037  1.00  0.00    -0.394 OA
ATOM     16  H   UNL     1      12.104  -1.626   3.535  1.00  0.00     0.210 HD
ENDBRANCH  14  15
ENDBRANCH   5  14
BRANCH   4  17
ATOM     17  O   UNL     1      10.109  -1.684   2.561  1.00  0.00    -0.387 OA
ATOM     18  H   UNL     1      10.820  -1.773   3.248  1.00  0.00     0.211 HD
ENDBRANCH   4  17
TORSDOF 7
ENDMDL
MODEL 2
REMARK VINA RESULT:    -3.187      1.503      3.501
REMARK INTER + INTRA:          -4.420
REMARK INTER:                  -4.224
REMARK INTRA:                  -0.196
REMARK UNBOUND:                -0.301
REMARK SMILES CCO[C@@H]1O[C@H](CO)[C@H](O)[C@@H](O)[C@H]1O
REMARK SMILES IDX 4 1 13 2 11 3 9 4 6 5 5 6 3 7 2 8 1 9 14 10 12 12 7 14 8 15
REMARK SMILES IDX 10 17
REMARK H PARENT 14 11 12 13 8 16 10 18
REMARK Flexibility Score: inf
ROOT
ATOM      1  C   UNL     1      10.693  -5.416   3.125  1.00  0.00     0.281 C 
ATOM      2  C   UNL     1      11.784  -4.693   2.318  1.00  0.00     0.202 C 
ATOM      3  C   UNL     1      11.305  -4.442   0.878  1.00  0.00     0.179 C 
ATOM      4  C   UNL     1       9.960  -3.707   0.907  1.00  0.00     0.177 C 
ATOM      5  C   UNL     1       8.940  -4.448   1.810  1.00  0.00     0.178 C 
ATOM      6  O   UNL     1       9.452  -4.714   3.113  1.00  0.00    -0.341 OA
ENDROOT
BRANCH   1   7
ATOM      7  O   UNL     1      10.545  -6.746   2.656  1.00  0.00    -0.350 OA
BRANCH   7   8
ATOM      8  C   UNL     1      11.635  -7.540   3.077  1.00  0.00     0.160 C 
ATOM      9  C   UNL     1      11.312  -9.004   2.820  1.00  0.00     0.035 C 
ENDBRANCH   7   8
ENDBRANCH   1   7
BRANCH   2  10
ATOM     10  O   UNL     1      12.095  -3.476   2.951  1.00  0.00    -0.385 OA
ATOM     11  H   UNL     1      13.002  -3.574   3.339  1.00  0.00     0.211 HD
ENDBRANCH   2  10
BRANCH   3  12
ATOM     12  O   UNL     1      12.248  -3.672   0.179  1.00  0.00    -0.387 OA
ATOM     13  H   UNL     1      12.704  -3.099   0.849  1.00  0.00     0.211 HD
ENDBRANCH   3  12
BRANCH   5  14
ATOM     14  C   UNL     1       8.298  -5.699   1.167  1.00  0.00     0.191 C 
BRANCH  14  15
ATOM     15  O   UNL     1       6.902  -5.666   1.318  1.00  0.00    -0.394 OA
ATOM     16  H   UNL     1       6.524  -6.375   0.736  1.00  0.00     0.210 HD
ENDBRANCH  14  15
ENDBRANCH   5  14
BRANCH   4  17
ATOM     17  O   UNL     1       9.450  -3.569  -0.395  1.00  0.00    -0.387 OA
ATOM     18  H   UNL     1       8.484  -3.357  -0.307  1.00  0.00     0.211 HD
ENDBRANCH   4  17
TORSDOF 7
ENDMDL
MODEL 3
REMARK VINA RESULT:    -2.856      3.026      5.470
REMARK INTER + INTRA:          -3.992
REMARK INTER:                  -3.578
REMARK INTRA:                  -0.414
REMARK UNBOUND:                -0.301
REMARK SMILES CCO[C@@H]1O[C@H](CO)[C@H](O)[C@@H](O)[C@H]1O
REMARK SMILES IDX 4 1 13 2 11 3 9 4 6 5 5 6 3 7 2 8 1 9 14 10 12 12 7 14 8 15
REMARK SMILES IDX 10 17
REMARK H PARENT 14 11 12 13 8 16 10 18
REMARK Flexibility Score: inf
ROOT
ATOM      1  C   UNL     1       8.379  -5.999   1.696  1.00  0.00     0.281 C 
ATOM      2  C   UNL     1       8.930  -7.389   2.059  1.00  0.00     0.202 C 
ATOM      3  C   UNL     1       7.859  -8.212   2.793  1.00  0.00     0.179 C 
ATOM      4  C   UNL     1       6.577  -8.250   1.953  1.00  0.00     0.177 C 
ATOM      5  C   UNL     1       6.132  -6.820   1.552  1.00  0.00     0.178 C 
ATOM      6  O   UNL     1       7.177  -6.074   0.933  1.00  0.00    -0.341 OA
ENDROOT
BRANCH   1   7
ATOM      7  O   UNL     1       8.204  -5.225   2.871  1.00  0.00    -0.350 OA
BRANCH   7   8
ATOM      8  C   UNL     1       8.639  -3.898   2.655  1.00  0.00     0.160 C 
ATOM      9  C   UNL     1       9.794  -3.908   1.666  1.00  0.00     0.035 C 
ENDBRANCH   7   8
ENDBRANCH   1   7
BRANCH   2  10
ATOM     10  O   UNL     1       9.334  -8.045   0.882  1.00  0.00    -0.385 OA
ATOM     11  H   UNL     1      10.295  -8.268   0.990  1.00  0.00     0.211 HD
ENDBRANCH   2  10
BRANCH   3  12
ATOM     12  O   UNL     1       8.318  -9.521   3.012  1.00  0.00    -0.387 OA
ATOM     13  H   UNL     1       9.294  -9.517   2.833  1.00  0.00     0.211 HD
ENDBRANCH   3  12
BRANCH   5  14
ATOM     14  C   UNL     1       5.431  -6.022   2.675  1.00  0.00     0.191 C 
BRANCH  14  15
ATOM     15  O   UNL     1       5.176  -4.706   2.256  1.00  0.00    -0.394 OA
ATOM     16  H   UNL     1       4.417  -4.741   1.617  1.00  0.00     0.210 HD
ENDBRANCH  14  15
ENDBRANCH   5  14
BRANCH   4  17
ATOM     17  O   UNL     1       5.550  -8.901   2.657  1.00  0.00    -0.387 OA
ATOM     18  H   UNL     1       5.974  -9.365   3.426  1.00  0.00     0.211 HD
ENDBRANCH   4  17
TORSDOF 7
ENDMDL
MODEL 4
REMARK VINA RESULT:    -2.850      2.671      5.313
REMARK INTER + INTRA:          -3.984
REMARK INTER:                  -3.546
REMARK INTRA:                  -0.438
REMARK UNBOUND:                -0.301
REMARK SMILES CCO[C@@H]1O[C@H](CO)[C@H](O)[C@@H](O)[C@H]1O
REMARK SMILES IDX 4 1 13 2 11 3 9 4 6 5 5 6 3 7 2 8 1 9 14 10 12 12 7 14 8 15
REMARK SMILES IDX 10 17
REMARK H PARENT 14 11 12 13 8 16 10 18
REMARK Flexibility Score: inf
ROOT
ATOM      1  C   UNL     1       7.367  -6.023   1.708  1.00  0.00     0.281 C 
ATOM      2  C   UNL     1       8.655  -5.250   2.040  1.00  0.00     0.202 C 
ATOM      3  C   UNL     1       9.721  -6.205   2.600  1.00  0.00     0.179 C 
ATOM      4  C   UNL     1       9.927  -7.371   1.625  1.00  0.00     0.177 C 
ATOM      5  C   UNL     1       8.577  -8.044   1.269  1.00  0.00     0.178 C 
ATOM      6  O   UNL     1       7.600  -7.109   0.816  1.00  0.00    -0.341 OA
ENDROOT
BRANCH   1   7
ATOM      7  O   UNL     1       6.739  -6.454   2.904  1.00  0.00    -0.350 OA
BRANCH   7   8
ATOM      8  C   UNL     1       5.335  -6.346   2.789  1.00  0.00     0.160 C 
ATOM      9  C   UNL     1       4.952  -4.875   2.750  1.00  0.00     0.035 C 
ENDBRANCH   7   8
ENDBRANCH   1   7
BRANCH   2  10
ATOM     10  O   UNL     1       9.125  -4.617   0.875  1.00  0.00    -0.385 OA
ATOM     11  H   UNL     1      10.077  -4.875   0.768  1.00  0.00     0.211 HD
ENDBRANCH   2  10
BRANCH   3  12
ATOM     12  O   UNL     1      10.936  -5.525   2.784  1.00  0.00    -0.387 OA
ATOM     13  H   UNL     1      11.498  -5.723   1.991  1.00  0.00     0.211 HD
ENDBRANCH   3  12
BRANCH   5  14
ATOM     14  C   UNL     1       8.019  -8.989   2.358  1.00  0.00     0.191 C 
BRANCH  14  15
ATOM     15  O   UNL     1       6.743  -9.454   1.998  1.00  0.00    -0.394 OA
ATOM     16  H   UNL     1       6.479  -8.980   1.166  1.00  0.00     0.210 HD
ENDBRANCH  14  15
ENDBRANCH   5  14
BRANCH   4  17
ATOM     17  O   UNL     1      10.814  -8.314   2.170  1.00  0.00    -0.387 OA
ATOM     18  H   UNL     1      11.561  -7.806   2.582  1.00  0.00     0.211 HD
ENDBRANCH   4  17
TORSDOF 7
ENDMDL
MODEL 5
REMARK VINA RESULT:    -2.829      1.829      3.904
REMARK INTER + INTRA:          -3.957
REMARK INTER:                  -3.737
REMARK INTRA:                  -0.220
REMARK UNBOUND:                -0.301
REMARK SMILES CCO[C@@H]1O[C@H](CO)[C@H](O)[C@@H](O)[C@H]1O
REMARK SMILES IDX 4 1 13 2 11 3 9 4 6 5 5 6 3 7 2 8 1 9 14 10 12 12 7 14 8 15
REMARK SMILES IDX 10 17
REMARK H PARENT 14 11 12 13 8 16 10 18
REMARK Flexibility Score: inf
ROOT
ATOM      1  C   UNL     1      10.070  -7.716   2.144  1.00  0.00     0.281 C 
ATOM      2  C   UNL     1      10.993  -6.502   1.944  1.00  0.00     0.202 C 
ATOM      3  C   UNL     1      10.167  -5.257   1.582  1.00  0.00     0.179 C 
ATOM      4  C   UNL     1       9.075  -5.043   2.637  1.00  0.00     0.177 C 
ATOM      5  C   UNL     1       8.243  -6.334   2.848  1.00  0.00     0.178 C 
ATOM      6  O   UNL     1       9.056  -7.473   3.117  1.00  0.00    -0.341 OA
ENDROOT
BRANCH   1   7
ATOM      7  O   UNL     1       9.516  -8.114   0.901  1.00  0.00    -0.350 OA
BRANCH   7   8
ATOM      8  C   UNL     1       9.656  -9.508   0.724  1.00  0.00     0.160 C 
ATOM      9  C   UNL     1      10.918  -9.783  -0.078  1.00  0.00     0.035 C 
ENDBRANCH   7   8
ENDBRANCH   1   7
BRANCH   2  10
ATOM     10  O   UNL     1      11.725  -6.281   3.125  1.00  0.00    -0.385 OA
ATOM     11  H   UNL     1      12.067  -7.162   3.424  1.00  0.00     0.211 HD
ENDBRANCH   2  10
BRANCH   3  12
ATOM     12  O   UNL     1      10.994  -4.124   1.524  1.00  0.00    -0.387 OA
ATOM     13  H   UNL     1      11.803  -4.386   1.012  1.00  0.00     0.211 HD
ENDBRANCH   3  12
BRANCH   5  14
ATOM     14  C   UNL     1       7.193  -6.613   1.747  1.00  0.00     0.191 C 
BRANCH  14  15
ATOM     15  O   UNL     1       7.570  -5.995   0.543  1.00  0.00    -0.394 OA
ATOM     16  H   UNL     1       7.406  -6.646  -0.188  1.00  0.00     0.210 HD
ENDBRANCH  14  15
ENDBRANCH   5  14
BRANCH   4  17
ATOM     17  O   UNL     1       8.237  -3.978   2.266  1.00  0.00    -0.387 OA
ATOM     18  H   UNL     1       8.577  -3.631   1.400  1.00  0.00     0.211 HD
ENDBRANCH   4  17
TORSDOF 7
ENDMDL
MODEL 6
REMARK VINA RESULT:    -2.704     10.528     12.572
REMARK INTER + INTRA:          -3.795
REMARK INTER:                  -3.791
REMARK INTRA:                  -0.005
REMARK UNBOUND:                -0.301
REMARK SMILES CCO[C@@H]1O[C@H](CO)[C@H](O)[C@@H](O)[C@H]1O
REMARK SMILES IDX 4 1 13 2 11 3 9 4 6 5 5 6 3 7 2 8 1 9 14 10 12 12 7 14 8 15
REMARK SMILES IDX 10 17
REMARK H PARENT 14 11 12 13 8 16 10 18
REMARK Flexibility Score: inf
ROOT
ATOM      1  C   UNL     1       0.258  -9.508   1.593  1.00  0.00     0.281 C 
ATOM      2  C   UNL     1       0.451  -7.991   1.424  1.00  0.00     0.202 C 
ATOM      3  C   UNL     1      -0.846  -7.342   0.913  1.00  0.00     0.179 C 
ATOM      4  C   UNL     1      -2.008  -7.724   1.838  1.00  0.00     0.177 C 
ATOM      5  C   UNL     1      -2.084  -9.261   2.031  1.00  0.00     0.178 C 
ATOM      6  O   UNL     1      -0.841  -9.824   2.442  1.00  0.00    -0.341 OA
ENDROOT
BRANCH   1   7
ATOM      7  O   UNL     1       0.132 -10.125   0.323  1.00  0.00    -0.350 OA
BRANCH   7   8
ATOM      8  C   UNL     1       1.296  -9.906  -0.449  1.00  0.00     0.160 C 
ATOM      9  C   UNL     1       2.520 -10.125   0.426  1.00  0.00     0.035 C 
ENDBRANCH   7   8
ENDBRANCH   1   7
BRANCH   2  10
ATOM     10  O   UNL     1       0.826  -7.434   2.660  1.00  0.00    -0.385 OA
ATOM     11  H   UNL     1       1.729  -7.783   2.873  1.00  0.00     0.211 HD
ENDBRANCH   2  10
BRANCH   3  12
ATOM     12  O   UNL     1      -0.710  -5.945   0.879  1.00  0.00    -0.387 OA
ATOM     13  H   UNL     1       0.127  -5.727   1.365  1.00  0.00     0.211 HD
ENDBRANCH   3  12
BRANCH   5  14
ATOM     14  C   UNL     1      -2.711 -10.030   0.845  1.00  0.00     0.191 C 
BRANCH  14  15
ATOM     15  O   UNL     1      -4.079  -9.731   0.734  1.00  0.00    -0.394 OA
ATOM     16  H   UNL     1      -4.470 -10.368   0.082  1.00  0.00     0.210 HD
ENDBRANCH  14  15
ENDBRANCH   5  14
BRANCH   4  17
ATOM     17  O   UNL     1      -3.221  -7.236   1.326  1.00  0.00    -0.387 OA
ATOM     18  H   UNL     1      -3.805  -8.022   1.164  1.00  0.00     0.211 HD
ENDBRANCH   4  17
TORSDOF 7
ENDMDL
MODEL 7
REMARK VINA RESULT:    -2.676      2.646      3.975
REMARK INTER + INTRA:          -3.759
REMARK INTER:                  -3.478
REMARK INTRA:                  -0.282
REMARK UNBOUND:                -0.301
REMARK SMILES CCO[C@@H]1O[C@H](CO)[C@H](O)[C@@H](O)[C@H]1O
REMARK SMILES IDX 4 1 13 2 11 3 9 4 6 5 5 6 3 7 2 8 1 9 14 10 12 12 7 14 8 15
REMARK SMILES IDX 10 17
REMARK H PARENT 14 11 12 13 8 16 10 18
REMARK Flexibility Score: inf
ROOT
ATOM      1  C   UNL     1       7.887  -7.928   1.659  1.00  0.00     0.281 C 
ATOM      2  C   UNL     1       7.458  -6.451   1.692  1.00  0.00     0.202 C 
ATOM      3  C   UNL     1       8.492  -5.612   2.460  1.00  0.00     0.179 C 
ATOM      4  C   UNL     1       9.886  -5.845   1.864  1.00  0.00     0.177 C 
ATOM      5  C   UNL     1      10.211  -7.359   1.781  1.00  0.00     0.178 C 
ATOM      6  O   UNL     1       9.193  -8.103   1.117  1.00  0.00    -0.341 OA
ENDROOT
BRANCH   1   7
ATOM      7  O   UNL     1       7.779  -8.492   2.956  1.00  0.00    -0.350 OA
BRANCH   7   8
ATOM      8  C   UNL     1       7.335  -9.831   2.875  1.00  0.00     0.160 C 
ATOM      9  C   UNL     1       6.165  -9.909   1.907  1.00  0.00     0.035 C 
ENDBRANCH   7   8
ENDBRANCH   1   7
BRANCH   2  10
ATOM     10  O   UNL     1       7.327  -5.981   0.372  1.00  0.00    -0.385 OA
ATOM     11  H   UNL     1       7.957  -6.504  -0.186  1.00  0.00     0.211 HD
ENDBRANCH   2  10
BRANCH   3  12
ATOM     12  O   UNL     1       8.168  -4.248   2.382  1.00  0.00    -0.387 OA
ATOM     13  H   UNL     1       8.579  -3.904   1.547  1.00  0.00     0.211 HD
ENDBRANCH   3  12
BRANCH   5  14
ATOM     14  C   UNL     1      10.624  -8.004   3.124  1.00  0.00     0.191 C 
BRANCH  14  15
ATOM     15  O   UNL     1      11.312  -9.208   2.898  1.00  0.00    -0.394 OA
ATOM     16  H   UNL     1      12.148  -9.177   3.433  1.00  0.00     0.210 HD
ENDBRANCH  14  15
ENDBRANCH   5  14
BRANCH   4  17
ATOM     17  O   UNL     1      10.861  -5.177   2.622  1.00  0.00    -0.387 OA
ATOM     18  H   UNL     1      11.229  -5.836   3.267  1.00  0.00     0.211 HD
ENDBRANCH   4  17
TORSDOF 7
ENDMDL
MODEL 8
REMARK VINA RESULT:    -2.647      1.819      4.289
REMARK INTER + INTRA:          -3.722
REMARK INTER:                  -3.292
REMARK INTRA:                  -0.430
REMARK UNBOUND:                -0.301
REMARK SMILES CCO[C@@H]1O[C@H](CO)[C@H](O)[C@@H](O)[C@H]1O
REMARK SMILES IDX 4 1 13 2 11 3 9 4 6 5 5 6 3 7 2 8 1 9 14 10 12 12 7 14 8 15
REMARK SMILES IDX 10 17
REMARK H PARENT 14 11 12 13 8 16 10 18
REMARK Flexibility Score: inf
ROOT
ATOM      1  C   UNL     1      10.236  -5.053   2.334  1.00  0.00     0.281 C 
ATOM      2  C   UNL     1       8.755  -4.872   1.958  1.00  0.00     0.202 C 
ATOM      3  C   UNL     1       8.227  -6.130   1.250  1.00  0.00     0.179 C 
ATOM      4  C   UNL     1       8.504  -7.362   2.120  1.00  0.00     0.177 C 
ATOM      5  C   UNL     1       9.997  -7.429   2.532  1.00  0.00     0.178 C 
ATOM      6  O   UNL     1      10.457  -6.217   3.125  1.00  0.00    -0.341 OA
ENDROOT
BRANCH   1   7
ATOM      7  O   UNL     1      11.036  -5.057   1.163  1.00  0.00    -0.350 OA
BRANCH   7   8
ATOM      8  C   UNL     1      11.478  -3.749   0.865  1.00  0.00     0.160 C 
ATOM      9  C   UNL     1      12.330  -3.238   2.016  1.00  0.00     0.035 C 
ENDBRANCH   7   8
ENDBRANCH   1   7
BRANCH   2  10
ATOM     10  O   UNL     1       8.012  -4.616   3.125  1.00  0.00    -0.385 OA
ATOM     11  H   UNL     1       7.105  -4.988   2.978  1.00  0.00     0.211 HD
ENDBRANCH   2  10
BRANCH   3  12
ATOM     12  O   UNL     1       6.846  -6.016   1.021  1.00  0.00    -0.387 OA
ATOM     13  H   UNL     1       6.425  -5.819   1.898  1.00  0.00     0.211 HD
ENDBRANCH   3  12
BRANCH   5  14
ATOM     14  C   UNL     1      10.950  -7.936   1.424  1.00  0.00     0.191 C 
BRANCH  14  15
ATOM     15  O   UNL     1      10.925  -9.339   1.362  1.00  0.00    -0.394 OA
ATOM     16  H   UNL     1       9.981  -9.625   1.474  1.00  0.00     0.210 HD
ENDBRANCH  14  15
ENDBRANCH   5  14
BRANCH   4  17
ATOM     17  O   UNL     1       8.131  -8.534   1.441  1.00  0.00    -0.387 OA
ATOM     18  H   UNL     1       8.243  -9.286   2.080  1.00  0.00     0.211 HD
ENDBRANCH   4  17
TORSDOF 7
ENDMDL
MODEL 9
REMARK VINA RESULT:    -2.595      3.226      4.518
REMARK INTER + INTRA:          -3.655
REMARK INTER:                  -3.356
REMARK INTRA:                  -0.299
REMARK UNBOUND:                -0.301
REMARK SMILES CCO[C@@H]1O[C@H](CO)[C@H](O)[C@@H](O)[C@H]1O
REMARK SMILES IDX 4 1 13 2 11 3 9 4 6 5 5 6 3 7 2 8 1 9 14 10 12 12 7 14 8 15
REMARK SMILES IDX 10 17
REMARK H PARENT 14 11 12 13 8 16 10 18
REMARK Flexibility Score: inf
ROOT
ATOM      1  C   UNL     1       7.952  -8.389   2.072  1.00  0.00     0.281 C 
ATOM      2  C   UNL     1       6.527  -8.662   2.583  1.00  0.00     0.202 C 
ATOM      3  C   UNL     1       5.768  -7.339   2.777  1.00  0.00     0.179 C 
ATOM      4  C   UNL     1       5.820  -6.524   1.479  1.00  0.00     0.177 C 
ATOM      5  C   UNL     1       7.278  -6.367   0.978  1.00  0.00     0.178 C 
ATOM      6  O   UNL     1       7.961  -7.614   0.876  1.00  0.00    -0.341 OA
ENDROOT
BRANCH   1   7
ATOM      7  O   UNL     1       8.725  -7.783   3.094  1.00  0.00    -0.350 OA
BRANCH   7   8
ATOM      8  C   UNL     1      10.024  -8.337   3.123  1.00  0.00     0.160 C 
ATOM      9  C   UNL     1      11.027  -7.277   2.695  1.00  0.00     0.035 C 
ENDBRANCH   7   8
ENDBRANCH   1   7
BRANCH   2  10
ATOM     10  O   UNL     1       5.856  -9.483   1.660  1.00  0.00    -0.385 OA
ATOM     11  H   UNL     1       5.901 -10.410   2.010  1.00  0.00     0.211 HD
ENDBRANCH   2  10
BRANCH   3  12
ATOM     12  O   UNL     1       4.430  -7.591   3.121  1.00  0.00    -0.387 OA
ATOM     13  H   UNL     1       4.377  -7.556   4.112  1.00  0.00     0.211 HD
ENDBRANCH   3  12
BRANCH   5  14
ATOM     14  C   UNL     1       8.110  -5.306   1.735  1.00  0.00     0.191 C 
BRANCH  14  15
ATOM     15  O   UNL     1       9.141  -4.816   0.916  1.00  0.00    -0.394 OA
ATOM     16  H   UNL     1       8.737  -4.161   0.290  1.00  0.00     0.210 HD
ENDBRANCH  14  15
ENDBRANCH   5  14
BRANCH   4  17
ATOM     17  O   UNL     1       5.230  -5.263   1.668  1.00  0.00    -0.387 OA
ATOM     18  H   UNL     1       5.101  -4.866   0.767  1.00  0.00     0.211 HD
ENDBRANCH   4  17
TORSDOF 7
ENDMDL
