MODEL 1
REMARK VINA RESULT:    -8.265      0.000      0.000
REMARK INTER + INTRA:         -12.695
REMARK INTER:                 -11.888
REMARK INTRA:                  -0.807
REMARK UNBOUND:                -0.807
REMARK SMILES CC(C)=CCCC(C)=CCCC(C)=CCO
REMARK SMILES IDX 10 1 9 2 7 3 8 4 6 5 5 6 4 7 1 8 2 9 3 10 11 11 12 12 14 13
REMARK SMILES IDX 13 14 15 15 16 16
REMARK H PARENT 16 17
REMARK Flexibility Score: inf
ROOT
ATOM      1  C   UNL     1      17.144   6.218  14.986  1.00  0.00     0.032 C 
ENDROOT
BRANCH   1   2
ATOM      2  C   UNL     1      17.861   5.758  16.233  1.00  0.00    -0.028 C 
ATOM      3  C   UNL     1      17.988   6.492  17.362  1.00  0.00    -0.077 C 
ATOM      4  C   UNL     1      17.469   7.908  17.457  1.00  0.00     0.039 C 
BRANCH   3   5
ATOM      5  C   UNL     1      18.687   5.883  18.557  1.00  0.00     0.034 C 
BRANCH   5   6
ATOM      6  C   UNL     1      19.672   6.879  19.179  1.00  0.00     0.032 C 
BRANCH   6   7
ATOM      7  C   UNL     1      21.069   6.310  19.196  1.00  0.00    -0.028 C 
ATOM      8  C   UNL     1      23.341   5.867  18.373  1.00  0.00     0.039 C 
ATOM      9  C   UNL     1      21.966   6.459  18.198  1.00  0.00    -0.080 C 
ATOM     10  C   UNL     1      21.626   7.183  16.916  1.00  0.00     0.039 C 
ENDBRANCH   6   7
ENDBRANCH   5   6
ENDBRANCH   3   5
ENDBRANCH   1   2
BRANCH   1  11
ATOM     11  C   UNL     1      16.569   5.039  14.187  1.00  0.00     0.034 C 
BRANCH  11  12
ATOM     12  C   UNL     1      17.237   4.890  12.832  1.00  0.00    -0.075 C 
ATOM     13  C   UNL     1      17.640   3.696  12.342  1.00  0.00    -0.000 C 
ATOM     14  C   UNL     1      17.443   6.118  11.983  1.00  0.00     0.039 C 
BRANCH  13  15
ATOM     15  C   UNL     1      17.525   2.397  13.095  1.00  0.00     0.183 C 
BRANCH  15  16
ATOM     16  O   UNL     1      16.213   1.917  13.002  1.00  0.00    -0.392 OA
ATOM     17  H   UNL     1      16.202   1.293  12.230  1.00  0.00     0.210 HD
ENDBRANCH  15  16
ENDBRANCH  13  15
ENDBRANCH  11  12
ENDBRANCH   1  11
TORSDOF 8
ENDMDL
MODEL 2
REMARK VINA RESULT:    -8.195      6.901     11.274
REMARK INTER + INTRA:         -12.595
REMARK INTER:                 -11.637
REMARK INTRA:                  -0.958
REMARK UNBOUND:                -0.807
REMARK SMILES CC(C)=CCCC(C)=CCCC(C)=CCO
REMARK SMILES IDX 10 1 9 2 7 3 8 4 6 5 5 6 4 7 1 8 2 9 3 10 11 11 12 12 14 13
REMARK SMILES IDX 13 14 15 15 16 16
REMARK H PARENT 16 17
REMARK Flexibility Score: inf
ROOT
ATOM      1  C   UNL     1      21.632  -1.311   9.684  1.00  0.00     0.032 C 
ENDROOT
BRANCH   1   2
ATOM      2  C   UNL     1      20.828  -1.034   8.437  1.00  0.00    -0.028 C 
ATOM      3  C   UNL     1      21.155  -1.469   7.198  1.00  0.00    -0.077 C 
ATOM      4  C   UNL     1      22.429  -2.236   6.932  1.00  0.00     0.039 C 
BRANCH   3   5
ATOM      5  C   UNL     1      20.226  -1.162   6.045  1.00  0.00     0.034 C 
BRANCH   5   6
ATOM      6  C   UNL     1      19.845   0.323   6.031  1.00  0.00     0.032 C 
BRANCH   6   7
ATOM      7  C   UNL     1      20.702   1.087   5.053  1.00  0.00    -0.028 C 
ATOM      8  C   UNL     1      22.487   2.606   4.316  1.00  0.00     0.039 C 
ATOM      9  C   UNL     1      21.685   1.943   5.407  1.00  0.00    -0.080 C 
ATOM     10  C   UNL     1      21.987   2.264   6.852  1.00  0.00     0.039 C 
ENDBRANCH   6   7
ENDBRANCH   5   6
ENDBRANCH   3   5
ENDBRANCH   1   2
BRANCH   1  11
ATOM     11  C   UNL     1      20.783  -1.174  10.956  1.00  0.00     0.034 C 
BRANCH  11  12
ATOM     12  C   UNL     1      21.482  -0.348  12.021  1.00  0.00    -0.075 C 
ATOM     13  C   UNL     1      20.809   0.363  12.954  1.00  0.00    -0.000 C 
ATOM     14  C   UNL     1      22.988  -0.330  12.058  1.00  0.00     0.039 C 
BRANCH  13  15
ATOM     15  C   UNL     1      19.308   0.460  13.015  1.00  0.00     0.183 C 
BRANCH  15  16
ATOM     16  O   UNL     1      18.794  -0.647  13.701  1.00  0.00    -0.392 OA
ATOM     17  H   UNL     1      19.239  -1.444  13.309  1.00  0.00     0.210 HD
ENDBRANCH  15  16
ENDBRANCH  13  15
ENDBRANCH  11  12
ENDBRANCH   1  11
TORSDOF 8
ENDMDL
MODEL 3
REMARK VINA RESULT:    -8.163      1.981      2.895
REMARK INTER + INTRA:         -12.549
REMARK INTER:                 -11.934
REMARK INTRA:                  -0.615
REMARK UNBOUND:                -0.807
REMARK SMILES CC(C)=CCCC(C)=CCCC(C)=CCO
REMARK SMILES IDX 10 1 9 2 7 3 8 4 6 5 5 6 4 7 1 8 2 9 3 10 11 11 12 12 14 13
REMARK SMILES IDX 13 14 15 15 16 16
REMARK H PARENT 16 17
REMARK Flexibility Score: inf
ROOT
ATOM      1  C   UNL     1      17.506   5.346  15.339  1.00  0.00     0.032 C 
ENDROOT
BRANCH   1   2
ATOM      2  C   UNL     1      17.330   6.640  16.097  1.00  0.00    -0.028 C 
ATOM      3  C   UNL     1      17.857   6.894  17.317  1.00  0.00    -0.077 C 
ATOM      4  C   UNL     1      18.636   5.851  18.084  1.00  0.00     0.039 C 
BRANCH   3   5
ATOM      5  C   UNL     1      17.644   8.257  17.937  1.00  0.00     0.034 C 
BRANCH   5   6
ATOM      6  C   UNL     1      18.695   9.255  17.438  1.00  0.00     0.032 C 
BRANCH   6   7
ATOM      7  C   UNL     1      18.873  10.382  18.424  1.00  0.00    -0.028 C 
ATOM      8  C   UNL     1      19.891  11.615  20.290  1.00  0.00     0.039 C 
ATOM      9  C   UNL     1      19.805  10.400  19.402  1.00  0.00    -0.080 C 
ATOM     10  C   UNL     1      20.743   9.239  19.637  1.00  0.00     0.039 C 
ENDBRANCH   6   7
ENDBRANCH   5   6
ENDBRANCH   3   5
ENDBRANCH   1   2
BRANCH   1  11
ATOM     11  C   UNL     1      16.492   5.211  14.193  1.00  0.00     0.034 C 
BRANCH  11  12
ATOM     12  C   UNL     1      17.173   5.028  12.848  1.00  0.00    -0.075 C 
ATOM     13  C   UNL     1      17.490   3.813  12.348  1.00  0.00    -0.000 C 
ATOM     14  C   UNL     1      17.493   6.248  12.023  1.00  0.00     0.039 C 
BRANCH  13  15
ATOM     15  C   UNL     1      17.257   2.517  13.078  1.00  0.00     0.183 C 
BRANCH  15  16
ATOM     16  O   UNL     1      18.226   1.582  12.693  1.00  0.00    -0.392 OA
ATOM     17  H   UNL     1      19.005   2.108  12.372  1.00  0.00     0.210 HD
ENDBRANCH  15  16
ENDBRANCH  13  15
ENDBRANCH  11  12
ENDBRANCH   1  11
TORSDOF 8
ENDMDL
MODEL 4
REMARK VINA RESULT:    -8.080      2.691      6.485
REMARK INTER + INTRA:         -12.430
REMARK INTER:                 -11.761
REMARK INTRA:                  -0.669
REMARK UNBOUND:                -0.807
REMARK SMILES CC(C)=CCCC(C)=CCCC(C)=CCO
REMARK SMILES IDX 10 1 9 2 7 3 8 4 6 5 5 6 4 7 1 8 2 9 3 10 11 11 12 12 14 13
REMARK SMILES IDX 13 14 15 15 16 16
REMARK H PARENT 16 17
REMARK Flexibility Score: inf
ROOT
ATOM      1  C   UNL     1      17.281   5.862  15.191  1.00  0.00     0.032 C 
ENDROOT
BRANCH   1   2
ATOM      2  C   UNL     1      17.131   4.591  14.390  1.00  0.00    -0.028 C 
ATOM      3  C   UNL     1      17.272   4.507  13.047  1.00  0.00    -0.077 C 
ATOM      4  C   UNL     1      17.530   5.726  12.193  1.00  0.00     0.039 C 
BRANCH   3   5
ATOM      5  C   UNL     1      17.147   3.155  12.381  1.00  0.00     0.034 C 
BRANCH   5   6
ATOM      6  C   UNL     1      17.686   2.045  13.291  1.00  0.00     0.032 C 
BRANCH   6   7
ATOM      7  C   UNL     1      19.119   1.722  12.950  1.00  0.00    -0.028 C 
ATOM      8  C   UNL     1      21.107   0.312  12.640  1.00  0.00     0.039 C 
ATOM      9  C   UNL     1      19.670   0.494  13.057  1.00  0.00    -0.080 C 
ATOM     10  C   UNL     1      18.897  -0.688  13.595  1.00  0.00     0.039 C 
ENDBRANCH   6   7
ENDBRANCH   5   6
ENDBRANCH   3   5
ENDBRANCH   1   2
BRANCH   1  11
ATOM     11  C   UNL     1      18.060   5.631  16.494  1.00  0.00     0.034 C 
BRANCH  11  12
ATOM     12  C   UNL     1      18.452   6.937  17.162  1.00  0.00    -0.075 C 
ATOM     13  C   UNL     1      19.736   7.261  17.438  1.00  0.00    -0.000 C 
ATOM     14  C   UNL     1      17.372   7.926  17.518  1.00  0.00     0.039 C 
BRANCH  13  15
ATOM     15  C   UNL     1      20.908   6.355  17.167  1.00  0.00     0.183 C 
BRANCH  15  16
ATOM     16  O   UNL     1      21.827   7.015  16.343  1.00  0.00    -0.392 OA
ATOM     17  H   UNL     1      21.597   7.980  16.389  1.00  0.00     0.210 HD
ENDBRANCH  15  16
ENDBRANCH  13  15
ENDBRANCH  11  12
ENDBRANCH   1  11
TORSDOF 8
ENDMDL
MODEL 5
REMARK VINA RESULT:    -8.073      2.771      7.013
REMARK INTER + INTRA:         -12.419
REMARK INTER:                 -11.815
REMARK INTRA:                  -0.604
REMARK UNBOUND:                -0.807
REMARK SMILES CC(C)=CCCC(C)=CCCC(C)=CCO
REMARK SMILES IDX 10 1 9 2 7 3 8 4 6 5 5 6 4 7 1 8 2 9 3 10 11 11 12 12 14 13
REMARK SMILES IDX 13 14 15 15 16 16
REMARK H PARENT 16 17
REMARK Flexibility Score: inf
ROOT
ATOM      1  C   UNL     1      20.488   8.099  17.885  1.00  0.00     0.032 C 
ENDROOT
BRANCH   1   2
ATOM      2  C   UNL     1      19.720   6.932  17.312  1.00  0.00    -0.028 C 
ATOM      3  C   UNL     1      18.370   6.831  17.298  1.00  0.00    -0.077 C 
ATOM      4  C   UNL     1      17.485   7.877  17.935  1.00  0.00     0.039 C 
BRANCH   3   5
ATOM      5  C   UNL     1      17.732   5.628  16.642  1.00  0.00     0.034 C 
BRANCH   5   6
ATOM      6  C   UNL     1      17.332   5.942  15.196  1.00  0.00     0.032 C 
BRANCH   6   7
ATOM      7  C   UNL     1      17.170   4.673  14.398  1.00  0.00    -0.028 C 
ATOM      8  C   UNL     1      17.109   3.255  12.392  1.00  0.00     0.039 C 
ATOM      9  C   UNL     1      17.252   4.603  13.051  1.00  0.00    -0.080 C 
ATOM     10  C   UNL     1      17.463   5.830  12.196  1.00  0.00     0.039 C 
ENDBRANCH   6   7
ENDBRANCH   5   6
ENDBRANCH   3   5
ENDBRANCH   1   2
BRANCH   1  11
ATOM     11  C   UNL     1      21.891   7.687  18.353  1.00  0.00     0.034 C 
BRANCH  11  12
ATOM     12  C   UNL     1      21.976   7.574  19.865  1.00  0.00    -0.075 C 
ATOM     13  C   UNL     1      22.697   6.614  20.488  1.00  0.00    -0.000 C 
ATOM     14  C   UNL     1      21.246   8.584  20.713  1.00  0.00     0.039 C 
BRANCH  13  15
ATOM     15  C   UNL     1      23.447   5.526  19.766  1.00  0.00     0.183 C 
BRANCH  15  16
ATOM     16  O   UNL     1      22.754   4.317  19.894  1.00  0.00    -0.392 OA
ATOM     17  H   UNL     1      22.076   4.461  20.606  1.00  0.00     0.210 HD
ENDBRANCH  15  16
ENDBRANCH  13  15
ENDBRANCH  11  12
ENDBRANCH   1  11
TORSDOF 8
ENDMDL
MODEL 6
REMARK VINA RESULT:    -8.021      2.421      6.453
REMARK INTER + INTRA:         -12.344
REMARK INTER:                 -11.554
REMARK INTRA:                  -0.790
REMARK UNBOUND:                -0.807
REMARK SMILES CC(C)=CCCC(C)=CCCC(C)=CCO
REMARK SMILES IDX 10 1 9 2 7 3 8 4 6 5 5 6 4 7 1 8 2 9 3 10 11 11 12 12 14 13
REMARK SMILES IDX 13 14 15 15 16 16
REMARK H PARENT 16 17
REMARK Flexibility Score: inf
ROOT
ATOM      1  C   UNL     1      19.538   7.462  19.583  1.00  0.00     0.032 C 
ENDROOT
BRANCH   1   2
ATOM      2  C   UNL     1      18.904   6.394  18.724  1.00  0.00    -0.028 C 
ATOM      3  C   UNL     1      18.134   6.637  17.639  1.00  0.00    -0.077 C 
ATOM      4  C   UNL     1      17.770   8.041  17.215  1.00  0.00     0.039 C 
BRANCH   3   5
ATOM      5  C   UNL     1      17.607   5.467  16.838  1.00  0.00     0.034 C 
BRANCH   5   6
ATOM      6  C   UNL     1      17.371   5.868  15.377  1.00  0.00     0.032 C 
BRANCH   6   7
ATOM      7  C   UNL     1      17.192   4.647  14.510  1.00  0.00    -0.028 C 
ATOM      8  C   UNL     1      17.093   3.346  12.428  1.00  0.00     0.039 C 
ATOM      9  C   UNL     1      17.251   4.653  13.161  1.00  0.00    -0.080 C 
ATOM     10  C   UNL     1      17.454   5.927  12.374  1.00  0.00     0.039 C 
ENDBRANCH   6   7
ENDBRANCH   5   6
ENDBRANCH   3   5
ENDBRANCH   1   2
BRANCH   1  11
ATOM     11  C   UNL     1      20.956   7.812  19.109  1.00  0.00     0.034 C 
BRANCH  11  12
ATOM     12  C   UNL     1      21.844   6.584  19.012  1.00  0.00    -0.075 C 
ATOM     13  C   UNL     1      22.234   6.055  17.831  1.00  0.00    -0.000 C 
ATOM     14  C   UNL     1      22.329   5.934  20.283  1.00  0.00     0.039 C 
BRANCH  13  15
ATOM     15  C   UNL     1      21.799   6.582  16.489  1.00  0.00     0.183 C 
BRANCH  15  16
ATOM     16  O   UNL     1      22.656   7.616  16.093  1.00  0.00    -0.392 OA
ATOM     17  H   UNL     1      22.093   8.266  15.597  1.00  0.00     0.210 HD
ENDBRANCH  15  16
ENDBRANCH  13  15
ENDBRANCH  11  12
ENDBRANCH   1  11
TORSDOF 8
ENDMDL
MODEL 7
REMARK VINA RESULT:    -7.967      8.878     12.052
REMARK INTER + INTRA:         -12.267
REMARK INTER:                 -11.451
REMARK INTRA:                  -0.816
REMARK UNBOUND:                -0.807
REMARK SMILES CC(C)=CCCC(C)=CCCC(C)=CCO
REMARK SMILES IDX 10 1 9 2 7 3 8 4 6 5 5 6 4 7 1 8 2 9 3 10 11 11 12 12 14 13
REMARK SMILES IDX 13 14 15 15 16 16
REMARK H PARENT 16 17
REMARK Flexibility Score: inf
ROOT
ATOM      1  C   UNL     1      21.494  -0.606   3.536  1.00  0.00     0.032 C 
ENDROOT
BRANCH   1   2
ATOM      2  C   UNL     1      21.032  -1.191   4.849  1.00  0.00    -0.028 C 
ATOM      3  C   UNL     1      21.849  -1.738   5.777  1.00  0.00    -0.077 C 
ATOM      4  C   UNL     1      23.336  -1.881   5.548  1.00  0.00     0.039 C 
BRANCH   3   5
ATOM      5  C   UNL     1      21.254  -2.238   7.075  1.00  0.00     0.034 C 
BRANCH   5   6
ATOM      6  C   UNL     1      21.942  -1.584   8.279  1.00  0.00     0.032 C 
BRANCH   6   7
ATOM      7  C   UNL     1      20.940  -1.267   9.360  1.00  0.00    -0.028 C 
ATOM      8  C   UNL     1      20.119  -0.901  11.647  1.00  0.00     0.039 C 
ATOM      9  C   UNL     1      21.214  -1.281  10.682  1.00  0.00    -0.080 C 
ATOM     10  C   UNL     1      22.570  -1.679  11.216  1.00  0.00     0.039 C 
ENDBRANCH   6   7
ENDBRANCH   5   6
ENDBRANCH   3   5
ENDBRANCH   1   2
BRANCH   1  11
ATOM     11  C   UNL     1      21.959   0.849   3.688  1.00  0.00     0.034 C 
BRANCH  11  12
ATOM     12  C   UNL     1      20.822   1.770   4.094  1.00  0.00    -0.075 C 
ATOM     13  C   UNL     1      20.716   2.299   5.334  1.00  0.00    -0.000 C 
ATOM     14  C   UNL     1      19.775   2.130   3.071  1.00  0.00     0.039 C 
BRANCH  13  15
ATOM     15  C   UNL     1      21.671   1.999   6.459  1.00  0.00     0.183 C 
BRANCH  15  16
ATOM     16  O   UNL     1      22.767   2.867   6.386  1.00  0.00    -0.392 OA
ATOM     17  H   UNL     1      22.944   3.008   5.420  1.00  0.00     0.210 HD
ENDBRANCH  15  16
ENDBRANCH  13  15
ENDBRANCH  11  12
ENDBRANCH   1  11
TORSDOF 8
ENDMDL
MODEL 8
REMARK VINA RESULT:    -7.966      3.066      7.021
REMARK INTER + INTRA:         -12.266
REMARK INTER:                 -11.297
REMARK INTRA:                  -0.968
REMARK UNBOUND:                -0.807
REMARK SMILES CC(C)=CCCC(C)=CCCC(C)=CCO
REMARK SMILES IDX 10 1 9 2 7 3 8 4 6 5 5 6 4 7 1 8 2 9 3 10 11 11 12 12 14 13
REMARK SMILES IDX 13 14 15 15 16 16
REMARK H PARENT 16 17
REMARK Flexibility Score: inf
ROOT
ATOM      1  C   UNL     1      20.784   8.046  17.555  1.00  0.00     0.032 C 
ENDROOT
BRANCH   1   2
ATOM      2  C   UNL     1      19.905   6.892  17.137  1.00  0.00    -0.028 C 
ATOM      3  C   UNL     1      18.553   6.906  17.164  1.00  0.00    -0.077 C 
ATOM      4  C   UNL     1      17.777   8.088  17.696  1.00  0.00     0.039 C 
BRANCH   3   5
ATOM      5  C   UNL     1      17.797   5.696  16.663  1.00  0.00     0.034 C 
BRANCH   5   6
ATOM      6  C   UNL     1      17.241   5.942  15.256  1.00  0.00     0.032 C 
BRANCH   6   7
ATOM      7  C   UNL     1      17.088   4.642  14.507  1.00  0.00    -0.028 C 
ATOM      8  C   UNL     1      17.074   3.141  12.562  1.00  0.00     0.039 C 
ATOM      9  C   UNL     1      17.215   4.513  13.168  1.00  0.00    -0.080 C 
ATOM     10  C   UNL     1      17.475   5.700  12.270  1.00  0.00     0.039 C 
ENDBRANCH   6   7
ENDBRANCH   5   6
ENDBRANCH   3   5
ENDBRANCH   1   2
BRANCH   1  11
ATOM     11  C   UNL     1      21.444   7.799  18.920  1.00  0.00     0.034 C 
BRANCH  11  12
ATOM     12  C   UNL     1      20.637   8.397  20.059  1.00  0.00    -0.075 C 
ATOM     13  C   UNL     1      20.070   7.643  21.028  1.00  0.00    -0.000 C 
ATOM     14  C   UNL     1      20.475   9.893  20.130  1.00  0.00     0.039 C 
BRANCH  13  15
ATOM     15  C   UNL     1      20.125   6.139  21.063  1.00  0.00     0.183 C 
BRANCH  15  16
ATOM     16  O   UNL     1      21.247   5.729  21.794  1.00  0.00    -0.392 OA
ATOM     17  H   UNL     1      21.600   6.544  22.237  1.00  0.00     0.210 HD
ENDBRANCH  15  16
ENDBRANCH  13  15
ENDBRANCH  11  12
ENDBRANCH   1  11
TORSDOF 8
ENDMDL
MODEL 9
REMARK VINA RESULT:    -7.853      8.047     11.360
REMARK INTER + INTRA:         -12.102
REMARK INTER:                 -11.318
REMARK INTRA:                  -0.784
REMARK UNBOUND:                -0.807
REMARK SMILES CC(C)=CCCC(C)=CCCC(C)=CCO
REMARK SMILES IDX 10 1 9 2 7 3 8 4 6 5 5 6 4 7 1 8 2 9 3 10 11 11 12 12 14 13
REMARK SMILES IDX 13 14 15 15 16 16
REMARK H PARENT 16 17
REMARK Flexibility Score: inf
ROOT
ATOM      1  C   UNL     1      22.478   1.483   5.699  1.00  0.00     0.032 C 
ENDROOT
BRANCH   1   2
ATOM      2  C   UNL     1      21.607   0.711   6.661  1.00  0.00    -0.028 C 
ATOM      3  C   UNL     1      21.784  -0.590   6.985  1.00  0.00    -0.077 C 
ATOM      4  C   UNL     1      22.859  -1.434   6.341  1.00  0.00     0.039 C 
BRANCH   3   5
ATOM      5  C   UNL     1      20.866  -1.223   8.007  1.00  0.00     0.034 C 
BRANCH   5   6
ATOM      6  C   UNL     1      21.576  -1.377   9.357  1.00  0.00     0.032 C 
BRANCH   6   7
ATOM      7  C   UNL     1      20.605  -1.191  10.496  1.00  0.00    -0.028 C 
ATOM      8  C   UNL     1      19.828  -0.463  12.711  1.00  0.00     0.039 C 
ATOM      9  C   UNL     1      20.916  -0.617  11.678  1.00  0.00    -0.080 C 
ATOM     10  C   UNL     1      22.315  -0.145  11.996  1.00  0.00     0.039 C 
ENDBRANCH   6   7
ENDBRANCH   5   6
ENDBRANCH   3   5
ENDBRANCH   1   2
BRANCH   1  11
ATOM     11  C   UNL     1      21.646   2.253   4.664  1.00  0.00     0.034 C 
BRANCH  11  12
ATOM     12  C   UNL     1      21.229   1.372   3.499  1.00  0.00    -0.075 C 
ATOM     13  C   UNL     1      20.086   1.571   2.804  1.00  0.00    -0.000 C 
ATOM     14  C   UNL     1      22.131   0.239   3.083  1.00  0.00     0.039 C 
BRANCH  13  15
ATOM     15  C   UNL     1      19.080   2.642   3.131  1.00  0.00     0.183 C 
BRANCH  15  16
ATOM     16  O   UNL     1      18.252   2.205   4.173  1.00  0.00    -0.392 OA
ATOM     17  H   UNL     1      17.435   2.766   4.130  1.00  0.00     0.210 HD
ENDBRANCH  15  16
ENDBRANCH  13  15
ENDBRANCH  11  12
ENDBRANCH   1  11
TORSDOF 8
ENDMDL
