MODEL 1
REMARK VINA RESULT:    -8.439      0.000      0.000
REMARK INTER + INTRA:         -13.372
REMARK INTER:                 -12.385
REMARK INTRA:                  -0.987
REMARK UNBOUND:                -0.987
REMARK SMILES Cc1cc2c(C(C)C)c(O)c(O)c(C=O)c2c(O)c1-c1c(C)cc2c(C(C)C)c(O)c(O)c(C=O)c2c1O
REMARK SMILES IDX 1 1 2 2 3 3 4 4 16 5 13 6 11 7 9 8 5 9 17 10 19 11 20 12
REMARK SMILES IDX 37 13 21 14 36 15 23 16 22 17 24 18 33 19 25 20 31 21 29 22
REMARK SMILES IDX 38 23 34 25 35 26 26 27 27 28 28 29 32 30 30 32 18 34 6 36
REMARK SMILES IDX 7 37 8 38 14 39 15 40 10 41 12 43
REMARK H PARENT 38 24 32 31 30 33 18 35 10 42 12 44
REMARK Flexibility Score: inf
ROOT
ATOM      1  C   UNL     1      42.215  48.225 -27.564  1.00  0.00     0.045 C 
ATOM      2  C   UNL     1      42.953  48.611 -26.306  1.00  0.00    -0.039 A 
ATOM      3  C   UNL     1      44.283  48.221 -26.143  1.00  0.00     0.013 A 
ATOM      4  C   UNL     1      45.022  48.556 -24.987  1.00  0.00    -0.006 A 
ATOM      5  C   UNL     1      44.435  49.439 -24.035  1.00  0.00     0.039 A 
ATOM      6  C   UNL     1      45.251  49.974 -22.996  1.00  0.00     0.072 A 
ATOM      7  C   UNL     1      46.596  49.578 -22.881  1.00  0.00     0.169 A 
ATOM      8  C   UNL     1      47.149  48.652 -23.787  1.00  0.00     0.162 A 
ATOM      9  C   UNL     1      46.343  48.055 -24.782  1.00  0.00     0.008 A 
ATOM     10  C   UNL     1      43.043  49.733 -24.141  1.00  0.00     0.132 A 
ATOM     11  C   UNL     1      42.313  49.324 -25.277  1.00  0.00     0.031 A 
ENDROOT
BRANCH  11  12
ATOM     12  C   UNL     1      40.867  49.651 -25.394  1.00  0.00     0.031 A 
ATOM     13  C   UNL     1      39.911  48.921 -24.656  1.00  0.00     0.132 A 
ATOM     14  C   UNL     1      40.459  50.714 -26.216  1.00  0.00    -0.039 A 
ATOM     15  C   UNL     1      38.520  49.218 -24.777  1.00  0.00     0.039 A 
ATOM     16  C   UNL     1      39.108  51.054 -26.280  1.00  0.00     0.013 A 
ATOM     17  C   UNL     1      41.465  51.532 -26.989  1.00  0.00     0.045 C 
ATOM     18  C   UNL     1      38.115  50.307 -25.610  1.00  0.00    -0.006 A 
ATOM     19  C   UNL     1      37.524  48.500 -24.051  1.00  0.00     0.072 A 
ATOM     20  C   UNL     1      36.731  50.648 -25.721  1.00  0.00     0.008 A 
ATOM     21  C   UNL     1      36.200  48.976 -24.022  1.00  0.00     0.169 A 
ATOM     22  C   UNL     1      35.818  50.059 -24.820  1.00  0.00     0.162 A 
BRANCH  13  23
ATOM     23  O   UNL     1      40.348  47.928 -23.770  1.00  0.00    -0.507 OA
ATOM     24  H   UNL     1      40.886  47.118 -24.048  1.00  0.00     0.293 HD
ENDBRANCH  13  23
BRANCH  19  25
ATOM     25  C   UNL     1      37.817  47.236 -23.343  1.00  0.00     0.264 C 
ATOM     26  O   UNL     1      37.875  47.211 -22.085  1.00  0.00    -0.298 OA
ENDBRANCH  19  25
BRANCH  20  27
ATOM     27  C   UNL     1      36.225  51.660 -26.765  1.00  0.00     0.017 C 
ATOM     28  C   UNL     1      36.520  51.171 -28.186  1.00  0.00     0.012 C 
ATOM     29  C   UNL     1      36.746  53.093 -26.548  1.00  0.00     0.012 C 
ENDBRANCH  20  27
BRANCH  21  30
ATOM     30  O   UNL     1      35.220  48.368 -23.226  1.00  0.00    -0.504 OA
ATOM     31  H   UNL     1      35.117  48.529 -22.233  1.00  0.00     0.293 HD
ENDBRANCH  21  30
BRANCH  22  32
ATOM     32  O   UNL     1      34.516  50.553 -24.723  1.00  0.00    -0.504 OA
ATOM     33  H   UNL     1      33.859  50.535 -25.494  1.00  0.00     0.293 HD
ENDBRANCH  22  32
ENDBRANCH  11  12
BRANCH  10  34
ATOM     34  O   UNL     1      42.379  50.390 -23.100  1.00  0.00    -0.507 OA
ATOM     35  H   UNL     1      42.819  51.062 -22.484  1.00  0.00     0.293 HD
ENDBRANCH  10  34
BRANCH   9  36
ATOM     36  C   UNL     1      46.902  46.896 -25.627  1.00  0.00     0.017 C 
ATOM     37  C   UNL     1      45.873  45.770 -25.765  1.00  0.00     0.012 C 
ATOM     38  C   UNL     1      47.442  47.337 -27.001  1.00  0.00     0.012 C 
ENDBRANCH   9  36
BRANCH   6  39
ATOM     39  C   UNL     1      44.770  51.046 -22.093  1.00  0.00     0.264 C 
ATOM     40  O   UNL     1      44.481  50.802 -20.890  1.00  0.00    -0.298 OA
ENDBRANCH   6  39
BRANCH   8  41
ATOM     41  O   UNL     1      48.510  48.336 -23.747  1.00  0.00    -0.504 OA
ATOM     42  H   UNL     1      48.907  47.551 -23.251  1.00  0.00     0.293 HD
ENDBRANCH   8  41
BRANCH   7  43
ATOM     43  O   UNL     1      47.366  50.135 -21.851  1.00  0.00    -0.504 OA
ATOM     44  H   UNL     1      47.124  50.104 -20.872  1.00  0.00     0.293 HD
ENDBRANCH   7  43
TORSDOF 11
ENDMDL
MODEL 2
REMARK VINA RESULT:    -8.097      0.618      8.772
REMARK INTER + INTRA:         -12.871
REMARK INTER:                 -12.034
REMARK INTRA:                  -0.838
REMARK UNBOUND:                -0.987
REMARK SMILES Cc1cc2c(C(C)C)c(O)c(O)c(C=O)c2c(O)c1-c1c(C)cc2c(C(C)C)c(O)c(O)c(C=O)c2c1O
REMARK SMILES IDX 1 1 2 2 3 3 4 4 16 5 13 6 11 7 9 8 5 9 17 10 19 11 20 12
REMARK SMILES IDX 37 13 21 14 36 15 23 16 22 17 24 18 33 19 25 20 31 21 29 22
REMARK SMILES IDX 38 23 34 25 35 26 26 27 27 28 28 29 32 30 30 32 18 34 6 36
REMARK SMILES IDX 7 37 8 38 14 39 15 40 10 41 12 43
REMARK H PARENT 38 24 32 31 30 33 18 35 10 42 12 44
REMARK Flexibility Score: inf
ROOT
ATOM      1  C   UNL     1      41.038  51.334 -27.591  1.00  0.00     0.045 C 
ATOM      2  C   UNL     1      40.080  50.681 -26.625  1.00  0.00    -0.039 A 
ATOM      3  C   UNL     1      38.725  51.010 -26.675  1.00  0.00     0.013 A 
ATOM      4  C   UNL     1      37.784  50.428 -25.797  1.00  0.00    -0.006 A 
ATOM      5  C   UNL     1      38.212  49.373 -24.941  1.00  0.00     0.039 A 
ATOM      6  C   UNL     1      37.233  48.619 -24.231  1.00  0.00     0.072 A 
ATOM      7  C   UNL     1      35.871  48.962 -24.330  1.00  0.00     0.169 A 
ATOM      8  C   UNL     1      35.464  50.051 -25.125  1.00  0.00     0.162 A 
ATOM      9  C   UNL     1      36.422  50.856 -25.782  1.00  0.00     0.008 A 
ATOM     10  C   UNL     1      39.611  49.127 -24.803  1.00  0.00     0.132 A 
ATOM     11  C   UNL     1      40.535  49.777 -25.650  1.00  0.00     0.031 A 
ENDROOT
BRANCH  11  12
ATOM     12  C   UNL     1      41.990  49.502 -25.518  1.00  0.00     0.031 A 
ATOM     13  C   UNL     1      42.721  50.043 -24.438  1.00  0.00     0.132 A 
ATOM     14  C   UNL     1      42.629  48.672 -26.454  1.00  0.00    -0.039 A 
ATOM     15  C   UNL     1      44.122  49.798 -24.316  1.00  0.00     0.039 A 
ATOM     16  C   UNL     1      43.981  48.371 -26.296  1.00  0.00     0.013 A 
ATOM     17  C   UNL     1      41.862  48.054 -27.598  1.00  0.00     0.045 C 
ATOM     18  C   UNL     1      44.761  48.945 -25.269  1.00  0.00    -0.006 A 
ATOM     19  C   UNL     1      44.895  50.331 -23.242  1.00  0.00     0.072 A 
ATOM     20  C   UNL     1      46.156  48.655 -25.148  1.00  0.00     0.008 A 
ATOM     21  C   UNL     1      46.210  49.875 -23.034  1.00  0.00     0.169 A 
ATOM     22  C   UNL     1      46.819  49.019 -23.957  1.00  0.00     0.162 A 
BRANCH  13  23
ATOM     23  O   UNL     1      42.045  50.789 -23.465  1.00  0.00    -0.507 OA
ATOM     24  H   UNL     1      42.472  51.527 -22.921  1.00  0.00     0.293 HD
ENDBRANCH  13  23
BRANCH  19  25
ATOM     25  C   UNL     1      44.381  51.384 -22.342  1.00  0.00     0.264 C 
ATOM     26  O   UNL     1      44.083  51.111 -21.149  1.00  0.00    -0.298 OA
ENDBRANCH  19  25
BRANCH  20  27
ATOM     27  C   UNL     1      46.933  47.929 -26.262  1.00  0.00     0.017 C 
ATOM     28  C   UNL     1      46.647  48.560 -27.628  1.00  0.00     0.012 C 
ATOM     29  C   UNL     1      46.706  46.406 -26.291  1.00  0.00     0.012 C 
ENDBRANCH  20  27
BRANCH  21  30
ATOM     30  O   UNL     1      46.960  50.283 -21.922  1.00  0.00    -0.504 OA
ATOM     31  H   UNL     1      47.141  51.248 -21.685  1.00  0.00     0.293 HD
ENDBRANCH  21  30
BRANCH  22  32
ATOM     32  O   UNL     1      48.100  48.530 -23.693  1.00  0.00    -0.504 OA
ATOM     33  H   UNL     1      48.943  48.971 -24.041  1.00  0.00     0.293 HD
ENDBRANCH  22  32
ENDBRANCH  11  12
BRANCH  10  34
ATOM     34  O   UNL     1      40.083  48.274 -23.800  1.00  0.00    -0.507 OA
ATOM     35  H   UNL     1      39.570  48.059 -22.955  1.00  0.00     0.293 HD
ENDBRANCH  10  34
BRANCH   9  36
ATOM     36  C   UNL     1      35.983  52.158 -26.474  1.00  0.00     0.017 C 
ATOM     37  C   UNL     1      36.976  53.291 -26.197  1.00  0.00     0.012 C 
ATOM     38  C   UNL     1      35.719  51.999 -27.984  1.00  0.00     0.012 C 
ENDBRANCH   9  36
BRANCH   6  39
ATOM     39  C   UNL     1      37.579  47.387 -23.483  1.00  0.00     0.264 C 
ATOM     40  O   UNL     1      37.606  47.378 -22.223  1.00  0.00    -0.298 OA
ENDBRANCH   6  39
BRANCH   8  41
ATOM     41  O   UNL     1      34.108  50.333 -25.315  1.00  0.00    -0.504 OA
ATOM     42  H   UNL     1      33.720  50.782 -26.131  1.00  0.00     0.293 HD
ENDBRANCH   8  41
BRANCH   7  43
ATOM     43  O   UNL     1      34.939  48.191 -23.623  1.00  0.00    -0.504 OA
ATOM     44  H   UNL     1      34.472  48.485 -22.779  1.00  0.00     0.293 HD
ENDBRANCH   7  43
TORSDOF 11
ENDMDL
MODEL 3
REMARK VINA RESULT:    -8.006      2.265      4.572
REMARK INTER + INTRA:         -12.737
REMARK INTER:                 -11.746
REMARK INTRA:                  -0.991
REMARK UNBOUND:                -0.987
REMARK SMILES Cc1cc2c(C(C)C)c(O)c(O)c(C=O)c2c(O)c1-c1c(C)cc2c(C(C)C)c(O)c(O)c(C=O)c2c1O
REMARK SMILES IDX 1 1 2 2 3 3 4 4 16 5 13 6 11 7 9 8 5 9 17 10 19 11 20 12
REMARK SMILES IDX 37 13 21 14 36 15 23 16 22 17 24 18 33 19 25 20 31 21 29 22
REMARK SMILES IDX 38 23 34 25 35 26 26 27 27 28 28 29 32 30 30 32 18 34 6 36
REMARK SMILES IDX 7 37 8 38 14 39 15 40 10 41 12 43
REMARK H PARENT 38 24 32 31 30 33 18 35 10 42 12 44
REMARK Flexibility Score: inf
ROOT
ATOM      1  C   UNL     1      39.360  50.387 -21.746  1.00  0.00     0.045 C 
ATOM      2  C   UNL     1      40.582  50.070 -22.574  1.00  0.00    -0.039 A 
ATOM      3  C   UNL     1      41.851  50.260 -22.024  1.00  0.00     0.013 A 
ATOM      4  C   UNL     1      43.028  49.977 -22.752  1.00  0.00    -0.006 A 
ATOM      5  C   UNL     1      42.908  49.345 -24.023  1.00  0.00     0.039 A 
ATOM      6  C   UNL     1      44.080  48.839 -24.656  1.00  0.00     0.072 A 
ATOM      7  C   UNL     1      45.341  49.024 -24.056  1.00  0.00     0.169 A 
ATOM      8  C   UNL     1      45.456  49.711 -22.832  1.00  0.00     0.162 A 
ATOM      9  C   UNL     1      44.317  50.282 -22.222  1.00  0.00     0.008 A 
ATOM     10  C   UNL     1      41.619  49.268 -24.631  1.00  0.00     0.132 A 
ATOM     11  C   UNL     1      40.465  49.624 -23.901  1.00  0.00     0.031 A 
ENDROOT
BRANCH  11  12
ATOM     12  C   UNL     1      39.122  49.521 -24.531  1.00  0.00     0.031 A 
ATOM     13  C   UNL     1      38.674  50.524 -25.418  1.00  0.00     0.132 A 
ATOM     14  C   UNL     1      38.313  48.403 -24.267  1.00  0.00    -0.039 A 
ATOM     15  C   UNL     1      37.378  50.441 -26.011  1.00  0.00     0.039 A 
ATOM     16  C   UNL     1      37.078  48.283 -24.902  1.00  0.00     0.013 A 
ATOM     17  C   UNL     1      38.784  47.301 -23.349  1.00  0.00     0.045 C 
ATOM     18  C   UNL     1      36.566  49.296 -25.743  1.00  0.00    -0.006 A 
ATOM     19  C   UNL     1      36.889  51.436 -26.909  1.00  0.00     0.072 A 
ATOM     20  C   UNL     1      35.279  49.171 -26.353  1.00  0.00     0.008 A 
ATOM     21  C   UNL     1      35.714  51.197 -27.645  1.00  0.00     0.169 A 
ATOM     22  C   UNL     1      34.939  50.060 -27.395  1.00  0.00     0.162 A 
BRANCH  13  23
ATOM     23  O   UNL     1      39.534  51.581 -25.741  1.00  0.00    -0.507 OA
ATOM     24  H   UNL     1      39.321  52.295 -26.425  1.00  0.00     0.293 HD
ENDBRANCH  13  23
BRANCH  19  25
ATOM     25  C   UNL     1      37.553  52.745 -27.078  1.00  0.00     0.264 C 
ATOM     26  O   UNL     1      37.388  53.657 -26.225  1.00  0.00    -0.298 OA
ENDBRANCH  19  25
BRANCH  20  27
ATOM     27  C   UNL     1      34.282  48.076 -25.929  1.00  0.00     0.017 C 
ATOM     28  C   UNL     1      33.902  47.194 -27.122  1.00  0.00     0.012 C 
ATOM     29  C   UNL     1      33.031  48.616 -25.212  1.00  0.00     0.012 C 
ENDBRANCH  20  27
BRANCH  21  30
ATOM     30  O   UNL     1      35.266  52.095 -28.623  1.00  0.00    -0.504 OA
ATOM     31  H   UNL     1      35.722  52.971 -28.839  1.00  0.00     0.293 HD
ENDBRANCH  21  30
BRANCH  22  32
ATOM     32  O   UNL     1      33.814  49.813 -28.184  1.00  0.00    -0.504 OA
ATOM     33  H   UNL     1      33.235  50.550 -28.567  1.00  0.00     0.293 HD
ENDBRANCH  22  32
ENDBRANCH  11  12
BRANCH  10  34
ATOM     34  O   UNL     1      41.492  48.882 -25.970  1.00  0.00    -0.507 OA
ATOM     35  H   UNL     1      40.607  48.814 -26.456  1.00  0.00     0.293 HD
ENDBRANCH  10  34
BRANCH   9  36
ATOM     36  C   UNL     1      44.485  51.203 -20.999  1.00  0.00     0.017 C 
ATOM     37  C   UNL     1      44.962  50.412 -19.777  1.00  0.00     0.012 C 
ATOM     38  C   UNL     1      45.383  52.426 -21.263  1.00  0.00     0.012 C 
ENDBRANCH   9  36
BRANCH   6  39
ATOM     39  C   UNL     1      44.015  47.998 -25.874  1.00  0.00     0.264 C 
ATOM     40  O   UNL     1      44.302  48.472 -27.007  1.00  0.00    -0.298 OA
ENDBRANCH   6  39
BRANCH   8  41
ATOM     41  O   UNL     1      46.688  49.805 -22.177  1.00  0.00    -0.504 OA
ATOM     42  H   UNL     1      47.577  49.549 -22.579  1.00  0.00     0.293 HD
ENDBRANCH   8  41
BRANCH   7  43
ATOM     43  O   UNL     1      46.467  48.503 -24.706  1.00  0.00    -0.504 OA
ATOM     44  H   UNL     1      46.463  47.686 -25.297  1.00  0.00     0.293 HD
ENDBRANCH   7  43
TORSDOF 11
ENDMDL
MODEL 4
REMARK VINA RESULT:    -7.973      1.609      3.124
REMARK INTER + INTRA:         -12.688
REMARK INTER:                 -11.585
REMARK INTRA:                  -1.103
REMARK UNBOUND:                -0.987
REMARK SMILES Cc1cc2c(C(C)C)c(O)c(O)c(C=O)c2c(O)c1-c1c(C)cc2c(C(C)C)c(O)c(O)c(C=O)c2c1O
REMARK SMILES IDX 1 1 2 2 3 3 4 4 16 5 13 6 11 7 9 8 5 9 17 10 19 11 20 12
REMARK SMILES IDX 37 13 21 14 36 15 23 16 22 17 24 18 33 19 25 20 31 21 29 22
REMARK SMILES IDX 38 23 34 25 35 26 26 27 27 28 28 29 32 30 30 32 18 34 6 36
REMARK SMILES IDX 7 37 8 38 14 39 15 40 10 41 12 43
REMARK H PARENT 38 24 32 31 30 33 18 35 10 42 12 44
REMARK Flexibility Score: inf
ROOT
ATOM      1  C   UNL     1      41.239  48.478 -26.771  1.00  0.00     0.045 C 
ATOM      2  C   UNL     1      42.044  48.745 -25.523  1.00  0.00    -0.039 A 
ATOM      3  C   UNL     1      43.432  48.603 -25.558  1.00  0.00     0.013 A 
ATOM      4  C   UNL     1      44.235  48.842 -24.420  1.00  0.00    -0.006 A 
ATOM      5  C   UNL     1      43.620  49.383 -23.254  1.00  0.00     0.039 A 
ATOM      6  C   UNL     1      44.448  49.851 -22.193  1.00  0.00     0.072 A 
ATOM      7  C   UNL     1      45.846  49.717 -22.277  1.00  0.00     0.169 A 
ATOM      8  C   UNL     1      46.440  49.119 -23.405  1.00  0.00     0.162 A 
ATOM      9  C   UNL     1      45.638  48.584 -24.437  1.00  0.00     0.008 A 
ATOM     10  C   UNL     1      42.195  49.408 -23.180  1.00  0.00     0.132 A 
ATOM     11  C   UNL     1      41.417  49.096 -24.315  1.00  0.00     0.031 A 
ENDROOT
BRANCH  11  12
ATOM     12  C   UNL     1      39.933  49.145 -24.239  1.00  0.00     0.031 A 
ATOM     13  C   UNL     1      39.231  50.249 -24.769  1.00  0.00     0.132 A 
ATOM     14  C   UNL     1      39.230  48.071 -23.669  1.00  0.00    -0.039 A 
ATOM     15  C   UNL     1      37.807  50.311 -24.683  1.00  0.00     0.039 A 
ATOM     16  C   UNL     1      37.836  48.095 -23.649  1.00  0.00     0.013 A 
ATOM     17  C   UNL     1      39.957  46.864 -23.126  1.00  0.00     0.045 C 
ATOM     18  C   UNL     1      37.099  49.209 -24.108  1.00  0.00    -0.006 A 
ATOM     19  C   UNL     1      37.062  51.410 -25.202  1.00  0.00     0.072 A 
ATOM     20  C   UNL     1      35.671  49.230 -24.042  1.00  0.00     0.008 A 
ATOM     21  C   UNL     1      35.661  51.320 -25.305  1.00  0.00     0.169 A 
ATOM     22  C   UNL     1      34.979  50.226 -24.764  1.00  0.00     0.162 A 
BRANCH  13  23
ATOM     23  O   UNL     1      39.945  51.263 -25.418  1.00  0.00    -0.507 OA
ATOM     24  H   UNL     1      40.707  51.777 -24.997  1.00  0.00     0.293 HD
ENDBRANCH  13  23
BRANCH  19  25
ATOM     25  C   UNL     1      37.702  52.677 -25.614  1.00  0.00     0.264 C 
ATOM     26  O   UNL     1      37.831  52.957 -26.835  1.00  0.00    -0.298 OA
ENDBRANCH  19  25
BRANCH  20  27
ATOM     27  C   UNL     1      34.880  48.180 -23.241  1.00  0.00     0.017 C 
ATOM     28  C   UNL     1      34.021  47.318 -24.172  1.00  0.00     0.012 C 
ATOM     29  C   UNL     1      34.039  48.772 -22.095  1.00  0.00     0.012 C 
ENDBRANCH  20  27
BRANCH  21  30
ATOM     30  O   UNL     1      34.905  52.328 -25.919  1.00  0.00    -0.504 OA
ATOM     31  H   UNL     1      34.296  52.177 -26.711  1.00  0.00     0.293 HD
ENDBRANCH  21  30
BRANCH  22  32
ATOM     32  O   UNL     1      33.597  50.129 -24.937  1.00  0.00    -0.504 OA
ATOM     33  H   UNL     1      33.168  49.551 -25.650  1.00  0.00     0.293 HD
ENDBRANCH  22  32
ENDBRANCH  11  12
BRANCH  10  34
ATOM     34  O   UNL     1      41.556  49.699 -21.969  1.00  0.00    -0.507 OA
ATOM     35  H   UNL     1      40.945  50.493 -21.831  1.00  0.00     0.293 HD
ENDBRANCH  10  34
BRANCH   9  36
ATOM     36  C   UNL     1      46.288  47.752 -25.558  1.00  0.00     0.017 C 
ATOM     37  C   UNL     1      45.745  46.319 -25.565  1.00  0.00     0.012 C 
ATOM     38  C   UNL     1      46.181  48.400 -26.952  1.00  0.00     0.012 C 
ENDBRANCH   9  36
BRANCH   6  39
ATOM     39  C   UNL     1      43.897  50.605 -21.041  1.00  0.00     0.264 C 
ATOM     40  O   UNL     1      43.873  50.100 -19.886  1.00  0.00    -0.298 OA
ENDBRANCH   6  39
BRANCH   8  41
ATOM     41  O   UNL     1      47.831  49.079 -23.546  1.00  0.00    -0.504 OA
ATOM     42  H   UNL     1      48.322  49.067 -24.428  1.00  0.00     0.293 HD
ENDBRANCH   8  41
BRANCH   7  43
ATOM     43  O   UNL     1      46.624  50.199 -21.216  1.00  0.00    -0.504 OA
ATOM     44  H   UNL     1      46.869  51.168 -21.077  1.00  0.00     0.293 HD
ENDBRANCH   7  43
TORSDOF 11
ENDMDL
MODEL 5
REMARK VINA RESULT:    -7.918      2.224      3.554
REMARK INTER + INTRA:         -12.608
REMARK INTER:                 -11.778
REMARK INTRA:                  -0.830
REMARK UNBOUND:                -0.987
REMARK SMILES Cc1cc2c(C(C)C)c(O)c(O)c(C=O)c2c(O)c1-c1c(C)cc2c(C(C)C)c(O)c(O)c(C=O)c2c1O
REMARK SMILES IDX 1 1 2 2 3 3 4 4 16 5 13 6 11 7 9 8 5 9 17 10 19 11 20 12
REMARK SMILES IDX 37 13 21 14 36 15 23 16 22 17 24 18 33 19 25 20 31 21 29 22
REMARK SMILES IDX 38 23 34 25 35 26 26 27 27 28 28 29 32 30 30 32 18 34 6 36
REMARK SMILES IDX 7 37 8 38 14 39 15 40 10 41 12 43
REMARK H PARENT 38 24 32 31 30 33 18 35 10 42 12 44
REMARK Flexibility Score: inf
ROOT
ATOM      1  C   UNL     1      41.459  48.321 -27.746  1.00  0.00     0.045 C 
ATOM      2  C   UNL     1      41.986  48.993 -26.502  1.00  0.00    -0.039 A 
ATOM      3  C   UNL     1      43.355  48.960 -26.232  1.00  0.00     0.013 A 
ATOM      4  C   UNL     1      43.903  49.574 -25.084  1.00  0.00    -0.006 A 
ATOM      5  C   UNL     1      43.051  50.368 -24.264  1.00  0.00     0.039 A 
ATOM      6  C   UNL     1      43.634  51.181 -23.249  1.00  0.00     0.072 A 
ATOM      7  C   UNL     1      45.023  51.144 -23.026  1.00  0.00     0.169 A 
ATOM      8  C   UNL     1      45.848  50.303 -23.797  1.00  0.00     0.162 A 
ATOM      9  C   UNL     1      45.287  49.436 -24.761  1.00  0.00     0.008 A 
ATOM     10  C   UNL     1      41.641  50.296 -24.469  1.00  0.00     0.132 A 
ATOM     11  C   UNL     1      41.118  49.616 -25.589  1.00  0.00     0.031 A 
ENDROOT
BRANCH  11  12
ATOM     12  C   UNL     1      39.649  49.563 -25.812  1.00  0.00     0.031 A 
ATOM     13  C   UNL     1      39.045  50.402 -26.772  1.00  0.00     0.132 A 
ATOM     14  C   UNL     1      38.868  48.648 -25.086  1.00  0.00    -0.039 A 
ATOM     15  C   UNL     1      37.632  50.370 -26.977  1.00  0.00     0.039 A 
ATOM     16  C   UNL     1      37.499  48.562 -25.336  1.00  0.00     0.013 A 
ATOM     17  C   UNL     1      39.496  47.717 -24.077  1.00  0.00     0.045 C 
ATOM     18  C   UNL     1      36.847  49.430 -26.240  1.00  0.00    -0.006 A 
ATOM     19  C   UNL     1      36.984  51.205 -27.935  1.00  0.00     0.072 A 
ATOM     20  C   UNL     1      35.435  49.352 -26.453  1.00  0.00     0.008 A 
ATOM     21  C   UNL     1      35.636  50.974 -28.267  1.00  0.00     0.169 A 
ATOM     22  C   UNL     1      34.883  50.034 -27.558  1.00  0.00     0.162 A 
BRANCH  13  23
ATOM     23  O   UNL     1      39.854  51.238 -27.552  1.00  0.00    -0.507 OA
ATOM     24  H   UNL     1      39.612  51.552 -28.483  1.00  0.00     0.293 HD
ENDBRANCH  13  23
BRANCH  19  25
ATOM     25  C   UNL     1      37.667  52.345 -28.583  1.00  0.00     0.264 C 
ATOM     26  O   UNL     1      37.927  52.313 -29.815  1.00  0.00    -0.298 OA
ENDBRANCH  19  25
BRANCH  20  27
ATOM     27  C   UNL     1      34.521  48.520 -25.535  1.00  0.00     0.017 C 
ATOM     28  C   UNL     1      33.791  47.434 -26.332  1.00  0.00     0.012 C 
ATOM     29  C   UNL     1      33.534  49.363 -24.706  1.00  0.00     0.012 C 
ENDBRANCH  20  27
BRANCH  21  30
ATOM     30  O   UNL     1      34.999  51.693 -29.287  1.00  0.00    -0.504 OA
ATOM     31  H   UNL     1      34.040  51.545 -29.570  1.00  0.00     0.293 HD
ENDBRANCH  21  30
BRANCH  22  32
ATOM     32  O   UNL     1      33.567  49.777 -27.949  1.00  0.00    -0.504 OA
ATOM     33  H   UNL     1      33.125  50.237 -28.736  1.00  0.00     0.293 HD
ENDBRANCH  22  32
ENDBRANCH  11  12
BRANCH  10  34
ATOM     34  O   UNL     1      40.762  50.863 -23.539  1.00  0.00    -0.507 OA
ATOM     35  H   UNL     1      39.994  50.362 -23.111  1.00  0.00     0.293 HD
ENDBRANCH  10  34
BRANCH   9  36
ATOM     36  C   UNL     1      46.170  48.379 -25.448  1.00  0.00     0.017 C 
ATOM     37  C   UNL     1      45.703  46.962 -25.101  1.00  0.00     0.012 C 
ATOM     38  C   UNL     1      46.296  48.572 -26.971  1.00  0.00     0.012 C 
ENDBRANCH   9  36
BRANCH   6  39
ATOM     39  C   UNL     1      42.843  52.180 -22.492  1.00  0.00     0.264 C 
ATOM     40  O   UNL     1      43.169  53.398 -22.486  1.00  0.00    -0.298 OA
ENDBRANCH   6  39
BRANCH   8  41
ATOM     41  O   UNL     1      47.239  50.339 -23.657  1.00  0.00    -0.504 OA
ATOM     42  H   UNL     1      47.764  49.819 -22.969  1.00  0.00     0.293 HD
ENDBRANCH   8  41
BRANCH   7  43
ATOM     43  O   UNL     1      45.557  51.966 -22.025  1.00  0.00    -0.504 OA
ATOM     44  H   UNL     1      45.114  52.800 -21.669  1.00  0.00     0.293 HD
ENDBRANCH   7  43
TORSDOF 11
ENDMDL
MODEL 6
REMARK VINA RESULT:    -7.898      2.430      5.029
REMARK INTER + INTRA:         -12.579
REMARK INTER:                 -11.510
REMARK INTRA:                  -1.069
REMARK UNBOUND:                -0.987
REMARK SMILES Cc1cc2c(C(C)C)c(O)c(O)c(C=O)c2c(O)c1-c1c(C)cc2c(C(C)C)c(O)c(O)c(C=O)c2c1O
REMARK SMILES IDX 1 1 2 2 3 3 4 4 16 5 13 6 11 7 9 8 5 9 17 10 19 11 20 12
REMARK SMILES IDX 37 13 21 14 36 15 23 16 22 17 24 18 33 19 25 20 31 21 29 22
REMARK SMILES IDX 38 23 34 25 35 26 26 27 27 28 28 29 32 30 30 32 18 34 6 36
REMARK SMILES IDX 7 37 8 38 14 39 15 40 10 41 12 43
REMARK H PARENT 38 24 32 31 30 33 18 35 10 42 12 44
REMARK Flexibility Score: inf
ROOT
ATOM      1  C   UNL     1      40.016  50.488 -20.968  1.00  0.00     0.045 C 
ATOM      2  C   UNL     1      40.857  50.292 -22.206  1.00  0.00    -0.039 A 
ATOM      3  C   UNL     1      42.137  50.844 -22.261  1.00  0.00     0.013 A 
ATOM      4  C   UNL     1      42.968  50.690 -23.392  1.00  0.00    -0.006 A 
ATOM      5  C   UNL     1      42.538  49.825 -24.440  1.00  0.00     0.039 A 
ATOM      6  C   UNL     1      43.463  49.473 -25.466  1.00  0.00     0.072 A 
ATOM      7  C   UNL     1      44.756  50.028 -25.471  1.00  0.00     0.169 A 
ATOM      8  C   UNL     1      45.148  50.936 -24.469  1.00  0.00     0.162 A 
ATOM      9  C   UNL     1      44.228  51.354 -23.482  1.00  0.00     0.008 A 
ATOM     10  C   UNL     1      41.188  49.366 -24.439  1.00  0.00     0.132 A 
ATOM     11  C   UNL     1      40.358  49.595 -23.320  1.00  0.00     0.031 A 
ENDROOT
BRANCH  11  12
ATOM     12  C   UNL     1      38.957  49.096 -23.314  1.00  0.00     0.031 A 
ATOM     13  C   UNL     1      37.952  49.791 -24.020  1.00  0.00     0.132 A 
ATOM     14  C   UNL     1      38.646  47.908 -22.632  1.00  0.00    -0.039 A 
ATOM     15  C   UNL     1      36.602  49.327 -24.002  1.00  0.00     0.039 A 
ATOM     16  C   UNL     1      37.343  47.413 -22.674  1.00  0.00     0.013 A 
ATOM     17  C   UNL     1      39.711  47.129 -21.898  1.00  0.00     0.045 C 
ATOM     18  C   UNL     1      36.296  48.113 -23.312  1.00  0.00    -0.006 A 
ATOM     19  C   UNL     1      35.557  50.004 -24.699  1.00  0.00     0.072 A 
ATOM     20  C   UNL     1      34.958  47.608 -23.310  1.00  0.00     0.008 A 
ATOM     21  C   UNL     1      34.301  49.387 -24.847  1.00  0.00     0.169 A 
ATOM     22  C   UNL     1      34.019  48.186 -24.189  1.00  0.00     0.162 A 
BRANCH  13  23
ATOM     23  O   UNL     1      38.303  50.918 -24.772  1.00  0.00    -0.507 OA
ATOM     24  H   UNL     1      37.718  51.324 -25.490  1.00  0.00     0.293 HD
ENDBRANCH  13  23
BRANCH  19  25
ATOM     25  C   UNL     1      35.726  51.363 -25.254  1.00  0.00     0.264 C 
ATOM     26  O   UNL     1      35.837  51.533 -26.497  1.00  0.00    -0.298 OA
ENDBRANCH  19  25
BRANCH  20  27
ATOM     27  C   UNL     1      34.535  46.435 -22.405  1.00  0.00     0.017 C 
ATOM     28  C   UNL     1      33.974  45.279 -23.239  1.00  0.00     0.012 C 
ATOM     29  C   UNL     1      33.564  46.835 -21.279  1.00  0.00     0.012 C 
ENDBRANCH  20  27
BRANCH  21  30
ATOM     30  O   UNL     1      33.288  49.965 -25.624  1.00  0.00    -0.504 OA
ATOM     31  H   UNL     1      33.228  50.951 -25.835  1.00  0.00     0.293 HD
ENDBRANCH  21  30
BRANCH  22  32
ATOM     32  O   UNL     1      32.788  47.562 -24.405  1.00  0.00    -0.504 OA
ATOM     33  H   UNL     1      31.990  48.037 -24.809  1.00  0.00     0.293 HD
ENDBRANCH  22  32
ENDBRANCH  11  12
BRANCH  10  34
ATOM     34  O   UNL     1      40.660  48.722 -25.563  1.00  0.00    -0.507 OA
ATOM     35  H   UNL     1      40.599  47.717 -25.662  1.00  0.00     0.293 HD
ENDBRANCH  10  34
BRANCH   9  36
ATOM     36  C   UNL     1      44.602  52.498 -22.521  1.00  0.00     0.017 C 
ATOM     37  C   UNL     1      43.460  53.512 -22.402  1.00  0.00     0.012 C 
ATOM     38  C   UNL     1      45.071  52.014 -21.136  1.00  0.00     0.012 C 
ENDBRANCH   9  36
BRANCH   6  39
ATOM     39  C   UNL     1      43.159  48.428 -26.472  1.00  0.00     0.264 C 
ATOM     40  O   UNL     1      42.848  48.736 -27.655  1.00  0.00    -0.298 OA
ENDBRANCH   6  39
BRANCH   8  41
ATOM     41  O   UNL     1      46.463  51.409 -24.404  1.00  0.00    -0.504 OA
ATOM     42  H   UNL     1      47.253  50.984 -24.867  1.00  0.00     0.293 HD
ENDBRANCH   8  41
BRANCH   7  43
ATOM     43  O   UNL     1      45.637  49.648 -26.492  1.00  0.00    -0.504 OA
ATOM     44  H   UNL     1      46.543  49.231 -26.344  1.00  0.00     0.293 HD
ENDBRANCH   7  43
TORSDOF 11
ENDMDL
MODEL 7
REMARK VINA RESULT:    -7.639      1.449      8.846
REMARK INTER + INTRA:         -12.198
REMARK INTER:                 -11.342
REMARK INTRA:                  -0.856
REMARK UNBOUND:                -0.987
REMARK SMILES Cc1cc2c(C(C)C)c(O)c(O)c(C=O)c2c(O)c1-c1c(C)cc2c(C(C)C)c(O)c(O)c(C=O)c2c1O
REMARK SMILES IDX 1 1 2 2 3 3 4 4 16 5 13 6 11 7 9 8 5 9 17 10 19 11 20 12
REMARK SMILES IDX 37 13 21 14 36 15 23 16 22 17 24 18 33 19 25 20 31 21 29 22
REMARK SMILES IDX 38 23 34 25 35 26 26 27 27 28 28 29 32 30 30 32 18 34 6 36
REMARK SMILES IDX 7 37 8 38 14 39 15 40 10 41 12 43
REMARK H PARENT 38 24 32 31 30 33 18 35 10 42 12 44
REMARK Flexibility Score: inf
ROOT
ATOM      1  C   UNL     1      42.163  51.241 -26.798  1.00  0.00     0.045 C 
ATOM      2  C   UNL     1      41.050  50.556 -26.042  1.00  0.00    -0.039 A 
ATOM      3  C   UNL     1      39.725  50.785 -26.414  1.00  0.00     0.013 A 
ATOM      4  C   UNL     1      38.645  50.170 -25.743  1.00  0.00    -0.006 A 
ATOM      5  C   UNL     1      38.930  49.179 -24.760  1.00  0.00     0.039 A 
ATOM      6  C   UNL     1      37.861  48.384 -24.253  1.00  0.00     0.072 A 
ATOM      7  C   UNL     1      36.540  48.625 -24.674  1.00  0.00     0.169 A 
ATOM      8  C   UNL     1      36.261  49.653 -25.596  1.00  0.00     0.162 A 
ATOM      9  C   UNL     1      37.293  50.500 -26.059  1.00  0.00     0.008 A 
ATOM     10  C   UNL     1      40.272  49.039 -24.297  1.00  0.00     0.132 A 
ATOM     11  C   UNL     1      41.324  49.722 -24.944  1.00  0.00     0.031 A 
ENDROOT
BRANCH  11  12
ATOM     12  C   UNL     1      42.724  49.556 -24.472  1.00  0.00     0.031 A 
ATOM     13  C   UNL     1      43.580  48.625 -25.099  1.00  0.00     0.132 A 
ATOM     14  C   UNL     1      43.203  50.356 -23.422  1.00  0.00    -0.039 A 
ATOM     15  C   UNL     1      44.919  48.447 -24.638  1.00  0.00     0.039 A 
ATOM     16  C   UNL     1      44.532  50.237 -23.018  1.00  0.00     0.013 A 
ATOM     17  C   UNL     1      42.317  51.383 -22.758  1.00  0.00     0.045 C 
ATOM     18  C   UNL     1      45.401  49.272 -23.574  1.00  0.00    -0.006 A 
ATOM     19  C   UNL     1      45.813  47.514 -25.242  1.00  0.00     0.072 A 
ATOM     20  C   UNL     1      46.749  49.139 -23.118  1.00  0.00     0.008 A 
ATOM     21  C   UNL     1      47.181  47.540 -24.912  1.00  0.00     0.169 A 
ATOM     22  C   UNL     1      47.647  48.369 -23.888  1.00  0.00     0.162 A 
BRANCH  13  23
ATOM     23  O   UNL     1      43.111  47.906 -26.205  1.00  0.00    -0.507 OA
ATOM     24  H   UNL     1      42.374  47.215 -26.161  1.00  0.00     0.293 HD
ENDBRANCH  13  23
BRANCH  19  25
ATOM     25  C   UNL     1      45.353  46.478 -26.191  1.00  0.00     0.264 C 
ATOM     26  O   UNL     1      45.440  45.258 -25.891  1.00  0.00    -0.298 OA
ENDBRANCH  19  25
BRANCH  20  27
ATOM     27  C   UNL     1      47.247  49.840 -21.841  1.00  0.00     0.017 C 
ATOM     28  C   UNL     1      46.131  49.927 -20.796  1.00  0.00     0.012 C 
ATOM     29  C   UNL     1      47.884  51.219 -22.093  1.00  0.00     0.012 C 
ENDBRANCH  20  27
BRANCH  21  30
ATOM     30  O   UNL     1      48.109  46.722 -25.570  1.00  0.00    -0.504 OA
ATOM     31  H   UNL     1      48.559  45.921 -25.147  1.00  0.00     0.293 HD
ENDBRANCH  21  30
BRANCH  22  32
ATOM     32  O   UNL     1      49.017  48.425 -23.625  1.00  0.00    -0.504 OA
ATOM     33  H   UNL     1      49.579  47.602 -23.444  1.00  0.00     0.293 HD
ENDBRANCH  22  32
ENDBRANCH  11  12
BRANCH  10  34
ATOM     34  O   UNL     1      40.553  48.258 -23.170  1.00  0.00    -0.507 OA
ATOM     35  H   UNL     1      41.392  47.703 -23.063  1.00  0.00     0.293 HD
ENDBRANCH  10  34
BRANCH   9  36
ATOM     36  C   UNL     1      36.945  51.742 -26.899  1.00  0.00     0.017 C 
ATOM     37  C   UNL     1      37.507  53.015 -26.256  1.00  0.00     0.012 C 
ATOM     38  C   UNL     1      37.362  51.627 -28.377  1.00  0.00     0.012 C 
ENDBRANCH   9  36
BRANCH   6  39
ATOM     39  C   UNL     1      38.101  47.207 -23.384  1.00  0.00     0.264 C 
ATOM     40  O   UNL     1      37.810  47.235 -22.158  1.00  0.00    -0.298 OA
ENDBRANCH   6  39
BRANCH   8  41
ATOM     41  O   UNL     1      34.970  49.830 -26.102  1.00  0.00    -0.504 OA
ATOM     42  H   UNL     1      34.393  50.643 -25.941  1.00  0.00     0.293 HD
ENDBRANCH   8  41
BRANCH   7  43
ATOM     43  O   UNL     1      35.520  47.815 -24.159  1.00  0.00    -0.504 OA
ATOM     44  H   UNL     1      34.943  48.053 -23.367  1.00  0.00     0.293 HD
ENDBRANCH   7  43
TORSDOF 11
ENDMDL
MODEL 8
REMARK VINA RESULT:    -7.609      2.321      9.144
REMARK INTER + INTRA:         -12.155
REMARK INTER:                 -11.269
REMARK INTRA:                  -0.886
REMARK UNBOUND:                -0.987
REMARK SMILES Cc1cc2c(C(C)C)c(O)c(O)c(C=O)c2c(O)c1-c1c(C)cc2c(C(C)C)c(O)c(O)c(C=O)c2c1O
REMARK SMILES IDX 1 1 2 2 3 3 4 4 16 5 13 6 11 7 9 8 5 9 17 10 19 11 20 12
REMARK SMILES IDX 37 13 21 14 36 15 23 16 22 17 24 18 33 19 25 20 31 21 29 22
REMARK SMILES IDX 38 23 34 25 35 26 26 27 27 28 28 29 32 30 30 32 18 34 6 36
REMARK SMILES IDX 7 37 8 38 14 39 15 40 10 41 12 43
REMARK H PARENT 38 24 32 31 30 33 18 35 10 42 12 44
REMARK Flexibility Score: inf
ROOT
ATOM      1  C   UNL     1      39.518  47.576 -20.990  1.00  0.00     0.045 C 
ATOM      2  C   UNL     1      38.599  48.234 -21.990  1.00  0.00    -0.039 A 
ATOM      3  C   UNL     1      37.271  47.817 -22.079  1.00  0.00     0.013 A 
ATOM      4  C   UNL     1      36.367  48.399 -22.995  1.00  0.00    -0.006 A 
ATOM      5  C   UNL     1      36.789  49.538 -23.739  1.00  0.00     0.039 A 
ATOM      6  C   UNL     1      35.820  50.276 -24.480  1.00  0.00     0.072 A 
ATOM      7  C   UNL     1      34.483  49.840 -24.522  1.00  0.00     0.169 A 
ATOM      8  C   UNL     1      34.089  48.673 -23.839  1.00  0.00     0.162 A 
ATOM      9  C   UNL     1      35.044  47.887 -23.156  1.00  0.00     0.008 A 
ATOM     10  C   UNL     1      38.174  49.881 -23.739  1.00  0.00     0.132 A 
ATOM     11  C   UNL     1      39.068  49.233 -22.860  1.00  0.00     0.031 A 
ENDROOT
BRANCH  11  12
ATOM     12  C   UNL     1      40.507  49.610 -22.848  1.00  0.00     0.031 A 
ATOM     13  C   UNL     1      41.357  49.201 -23.897  1.00  0.00     0.132 A 
ATOM     14  C   UNL     1      41.009  50.403 -21.803  1.00  0.00    -0.039 A 
ATOM     15  C   UNL     1      42.744  49.543 -23.881  1.00  0.00     0.039 A 
ATOM     16  C   UNL     1      42.345  50.801 -21.822  1.00  0.00     0.013 A 
ATOM     17  C   UNL     1      40.111  50.881 -20.687  1.00  0.00     0.045 C 
ATOM     18  C   UNL     1      43.243  50.359 -22.819  1.00  0.00    -0.006 A 
ATOM     19  C   UNL     1      43.636  49.146 -24.921  1.00  0.00     0.072 A 
ATOM     20  C   UNL     1      44.620  50.745 -22.798  1.00  0.00     0.008 A 
ATOM     21  C   UNL     1      44.928  49.699 -24.983  1.00  0.00     0.169 A 
ATOM     22  C   UNL     1      45.399  50.518 -23.952  1.00  0.00     0.162 A 
BRANCH  13  23
ATOM     23  O   UNL     1      40.816  48.492 -24.976  1.00  0.00    -0.507 OA
ATOM     24  H   UNL     1      41.369  48.060 -25.704  1.00  0.00     0.293 HD
ENDBRANCH  13  23
BRANCH  19  25
ATOM     25  C   UNL     1      43.270  48.136 -25.936  1.00  0.00     0.264 C 
ATOM     26  O   UNL     1      43.054  48.481 -27.127  1.00  0.00    -0.298 OA
ENDBRANCH  19  25
BRANCH  20  27
ATOM     27  C   UNL     1      45.252  51.431 -21.573  1.00  0.00     0.017 C 
ATOM     28  C   UNL     1      44.881  50.693 -20.283  1.00  0.00     0.012 C 
ATOM     29  C   UNL     1      44.937  52.934 -21.467  1.00  0.00     0.012 C 
ENDBRANCH  20  27
BRANCH  21  30
ATOM     30  O   UNL     1      45.791  49.428 -26.053  1.00  0.00    -0.504 OA
ATOM     31  H   UNL     1      45.555  48.832 -26.835  1.00  0.00     0.293 HD
ENDBRANCH  21  30
BRANCH  22  32
ATOM     32  O   UNL     1      46.660  51.107 -24.069  1.00  0.00    -0.504 OA
ATOM     33  H   UNL     1      47.015  51.484 -24.940  1.00  0.00     0.293 HD
ENDBRANCH  22  32
ENDBRANCH  11  12
BRANCH  10  34
ATOM     34  O   UNL     1      38.666  50.833 -24.639  1.00  0.00    -0.507 OA
ATOM     35  H   UNL     1      39.368  50.636 -25.341  1.00  0.00     0.293 HD
ENDBRANCH  10  34
BRANCH   9  36
ATOM     36  C   UNL     1      34.641  46.512 -22.592  1.00  0.00     0.017 C 
ATOM     37  C   UNL     1      33.881  46.662 -21.270  1.00  0.00     0.012 C 
ATOM     38  C   UNL     1      33.863  45.636 -23.592  1.00  0.00     0.012 C 
ENDBRANCH   9  36
BRANCH   6  39
ATOM     39  C   UNL     1      36.140  51.578 -25.112  1.00  0.00     0.264 C 
ATOM     40  O   UNL     1      36.255  51.682 -26.363  1.00  0.00    -0.298 OA
ENDBRANCH   6  39
BRANCH   8  41
ATOM     41  O   UNL     1      32.745  48.293 -23.786  1.00  0.00    -0.504 OA
ATOM     42  H   UNL     1      32.411  47.341 -23.831  1.00  0.00     0.293 HD
ENDBRANCH   8  41
BRANCH   7  43
ATOM     43  O   UNL     1      33.560  50.599 -25.254  1.00  0.00    -0.504 OA
ATOM     44  H   UNL     1      33.121  51.445 -24.923  1.00  0.00     0.293 HD
ENDBRANCH   7  43
TORSDOF 11
ENDMDL
MODEL 9
REMARK VINA RESULT:    -7.519      1.693      8.854
REMARK INTER + INTRA:         -12.023
REMARK INTER:                 -10.900
REMARK INTRA:                  -1.123
REMARK UNBOUND:                -0.987
REMARK SMILES Cc1cc2c(C(C)C)c(O)c(O)c(C=O)c2c(O)c1-c1c(C)cc2c(C(C)C)c(O)c(O)c(C=O)c2c1O
REMARK SMILES IDX 1 1 2 2 3 3 4 4 16 5 13 6 11 7 9 8 5 9 17 10 19 11 20 12
REMARK SMILES IDX 37 13 21 14 36 15 23 16 22 17 24 18 33 19 25 20 31 21 29 22
REMARK SMILES IDX 38 23 34 25 35 26 26 27 27 28 28 29 32 30 30 32 18 34 6 36
REMARK SMILES IDX 7 37 8 38 14 39 15 40 10 41 12 43
REMARK H PARENT 38 24 32 31 30 33 18 35 10 42 12 44
REMARK Flexibility Score: inf
ROOT
ATOM      1  C   UNL     1      39.658  47.049 -23.330  1.00  0.00     0.045 C 
ATOM      2  C   UNL     1      38.952  48.198 -24.009  1.00  0.00    -0.039 A 
ATOM      3  C   UNL     1      37.558  48.206 -24.071  1.00  0.00     0.013 A 
ATOM      4  C   UNL     1      36.846  49.255 -24.691  1.00  0.00    -0.006 A 
ATOM      5  C   UNL     1      37.568  50.401 -25.133  1.00  0.00     0.039 A 
ATOM      6  C   UNL     1      36.843  51.560 -25.537  1.00  0.00     0.072 A 
ATOM      7  C   UNL     1      35.436  51.540 -25.558  1.00  0.00     0.169 A 
ATOM      8  C   UNL     1      34.732  50.379 -25.184  1.00  0.00     0.162 A 
ATOM      9  C   UNL     1      35.428  49.197 -24.848  1.00  0.00     0.008 A 
ATOM     10  C   UNL     1      38.992  50.336 -25.183  1.00  0.00     0.132 A 
ATOM     11  C   UNL     1      39.675  49.239 -24.615  1.00  0.00     0.031 A 
ENDROOT
BRANCH  11  12
ATOM     12  C   UNL     1      41.161  49.185 -24.650  1.00  0.00     0.031 A 
ATOM     13  C   UNL     1      41.913  49.587 -23.525  1.00  0.00     0.132 A 
ATOM     14  C   UNL     1      41.813  48.699 -25.795  1.00  0.00    -0.039 A 
ATOM     15  C   UNL     1      43.340  49.556 -23.558  1.00  0.00     0.039 A 
ATOM     16  C   UNL     1      43.203  48.598 -25.804  1.00  0.00     0.013 A 
ATOM     17  C   UNL     1      41.029  48.231 -26.998  1.00  0.00     0.045 C 
ATOM     18  C   UNL     1      43.994  49.052 -24.725  1.00  0.00    -0.006 A 
ATOM     19  C   UNL     1      44.134  49.958 -22.444  1.00  0.00     0.072 A 
ATOM     20  C   UNL     1      45.421  48.976 -24.770  1.00  0.00     0.008 A 
ATOM     21  C   UNL     1      45.516  49.691 -22.437  1.00  0.00     0.169 A 
ATOM     22  C   UNL     1      46.143  49.172 -23.574  1.00  0.00     0.162 A 
BRANCH  13  23
ATOM     23  O   UNL     1      41.241  49.978 -22.361  1.00  0.00    -0.507 OA
ATOM     24  H   UNL     1      40.413  49.519 -22.003  1.00  0.00     0.293 HD
ENDBRANCH  13  23
BRANCH  19  25
ATOM     25  C   UNL     1      43.569  50.687 -21.290  1.00  0.00     0.264 C 
ATOM     26  O   UNL     1      43.399  50.100 -20.188  1.00  0.00    -0.298 OA
ENDBRANCH  19  25
BRANCH  20  27
ATOM     27  C   UNL     1      46.176  48.652 -26.073  1.00  0.00     0.017 C 
ATOM     28  C   UNL     1      45.548  49.383 -27.263  1.00  0.00     0.012 C 
ATOM     29  C   UNL     1      46.318  47.145 -26.353  1.00  0.00     0.012 C 
ENDBRANCH  20  27
BRANCH  21  30
ATOM     30  O   UNL     1      46.309  49.961 -21.314  1.00  0.00    -0.504 OA
ATOM     31  H   UNL     1      46.479  49.301 -20.568  1.00  0.00     0.293 HD
ENDBRANCH  21  30
BRANCH  22  32
ATOM     32  O   UNL     1      47.502  48.855 -23.520  1.00  0.00    -0.504 OA
ATOM     33  H   UNL     1      47.887  48.182 -22.867  1.00  0.00     0.293 HD
ENDBRANCH  22  32
ENDBRANCH  11  12
BRANCH  10  34
ATOM     34  O   UNL     1      39.723  51.336 -25.834  1.00  0.00    -0.507 OA
ATOM     35  H   UNL     1      40.666  51.212 -26.178  1.00  0.00     0.293 HD
ENDBRANCH  10  34
BRANCH   9  36
ATOM     36  C   UNL     1      34.652  47.883 -24.644  1.00  0.00     0.017 C 
ATOM     37  C   UNL     1      33.943  47.868 -23.286  1.00  0.00     0.012 C 
ATOM     38  C   UNL     1      33.677  47.556 -25.791  1.00  0.00     0.012 C 
ENDBRANCH   9  36
BRANCH   6  39
ATOM     39  C   UNL     1      37.517  52.850 -25.816  1.00  0.00     0.264 C 
ATOM     40  O   UNL     1      37.730  53.229 -27.000  1.00  0.00    -0.298 OA
ENDBRANCH   6  39
BRANCH   8  41
ATOM     41  O   UNL     1      33.336  50.384 -25.098  1.00  0.00    -0.504 OA
ATOM     42  H   UNL     1      32.810  50.278 -24.243  1.00  0.00     0.293 HD
ENDBRANCH   8  41
BRANCH   7  43
ATOM     43  O   UNL     1      34.762  52.704 -25.952  1.00  0.00    -0.504 OA
ATOM     44  H   UNL     1      35.212  53.549 -26.268  1.00  0.00     0.293 HD
ENDBRANCH   7  43
TORSDOF 11
ENDMDL
