MODEL 1
REMARK VINA RESULT:    -4.281      0.000      0.000
REMARK INTER + INTRA:          -6.239
REMARK INTER:                  -5.783
REMARK INTRA:                  -0.456
REMARK UNBOUND:                -0.456
REMARK SMILES [NH3+]CCCC[C@@H]([NH3+])C(=O)[O-]
REMARK SMILES IDX 4 1 3 2 2 3 1 4 5 8 6 9 7 10 8 14 9 15 10 16
REMARK H PARENT 1 5 1 6 1 7 7 11 7 12 7 13
REMARK Flexibility Score: inf
ROOT
ATOM      1  C   UNL     1      -0.723  35.729  25.457  1.00  0.00     0.012 C 
ENDROOT
BRANCH   1   2
ATOM      2  C   UNL     1      -0.365  35.767  23.956  1.00  0.00     0.061 C 
BRANCH   2   3
ATOM      3  C   UNL     1      -0.319  34.375  23.300  1.00  0.00     0.258 C 
BRANCH   3   4
ATOM      4  N   UNL     1       1.043  33.967  22.955  1.00  0.00    -0.358 N 
ATOM      5  H   UNL     1       1.147  32.932  23.062  1.00  0.00     0.344 HD
ATOM      6  H   UNL     1       1.274  34.255  21.978  1.00  0.00     0.344 HD
ATOM      7  H   UNL     1       1.713  34.432  23.610  1.00  0.00     0.344 HD
ENDBRANCH   3   4
ENDBRANCH   2   3
ENDBRANCH   1   2
BRANCH   1   8
ATOM      8  C   UNL     1       0.390  36.328  26.336  1.00  0.00     0.072 C 
BRANCH   8   9
ATOM      9  C   UNL     1       1.755  36.377  25.614  1.00  0.00     0.227 C 
BRANCH   9  10
ATOM     10  N   UNL     1       2.506  37.594  25.952  1.00  0.00    -0.350 N 
ATOM     11  H   UNL     1       1.864  38.342  26.305  1.00  0.00     0.345 HD
ATOM     12  H   UNL     1       3.018  37.946  25.111  1.00  0.00     0.345 HD
ATOM     13  H   UNL     1       3.219  37.381  26.687  1.00  0.00     0.345 HD
ENDBRANCH   9  10
BRANCH   9  14
ATOM     14  C   UNL     1       2.560  35.154  25.967  1.00  0.00     0.099 C 
ATOM     15  O   UNL     1       2.503  34.665  27.127  1.00  0.00    -0.544 OA
ATOM     16  O   UNL     1       3.353  34.544  25.005  1.00  0.00    -0.544 OA
ENDBRANCH   9  14
ENDBRANCH   8   9
ENDBRANCH   1   8
TORSDOF 7
ENDMDL
MODEL 2
REMARK VINA RESULT:    -4.025      2.759      3.502
REMARK INTER + INTRA:          -5.893
REMARK INTER:                  -5.666
REMARK INTRA:                  -0.226
REMARK UNBOUND:                -0.456
REMARK SMILES [NH3+]CCCC[C@@H]([NH3+])C(=O)[O-]
REMARK SMILES IDX 4 1 3 2 2 3 1 4 5 8 6 9 7 10 8 14 9 15 10 16
REMARK H PARENT 1 5 1 6 1 7 7 11 7 12 7 13
REMARK Flexibility Score: inf
ROOT
ATOM      1  C   UNL     1       1.597  36.995  25.908  1.00  0.00     0.012 C 
ENDROOT
BRANCH   1   2
ATOM      2  C   UNL     1       3.023  36.404  25.924  1.00  0.00     0.061 C 
BRANCH   2   3
ATOM      3  C   UNL     1       3.050  34.871  26.064  1.00  0.00     0.258 C 
BRANCH   3   4
ATOM      4  N   UNL     1       3.411  34.204  24.813  1.00  0.00    -0.358 N 
ATOM      5  H   UNL     1       2.598  33.656  24.448  1.00  0.00     0.344 HD
ATOM      6  H   UNL     1       3.723  34.904  24.103  1.00  0.00     0.344 HD
ATOM      7  H   UNL     1       4.196  33.539  24.997  1.00  0.00     0.344 HD
ENDBRANCH   3   4
ENDBRANCH   2   3
ENDBRANCH   1   2
BRANCH   1   8
ATOM      8  C   UNL     1       0.817  36.667  27.192  1.00  0.00     0.072 C 
BRANCH   8   9
ATOM      9  C   UNL     1      -0.407  35.762  26.930  1.00  0.00     0.227 C 
BRANCH   9  10
ATOM     10  N   UNL     1      -0.441  35.278  25.542  1.00  0.00    -0.350 N 
ATOM     11  H   UNL     1      -0.051  35.997  24.888  1.00  0.00     0.345 HD
ATOM     12  H   UNL     1      -1.422  35.053  25.264  1.00  0.00     0.345 HD
ATOM     13  H   UNL     1       0.121  34.399  25.458  1.00  0.00     0.345 HD
ENDBRANCH   9  10
BRANCH   9  14
ATOM     14  C   UNL     1      -0.392  34.599  27.886  1.00  0.00     0.099 C 
ATOM     15  O   UNL     1      -1.406  33.860  28.008  1.00  0.00    -0.544 OA
ATOM     16  O   UNL     1       0.751  34.320  28.622  1.00  0.00    -0.544 OA
ENDBRANCH   9  14
ENDBRANCH   8   9
ENDBRANCH   1   8
TORSDOF 7
ENDMDL
MODEL 3
REMARK VINA RESULT:    -4.024      2.950      3.879
REMARK INTER + INTRA:          -5.892
REMARK INTER:                  -5.725
REMARK INTRA:                  -0.167
REMARK UNBOUND:                -0.456
REMARK SMILES [NH3+]CCCC[C@@H]([NH3+])C(=O)[O-]
REMARK SMILES IDX 4 1 3 2 2 3 1 4 5 8 6 9 7 10 8 14 9 15 10 16
REMARK H PARENT 1 5 1 6 1 7 7 11 7 12 7 13
REMARK Flexibility Score: inf
ROOT
ATOM      1  C   UNL     1       1.748  37.175  26.316  1.00  0.00     0.012 C 
ENDROOT
BRANCH   1   2
ATOM      2  C   UNL     1       3.036  36.431  25.901  1.00  0.00     0.061 C 
BRANCH   2   3
ATOM      3  C   UNL     1       2.971  34.911  26.140  1.00  0.00     0.258 C 
BRANCH   3   4
ATOM      4  N   UNL     1       3.345  34.144  24.952  1.00  0.00    -0.358 N 
ATOM      5  H   UNL     1       4.319  34.384  24.659  1.00  0.00     0.344 HD
ATOM      6  H   UNL     1       3.265  33.119  25.139  1.00  0.00     0.344 HD
ATOM      7  H   UNL     1       2.698  34.394  24.169  1.00  0.00     0.344 HD
ENDBRANCH   3   4
ENDBRANCH   2   3
ENDBRANCH   1   2
BRANCH   1   8
ATOM      8  C   UNL     1       0.786  36.273  27.108  1.00  0.00     0.072 C 
BRANCH   8   9
ATOM      9  C   UNL     1      -0.559  36.053  26.380  1.00  0.00     0.227 C 
BRANCH   9  10
ATOM     10  N   UNL     1      -0.389  35.275  25.144  1.00  0.00    -0.350 N 
ATOM     11  H   UNL     1       0.613  35.272  24.841  1.00  0.00     0.345 HD
ATOM     12  H   UNL     1      -0.980  35.678  24.382  1.00  0.00     0.345 HD
ATOM     13  H   UNL     1      -0.703  34.289  25.298  1.00  0.00     0.345 HD
ENDBRANCH   9  10
BRANCH   9  14
ATOM     14  C   UNL     1      -1.528  35.361  27.301  1.00  0.00     0.099 C 
ATOM     15  O   UNL     1      -2.689  35.822  27.469  1.00  0.00    -0.544 OA
ATOM     16  O   UNL     1      -1.153  34.195  27.954  1.00  0.00    -0.544 OA
ENDBRANCH   9  14
ENDBRANCH   8   9
ENDBRANCH   1   8
TORSDOF 7
ENDMDL
MODEL 4
REMARK VINA RESULT:    -3.940     13.586     14.025
REMARK INTER + INTRA:          -5.779
REMARK INTER:                  -5.250
REMARK INTRA:                  -0.529
REMARK UNBOUND:                -0.456
REMARK SMILES [NH3+]CCCC[C@@H]([NH3+])C(=O)[O-]
REMARK SMILES IDX 4 1 3 2 2 3 1 4 5 8 6 9 7 10 8 14 9 15 10 16
REMARK H PARENT 1 5 1 6 1 7 7 11 7 12 7 13
REMARK Flexibility Score: inf
ROOT
ATOM      1  C   UNL     1      -2.294  26.518  36.506  1.00  0.00     0.012 C 
ENDROOT
BRANCH   1   2
ATOM      2  C   UNL     1      -2.635  26.324  35.013  1.00  0.00     0.061 C 
BRANCH   2   3
ATOM      3  C   UNL     1      -3.025  24.879  34.655  1.00  0.00     0.258 C 
BRANCH   3   4
ATOM      4  N   UNL     1      -1.861  24.046  34.354  1.00  0.00    -0.358 N 
ATOM      5  H   UNL     1      -1.086  24.634  33.970  1.00  0.00     0.344 HD
ATOM      6  H   UNL     1      -1.541  23.542  35.212  1.00  0.00     0.344 HD
ATOM      7  H   UNL     1      -2.126  23.340  33.630  1.00  0.00     0.344 HD
ENDBRANCH   3   4
ENDBRANCH   2   3
ENDBRANCH   1   2
BRANCH   1   8
ATOM      8  C   UNL     1      -1.001  27.328  36.706  1.00  0.00     0.072 C 
BRANCH   8   9
ATOM      9  C   UNL     1      -0.062  27.262  35.481  1.00  0.00     0.227 C 
BRANCH   9  10
ATOM     10  N   UNL     1       0.525  28.574  35.172  1.00  0.00    -0.350 N 
ATOM     11  H   UNL     1       0.106  28.973  34.299  1.00  0.00     0.345 HD
ATOM     12  H   UNL     1       1.559  28.486  35.051  1.00  0.00     0.345 HD
ATOM     13  H   UNL     1       0.356  29.236  35.965  1.00  0.00     0.345 HD
ENDBRANCH   9  10
BRANCH   9  14
ATOM     14  C   UNL     1       1.025  26.251  35.728  1.00  0.00     0.099 C 
ATOM     15  O   UNL     1       2.155  26.618  36.150  1.00  0.00    -0.544 OA
ATOM     16  O   UNL     1       0.780  24.901  35.513  1.00  0.00    -0.544 OA
ENDBRANCH   9  14
ENDBRANCH   8   9
ENDBRANCH   1   8
TORSDOF 7
ENDMDL
MODEL 5
REMARK VINA RESULT:    -3.923      2.579      3.473
REMARK INTER + INTRA:          -5.756
REMARK INTER:                  -5.308
REMARK INTRA:                  -0.448
REMARK UNBOUND:                -0.456
REMARK SMILES [NH3+]CCCC[C@@H]([NH3+])C(=O)[O-]
REMARK SMILES IDX 4 1 3 2 2 3 1 4 5 8 6 9 7 10 8 14 9 15 10 16
REMARK H PARENT 1 5 1 6 1 7 7 11 7 12 7 13
REMARK Flexibility Score: inf
ROOT
ATOM      1  C   UNL     1       1.124  36.198  25.454  1.00  0.00     0.012 C 
ENDROOT
BRANCH   1   2
ATOM      2  C   UNL     1       1.701  34.996  24.674  1.00  0.00     0.061 C 
BRANCH   2   3
ATOM      3  C   UNL     1       3.120  34.599  25.121  1.00  0.00     0.258 C 
BRANCH   3   4
ATOM      4  N   UNL     1       3.374  34.928  26.523  1.00  0.00    -0.358 N 
ATOM      5  H   UNL     1       4.310  35.384  26.623  1.00  0.00     0.344 HD
ATOM      6  H   UNL     1       2.625  35.556  26.893  1.00  0.00     0.344 HD
ATOM      7  H   UNL     1       3.380  34.046  27.084  1.00  0.00     0.344 HD
ENDBRANCH   3   4
ENDBRANCH   2   3
ENDBRANCH   1   2
BRANCH   1   8
ATOM      8  C   UNL     1      -0.286  35.913  25.999  1.00  0.00     0.072 C 
BRANCH   8   9
ATOM      9  C   UNL     1      -0.293  35.645  27.520  1.00  0.00     0.227 C 
BRANCH   9  10
ATOM     10  N   UNL     1       0.100  34.263  27.833  1.00  0.00    -0.350 N 
ATOM     11  H   UNL     1       0.838  33.927  27.170  1.00  0.00     0.345 HD
ATOM     12  H   UNL     1      -0.730  33.631  27.775  1.00  0.00     0.345 HD
ATOM     13  H   UNL     1       0.470  34.210  28.810  1.00  0.00     0.345 HD
ENDBRANCH   9  10
BRANCH   9  14
ATOM     14  C   UNL     1       0.627  36.616  28.211  1.00  0.00     0.099 C 
ATOM     15  O   UNL     1       1.675  36.208  28.781  1.00  0.00    -0.544 OA
ATOM     16  O   UNL     1       0.336  37.973  28.202  1.00  0.00    -0.544 OA
ENDBRANCH   9  14
ENDBRANCH   8   9
ENDBRANCH   1   8
TORSDOF 7
ENDMDL
MODEL 6
REMARK VINA RESULT:    -3.892     13.597     14.239
REMARK INTER + INTRA:          -5.714
REMARK INTER:                  -5.127
REMARK INTRA:                  -0.587
REMARK UNBOUND:                -0.456
REMARK SMILES [NH3+]CCCC[C@@H]([NH3+])C(=O)[O-]
REMARK SMILES IDX 4 1 3 2 2 3 1 4 5 8 6 9 7 10 8 14 9 15 10 16
REMARK H PARENT 1 5 1 6 1 7 7 11 7 12 7 13
REMARK Flexibility Score: inf
ROOT
ATOM      1  C   UNL     1      -1.826  27.999  36.529  1.00  0.00     0.012 C 
ENDROOT
BRANCH   1   2
ATOM      2  C   UNL     1      -0.347  28.355  36.267  1.00  0.00     0.061 C 
BRANCH   2   3
ATOM      3  C   UNL     1      -0.021  28.569  34.778  1.00  0.00     0.258 C 
BRANCH   3   4
ATOM      4  N   UNL     1       0.684  27.429  34.193  1.00  0.00    -0.358 N 
ATOM      5  H   UNL     1       1.332  27.754  33.439  1.00  0.00     0.344 HD
ATOM      6  H   UNL     1       1.215  26.912  34.929  1.00  0.00     0.344 HD
ATOM      7  H   UNL     1      -0.015  26.781  33.765  1.00  0.00     0.344 HD
ENDBRANCH   3   4
ENDBRANCH   2   3
ENDBRANCH   1   2
BRANCH   1   8
ATOM      8  C   UNL     1      -2.006  26.527  36.940  1.00  0.00     0.072 C 
BRANCH   8   9
ATOM      9  C   UNL     1      -2.590  25.660  35.803  1.00  0.00     0.227 C 
BRANCH   9  10
ATOM     10  N   UNL     1      -3.158  26.482  34.725  1.00  0.00    -0.350 N 
ATOM     11  H   UNL     1      -3.690  27.294  35.118  1.00  0.00     0.345 HD
ATOM     12  H   UNL     1      -3.795  25.906  34.130  1.00  0.00     0.345 HD
ATOM     13  H   UNL     1      -2.392  26.842  34.110  1.00  0.00     0.345 HD
ENDBRANCH   9  10
BRANCH   9  14
ATOM     14  C   UNL     1      -1.521  24.752  35.256  1.00  0.00     0.099 C 
ATOM     15  O   UNL     1      -1.816  23.833  34.446  1.00  0.00    -0.544 OA
ATOM     16  O   UNL     1      -0.196  24.940  35.626  1.00  0.00    -0.544 OA
ENDBRANCH   9  14
ENDBRANCH   8   9
ENDBRANCH   1   8
TORSDOF 7
ENDMDL
MODEL 7
REMARK VINA RESULT:    -3.890     12.776     13.247
REMARK INTER + INTRA:          -5.710
REMARK INTER:                  -5.527
REMARK INTRA:                  -0.183
REMARK UNBOUND:                -0.456
REMARK SMILES [NH3+]CCCC[C@@H]([NH3+])C(=O)[O-]
REMARK SMILES IDX 4 1 3 2 2 3 1 4 5 8 6 9 7 10 8 14 9 15 10 16
REMARK H PARENT 1 5 1 6 1 7 7 11 7 12 7 13
REMARK Flexibility Score: inf
ROOT
ATOM      1  C   UNL     1      -1.867  26.818  37.029  1.00  0.00     0.012 C 
ENDROOT
BRANCH   1   2
ATOM      2  C   UNL     1      -1.702  25.718  35.958  1.00  0.00     0.061 C 
BRANCH   2   3
ATOM      3  C   UNL     1      -3.033  25.265  35.333  1.00  0.00     0.258 C 
BRANCH   3   4
ATOM      4  N   UNL     1      -2.962  25.176  33.874  1.00  0.00    -0.358 N 
ATOM      5  H   UNL     1      -3.919  25.253  33.460  1.00  0.00     0.344 HD
ATOM      6  H   UNL     1      -2.342  25.926  33.493  1.00  0.00     0.344 HD
ATOM      7  H   UNL     1      -2.565  24.245  33.610  1.00  0.00     0.344 HD
ENDBRANCH   3   4
ENDBRANCH   2   3
ENDBRANCH   1   2
BRANCH   1   8
ATOM      8  C   UNL     1      -1.270  28.163  36.578  1.00  0.00     0.072 C 
BRANCH   8   9
ATOM      9  C   UNL     1      -1.158  28.278  35.042  1.00  0.00     0.227 C 
BRANCH   9  10
ATOM     10  N   UNL     1      -2.017  29.346  34.511  1.00  0.00    -0.350 N 
ATOM     11  H   UNL     1      -1.570  29.805  33.682  1.00  0.00     0.345 HD
ATOM     12  H   UNL     1      -2.197  30.064  35.249  1.00  0.00     0.345 HD
ATOM     13  H   UNL     1      -2.941  28.950  34.223  1.00  0.00     0.345 HD
ENDBRANCH   9  10
BRANCH   9  14
ATOM     14  C   UNL     1       0.277  28.524  34.655  1.00  0.00     0.099 C 
ATOM     15  O   UNL     1       1.200  27.823  35.149  1.00  0.00    -0.544 OA
ATOM     16  O   UNL     1       0.587  29.512  33.731  1.00  0.00    -0.544 OA
ENDBRANCH   9  14
ENDBRANCH   8   9
ENDBRANCH   1   8
TORSDOF 7
ENDMDL
MODEL 8
REMARK VINA RESULT:    -3.889      3.066      3.653
REMARK INTER + INTRA:          -5.709
REMARK INTER:                  -5.548
REMARK INTRA:                  -0.160
REMARK UNBOUND:                -0.456
REMARK SMILES [NH3+]CCCC[C@@H]([NH3+])C(=O)[O-]
REMARK SMILES IDX 4 1 3 2 2 3 1 4 5 8 6 9 7 10 8 14 9 15 10 16
REMARK H PARENT 1 5 1 6 1 7 7 11 7 12 7 13
REMARK Flexibility Score: inf
ROOT
ATOM      1  C   UNL     1       1.713  37.024  26.749  1.00  0.00     0.012 C 
ENDROOT
BRANCH   1   2
ATOM      2  C   UNL     1       1.686  35.957  25.634  1.00  0.00     0.061 C 
BRANCH   2   3
ATOM      3  C   UNL     1       3.071  35.359  25.323  1.00  0.00     0.258 C 
BRANCH   3   4
ATOM      4  N   UNL     1       3.021  33.908  25.137  1.00  0.00    -0.358 N 
ATOM      5  H   UNL     1       2.028  33.584  25.089  1.00  0.00     0.344 HD
ATOM      6  H   UNL     1       3.534  33.635  24.268  1.00  0.00     0.344 HD
ATOM      7  H   UNL     1       3.477  33.445  25.956  1.00  0.00     0.344 HD
ENDBRANCH   3   4
ENDBRANCH   2   3
ENDBRANCH   1   2
BRANCH   1   8
ATOM      8  C   UNL     1       1.008  36.545  28.030  1.00  0.00     0.072 C 
BRANCH   8   9
ATOM      9  C   UNL     1       1.121  35.018  28.235  1.00  0.00     0.227 C 
BRANCH   9  10
ATOM     10  N   UNL     1       2.152  34.675  29.225  1.00  0.00    -0.350 N 
ATOM     11  H   UNL     1       2.726  35.516  29.471  1.00  0.00     0.345 HD
ATOM     12  H   UNL     1       2.778  33.928  28.848  1.00  0.00     0.345 HD
ATOM     13  H   UNL     1       1.703  34.302  30.093  1.00  0.00     0.345 HD
ENDBRANCH   9  10
BRANCH   9  14
ATOM     14  C   UNL     1      -0.212  34.463  28.660  1.00  0.00     0.099 C 
ATOM     15  O   UNL     1      -0.431  34.180  29.869  1.00  0.00    -0.544 OA
ATOM     16  O   UNL     1      -1.219  34.282  27.721  1.00  0.00    -0.544 OA
ENDBRANCH   9  14
ENDBRANCH   8   9
ENDBRANCH   1   8
TORSDOF 7
ENDMDL
MODEL 9
REMARK VINA RESULT:    -3.862      2.539      3.711
REMARK INTER + INTRA:          -5.673
REMARK INTER:                  -5.308
REMARK INTRA:                  -0.365
REMARK UNBOUND:                -0.456
REMARK SMILES [NH3+]CCCC[C@@H]([NH3+])C(=O)[O-]
REMARK SMILES IDX 4 1 3 2 2 3 1 4 5 8 6 9 7 10 8 14 9 15 10 16
REMARK H PARENT 1 5 1 6 1 7 7 11 7 12 7 13
REMARK Flexibility Score: inf
ROOT
ATOM      1  C   UNL     1       1.614  36.929  26.916  1.00  0.00     0.012 C 
ENDROOT
BRANCH   1   2
ATOM      2  C   UNL     1       0.426  37.339  27.813  1.00  0.00     0.061 C 
BRANCH   2   3
ATOM      3  C   UNL     1      -0.726  36.318  27.810  1.00  0.00     0.258 C 
BRANCH   3   4
ATOM      4  N   UNL     1      -1.765  36.653  26.837  1.00  0.00    -0.358 N 
ATOM      5  H   UNL     1      -1.716  37.668  26.592  1.00  0.00     0.344 HD
ATOM      6  H   UNL     1      -1.661  36.068  25.977  1.00  0.00     0.344 HD
ATOM      7  H   UNL     1      -2.702  36.464  27.261  1.00  0.00     0.344 HD
ENDBRANCH   3   4
ENDBRANCH   2   3
ENDBRANCH   1   2
BRANCH   1   8
ATOM      8  C   UNL     1       1.588  35.431  26.566  1.00  0.00     0.072 C 
BRANCH   8   9
ATOM      9  C   UNL     1       2.131  35.142  25.149  1.00  0.00     0.227 C 
BRANCH   9  10
ATOM     10  N   UNL     1       2.960  33.929  25.119  1.00  0.00    -0.350 N 
ATOM     11  H   UNL     1       2.540  33.207  24.487  1.00  0.00     0.345 HD
ATOM     12  H   UNL     1       3.054  33.534  26.082  1.00  0.00     0.345 HD
ATOM     13  H   UNL     1       3.921  34.162  24.778  1.00  0.00     0.345 HD
ENDBRANCH   9  10
BRANCH   9  14
ATOM     14  C   UNL     1       0.984  35.012  24.183  1.00  0.00     0.099 C 
ATOM     15  O   UNL     1       1.073  34.248  23.184  1.00  0.00    -0.544 OA
ATOM     16  O   UNL     1      -0.191  35.719  24.401  1.00  0.00    -0.544 OA
ENDBRANCH   9  14
ENDBRANCH   8   9
ENDBRANCH   1   8
TORSDOF 7
ENDMDL
