MODEL 1
REMARK VINA RESULT:    -4.319      0.000      0.000
REMARK INTER + INTRA:          -6.215
REMARK INTER:                  -6.087
REMARK INTRA:                  -0.128
REMARK UNBOUND:                -0.128
REMARK SMILES CC1=CCC(=C(C)C)C(=O)CC(C)=CCC1
REMARK SMILES IDX 12 1 14 2 13 3 15 4 16 5 2 6 1 7 3 8 11 10 9 11 10 12 5 13
REMARK SMILES IDX 6 14 7 15 8 16 4 17
REMARK H PARENT
REMARK Flexibility Score: 60.00
ROOT
ATOM      1  C   UNL     1     -16.022 -21.579  22.320  1.00  0.00    -0.070 C 
ATOM      2  C   UNL     1     -15.483 -21.428  21.088  1.00  0.00    -0.027 C 
ATOM      3  C   UNL     1     -17.390 -20.998  22.572  1.00  0.00     0.039 C 
ENDROOT
BRANCH   2   4
ATOM      4  C   UNL     1     -14.199 -22.067  20.624  1.00  0.00     0.032 C 
BRANCH   4   5
ATOM      5  C   UNL     1     -13.032 -21.094  20.826  1.00  0.00     0.034 C 
BRANCH   5   6
ATOM      6  C   UNL     1     -11.763 -21.796  21.268  1.00  0.00    -0.077 C 
ATOM      7  C   UNL     1     -10.993 -22.604  20.254  1.00  0.00     0.039 C 
ATOM      8  C   UNL     1     -11.315 -21.799  22.549  1.00  0.00    -0.023 CG0
ATOM      9  G   UNL     1     -11.878 -21.022  23.726  1.00  0.00     0.000 G0
ENDBRANCH   5   6
ENDBRANCH   4   5
ENDBRANCH   2   4
BRANCH   1  10
ATOM     10  C   UNL     1     -15.313 -22.282  23.460  1.00  0.00     0.111 C 
BRANCH  10  11
ATOM     11  C   UNL     1     -14.397 -21.348  24.214  1.00  0.00     0.163 C 
ATOM     12  O   UNL     1     -14.869 -20.227  24.549  1.00  0.00    -0.294 OA
BRANCH  11  13
ATOM     13  C   UNL     1     -12.972 -21.672  24.557  1.00  0.00    -0.002 C 
ATOM     14  C   UNL     1     -12.676 -22.409  25.672  1.00  0.00    -0.069 C 
ATOM     15  C   UNL     1     -13.748 -23.154  26.435  1.00  0.00     0.039 C 
ATOM     16  C   UNL     1     -11.258 -22.561  26.178  1.00  0.00     0.039 C 
BRANCH  13  17
ATOM     17  C   UNL     1     -11.873 -21.009  23.734  1.00  0.00     0.066 CG0
ATOM     18  G   UNL     1     -11.325 -21.810  22.567  1.00  0.00     0.000 G0
ENDBRANCH  13  17
ENDBRANCH  11  13
ENDBRANCH  10  11
ENDBRANCH   1  10
TORSDOF 0
ENDMDL
MODEL 2
REMARK VINA RESULT:    -4.126      2.776      5.064
REMARK INTER + INTRA:          -5.942
REMARK INTER:                  -5.952
REMARK INTRA:                   0.010
REMARK UNBOUND:                -0.128
REMARK SMILES CC1=CCC(=C(C)C)C(=O)CC(C)=CCC1
REMARK SMILES IDX 12 1 14 2 13 3 15 4 16 5 2 6 1 7 3 8 11 10 9 11 10 12 5 13
REMARK SMILES IDX 6 14 7 15 8 16 4 17
REMARK H PARENT
REMARK Flexibility Score: 60.00
ROOT
ATOM      1  C   UNL     1     -10.120 -21.663  19.242  1.00  0.00    -0.070 C 
ATOM      2  C   UNL     1     -11.069 -22.626  19.290  1.00  0.00    -0.027 C 
ATOM      3  C   UNL     1      -8.904 -21.907  18.386  1.00  0.00     0.039 C 
ENDROOT
BRANCH   2   4
ATOM      4  C   UNL     1     -12.405 -22.488  19.974  1.00  0.00     0.032 C 
BRANCH   4   5
ATOM      5  C   UNL     1     -12.249 -22.742  21.477  1.00  0.00     0.034 C 
BRANCH   5   6
ATOM      6  C   UNL     1     -13.014 -21.738  22.317  1.00  0.00    -0.077 C 
ATOM      7  C   UNL     1     -14.514 -21.669  22.172  1.00  0.00     0.039 C 
ATOM      8  C   UNL     1     -12.418 -20.841  23.143  1.00  0.00    -0.023 CG0
ATOM      9  G   UNL     1     -10.944 -20.749  23.497  1.00  0.00     0.000 G0
ENDBRANCH   5   6
ENDBRANCH   4   5
ENDBRANCH   2   4
BRANCH   1  10
ATOM     10  C   UNL     1     -10.208 -20.366  20.021  1.00  0.00     0.111 C 
BRANCH  10  11
ATOM     11  C   UNL     1      -9.521 -20.466  21.362  1.00  0.00     0.163 C 
ATOM     12  O   UNL     1      -8.439 -21.112  21.406  1.00  0.00    -0.294 OA
BRANCH  11  13
ATOM     13  C   UNL     1     -10.066 -19.868  22.626  1.00  0.00    -0.002 C 
ATOM     14  C   UNL     1      -9.654 -18.631  23.044  1.00  0.00    -0.069 C 
ATOM     15  C   UNL     1      -8.872 -17.710  22.134  1.00  0.00     0.039 C 
ATOM     16  C   UNL     1      -9.996 -18.094  24.416  1.00  0.00     0.039 C 
BRANCH  13  17
ATOM     17  C   UNL     1     -10.942 -20.748  23.511  1.00  0.00     0.066 CG0
ATOM     18  G   UNL     1     -12.413 -20.827  23.142  1.00  0.00     0.000 G0
ENDBRANCH  13  17
ENDBRANCH  11  13
ENDBRANCH  10  11
ENDBRANCH   1  10
TORSDOF 0
ENDMDL
MODEL 3
REMARK VINA RESULT:    -4.107      1.817      3.890
REMARK INTER + INTRA:          -5.916
REMARK INTER:                  -6.105
REMARK INTRA:                   0.188
REMARK UNBOUND:                -0.128
REMARK SMILES CC1=CCC(=C(C)C)C(=O)CC(C)=CCC1
REMARK SMILES IDX 12 1 14 2 13 3 15 4 16 5 2 6 1 7 3 8 11 10 9 11 10 12 5 13
REMARK SMILES IDX 6 14 7 15 8 16 4 17
REMARK H PARENT
REMARK Flexibility Score: 60.00
ROOT
ATOM      1  C   UNL     1     -13.049 -21.831  20.493  1.00  0.00    -0.070 C 
ATOM      2  C   UNL     1     -14.393 -21.982  20.539  1.00  0.00    -0.027 C 
ATOM      3  C   UNL     1     -12.256 -22.786  19.637  1.00  0.00     0.039 C 
ENDROOT
BRANCH   2   4
ATOM      4  C   UNL     1     -15.345 -21.034  21.220  1.00  0.00     0.032 C 
BRANCH   4   5
ATOM      5  C   UNL     1     -16.086 -21.762  22.347  1.00  0.00     0.034 C 
BRANCH   5   6
ATOM      6  C   UNL     1     -15.624 -21.323  23.723  1.00  0.00    -0.077 C 
ATOM      7  C   UNL     1     -16.384 -20.225  24.424  1.00  0.00     0.039 C 
ATOM      8  C   UNL     1     -14.515 -21.812  24.334  1.00  0.00    -0.023 CG0
ATOM      9  G   UNL     1     -13.627 -22.949  23.861  1.00  0.00     0.000 G0
ENDBRANCH   5   6
ENDBRANCH   4   5
ENDBRANCH   2   4
BRANCH   1  10
ATOM     10  C   UNL     1     -12.303 -20.767  21.272  1.00  0.00     0.111 C 
BRANCH  10  11
ATOM     11  C   UNL     1     -12.104 -21.162  22.715  1.00  0.00     0.163 C 
ATOM     12  O   UNL     1     -11.760 -20.251  23.518  1.00  0.00    -0.294 OA
BRANCH  11  13
ATOM     13  C   UNL     1     -12.267 -22.563  23.228  1.00  0.00    -0.002 C 
ATOM     14  C   UNL     1     -11.298 -23.503  23.003  1.00  0.00    -0.069 C 
ATOM     15  C   UNL     1      -9.928 -23.118  22.493  1.00  0.00     0.039 C 
ATOM     16  C   UNL     1     -11.522 -24.970  23.295  1.00  0.00     0.039 C 
BRANCH  13  17
ATOM     17  C   UNL     1     -13.611 -22.945  23.840  1.00  0.00     0.066 CG0
ATOM     18  G   UNL     1     -14.489 -21.800  24.312  1.00  0.00     0.000 G0
ENDBRANCH  13  17
ENDBRANCH  11  13
ENDBRANCH  10  11
ENDBRANCH   1  10
TORSDOF 0
ENDMDL
MODEL 4
REMARK VINA RESULT:    -3.926      2.540      5.115
REMARK INTER + INTRA:          -5.661
REMARK INTER:                  -5.610
REMARK INTRA:                  -0.051
REMARK UNBOUND:                -0.128
REMARK SMILES CC1=CCC(=C(C)C)C(=O)CC(C)=CCC1
REMARK SMILES IDX 12 1 14 2 13 3 15 4 16 5 2 6 1 7 3 8 11 10 9 11 10 12 5 13
REMARK SMILES IDX 6 14 7 15 8 16 4 17
REMARK H PARENT
REMARK Flexibility Score: 60.00
ROOT
ATOM      1  C   UNL     1     -13.149 -21.262  21.858  1.00  0.00    -0.070 C 
ATOM      2  C   UNL     1     -12.850 -21.208  23.176  1.00  0.00    -0.027 C 
ATOM      3  C   UNL     1     -14.525 -21.729  21.460  1.00  0.00     0.039 C 
ENDROOT
BRANCH   2   4
ATOM      4  C   UNL     1     -11.583 -20.630  23.752  1.00  0.00     0.032 C 
BRANCH   4   5
ATOM      5  C   UNL     1     -10.607 -21.760  24.098  1.00  0.00     0.034 C 
BRANCH   5   6
ATOM      6  C   UNL     1      -9.207 -21.495  23.578  1.00  0.00    -0.077 C 
ATOM      7  C   UNL     1      -8.307 -20.574  24.363  1.00  0.00     0.039 C 
ATOM      8  C   UNL     1      -8.738 -21.984  22.402  1.00  0.00    -0.023 CG0
ATOM      9  G   UNL     1      -9.425 -22.969  21.473  1.00  0.00     0.000 G0
ENDBRANCH   5   6
ENDBRANCH   4   5
ENDBRANCH   2   4
BRANCH   1  10
ATOM     10  C   UNL     1     -12.165 -20.896  20.764  1.00  0.00     0.111 C 
BRANCH  10  11
ATOM     11  C   UNL     1     -11.498 -22.116  20.177  1.00  0.00     0.163 C 
ATOM     12  O   UNL     1     -12.249 -22.989  19.660  1.00  0.00    -0.294 OA
BRANCH  11  13
ATOM     13  C   UNL     1     -10.015 -22.350  20.199  1.00  0.00    -0.002 C 
ATOM     14  C   UNL     1      -9.269 -22.187  19.063  1.00  0.00    -0.069 C 
ATOM     15  C   UNL     1      -9.834 -21.506  17.837  1.00  0.00     0.039 C 
ATOM     16  C   UNL     1      -7.825 -22.631  18.983  1.00  0.00     0.039 C 
BRANCH  13  17
ATOM     17  C   UNL     1      -9.406 -22.943  21.465  1.00  0.00     0.066 CG0
ATOM     18  G   UNL     1      -8.729 -21.967  22.411  1.00  0.00     0.000 G0
ENDBRANCH  13  17
ENDBRANCH  11  13
ENDBRANCH  10  11
ENDBRANCH   1  10
TORSDOF 0
ENDMDL
MODEL 5
REMARK VINA RESULT:    -3.884      2.119      3.957
REMARK INTER + INTRA:          -5.602
REMARK INTER:                  -5.720
REMARK INTRA:                   0.118
REMARK UNBOUND:                -0.128
REMARK SMILES CC1=CCC(=C(C)C)C(=O)CC(C)=CCC1
REMARK SMILES IDX 12 1 14 2 13 3 15 4 16 5 2 6 1 7 3 8 11 10 9 11 10 12 5 13
REMARK SMILES IDX 6 14 7 15 8 16 4 17
REMARK H PARENT
REMARK Flexibility Score: 60.00
ROOT
ATOM      1  C   UNL     1     -11.021 -20.749  23.509  1.00  0.00    -0.070 C 
ATOM      2  C   UNL     1     -10.353 -19.966  22.631  1.00  0.00    -0.027 C 
ATOM      3  C   UNL     1     -11.957 -20.083  24.485  1.00  0.00     0.039 C 
ENDROOT
BRANCH   2   4
ATOM      4  C   UNL     1      -9.497 -20.474  21.499  1.00  0.00     0.032 C 
BRANCH   4   5
ATOM      5  C   UNL     1     -10.287 -20.425  20.187  1.00  0.00     0.034 C 
BRANCH   5   6
ATOM      6  C   UNL     1     -10.739 -21.798  19.731  1.00  0.00    -0.077 C 
ATOM      7  C   UNL     1      -9.802 -22.622  18.883  1.00  0.00     0.039 C 
ATOM      8  C   UNL     1     -11.974 -22.303  19.980  1.00  0.00    -0.023 CG0
ATOM      9  G   UNL     1     -13.062 -21.696  20.847  1.00  0.00     0.000 G0
ENDBRANCH   5   6
ENDBRANCH   4   5
ENDBRANCH   2   4
BRANCH   1  10
ATOM     10  C   UNL     1     -10.861 -22.255  23.573  1.00  0.00     0.111 C 
BRANCH  10  11
ATOM     11  C   UNL     1     -11.976 -22.972  22.851  1.00  0.00     0.163 C 
ATOM     12  O   UNL     1     -11.864 -24.221  22.717  1.00  0.00    -0.294 OA
BRANCH  11  13
ATOM     13  C   UNL     1     -13.177 -22.280  22.274  1.00  0.00    -0.002 C 
ATOM     14  C   UNL     1     -14.376 -22.304  22.933  1.00  0.00    -0.069 C 
ATOM     15  C   UNL     1     -14.480 -22.767  24.369  1.00  0.00     0.039 C 
ATOM     16  C   UNL     1     -15.657 -21.825  22.285  1.00  0.00     0.039 C 
BRANCH  13  17
ATOM     17  C   UNL     1     -13.064 -21.715  20.862  1.00  0.00     0.066 CG0
ATOM     18  G   UNL     1     -11.966 -22.294  19.988  1.00  0.00     0.000 G0
ENDBRANCH  13  17
ENDBRANCH  11  13
ENDBRANCH  10  11
ENDBRANCH   1  10
TORSDOF 0
ENDMDL
MODEL 6
REMARK VINA RESULT:    -3.864      1.515      3.869
REMARK INTER + INTRA:          -5.573
REMARK INTER:                  -6.093
REMARK INTRA:                   0.521
REMARK UNBOUND:                -0.128
REMARK SMILES CC1=CCC(=C(C)C)C(=O)CC(C)=CCC1
REMARK SMILES IDX 12 1 14 2 13 3 15 4 16 5 2 6 1 7 3 8 11 10 9 11 10 12 5 13
REMARK SMILES IDX 6 14 7 15 8 16 4 17
REMARK H PARENT
REMARK Flexibility Score: 60.00
ROOT
ATOM      1  C   UNL     1     -15.166 -21.701  23.916  1.00  0.00    -0.070 C 
ATOM      2  C   UNL     1     -14.493 -21.861  25.079  1.00  0.00    -0.027 C 
ATOM      3  C   UNL     1     -16.199 -20.606  23.839  1.00  0.00     0.039 C 
ENDROOT
BRANCH   2   4
ATOM      4  C   UNL     1     -13.333 -22.802  25.283  1.00  0.00     0.032 C 
BRANCH   4   5
ATOM      5  C   UNL     1     -12.012 -22.042  25.117  1.00  0.00     0.034 C 
BRANCH   5   6
ATOM      6  C   UNL     1     -11.109 -22.670  24.074  1.00  0.00    -0.077 C 
ATOM      7  C   UNL     1     -10.155 -23.757  24.504  1.00  0.00     0.039 C 
ATOM      8  C   UNL     1     -11.055 -22.259  22.782  1.00  0.00    -0.023 CG0
ATOM      9  G   UNL     1     -11.945 -21.233  22.103  1.00  0.00     0.000 G0
ENDBRANCH   5   6
ENDBRANCH   4   5
ENDBRANCH   2   4
BRANCH   1  10
ATOM     10  C   UNL     1     -14.948 -22.577  22.699  1.00  0.00     0.111 C 
BRANCH  10  11
ATOM     11  C   UNL     1     -14.414 -21.790  21.527  1.00  0.00     0.163 C 
ATOM     12  O   UNL     1     -15.248 -21.116  20.861  1.00  0.00    -0.294 OA
BRANCH  11  13
ATOM     13  C   UNL     1     -12.973 -21.789  21.107  1.00  0.00    -0.002 C 
ATOM     14  C   UNL     1     -12.586 -22.407  19.949  1.00  0.00    -0.069 C 
ATOM     15  C   UNL     1     -13.597 -22.859  18.919  1.00  0.00     0.039 C 
ATOM     16  C   UNL     1     -11.130 -22.631  19.607  1.00  0.00     0.039 C 
BRANCH  13  17
ATOM     17  C   UNL     1     -11.945 -21.244  22.092  1.00  0.00     0.066 CG0
ATOM     18  G   UNL     1     -11.050 -22.266  22.770  1.00  0.00     0.000 G0
ENDBRANCH  13  17
ENDBRANCH  11  13
ENDBRANCH  10  11
ENDBRANCH   1  10
TORSDOF 0
ENDMDL
MODEL 7
REMARK VINA RESULT:    -3.795      2.542      4.529
REMARK INTER + INTRA:          -5.476
REMARK INTER:                  -5.303
REMARK INTRA:                  -0.173
REMARK UNBOUND:                -0.128
REMARK SMILES CC1=CCC(=C(C)C)C(=O)CC(C)=CCC1
REMARK SMILES IDX 12 1 14 2 13 3 15 4 16 5 2 6 1 7 3 8 11 10 9 11 10 12 5 13
REMARK SMILES IDX 6 14 7 15 8 16 4 17
REMARK H PARENT
REMARK Flexibility Score: 60.00
ROOT
ATOM      1  C   UNL     1      -9.431 -24.153  23.385  1.00  0.00    -0.070 C 
ATOM      2  C   UNL     1      -8.788 -23.509  22.384  1.00  0.00    -0.027 C 
ATOM      3  C   UNL     1      -8.940 -25.522  23.779  1.00  0.00     0.039 C 
ENDROOT
BRANCH   2   4
ATOM      4  C   UNL     1      -9.051 -22.085  21.964  1.00  0.00     0.032 C 
BRANCH   4   5
ATOM      5  C   UNL     1      -9.994 -22.066  20.756  1.00  0.00     0.034 C 
BRANCH   5   6
ATOM      6  C   UNL     1     -11.000 -20.934  20.824  1.00  0.00    -0.077 C 
ATOM      7  C   UNL     1     -10.540 -19.537  20.486  1.00  0.00     0.039 C 
ATOM      8  C   UNL     1     -12.280 -21.091  21.245  1.00  0.00    -0.023 CG0
ATOM      9  G   UNL     1     -12.987 -22.392  21.582  1.00  0.00     0.000 G0
ENDBRANCH   5   6
ENDBRANCH   4   5
ENDBRANCH   2   4
BRANCH   1  10
ATOM     10  C   UNL     1     -10.629 -23.576  24.113  1.00  0.00     0.111 C 
BRANCH  10  11
ATOM     11  C   UNL     1     -11.924 -23.892  23.404  1.00  0.00     0.163 C 
ATOM     12  O   UNL     1     -12.127 -25.097  23.089  1.00  0.00    -0.294 OA
BRANCH  11  13
ATOM     13  C   UNL     1     -12.951 -22.859  23.040  1.00  0.00    -0.002 C 
ATOM     14  C   UNL     1     -13.898 -22.471  23.948  1.00  0.00    -0.069 C 
ATOM     15  C   UNL     1     -13.788 -22.839  25.411  1.00  0.00     0.039 C 
ATOM     16  C   UNL     1     -15.082 -21.614  23.556  1.00  0.00     0.039 C 
BRANCH  13  17
ATOM     17  C   UNL     1     -13.013 -22.397  21.588  1.00  0.00     0.066 CG0
ATOM     18  G   UNL     1     -12.285 -21.107  21.257  1.00  0.00     0.000 G0
ENDBRANCH  13  17
ENDBRANCH  11  13
ENDBRANCH  10  11
ENDBRANCH   1  10
TORSDOF 0
ENDMDL
MODEL 8
REMARK VINA RESULT:    -3.788      2.176      4.345
REMARK INTER + INTRA:          -5.466
REMARK INTER:                  -5.311
REMARK INTRA:                  -0.155
REMARK UNBOUND:                -0.128
REMARK SMILES CC1=CCC(=C(C)C)C(=O)CC(C)=CCC1
REMARK SMILES IDX 12 1 14 2 13 3 15 4 16 5 2 6 1 7 3 8 11 10 9 11 10 12 5 13
REMARK SMILES IDX 6 14 7 15 8 16 4 17
REMARK H PARENT
REMARK Flexibility Score: 60.00
ROOT
ATOM      1  C   UNL     1     -12.106 -21.971  19.832  1.00  0.00    -0.070 C 
ATOM      2  C   UNL     1     -13.308 -22.519  20.123  1.00  0.00    -0.027 C 
ATOM      3  C   UNL     1     -11.228 -22.677  18.830  1.00  0.00     0.039 C 
ENDROOT
BRANCH   2   4
ATOM      4  C   UNL     1     -14.365 -21.876  20.983  1.00  0.00     0.032 C 
BRANCH   4   5
ATOM      5  C   UNL     1     -14.243 -22.385  22.424  1.00  0.00     0.034 C 
BRANCH   5   6
ATOM      6  C   UNL     1     -14.398 -21.275  23.445  1.00  0.00    -0.077 C 
ATOM      7  C   UNL     1     -15.777 -20.725  23.710  1.00  0.00     0.039 C 
ATOM      8  C   UNL     1     -13.353 -20.694  24.087  1.00  0.00    -0.023 CG0
ATOM      9  G   UNL     1     -11.893 -21.105  24.032  1.00  0.00     0.000 G0
ENDBRANCH   5   6
ENDBRANCH   4   5
ENDBRANCH   2   4
BRANCH   1  10
ATOM     10  C   UNL     1     -11.591 -20.699  20.476  1.00  0.00     0.111 C 
BRANCH  10  11
ATOM     11  C   UNL     1     -10.760 -20.987  21.703  1.00  0.00     0.163 C 
ATOM     12  O   UNL     1      -9.829 -21.829  21.582  1.00  0.00    -0.294 OA
BRANCH  11  13
ATOM     13  C   UNL     1     -10.999 -20.350  23.042  1.00  0.00    -0.002 C 
ATOM     14  C   UNL     1     -10.313 -19.224  23.408  1.00  0.00    -0.069 C 
ATOM     15  C   UNL     1      -9.516 -18.423  22.403  1.00  0.00     0.039 C 
ATOM     16  C   UNL     1     -10.350 -18.687  24.822  1.00  0.00     0.039 C 
BRANCH  13  17
ATOM     17  C   UNL     1     -11.885 -21.093  24.036  1.00  0.00     0.066 CG0
ATOM     18  G   UNL     1     -13.347 -20.685  24.077  1.00  0.00     0.000 G0
ENDBRANCH  13  17
ENDBRANCH  11  13
ENDBRANCH  10  11
ENDBRANCH   1  10
TORSDOF 0
ENDMDL
MODEL 9
REMARK VINA RESULT:    -3.711      2.012      4.201
REMARK INTER + INTRA:          -5.358
REMARK INTER:                  -5.260
REMARK INTRA:                  -0.099
REMARK UNBOUND:                -0.128
REMARK SMILES CC1=CCC(=C(C)C)C(=O)CC(C)=CCC1
REMARK SMILES IDX 12 1 14 2 13 3 15 4 16 5 2 6 1 7 3 8 11 10 9 11 10 12 5 13
REMARK SMILES IDX 6 14 7 15 8 16 4 17
REMARK H PARENT
REMARK Flexibility Score: 60.00
ROOT
ATOM      1  C   UNL     1     -14.902 -21.379  21.931  1.00  0.00    -0.070 C 
ATOM      2  C   UNL     1     -15.252 -22.029  23.065  1.00  0.00    -0.027 C 
ATOM      3  C   UNL     1     -15.985 -21.054  20.935  1.00  0.00     0.039 C 
ENDROOT
BRANCH   2   4
ATOM      4  C   UNL     1     -14.329 -22.300  24.225  1.00  0.00     0.032 C 
BRANCH   4   5
ATOM      5  C   UNL     1     -13.625 -23.647  24.025  1.00  0.00     0.034 C 
BRANCH   5   6
ATOM      6  C   UNL     1     -12.151 -23.587  24.372  1.00  0.00    -0.077 C 
ATOM      7  C   UNL     1     -11.755 -23.417  25.818  1.00  0.00     0.039 C 
ATOM      8  C   UNL     1     -11.160 -23.603  23.445  1.00  0.00    -0.023 CG0
ATOM      9  G   UNL     1     -11.300 -23.820  21.949  1.00  0.00     0.000 G0
ENDBRANCH   5   6
ENDBRANCH   4   5
ENDBRANCH   2   4
BRANCH   1  10
ATOM     10  C   UNL     1     -13.476 -20.981  21.605  1.00  0.00     0.111 C 
BRANCH  10  11
ATOM     11  C   UNL     1     -12.776 -22.028  20.772  1.00  0.00     0.163 C 
ATOM     12  O   UNL     1     -13.403 -22.482  19.776  1.00  0.00    -0.294 OA
BRANCH  11  13
ATOM     13  C   UNL     1     -11.408 -22.563  21.080  1.00  0.00    -0.002 C 
ATOM     14  C   UNL     1     -10.302 -22.036  20.469  1.00  0.00    -0.069 C 
ATOM     15  C   UNL     1     -10.370 -20.738  19.696  1.00  0.00     0.039 C 
ATOM     16  C   UNL     1      -8.942 -22.690  20.572  1.00  0.00     0.039 C 
BRANCH  13  17
ATOM     17  C   UNL     1     -11.311 -23.816  21.944  1.00  0.00     0.066 CG0
ATOM     18  G   UNL     1     -11.138 -23.596  23.437  1.00  0.00     0.000 G0
ENDBRANCH  13  17
ENDBRANCH  11  13
ENDBRANCH  10  11
ENDBRANCH   1  10
TORSDOF 0
ENDMDL
